MODEL 1
REMARK VINA RESULT:     -10.0      0.000      0.000
REMARK SMILES C[C@@H]1[C@@H](C(=O)OCCOCCOC(=O)c2ccc(-c3c4nc(c(-c5ccccc5)c5ccc([nH]5)c(-c5ccccc5)c5nc(c(-c6ccccc6)c6ccc3[nH]6)C=C5)C=C4)cc2)CCN1C(=O)CN1C(=O)CNC1=O
REMARK SMILES IDX 8 1 7 2 6 3 4 4 5 5 3 6 1 7 2 8 65 9 63 10 64 11 66 12 67 13
REMARK SMILES IDX 68 14 69 15 70 16 74 17 71 18 72 19 73 20 75 21 9 23 10 24
REMARK SMILES IDX 11 25 12 26 13 27 14 28 15 29 16 30 62 31 17 32 61 33 18 34
REMARK SMILES IDX 19 35 20 36 55 37 21 38 60 39 54 40 56 41 22 42 59 43 53 44
REMARK SMILES IDX 52 45 23 47 45 48 30 49 44 50 31 51 34 52 43 53 57 54 32 55
REMARK SMILES IDX 33 56 42 58 58 59 35 60 24 61 25 62 29 63 26 64 28 65 27 66
REMARK SMILES IDX 46 67 47 68 51 69 48 70 50 71 49 72 36 73 37 74 41 75 38 76
REMARK SMILES IDX 40 77 39 78
REMARK H PARENT 73 22 56 46 34 57
REMARK Flexibility Score: inf
ROOT
ATOM      1  C   UNL A   1      35.303  33.203  28.222  1.00  0.00     0.202 C 
ENDROOT
BRANCH   1   2
ATOM      2  C   UNL A   1      35.316  31.682  28.026  1.00  0.00     0.261 C 
BRANCH   2   3
ATOM      3  O   UNL A   1      34.200  31.170  27.283  1.00  0.00    -0.463 OA
BRANCH   3   4
ATOM      4  C   UNL A   1      34.149  29.807  27.252  1.00  0.00     0.311 C 
ATOM      5  O   UNL A   1      35.137  29.089  27.174  1.00  0.00    -0.252 OA
BRANCH   4   6
ATOM      6  C   UNL A   1      32.705  29.307  27.304  1.00  0.00     0.123 C 
ATOM      7  C   UNL A   1      31.309  27.179  26.858  1.00  0.00     0.032 C 
ATOM      8  C   UNL A   1      32.592  27.961  26.580  1.00  0.00     0.096 C 
ATOM      9  N   UNL A   1      32.683  28.354  25.178  1.00  0.00    -0.338 N 
ATOM     10  C   UNL A   1      31.833  30.202  26.430  1.00  0.00     0.039 C 
ATOM     11  C   UNL A   1      32.152  29.710  25.009  1.00  0.00     0.121 C 
BRANCH   9  12
ATOM     12  C   UNL A   1      33.623  27.841  24.283  1.00  0.00     0.243 C 
ATOM     13  O   UNL A   1      34.164  28.563  23.442  1.00  0.00    -0.273 OA
BRANCH  12  14
ATOM     14  C   UNL A   1      33.970  26.335  24.371  1.00  0.00     0.230 C 
BRANCH  14  15
ATOM     15  N   UNL A   1      33.081  25.412  23.676  1.00  0.00    -0.253 N 
ATOM     16  C   UNL A   1      32.414  24.385  24.291  1.00  0.00     0.250 C 
ATOM     17  C   UNL A   1      32.964  25.272  22.324  1.00  0.00     0.325 C 
ATOM     18  O   UNL A   1      32.432  24.105  25.483  1.00  0.00    -0.272 OA
ATOM     19  C   UNL A   1      31.717  23.543  23.231  1.00  0.00     0.218 C 
ATOM     20  N   UNL A   1      32.082  24.257  22.050  1.00  0.00    -0.329 N 
ATOM     21  O   UNL A   1      33.586  25.830  21.435  1.00  0.00    -0.248 OA
ATOM     22  H   UNL A   1      31.741  24.047  21.151  1.00  0.00     0.165 HD
ENDBRANCH  14  15
ENDBRANCH  12  14
ENDBRANCH   9  12
ENDBRANCH   4   6
ENDBRANCH   3   4
ENDBRANCH   2   3
ENDBRANCH   1   2
BRANCH   1  23
ATOM     23  O   UNL A   1      34.281  33.802  29.005  1.00  0.00    -0.374 OA
BRANCH  23  24
ATOM     24  C   UNL A   1      33.808  35.102  28.654  1.00  0.00     0.202 C 
BRANCH  24  25
ATOM     25  C   UNL A   1      33.050  35.935  29.696  1.00  0.00     0.261 C 
BRANCH  25  26
ATOM     26  O   UNL A   1      32.502  35.162  30.779  1.00  0.00    -0.460 OA
BRANCH  26  27
ATOM     27  C   UNL A   1      32.750  35.672  32.012  1.00  0.00     0.338 C 
ATOM     28  O   UNL A   1      32.071  36.463  32.640  1.00  0.00    -0.246 OA
BRANCH  27  29
ATOM     29  C   UNL A   1      33.914  34.996  32.611  1.00  0.00     0.060 A 
ATOM     30  C   UNL A   1      35.166  35.609  32.481  1.00  0.00     0.016 A 
ATOM     31  C   UNL A   1      33.794  33.729  33.181  1.00  0.00     0.016 A 
ATOM     32  C   UNL A   1      36.315  34.939  32.891  1.00  0.00     0.010 A 
ATOM     33  C   UNL A   1      34.950  33.053  33.583  1.00  0.00     0.010 A 
ATOM     34  C   UNL A   1      36.216  33.642  33.409  1.00  0.00    -0.014 A 
BRANCH  34  35
ATOM     35  C   UNL A   1      37.449  32.849  33.636  1.00  0.00     0.031 A 
ATOM     36  C   UNL A   1      38.229  33.057  34.904  1.00  0.00     0.074 A 
ATOM     37  C   UNL A   1      37.848  31.935  32.736  1.00  0.00     0.049 A 
ATOM     38  N   UNL A   1      39.350  32.500  35.288  1.00  0.00    -0.248 NA
ATOM     39  C   UNL A   1      37.676  34.023  35.866  1.00  0.00     0.031 C 
ATOM     40  C   UNL A   1      37.147  31.605  31.495  1.00  0.00     0.029 A 
ATOM     41  N   UNL A   1      38.949  31.115  32.730  1.00  0.00    -0.354 N 
ATOM     42  C   UNL A   1      39.640  33.055  36.528  1.00  0.00     0.074 A 
ATOM     43  C   UNL A   1      38.597  34.014  36.818  1.00  0.00     0.031 C 
ATOM     44  C   UNL A   1      37.840  30.655  30.845  1.00  0.00     0.029 A 
ATOM     45  C   UNL A   1      39.049  30.339  31.603  1.00  0.00     0.049 A 
ATOM     46  H   UNL A   1      39.604  31.088  33.465  1.00  0.00     0.167 HD
ATOM     47  C   UNL A   1      40.681  32.786  37.353  1.00  0.00     0.031 A 
ATOM     48  C   UNL A   1      40.018  29.488  31.216  1.00  0.00     0.031 A 
ATOM     49  C   UNL A   1      41.725  31.842  37.055  1.00  0.00     0.049 A 
ATOM     50  C   UNL A   1      41.209  29.272  32.112  1.00  0.00     0.074 A 
ATOM     51  C   UNL A   1      42.814  31.488  37.832  1.00  0.00     0.029 A 
ATOM     52  N   UNL A   1      41.814  31.109  35.882  1.00  0.00    -0.354 N 
ATOM     53  N   UNL A   1      41.461  29.784  33.292  1.00  0.00    -0.248 NA
ATOM     54  C   UNL A   1      42.245  28.351  31.622  1.00  0.00     0.031 C 
ATOM     55  C   UNL A   1      43.598  30.590  37.101  1.00  0.00     0.029 A 
ATOM     56  C   UNL A   1      42.957  30.327  35.900  1.00  0.00     0.049 A 
ATOM     57  H   UNL A   1      41.161  31.139  35.146  1.00  0.00     0.167 HD
ATOM     58  C   UNL A   1      42.666  29.224  33.700  1.00  0.00     0.074 A 
ATOM     59  C   UNL A   1      43.084  28.321  32.648  1.00  0.00     0.031 C 
ATOM     60  C   UNL A   1      43.361  29.434  34.844  1.00  0.00     0.031 A 
BRANCH  47  61
ATOM     61  C   UNL A   1      40.761  33.558  38.642  1.00  0.00    -0.014 A 
ATOM     62  C   UNL A   1      41.413  34.798  38.716  1.00  0.00     0.009 A 
ATOM     63  C   UNL A   1      40.139  33.050  39.795  1.00  0.00     0.009 A 
ATOM     64  C   UNL A   1      41.472  35.496  39.925  1.00  0.00     0.001 A 
ATOM     65  C   UNL A   1      40.173  33.764  40.993  1.00  0.00     0.001 A 
ATOM     66  C   UNL A   1      40.849  34.982  41.060  1.00  0.00     0.000 A 
ENDBRANCH  47  61
BRANCH  48  67
ATOM     67  C   UNL A   1      39.919  28.790  29.907  1.00  0.00    -0.014 A 
ATOM     68  C   UNL A   1      39.404  27.487  29.824  1.00  0.00     0.009 A 
ATOM     69  C   UNL A   1      40.363  29.418  28.731  1.00  0.00     0.009 A 
ATOM     70  C   UNL A   1      39.362  26.818  28.599  1.00  0.00     0.001 A 
ATOM     71  C   UNL A   1      40.290  28.759  27.502  1.00  0.00     0.001 A 
ATOM     72  C   UNL A   1      39.801  27.456  27.439  1.00  0.00     0.000 A 
ENDBRANCH  48  67
BRANCH  60  73
ATOM     73  C   UNL A   1      44.626  28.643  35.040  1.00  0.00    -0.014 A 
ATOM     74  C   UNL A   1      45.873  29.133  34.620  1.00  0.00     0.009 A 
ATOM     75  C   UNL A   1      44.570  27.400  35.692  1.00  0.00     0.009 A 
ATOM     76  C   UNL A   1      47.031  28.378  34.817  1.00  0.00     0.001 A 
ATOM     77  C   UNL A   1      45.733  26.663  35.916  1.00  0.00     0.001 A 
ATOM     78  C   UNL A   1      46.962  27.147  35.470  1.00  0.00     0.000 A 
ENDBRANCH  60  73
ENDBRANCH  34  35
ENDBRANCH  27  29
ENDBRANCH  26  27
ENDBRANCH  25  26
ENDBRANCH  24  25
ENDBRANCH  23  24
ENDBRANCH   1  23
TORSDOF 17
ENDMDL
MODEL 2
REMARK VINA RESULT:      -9.9      2.580      7.353
REMARK SMILES C[C@@H]1[C@@H](C(=O)OCCOCCOC(=O)c2ccc(-c3c4nc(c(-c5ccccc5)c5ccc([nH]5)c(-c5ccccc5)c5nc(c(-c6ccccc6)c6ccc3[nH]6)C=C5)C=C4)cc2)CCN1C(=O)CN1C(=O)CNC1=O
REMARK SMILES IDX 8 1 7 2 6 3 4 4 5 5 3 6 1 7 2 8 65 9 63 10 64 11 66 12 67 13
REMARK SMILES IDX 68 14 69 15 70 16 74 17 71 18 72 19 73 20 75 21 9 23 10 24
REMARK SMILES IDX 11 25 12 26 13 27 14 28 15 29 16 30 62 31 17 32 61 33 18 34
REMARK SMILES IDX 19 35 20 36 55 37 21 38 60 39 54 40 56 41 22 42 59 43 53 44
REMARK SMILES IDX 52 45 23 47 45 48 30 49 44 50 31 51 34 52 43 53 57 54 32 55
REMARK SMILES IDX 33 56 42 58 58 59 35 60 24 61 25 62 29 63 26 64 28 65 27 66
REMARK SMILES IDX 46 67 47 68 51 69 48 70 50 71 49 72 36 73 37 74 41 75 38 76
REMARK SMILES IDX 40 77 39 78
REMARK H PARENT 73 22 56 46 34 57
REMARK Flexibility Score: inf
ROOT
ATOM      1  C   UNL A   1      32.437  28.012  23.306  1.00  0.00     0.202 C 
ENDROOT
BRANCH   1   2
ATOM      2  C   UNL A   1      33.597  27.466  24.147  1.00  0.00     0.261 C 
BRANCH   2   3
ATOM      3  O   UNL A   1      33.792  26.048  24.039  1.00  0.00    -0.463 OA
BRANCH   3   4
ATOM      4  C   UNL A   1      34.191  25.466  25.207  1.00  0.00     0.311 C 
ATOM      5  O   UNL A   1      33.673  25.692  26.293  1.00  0.00    -0.252 OA
BRANCH   4   6
ATOM      6  C   UNL A   1      35.375  24.526  24.979  1.00  0.00     0.123 C 
ATOM      7  C   UNL A   1      36.312  22.882  23.220  1.00  0.00     0.032 C 
ATOM      8  C   UNL A   1      35.093  23.612  23.782  1.00  0.00     0.096 C 
ATOM      9  N   UNL A   1      34.117  22.676  24.328  1.00  0.00    -0.338 N 
ATOM     10  C   UNL A   1      35.445  23.522  26.125  1.00  0.00     0.039 C 
ATOM     11  C   UNL A   1      34.337  22.518  25.769  1.00  0.00     0.121 C 
BRANCH   9  12
ATOM     12  C   UNL A   1      32.858  22.446  23.770  1.00  0.00     0.243 C 
ATOM     13  O   UNL A   1      32.727  22.212  22.567  1.00  0.00    -0.273 OA
BRANCH  12  14
ATOM     14  C   UNL A   1      31.626  22.492  24.705  1.00  0.00     0.230 C 
BRANCH  14  15
ATOM     15  N   UNL A   1      31.036  23.802  24.954  1.00  0.00    -0.253 N 
ATOM     16  C   UNL A   1      30.625  24.232  26.188  1.00  0.00     0.250 C 
ATOM     17  C   UNL A   1      30.592  24.677  24.006  1.00  0.00     0.325 C 
ATOM     18  O   UNL A   1      30.708  23.622  27.246  1.00  0.00    -0.272 OA
ATOM     19  C   UNL A   1      29.918  25.572  26.034  1.00  0.00     0.218 C 
ATOM     20  N   UNL A   1      30.038  25.770  24.626  1.00  0.00    -0.329 N 
ATOM     21  O   UNL A   1      30.547  24.544  22.794  1.00  0.00    -0.248 OA
ATOM     22  H   UNL A   1      29.759  26.590  24.157  1.00  0.00     0.165 HD
ENDBRANCH  14  15
ENDBRANCH  12  14
ENDBRANCH   9  12
ENDBRANCH   4   6
ENDBRANCH   3   4
ENDBRANCH   2   3
ENDBRANCH   1   2
BRANCH   1  23
ATOM     23  O   UNL A   1      31.324  28.616  23.951  1.00  0.00    -0.374 OA
BRANCH  23  24
ATOM     24  C   UNL A   1      31.429  28.971  25.329  1.00  0.00     0.202 C 
BRANCH  24  25
ATOM     25  C   UNL A   1      31.786  30.414  25.711  1.00  0.00     0.261 C 
BRANCH  25  26
ATOM     26  O   UNL A   1      32.270  30.561  27.057  1.00  0.00    -0.460 OA
BRANCH  26  27
ATOM     27  C   UNL A   1      33.020  31.674  27.264  1.00  0.00     0.338 C 
ATOM     28  O   UNL A   1      32.655  32.834  27.228  1.00  0.00    -0.246 OA
BRANCH  27  29
ATOM     29  C   UNL A   1      34.366  31.293  27.728  1.00  0.00     0.060 A 
ATOM     30  C   UNL A   1      34.607  29.941  28.000  1.00  0.00     0.016 A 
ATOM     31  C   UNL A   1      35.331  32.261  28.005  1.00  0.00     0.016 A 
ATOM     32  C   UNL A   1      35.808  29.552  28.586  1.00  0.00     0.010 A 
ATOM     33  C   UNL A   1      36.532  31.870  28.603  1.00  0.00     0.010 A 
ATOM     34  C   UNL A   1      36.761  30.519  28.927  1.00  0.00    -0.014 A 
BRANCH  34  35
ATOM     35  C   UNL A   1      37.934  30.134  29.747  1.00  0.00     0.031 A 
ATOM     36  C   UNL A   1      38.990  29.250  29.144  1.00  0.00     0.074 A 
ATOM     37  C   UNL A   1      38.069  30.591  31.003  1.00  0.00     0.049 A 
ATOM     38  N   UNL A   1      40.075  28.763  29.691  1.00  0.00    -0.248 NA
ATOM     39  C   UNL A   1      38.797  28.860  27.738  1.00  0.00     0.031 C 
ATOM     40  C   UNL A   1      37.140  31.495  31.680  1.00  0.00     0.029 A 
ATOM     41  N   UNL A   1      39.047  30.351  31.936  1.00  0.00    -0.354 N 
ATOM     42  C   UNL A   1      40.686  28.002  28.702  1.00  0.00     0.074 A 
ATOM     43  C   UNL A   1      39.838  28.066  27.532  1.00  0.00     0.031 C 
ATOM     44  C   UNL A   1      37.591  31.730  32.924  1.00  0.00     0.029 A 
ATOM     45  C   UNL A   1      38.816  30.964  33.142  1.00  0.00     0.049 A 
ATOM     46  H   UNL A   1      39.838  29.793  31.756  1.00  0.00     0.167 HD
ATOM     47  C   UNL A   1      41.853  27.316  28.762  1.00  0.00     0.031 A 
ATOM     48  C   UNL A   1      39.502  30.894  34.298  1.00  0.00     0.031 A 
ATOM     49  C   UNL A   1      42.688  27.243  29.931  1.00  0.00     0.049 A 
ATOM     50  C   UNL A   1      40.750  30.053  34.364  1.00  0.00     0.074 A 
ATOM     51  C   UNL A   1      43.896  26.586  30.087  1.00  0.00     0.029 A 
ATOM     52  N   UNL A   1      42.396  27.841  31.147  1.00  0.00    -0.354 N 
ATOM     53  N   UNL A   1      41.331  29.358  33.417  1.00  0.00    -0.248 NA
ATOM     54  C   UNL A   1      41.441  29.998  35.661  1.00  0.00     0.031 C 
ATOM     55  C   UNL A   1      44.302  26.731  31.418  1.00  0.00     0.029 A 
ATOM     56  C   UNL A   1      43.385  27.541  32.069  1.00  0.00     0.049 A 
ATOM     57  H   UNL A   1      41.604  28.396  31.328  1.00  0.00     0.167 HD
ATOM     58  C   UNL A   1      42.471  28.809  33.993  1.00  0.00     0.074 A 
ATOM     59  C   UNL A   1      42.507  29.267  35.366  1.00  0.00     0.031 C 
ATOM     60  C   UNL A   1      43.406  28.003  33.434  1.00  0.00     0.031 A 
BRANCH  47  61
ATOM     61  C   UNL A   1      42.273  26.554  27.534  1.00  0.00    -0.014 A 
ATOM     62  C   UNL A   1      43.102  27.132  26.559  1.00  0.00     0.009 A 
ATOM     63  C   UNL A   1      41.861  25.222  27.369  1.00  0.00     0.009 A 
ATOM     64  C   UNL A   1      43.479  26.402  25.429  1.00  0.00     0.001 A 
ATOM     65  C   UNL A   1      42.265  24.486  26.255  1.00  0.00     0.001 A 
ATOM     66  C   UNL A   1      43.065  25.080  25.280  1.00  0.00     0.000 A 
ENDBRANCH  47  61
BRANCH  48  67
ATOM     67  C   UNL A   1      39.017  31.623  35.500  1.00  0.00    -0.014 A 
ATOM     68  C   UNL A   1      38.153  31.002  36.416  1.00  0.00     0.009 A 
ATOM     69  C   UNL A   1      39.399  32.955  35.726  1.00  0.00     0.009 A 
ATOM     70  C   UNL A   1      37.659  31.710  37.515  1.00  0.00     0.001 A 
ATOM     71  C   UNL A   1      38.931  33.649  36.843  1.00  0.00     0.001 A 
ATOM     72  C   UNL A   1      38.052  33.030  37.730  1.00  0.00     0.000 A 
ENDBRANCH  48  67
BRANCH  60  73
ATOM     73  C   UNL A   1      44.572  27.597  34.295  1.00  0.00    -0.014 A 
ATOM     74  C   UNL A   1      45.730  28.385  34.384  1.00  0.00     0.009 A 
ATOM     75  C   UNL A   1      44.491  26.421  35.059  1.00  0.00     0.009 A 
ATOM     76  C   UNL A   1      46.796  27.986  35.193  1.00  0.00     0.001 A 
ATOM     77  C   UNL A   1      45.544  26.042  35.892  1.00  0.00     0.001 A 
ATOM     78  C   UNL A   1      46.700  26.818  35.950  1.00  0.00     0.000 A 
ENDBRANCH  60  73
ENDBRANCH  34  35
ENDBRANCH  27  29
ENDBRANCH  26  27
ENDBRANCH  25  26
ENDBRANCH  24  25
ENDBRANCH  23  24
ENDBRANCH   1  23
TORSDOF 17
ENDMDL
MODEL 3
REMARK VINA RESULT:      -9.7      5.599     10.153
REMARK SMILES C[C@@H]1[C@@H](C(=O)OCCOCCOC(=O)c2ccc(-c3c4nc(c(-c5ccccc5)c5ccc([nH]5)c(-c5ccccc5)c5nc(c(-c6ccccc6)c6ccc3[nH]6)C=C5)C=C4)cc2)CCN1C(=O)CN1C(=O)CNC1=O
REMARK SMILES IDX 8 1 7 2 6 3 4 4 5 5 3 6 1 7 2 8 65 9 63 10 64 11 66 12 67 13
REMARK SMILES IDX 68 14 69 15 70 16 74 17 71 18 72 19 73 20 75 21 9 23 10 24
REMARK SMILES IDX 11 25 12 26 13 27 14 28 15 29 16 30 62 31 17 32 61 33 18 34
REMARK SMILES IDX 19 35 20 36 55 37 21 38 60 39 54 40 56 41 22 42 59 43 53 44
REMARK SMILES IDX 52 45 23 47 45 48 30 49 44 50 31 51 34 52 43 53 57 54 32 55
REMARK SMILES IDX 33 56 42 58 58 59 35 60 24 61 25 62 29 63 26 64 28 65 27 66
REMARK SMILES IDX 46 67 47 68 51 69 48 70 50 71 49 72 36 73 37 74 41 75 38 76
REMARK SMILES IDX 40 77 39 78
REMARK H PARENT 73 22 56 46 34 57
REMARK Flexibility Score: inf
ROOT
ATOM      1  C   UNL A   1      37.108  22.122  25.522  1.00  0.00     0.202 C 
ENDROOT
BRANCH   1   2
ATOM      2  C   UNL A   1      36.685  23.547  25.146  1.00  0.00     0.261 C 
BRANCH   2   3
ATOM      3  O   UNL A   1      35.272  23.785  25.216  1.00  0.00    -0.463 OA
BRANCH   3   4
ATOM      4  C   UNL A   1      34.711  24.082  24.008  1.00  0.00     0.311 C 
ATOM      5  O   UNL A   1      34.763  23.345  23.033  1.00  0.00    -0.252 OA
BRANCH   4   6
ATOM      6  C   UNL A   1      34.040  25.456  24.033  1.00  0.00     0.123 C 
ATOM      7  C   UNL A   1      32.920  27.104  25.678  1.00  0.00     0.032 C 
ATOM      8  C   UNL A   1      33.321  25.662  25.371  1.00  0.00     0.096 C 
ATOM      9  N   UNL A   1      32.152  24.802  25.231  1.00  0.00    -0.338 N 
ATOM     10  C   UNL A   1      32.873  25.462  23.051  1.00  0.00     0.039 C 
ATOM     11  C   UNL A   1      31.777  24.703  23.817  1.00  0.00     0.121 C 
BRANCH   9  12
ATOM     12  C   UNL A   1      31.817  23.787  26.129  1.00  0.00     0.243 C 
ATOM     13  O   UNL A   1      31.763  24.001  27.343  1.00  0.00    -0.273 OA
BRANCH  12  14
ATOM     14  C   UNL A   1      31.513  22.381  25.561  1.00  0.00     0.230 C 
BRANCH  14  15
ATOM     15  N   UNL A   1      32.650  21.488  25.366  1.00  0.00    -0.253 N 
ATOM     16  C   UNL A   1      32.854  20.749  24.231  1.00  0.00     0.250 C 
ATOM     17  C   UNL A   1      33.522  21.074  26.330  1.00  0.00     0.325 C 
ATOM     18  O   UNL A   1      32.159  20.740  23.223  1.00  0.00    -0.272 OA
ATOM     19  C   UNL A   1      34.042  19.822  24.451  1.00  0.00     0.218 C 
ATOM     20  N   UNL A   1      34.413  20.186  25.781  1.00  0.00    -0.329 N 
ATOM     21  O   UNL A   1      33.516  21.310  27.527  1.00  0.00    -0.248 OA
ATOM     22  H   UNL A   1      35.210  19.842  26.246  1.00  0.00     0.165 HD
ENDBRANCH  14  15
ENDBRANCH  12  14
ENDBRANCH   9  12
ENDBRANCH   4   6
ENDBRANCH   3   4
ENDBRANCH   2   3
ENDBRANCH   1   2
BRANCH   1  23
ATOM     23  O   UNL A   1      37.782  21.314  24.568  1.00  0.00    -0.374 OA
BRANCH  23  24
ATOM     24  C   UNL A   1      38.048  19.947  24.879  1.00  0.00     0.202 C 
BRANCH  24  25
ATOM     25  C   UNL A   1      39.141  19.606  25.901  1.00  0.00     0.261 C 
BRANCH  25  26
ATOM     26  O   UNL A   1      40.427  19.336  25.316  1.00  0.00    -0.460 OA
BRANCH  26  27
ATOM     27  C   UNL A   1      41.469  19.442  26.181  1.00  0.00     0.338 C 
ATOM     28  O   UNL A   1      42.319  18.607  26.426  1.00  0.00    -0.246 OA
BRANCH  27  29
ATOM     29  C   UNL A   1      41.557  20.820  26.694  1.00  0.00     0.060 A 
ATOM     30  C   UNL A   1      41.743  21.853  25.768  1.00  0.00     0.016 A 
ATOM     31  C   UNL A   1      41.578  21.076  28.064  1.00  0.00     0.016 A 
ATOM     32  C   UNL A   1      41.988  23.150  26.211  1.00  0.00     0.010 A 
ATOM     33  C   UNL A   1      41.834  22.377  28.508  1.00  0.00     0.010 A 
ATOM     34  C   UNL A   1      42.073  23.411  27.584  1.00  0.00    -0.014 A 
BRANCH  34  35
ATOM     35  C   UNL A   1      42.550  24.736  28.048  1.00  0.00     0.031 A 
ATOM     36  C   UNL A   1      41.549  25.832  28.285  1.00  0.00     0.074 A 
ATOM     37  C   UNL A   1      43.856  24.947  28.283  1.00  0.00     0.049 A 
ATOM     38  N   UNL A   1      41.750  27.071  28.655  1.00  0.00    -0.248 NA
ATOM     39  C   UNL A   1      40.134  25.488  28.075  1.00  0.00     0.031 C 
ATOM     40  C   UNL A   1      44.915  23.948  28.141  1.00  0.00     0.029 A 
ATOM     41  N   UNL A   1      44.513  26.081  28.692  1.00  0.00    -0.354 N 
ATOM     42  C   UNL A   1      40.491  27.656  28.711  1.00  0.00     0.074 A 
ATOM     43  C   UNL A   1      39.537  26.647  28.308  1.00  0.00     0.031 C 
ATOM     44  C   UNL A   1      46.093  24.516  28.453  1.00  0.00     0.029 A 
ATOM     45  C   UNL A   1      45.875  25.924  28.777  1.00  0.00     0.049 A 
ATOM     46  H   UNL A   1      44.053  26.924  28.902  1.00  0.00     0.167 HD
ATOM     47  C   UNL A   1      40.160  28.920  29.071  1.00  0.00     0.031 A 
ATOM     48  C   UNL A   1      46.837  26.822  29.062  1.00  0.00     0.031 A 
ATOM     49  C   UNL A   1      41.113  29.925  29.458  1.00  0.00     0.049 A 
ATOM     50  C   UNL A   1      46.449  28.243  29.374  1.00  0.00     0.074 A 
ATOM     51  C   UNL A   1      40.876  31.230  29.854  1.00  0.00     0.029 A 
ATOM     52  N   UNL A   1      42.486  29.741  29.489  1.00  0.00    -0.354 N 
ATOM     53  N   UNL A   1      45.254  28.778  29.446  1.00  0.00    -0.248 NA
ATOM     54  C   UNL A   1      47.546  29.181  29.651  1.00  0.00     0.031 C 
ATOM     55  C   UNL A   1      42.111  31.855  30.060  1.00  0.00     0.029 A 
ATOM     56  C   UNL A   1      43.112  30.917  29.865  1.00  0.00     0.049 A 
ATOM     57  H   UNL A   1      42.948  28.898  29.274  1.00  0.00     0.167 HD
ATOM     58  C   UNL A   1      45.454  30.106  29.809  1.00  0.00     0.074 A 
ATOM     59  C   UNL A   1      46.883  30.288  29.957  1.00  0.00     0.031 C 
ATOM     60  C   UNL A   1      44.537  31.084  30.007  1.00  0.00     0.031 A 
BRANCH  47  61
ATOM     61  C   UNL A   1      38.704  29.295  29.022  1.00  0.00    -0.014 A 
ATOM     62  C   UNL A   1      38.108  29.772  27.843  1.00  0.00     0.009 A 
ATOM     63  C   UNL A   1      37.906  29.134  30.166  1.00  0.00     0.009 A 
ATOM     64  C   UNL A   1      36.753  30.112  27.823  1.00  0.00     0.001 A 
ATOM     65  C   UNL A   1      36.547  29.446  30.134  1.00  0.00     0.001 A 
ATOM     66  C   UNL A   1      35.973  29.944  28.965  1.00  0.00     0.000 A 
ENDBRANCH  47  61
BRANCH  48  67
ATOM     67  C   UNL A   1      48.267  26.414  29.045  1.00  0.00    -0.014 A 
ATOM     68  C   UNL A   1      49.012  26.457  27.856  1.00  0.00     0.009 A 
ATOM     69  C   UNL A   1      48.889  25.958  30.218  1.00  0.00     0.009 A 
ATOM     70  C   UNL A   1      50.340  26.024  27.837  1.00  0.00     0.001 A 
ATOM     71  C   UNL A   1      50.227  25.557  30.202  1.00  0.00     0.001 A 
ATOM     72  C   UNL A   1      50.947  25.579  29.010  1.00  0.00     0.000 A 
ENDBRANCH  48  67
BRANCH  60  73
ATOM     73  C   UNL A   1      45.046  32.430  30.447  1.00  0.00    -0.014 A 
ATOM     74  C   UNL A   1      45.361  33.436  29.520  1.00  0.00     0.009 A 
ATOM     75  C   UNL A   1      45.175  32.706  31.818  1.00  0.00     0.009 A 
ATOM     76  C   UNL A   1      45.829  34.677  29.957  1.00  0.00     0.001 A 
ATOM     77  C   UNL A   1      45.611  33.958  32.252  1.00  0.00     0.001 A 
ATOM     78  C   UNL A   1      45.948  34.939  31.322  1.00  0.00     0.000 A 
ENDBRANCH  60  73
ENDBRANCH  34  35
ENDBRANCH  27  29
ENDBRANCH  26  27
ENDBRANCH  25  26
ENDBRANCH  24  25
ENDBRANCH  23  24
ENDBRANCH   1  23
TORSDOF 17
ENDMDL
