MODEL 1
REMARK VINA RESULT:      -9.3      0.000      0.000
REMARK SMILES CC[NH2+][C@@]1(C(=O)OCCOCCOC(=O)c2ccc(-c3c4nc(c(-c5ccccc5)c5ccc([nH]5)c(-c5ccccc5)c5nc(c(-c6ccccc6)c6ccc3[nH]6)C=C5)C=C4)cc2)CC[C@@H](SCC2CCCC2)C1
REMARK SMILES IDX 9 1 8 2 7 3 5 4 6 5 4 6 64 7 74 8 65 9 66 10 3 11 2 14 1 15
REMARK SMILES IDX 67 16 68 17 69 18 70 19 73 20 71 21 72 22 10 23 11 24 12 25
REMARK SMILES IDX 13 26 14 27 15 28 16 29 17 30 63 31 18 32 62 33 19 34 20 35
REMARK SMILES IDX 21 36 56 37 22 38 61 39 55 40 57 41 23 42 60 43 54 44 53 45
REMARK SMILES IDX 24 47 46 48 31 49 45 50 32 51 35 52 44 53 58 54 33 55 34 56
REMARK SMILES IDX 43 58 59 59 36 60 25 61 26 62 30 63 27 64 29 65 28 66 47 67
REMARK SMILES IDX 48 68 52 69 49 70 51 71 50 72 37 73 38 74 42 75 39 76 41 77
REMARK SMILES IDX 40 78
REMARK H PARENT 3 12 3 13 57 46 35 57
REMARK Flexibility Score: inf
ROOT
ATOM      1  C   UNL A   1      39.580  21.486  26.292  1.00  0.00     0.202 C 
ENDROOT
BRANCH   1   2
ATOM      2  C   UNL A   1      38.321  21.330  25.436  1.00  0.00     0.261 C 
BRANCH   2   3
ATOM      3  O   UNL A   1      37.135  21.774  26.112  1.00  0.00    -0.459 OA
BRANCH   3   4
ATOM      4  C   UNL A   1      36.738  23.035  25.777  1.00  0.00     0.368 C 
ATOM      5  O   UNL A   1      37.514  23.961  25.558  1.00  0.00    -0.245 OA
BRANCH   4   6
ATOM      6  C   UNL A   1      35.183  23.199  25.727  1.00  0.00     0.195 C 
ATOM      7  C   UNL A   1      34.753  22.308  24.554  1.00  0.00     0.082 C 
ATOM      8  C   UNL A   1      34.645  24.598  25.333  1.00  0.00     0.095 C 
ATOM      9  C   UNL A   1      34.935  23.211  23.332  1.00  0.00     0.022 C 
ATOM     10  C   UNL A   1      34.510  24.601  23.801  1.00  0.00     0.053 C 
BRANCH   6  11
ATOM     11  N   UNL A   1      34.724  22.829  27.083  1.00  0.00    -0.332 N 
ATOM     12  H   UNL A   1      35.522  22.422  27.570  1.00  0.00     0.347 HD
ATOM     13  H   UNL A   1      34.357  23.699  27.467  1.00  0.00     0.347 HD
BRANCH  11  14
ATOM     14  C   UNL A   1      33.623  21.894  27.211  1.00  0.00     0.257 C 
ATOM     15  C   UNL A   1      32.366  22.643  27.634  1.00  0.00     0.071 C 
ENDBRANCH  11  14
ENDBRANCH   6  11
BRANCH  10  16
ATOM     16  S   UNL A   1      32.892  25.194  23.120  1.00  0.00    -0.158 SA
BRANCH  16  17
ATOM     17  C   UNL A   1      31.859  25.550  24.595  1.00  0.00     0.073 C 
BRANCH  17  18
ATOM     18  C   UNL A   1      32.191  26.868  25.283  1.00  0.00    -0.001 C 
ATOM     19  C   UNL A   1      31.311  28.030  24.820  1.00  0.00     0.004 C 
ATOM     20  C   UNL A   1      31.985  26.930  26.794  1.00  0.00     0.004 C 
ATOM     21  C   UNL A   1      31.732  29.142  25.769  1.00  0.00     0.000 C 
ATOM     22  C   UNL A   1      32.030  28.434  27.095  1.00  0.00     0.000 C 
ENDBRANCH  17  18
ENDBRANCH  16  17
ENDBRANCH  10  16
ENDBRANCH   4   6
ENDBRANCH   3   4
ENDBRANCH   2   3
ENDBRANCH   1   2
BRANCH   1  23
ATOM     23  O   UNL A   1      40.572  20.469  26.197  1.00  0.00    -0.374 OA
BRANCH  23  24
ATOM     24  C   UNL A   1      41.883  20.752  26.681  1.00  0.00     0.202 C 
BRANCH  24  25
ATOM     25  C   UNL A   1      42.884  21.364  25.693  1.00  0.00     0.261 C 
BRANCH  25  26
ATOM     26  O   UNL A   1      42.426  22.613  25.141  1.00  0.00    -0.460 OA
BRANCH  26  27
ATOM     27  C   UNL A   1      43.216  23.672  25.438  1.00  0.00     0.338 C 
ATOM     28  O   UNL A   1      44.346  23.895  25.019  1.00  0.00    -0.246 OA
BRANCH  27  29
ATOM     29  C   UNL A   1      42.484  24.677  26.227  1.00  0.00     0.060 A 
ATOM     30  C   UNL A   1      42.850  26.017  26.048  1.00  0.00     0.016 A 
ATOM     31  C   UNL A   1      41.583  24.314  27.230  1.00  0.00     0.016 A 
ATOM     32  C   UNL A   1      42.384  26.989  26.926  1.00  0.00     0.010 A 
ATOM     33  C   UNL A   1      41.121  25.294  28.119  1.00  0.00     0.010 A 
ATOM     34  C   UNL A   1      41.567  26.623  28.004  1.00  0.00    -0.014 A 
BRANCH  34  35
ATOM     35  C   UNL A   1      41.379  27.602  29.102  1.00  0.00     0.031 A 
ATOM     36  C   UNL A   1      40.192  28.530  29.053  1.00  0.00     0.074 A 
ATOM     37  C   UNL A   1      42.183  27.600  30.180  1.00  0.00     0.049 A 
ATOM     38  N   UNL A   1      39.766  29.382  29.951  1.00  0.00    -0.248 NA
ATOM     39  C   UNL A   1      39.369  28.481  27.833  1.00  0.00     0.031 C 
ATOM     40  C   UNL A   1      43.339  26.726  30.372  1.00  0.00     0.029 A 
ATOM     41  N   UNL A   1      42.130  28.350  31.327  1.00  0.00    -0.354 N 
ATOM     42  C   UNL A   1      38.628  29.966  29.407  1.00  0.00     0.074 A 
ATOM     43  C   UNL A   1      38.449  29.399  28.089  1.00  0.00     0.031 C 
ATOM     44  C   UNL A   1      43.882  26.983  31.574  1.00  0.00     0.029 A 
ATOM     45  C   UNL A   1      43.120  28.047  32.228  1.00  0.00     0.049 A 
ATOM     46  H   UNL A   1      41.448  29.041  31.489  1.00  0.00     0.167 HD
ATOM     47  C   UNL A   1      37.796  30.882  29.956  1.00  0.00     0.031 A 
ATOM     48  C   UNL A   1      43.381  28.566  33.443  1.00  0.00     0.031 A 
ATOM     49  C   UNL A   1      37.971  31.459  31.261  1.00  0.00     0.049 A 
ATOM     50  C   UNL A   1      42.477  29.628  34.007  1.00  0.00     0.074 A 
ATOM     51  C   UNL A   1      37.175  32.390  31.908  1.00  0.00     0.029 A 
ATOM     52  N   UNL A   1      39.020  31.166  32.117  1.00  0.00    -0.354 N 
ATOM     53  N   UNL A   1      41.387  30.146  33.494  1.00  0.00    -0.248 NA
ATOM     54  C   UNL A   1      42.834  30.165  35.329  1.00  0.00     0.031 C 
ATOM     55  C   UNL A   1      37.769  32.693  33.138  1.00  0.00     0.029 A 
ATOM     56  C   UNL A   1      38.906  31.914  33.276  1.00  0.00     0.049 A 
ATOM     57  H   UNL A   1      39.739  30.521  31.929  1.00  0.00     0.167 HD
ATOM     58  C   UNL A   1      40.917  31.052  34.438  1.00  0.00     0.074 A 
ATOM     59  C   UNL A   1      41.829  30.998  35.561  1.00  0.00     0.031 C 
ATOM     60  C   UNL A   1      39.827  31.855  34.381  1.00  0.00     0.031 A 
BRANCH  47  61
ATOM     61  C   UNL A   1      36.631  31.336  29.124  1.00  0.00    -0.014 A 
ATOM     62  C   UNL A   1      35.676  30.421  28.651  1.00  0.00     0.009 A 
ATOM     63  C   UNL A   1      36.476  32.698  28.825  1.00  0.00     0.009 A 
ATOM     64  C   UNL A   1      34.607  30.860  27.867  1.00  0.00     0.001 A 
ATOM     65  C   UNL A   1      35.394  33.136  28.061  1.00  0.00     0.001 A 
ATOM     66  C   UNL A   1      34.465  32.216  27.575  1.00  0.00     0.000 A 
ENDBRANCH  47  61
BRANCH  48  67
ATOM     67  C   UNL A   1      44.556  28.092  34.217  1.00  0.00    -0.014 A 
ATOM     68  C   UNL A   1      44.441  27.013  35.107  1.00  0.00     0.009 A 
ATOM     69  C   UNL A   1      45.796  28.736  34.086  1.00  0.00     0.009 A 
ATOM     70  C   UNL A   1      45.539  26.605  35.868  1.00  0.00     0.001 A 
ATOM     71  C   UNL A   1      46.898  28.310  34.829  1.00  0.00     0.001 A 
ATOM     72  C   UNL A   1      46.767  27.252  35.726  1.00  0.00     0.000 A 
ENDBRANCH  48  67
BRANCH  60  73
ATOM     73  C   UNL A   1      39.553  32.722  35.577  1.00  0.00    -0.014 A 
ATOM     74  C   UNL A   1      40.016  34.046  35.638  1.00  0.00     0.009 A 
ATOM     75  C   UNL A   1      38.799  32.216  36.647  1.00  0.00     0.009 A 
ATOM     76  C   UNL A   1      39.762  34.831  36.764  1.00  0.00     0.001 A 
ATOM     77  C   UNL A   1      38.524  33.012  37.760  1.00  0.00     0.001 A 
ATOM     78  C   UNL A   1      39.015  34.315  37.822  1.00  0.00     0.000 A 
ENDBRANCH  60  73
ENDBRANCH  34  35
ENDBRANCH  27  29
ENDBRANCH  26  27
ENDBRANCH  25  26
ENDBRANCH  24  25
ENDBRANCH  23  24
ENDBRANCH   1  23
TORSDOF 19
ENDMDL
MODEL 2
REMARK VINA RESULT:      -9.2      4.313      9.329
REMARK SMILES CC[NH2+][C@@]1(C(=O)OCCOCCOC(=O)c2ccc(-c3c4nc(c(-c5ccccc5)c5ccc([nH]5)c(-c5ccccc5)c5nc(c(-c6ccccc6)c6ccc3[nH]6)C=C5)C=C4)cc2)CC[C@@H](SCC2CCCC2)C1
REMARK SMILES IDX 9 1 8 2 7 3 5 4 6 5 4 6 64 7 74 8 65 9 66 10 3 11 2 14 1 15
REMARK SMILES IDX 67 16 68 17 69 18 70 19 73 20 71 21 72 22 10 23 11 24 12 25
REMARK SMILES IDX 13 26 14 27 15 28 16 29 17 30 63 31 18 32 62 33 19 34 20 35
REMARK SMILES IDX 21 36 56 37 22 38 61 39 55 40 57 41 23 42 60 43 54 44 53 45
REMARK SMILES IDX 24 47 46 48 31 49 45 50 32 51 35 52 44 53 58 54 33 55 34 56
REMARK SMILES IDX 43 58 59 59 36 60 25 61 26 62 30 63 27 64 29 65 28 66 47 67
REMARK SMILES IDX 48 68 52 69 49 70 51 71 50 72 37 73 38 74 42 75 39 76 41 77
REMARK SMILES IDX 40 78
REMARK H PARENT 3 12 3 13 57 46 35 57
REMARK Flexibility Score: inf
ROOT
ATOM      1  C   UNL A   1      42.049  19.613  26.405  1.00  0.00     0.202 C 
ENDROOT
BRANCH   1   2
ATOM      2  C   UNL A   1      43.190  19.732  25.392  1.00  0.00     0.261 C 
BRANCH   2   3
ATOM      3  O   UNL A   1      44.142  20.747  25.748  1.00  0.00    -0.459 OA
BRANCH   3   4
ATOM      4  C   UNL A   1      43.705  22.022  25.541  1.00  0.00     0.368 C 
ATOM      5  O   UNL A   1      42.920  22.341  24.652  1.00  0.00    -0.245 OA
BRANCH   4   6
ATOM      6  C   UNL A   1      44.330  23.057  26.534  1.00  0.00     0.195 C 
ATOM      7  C   UNL A   1      43.545  24.349  26.267  1.00  0.00     0.082 C 
ATOM      8  C   UNL A   1      45.801  23.469  26.274  1.00  0.00     0.095 C 
ATOM      9  C   UNL A   1      44.278  24.975  25.079  1.00  0.00     0.022 C 
ATOM     10  C   UNL A   1      45.756  24.681  25.328  1.00  0.00     0.053 C 
BRANCH   6  11
ATOM     11  N   UNL A   1      44.194  22.427  27.865  1.00  0.00    -0.332 N 
ATOM     12  H   UNL A   1      44.396  21.434  27.750  1.00  0.00     0.347 HD
ATOM     13  H   UNL A   1      44.840  22.952  28.455  1.00  0.00     0.347 HD
BRANCH  11  14
ATOM     14  C   UNL A   1      42.923  22.528  28.555  1.00  0.00     0.257 C 
ATOM     15  C   UNL A   1      43.065  23.462  29.750  1.00  0.00     0.071 C 
ENDBRANCH  11  14
ENDBRANCH   6  11
BRANCH  10  16
ATOM     16  S   UNL A   1      46.772  26.148  25.825  1.00  0.00    -0.158 SA
BRANCH  16  17
ATOM     17  C   UNL A   1      47.913  25.519  27.118  1.00  0.00     0.073 C 
BRANCH  17  18
ATOM     18  C   UNL A   1      49.341  25.300  26.635  1.00  0.00    -0.001 C 
ATOM     19  C   UNL A   1      49.849  26.420  25.726  1.00  0.00     0.004 C 
ATOM     20  C   UNL A   1      50.434  25.268  27.699  1.00  0.00     0.004 C 
ATOM     21  C   UNL A   1      51.311  26.040  25.544  1.00  0.00     0.000 C 
ATOM     22  C   UNL A   1      51.725  25.421  26.883  1.00  0.00     0.000 C 
ENDBRANCH  17  18
ENDBRANCH  16  17
ENDBRANCH  10  16
ENDBRANCH   4   6
ENDBRANCH   3   4
ENDBRANCH   2   3
ENDBRANCH   1   2
BRANCH   1  23
ATOM     23  O   UNL A   1      40.834  19.019  25.963  1.00  0.00    -0.374 OA
BRANCH  23  24
ATOM     24  C   UNL A   1      39.702  19.861  25.756  1.00  0.00     0.202 C 
BRANCH  24  25
ATOM     25  C   UNL A   1      39.739  21.262  26.379  1.00  0.00     0.261 C 
BRANCH  25  26
ATOM     26  O   UNL A   1      39.207  22.274  25.502  1.00  0.00    -0.460 OA
BRANCH  26  27
ATOM     27  C   UNL A   1      38.507  23.244  26.136  1.00  0.00     0.338 C 
ATOM     28  O   UNL A   1      37.306  23.251  26.379  1.00  0.00    -0.246 OA
BRANCH  27  29
ATOM     29  C   UNL A   1      39.403  24.272  26.689  1.00  0.00     0.060 A 
ATOM     30  C   UNL A   1      39.473  24.372  28.085  1.00  0.00     0.016 A 
ATOM     31  C   UNL A   1      40.030  25.219  25.876  1.00  0.00     0.016 A 
ATOM     32  C   UNL A   1      40.096  25.466  28.674  1.00  0.00     0.010 A 
ATOM     33  C   UNL A   1      40.651  26.325  26.472  1.00  0.00     0.010 A 
ATOM     34  C   UNL A   1      40.634  26.480  27.870  1.00  0.00    -0.014 A 
BRANCH  34  35
ATOM     35  C   UNL A   1      40.970  27.776  28.511  1.00  0.00     0.031 A 
ATOM     36  C   UNL A   1      42.417  28.094  28.788  1.00  0.00     0.074 A 
ATOM     37  C   UNL A   1      40.023  28.700  28.745  1.00  0.00     0.049 A 
ATOM     38  N   UNL A   1      42.952  29.204  29.233  1.00  0.00    -0.248 NA
ATOM     39  C   UNL A   1      43.391  27.023  28.518  1.00  0.00     0.031 C 
ATOM     40  C   UNL A   1      38.595  28.535  28.483  1.00  0.00     0.029 A 
ATOM     41  N   UNL A   1      40.132  29.975  29.241  1.00  0.00    -0.354 N 
ATOM     42  C   UNL A   1      44.320  28.965  29.292  1.00  0.00     0.074 A 
ATOM     43  C   UNL A   1      44.530  27.597  28.873  1.00  0.00     0.031 C 
ATOM     44  C   UNL A   1      37.959  29.673  28.811  1.00  0.00     0.029 A 
ATOM     45  C   UNL A   1      38.933  30.639  29.317  1.00  0.00     0.049 A 
ATOM     46  H   UNL A   1      40.988  30.375  29.515  1.00  0.00     0.167 HD
ATOM     47  C   UNL A   1      45.317  29.809  29.648  1.00  0.00     0.031 A 
ATOM     48  C   UNL A   1      38.654  31.885  29.745  1.00  0.00     0.031 A 
ATOM     49  C   UNL A   1      45.117  31.167  30.077  1.00  0.00     0.049 A 
ATOM     50  C   UNL A   1      39.773  32.785  30.195  1.00  0.00     0.074 A 
ATOM     51  C   UNL A   1      46.066  32.103  30.451  1.00  0.00     0.029 A 
ATOM     52  N   UNL A   1      43.881  31.781  30.195  1.00  0.00    -0.354 N 
ATOM     53  N   UNL A   1      41.064  32.556  30.214  1.00  0.00    -0.248 NA
ATOM     54  C   UNL A   1      39.392  34.124  30.669  1.00  0.00     0.031 C 
ATOM     55  C   UNL A   1      45.399  33.270  30.839  1.00  0.00     0.029 A 
ATOM     56  C   UNL A   1      44.040  33.076  30.659  1.00  0.00     0.049 A 
ATOM     57  H   UNL A   1      43.018  31.359  29.980  1.00  0.00     0.167 HD
ATOM     58  C   UNL A   1      41.650  33.726  30.680  1.00  0.00     0.074 A 
ATOM     59  C   UNL A   1      40.576  34.670  30.913  1.00  0.00     0.031 C 
ATOM     60  C   UNL A   1      42.960  33.998  30.894  1.00  0.00     0.031 A 
BRANCH  47  61
ATOM     61  C   UNL A   1      46.718  29.268  29.616  1.00  0.00    -0.014 A 
ATOM     62  C   UNL A   1      47.507  29.367  28.459  1.00  0.00     0.009 A 
ATOM     63  C   UNL A   1      47.261  28.669  30.762  1.00  0.00     0.009 A 
ATOM     64  C   UNL A   1      48.803  28.846  28.442  1.00  0.00     0.001 A 
ATOM     65  C   UNL A   1      48.564  28.170  30.750  1.00  0.00     0.001 A 
ATOM     66  C   UNL A   1      49.331  28.252  29.588  1.00  0.00     0.000 A 
ENDBRANCH  47  61
BRANCH  48  67
ATOM     67  C   UNL A   1      37.249  32.364  29.771  1.00  0.00    -0.014 A 
ATOM     68  C   UNL A   1      36.405  32.055  30.850  1.00  0.00     0.009 A 
ATOM     69  C   UNL A   1      36.737  33.114  28.701  1.00  0.00     0.009 A 
ATOM     70  C   UNL A   1      35.071  32.467  30.844  1.00  0.00     0.001 A 
ATOM     71  C   UNL A   1      35.409  33.545  28.709  1.00  0.00     0.001 A 
ATOM     72  C   UNL A   1      34.575  33.214  29.775  1.00  0.00     0.000 A 
ENDBRANCH  48  67
BRANCH  60  73
ATOM     73  C   UNL A   1      43.303  35.376  31.384  1.00  0.00    -0.014 A 
ATOM     74  C   UNL A   1      43.706  36.385  30.495  1.00  0.00     0.009 A 
ATOM     75  C   UNL A   1      43.196  35.677  32.751  1.00  0.00     0.009 A 
ATOM     76  C   UNL A   1      44.033  37.656  30.972  1.00  0.00     0.001 A 
ATOM     77  C   UNL A   1      43.497  36.956  33.221  1.00  0.00     0.001 A 
ATOM     78  C   UNL A   1      43.926  37.941  32.332  1.00  0.00     0.000 A 
ENDBRANCH  60  73
ENDBRANCH  34  35
ENDBRANCH  27  29
ENDBRANCH  26  27
ENDBRANCH  25  26
ENDBRANCH  24  25
ENDBRANCH  23  24
ENDBRANCH   1  23
TORSDOF 19
ENDMDL
MODEL 3
REMARK VINA RESULT:      -9.0      6.852     10.488
REMARK SMILES CC[NH2+][C@@]1(C(=O)OCCOCCOC(=O)c2ccc(-c3c4nc(c(-c5ccccc5)c5ccc([nH]5)c(-c5ccccc5)c5nc(c(-c6ccccc6)c6ccc3[nH]6)C=C5)C=C4)cc2)CC[C@@H](SCC2CCCC2)C1
REMARK SMILES IDX 9 1 8 2 7 3 5 4 6 5 4 6 64 7 74 8 65 9 66 10 3 11 2 14 1 15
REMARK SMILES IDX 67 16 68 17 69 18 70 19 73 20 71 21 72 22 10 23 11 24 12 25
REMARK SMILES IDX 13 26 14 27 15 28 16 29 17 30 63 31 18 32 62 33 19 34 20 35
REMARK SMILES IDX 21 36 56 37 22 38 61 39 55 40 57 41 23 42 60 43 54 44 53 45
REMARK SMILES IDX 24 47 46 48 31 49 45 50 32 51 35 52 44 53 58 54 33 55 34 56
REMARK SMILES IDX 43 58 59 59 36 60 25 61 26 62 30 63 27 64 29 65 28 66 47 67
REMARK SMILES IDX 48 68 52 69 49 70 51 71 50 72 37 73 38 74 42 75 39 76 41 77
REMARK SMILES IDX 40 78
REMARK H PARENT 3 12 3 13 57 46 35 57
REMARK Flexibility Score: inf
ROOT
ATOM      1  C   UNL A   1      38.662  21.884  26.149  1.00  0.00     0.202 C 
ENDROOT
BRANCH   1   2
ATOM      2  C   UNL A   1      38.461  23.401  26.100  1.00  0.00     0.261 C 
BRANCH   2   3
ATOM      3  O   UNL A   1      37.087  23.782  26.275  1.00  0.00    -0.459 OA
BRANCH   3   4
ATOM      4  C   UNL A   1      36.314  23.609  25.166  1.00  0.00     0.368 C 
ATOM      5  O   UNL A   1      36.745  23.642  24.017  1.00  0.00    -0.245 OA
BRANCH   4   6
ATOM      6  C   UNL A   1      34.800  23.393  25.498  1.00  0.00     0.195 C 
ATOM      7  C   UNL A   1      34.783  22.106  26.334  1.00  0.00     0.082 C 
ATOM      8  C   UNL A   1      33.867  23.061  24.306  1.00  0.00     0.095 C 
ATOM      9  C   UNL A   1      34.759  20.996  25.283  1.00  0.00     0.022 C 
ATOM     10  C   UNL A   1      33.865  21.529  24.165  1.00  0.00     0.053 C 
BRANCH   6  11
ATOM     11  N   UNL A   1      34.377  24.650  26.153  1.00  0.00    -0.332 N 
ATOM     12  H   UNL A   1      33.666  24.407  26.841  1.00  0.00     0.347 HD
ATOM     13  H   UNL A   1      35.244  25.043  26.521  1.00  0.00     0.347 HD
BRANCH  11  14
ATOM     14  C   UNL A   1      33.831  25.711  25.330  1.00  0.00     0.257 C 
ATOM     15  C   UNL A   1      32.817  26.511  26.138  1.00  0.00     0.071 C 
ENDBRANCH  11  14
ENDBRANCH   6  11
BRANCH  10  16
ATOM     16  S   UNL A   1      32.204  20.719  24.038  1.00  0.00    -0.158 SA
BRANCH  16  17
ATOM     17  C   UNL A   1      32.466  19.269  22.944  1.00  0.00     0.073 C 
BRANCH  17  18
ATOM     18  C   UNL A   1      32.583  17.943  23.685  1.00  0.00    -0.001 C 
ATOM     19  C   UNL A   1      33.889  17.202  23.399  1.00  0.00     0.004 C 
ATOM     20  C   UNL A   1      32.610  18.004  25.210  1.00  0.00     0.004 C 
ATOM     21  C   UNL A   1      33.813  16.039  24.375  1.00  0.00     0.000 C 
ATOM     22  C   UNL A   1      33.107  16.608  25.610  1.00  0.00     0.000 C 
ENDBRANCH  17  18
ENDBRANCH  16  17
ENDBRANCH  10  16
ENDBRANCH   4   6
ENDBRANCH   3   4
ENDBRANCH   2   3
ENDBRANCH   1   2
BRANCH   1  23
ATOM     23  O   UNL A   1      39.935  21.376  25.765  1.00  0.00    -0.374 OA
BRANCH  23  24
ATOM     24  C   UNL A   1      40.658  20.578  26.701  1.00  0.00     0.202 C 
BRANCH  24  25
ATOM     25  C   UNL A   1      42.013  21.107  27.184  1.00  0.00     0.261 C 
BRANCH  25  26
ATOM     26  O   UNL A   1      42.174  22.520  26.950  1.00  0.00    -0.460 OA
BRANCH  26  27
ATOM     27  C   UNL A   1      43.257  22.837  26.201  1.00  0.00     0.338 C 
ATOM     28  O   UNL A   1      43.793  22.145  25.344  1.00  0.00    -0.246 OA
BRANCH  27  29
ATOM     29  C   UNL A   1      43.653  24.240  26.407  1.00  0.00     0.060 A 
ATOM     30  C   UNL A   1      43.879  25.012  25.259  1.00  0.00     0.016 A 
ATOM     31  C   UNL A   1      43.955  24.744  27.673  1.00  0.00     0.016 A 
ATOM     32  C   UNL A   1      44.488  26.257  25.368  1.00  0.00     0.010 A 
ATOM     33  C   UNL A   1      44.576  25.996  27.779  1.00  0.00     0.010 A 
ATOM     34  C   UNL A   1      44.896  26.729  26.622  1.00  0.00    -0.014 A 
BRANCH  34  35
ATOM     35  C   UNL A   1      45.840  27.873  26.666  1.00  0.00     0.031 A 
ATOM     36  C   UNL A   1      47.314  27.604  26.510  1.00  0.00     0.074 A 
ATOM     37  C   UNL A   1      45.392  29.139  26.734  1.00  0.00     0.049 A 
ATOM     38  N   UNL A   1      48.306  28.453  26.403  1.00  0.00    -0.248 NA
ATOM     39  C   UNL A   1      47.724  26.191  26.457  1.00  0.00     0.031 C 
ATOM     40  C   UNL A   1      43.990  29.537  26.844  1.00  0.00     0.029 A 
ATOM     41  N   UNL A   1      46.080  30.325  26.700  1.00  0.00    -0.354 N 
ATOM     42  C   UNL A   1      49.452  27.678  26.267  1.00  0.00     0.074 A 
ATOM     43  C   UNL A   1      49.039  26.294  26.341  1.00  0.00     0.031 C 
ATOM     44  C   UNL A   1      43.920  30.879  26.857  1.00  0.00     0.029 A 
ATOM     45  C   UNL A   1      45.271  31.432  26.770  1.00  0.00     0.049 A 
ATOM     46  H   UNL A   1      47.061  30.378  26.631  1.00  0.00     0.167 HD
ATOM     47  C   UNL A   1      50.732  28.077  26.084  1.00  0.00     0.031 A 
ATOM     48  C   UNL A   1      45.585  32.742  26.763  1.00  0.00     0.031 A 
ATOM     49  C   UNL A   1      51.154  29.450  26.020  1.00  0.00     0.049 A 
ATOM     50  C   UNL A   1      47.023  33.161  26.619  1.00  0.00     0.074 A 
ATOM     51  C   UNL A   1      52.429  29.954  25.829  1.00  0.00     0.029 A 
ATOM     52  N   UNL A   1      50.309  30.539  26.154  1.00  0.00    -0.354 N 
ATOM     53  N   UNL A   1      48.091  32.417  26.459  1.00  0.00    -0.248 NA
ATOM     54  C   UNL A   1      47.294  34.606  26.640  1.00  0.00     0.031 C 
ATOM     55  C   UNL A   1      52.362  31.350  25.892  1.00  0.00     0.029 A 
ATOM     56  C   UNL A   1      51.038  31.714  26.073  1.00  0.00     0.049 A 
ATOM     57  H   UNL A   1      49.335  30.487  26.287  1.00  0.00     0.167 HD
ATOM     58  C   UNL A   1      49.155  33.302  26.339  1.00  0.00     0.074 A 
ATOM     59  C   UNL A   1      48.602  34.638  26.425  1.00  0.00     0.031 C 
ATOM     60  C   UNL A   1      50.473  33.034  26.170  1.00  0.00     0.031 A 
BRANCH  47  61
ATOM     61  C   UNL A   1      51.776  27.002  25.968  1.00  0.00    -0.014 A 
ATOM     62  C   UNL A   1      52.127  26.464  24.719  1.00  0.00     0.009 A 
ATOM     63  C   UNL A   1      52.428  26.536  27.119  1.00  0.00     0.009 A 
ATOM     64  C   UNL A   1      53.090  25.456  24.632  1.00  0.00     0.001 A 
ATOM     65  C   UNL A   1      53.406  25.545  27.026  1.00  0.00     0.001 A 
ATOM     66  C   UNL A   1      53.730  25.000  25.784  1.00  0.00     0.000 A 
ENDBRANCH  47  61
BRANCH  48  67
ATOM     67  C   UNL A   1      44.515  33.762  26.897  1.00  0.00    -0.014 A 
ATOM     68  C   UNL A   1      44.077  34.181  28.163  1.00  0.00     0.009 A 
ATOM     69  C   UNL A   1      43.908  34.305  25.754  1.00  0.00     0.009 A 
ATOM     70  C   UNL A   1      43.036  35.104  28.280  1.00  0.00     0.001 A 
ATOM     71  C   UNL A   1      42.885  35.246  25.874  1.00  0.00     0.001 A 
ATOM     72  C   UNL A   1      42.443  35.638  27.136  1.00  0.00     0.000 A 
ENDBRANCH  48  67
BRANCH  60  73
ATOM     73  C   UNL A   1      51.400  34.210  26.046  1.00  0.00    -0.014 A 
ATOM     74  C   UNL A   1      51.657  34.805  24.801  1.00  0.00     0.009 A 
ATOM     75  C   UNL A   1      52.004  34.746  27.193  1.00  0.00     0.009 A 
ATOM     76  C   UNL A   1      52.532  35.889  24.704  1.00  0.00     0.001 A 
ATOM     77  C   UNL A   1      52.858  35.846  27.097  1.00  0.00     0.001 A 
ATOM     78  C   UNL A   1      53.129  36.410  25.851  1.00  0.00     0.000 A 
ENDBRANCH  60  73
ENDBRANCH  34  35
ENDBRANCH  27  29
ENDBRANCH  26  27
ENDBRANCH  25  26
ENDBRANCH  24  25
ENDBRANCH  23  24
ENDBRANCH   1  23
TORSDOF 19
ENDMDL
