MODEL 1
REMARK VINA RESULT:     -11.9      0.000      0.000
REMARK SMILES COc1ccc(C2=NN(C(=O)CCC(=O)OCCOCCOC(=O)c3ccc(-c4c5nc(c(-c6ccccc6)c6ccc([nH]6)c(-c6ccccc6)c6nc(c(-c7ccccc7)c7ccc4[nH]7)C=C6)C=C5)cc3)[C@H](c3ccc(Cl)cc3Cl)C2)cc1
REMARK SMILES IDX 17 1 16 2 14 3 15 4 13 5 12 6 10 7 11 8 9 9 7 10 8 11 82 12
REMARK SMILES IDX 73 13 6 14 3 15 4 16 84 17 5 18 83 19 2 20 1 21 74 22 75 23
REMARK SMILES IDX 80 24 76 25 79 26 81 27 77 28 78 29 18 30 19 31 20 32 21 33
REMARK SMILES IDX 22 34 23 35 24 36 25 37 26 38 72 39 27 40 71 41 28 42 29 43
REMARK SMILES IDX 30 44 65 45 31 46 70 47 64 48 66 49 32 50 69 51 63 52 62 53
REMARK SMILES IDX 33 55 55 56 40 57 54 58 41 59 44 60 53 61 67 62 42 63 43 64
REMARK SMILES IDX 52 66 68 67 45 68 34 69 35 70 39 71 36 72 38 73 37 74 56 75
REMARK SMILES IDX 57 76 61 77 58 78 60 79 59 80 46 81 47 82 51 83 48 84 50 85
REMARK SMILES IDX 49 86
REMARK H PARENT 66 54 44 65
REMARK Flexibility Score: inf
ROOT
ATOM      1  C   UNL A   1      41.110  20.436  26.477  1.00  0.00     0.261 C 
ENDROOT
BRANCH   1   2
ATOM      2  O   UNL A   1      41.178  21.552  27.343  1.00  0.00    -0.463 OA
BRANCH   2   3
ATOM      3  C   UNL A   1      40.688  22.707  26.888  1.00  0.00     0.306 C 
ATOM      4  O   UNL A   1      41.333  23.546  26.232  1.00  0.00    -0.252 OA
BRANCH   3   5
ATOM      5  C   UNL A   1      39.253  22.857  27.251  1.00  0.00     0.132 C 
BRANCH   5   6
ATOM      6  C   UNL A   1      38.367  23.339  26.109  1.00  0.00     0.114 C 
BRANCH   6   7
ATOM      7  C   UNL A   1      37.269  22.382  25.621  1.00  0.00     0.243 C 
ATOM      8  O   UNL A   1      37.752  21.228  25.505  1.00  0.00    -0.273 OA
BRANCH   7   9
ATOM      9  N   UNL A   1      35.864  22.571  25.440  1.00  0.00    -0.225 N 
ATOM     10  C   UNL A   1      34.475  21.104  24.659  1.00  0.00     0.071 C 
ATOM     11  N   UNL A   1      35.343  21.326  25.575  1.00  0.00    -0.174 NA
ATOM     12  C   UNL A   1      34.016  22.295  23.855  1.00  0.00     0.091 C 
ATOM     13  C   UNL A   1      34.594  23.468  24.718  1.00  0.00     0.149 C 
BRANCH  10  14
ATOM     14  C   UNL A   1      34.136  19.689  24.488  1.00  0.00    -0.002 A 
ATOM     15  C   UNL A   1      33.747  16.971  24.261  1.00  0.00     0.118 A 
ATOM     16  C   UNL A   1      35.010  17.424  24.572  1.00  0.00     0.047 A 
ATOM     17  C   UNL A   1      32.726  17.861  23.905  1.00  0.00     0.047 A 
ATOM     18  C   UNL A   1      35.214  18.787  24.609  1.00  0.00     0.014 A 
ATOM     19  C   UNL A   1      32.898  19.238  24.069  1.00  0.00     0.014 A 
BRANCH  15  20
ATOM     20  O   UNL A   1      33.499  15.648  24.478  1.00  0.00    -0.497 OA
ATOM     21  C   UNL A   1      32.531  15.483  25.495  1.00  0.00     0.278 C 
ENDBRANCH  15  20
ENDBRANCH  10  14
BRANCH  13  22
ATOM     22  C   UNL A   1      33.420  24.765  25.228  1.00  0.00    -0.004 A 
ATOM     23  C   UNL A   1      34.080  26.028  25.224  1.00  0.00     0.009 A 
ATOM     24  C   UNL A   1      32.099  24.892  25.947  1.00  0.00     0.047 A 
ATOM     25  C   UNL A   1      33.577  27.203  25.865  1.00  0.00     0.021 A 
ATOM     26  C   UNL A   1      31.683  26.059  26.649  1.00  0.00     0.041 A 
ATOM     27  Cl  UNL A   1      30.609  23.956  26.113  1.00  0.00    -0.084 Cl
ATOM     28  C   UNL A   1      32.409  27.206  26.604  1.00  0.00     0.042 A 
ATOM     29  Cl  UNL A   1      31.822  28.592  27.429  1.00  0.00    -0.084 Cl
ENDBRANCH  13  22
ENDBRANCH   7   9
ENDBRANCH   6   7
ENDBRANCH   5   6
ENDBRANCH   3   5
ENDBRANCH   2   3
ENDBRANCH   1   2
BRANCH   1  30
ATOM     30  C   UNL A   1      42.532  19.966  26.050  1.00  0.00     0.202 C 
BRANCH  30  31
ATOM     31  O   UNL A   1      43.459  20.749  25.240  1.00  0.00    -0.374 OA
BRANCH  31  32
ATOM     32  C   UNL A   1      44.143  21.989  25.530  1.00  0.00     0.202 C 
BRANCH  32  33
ATOM     33  C   UNL A   1      44.366  23.391  24.402  1.00  0.00     0.261 C 
BRANCH  33  34
ATOM     34  O   UNL A   1      45.529  24.543  24.578  1.00  0.00    -0.460 OA
BRANCH  34  35
ATOM     35  C   UNL A   1      45.796  25.838  24.987  1.00  0.00     0.338 C 
ATOM     36  O   UNL A   1      46.675  26.556  24.516  1.00  0.00    -0.246 OA
BRANCH  35  37
ATOM     37  C   UNL A   1      44.926  26.436  26.150  1.00  0.00     0.060 A 
ATOM     38  C   UNL A   1      44.613  27.793  26.409  1.00  0.00     0.016 A 
ATOM     39  C   UNL A   1      44.497  25.572  27.159  1.00  0.00     0.016 A 
ATOM     40  C   UNL A   1      43.731  28.239  27.474  1.00  0.00     0.010 A 
ATOM     41  C   UNL A   1      43.671  26.011  28.246  1.00  0.00     0.010 A 
ATOM     42  C   UNL A   1      43.207  27.342  28.409  1.00  0.00    -0.014 A 
BRANCH  42  43
ATOM     43  C   UNL A   1      42.501  27.691  29.726  1.00  0.00     0.031 A 
ATOM     44  C   UNL A   1      41.204  28.442  29.557  1.00  0.00     0.074 A 
ATOM     45  C   UNL A   1      42.877  27.489  31.020  1.00  0.00     0.049 A 
ATOM     46  N   UNL A   1      40.560  29.228  30.379  1.00  0.00    -0.248 NA
ATOM     47  C   UNL A   1      40.549  28.252  28.252  1.00  0.00     0.031 C 
ATOM     48  C   UNL A   1      43.895  26.580  31.524  1.00  0.00     0.029 A 
ATOM     49  N   UNL A   1      42.472  28.154  32.183  1.00  0.00    -0.354 N 
ATOM     50  C   UNL A   1      39.419  29.616  29.692  1.00  0.00     0.074 A 
ATOM     51  C   UNL A   1      39.515  29.065  28.358  1.00  0.00     0.031 C 
ATOM     52  C   UNL A   1      44.184  26.883  32.811  1.00  0.00     0.029 A 
ATOM     53  C   UNL A   1      43.355  27.999  33.246  1.00  0.00     0.049 A 
ATOM     54  H   UNL A   1      41.640  28.680  32.243  1.00  0.00     0.167 HD
ATOM     55  C   UNL A   1      38.348  30.314  30.135  1.00  0.00     0.031 A 
ATOM     56  C   UNL A   1      43.518  28.708  34.393  1.00  0.00     0.031 A 
ATOM     57  C   UNL A   1      38.219  30.863  31.454  1.00  0.00     0.049 A 
ATOM     58  C   UNL A   1      42.499  29.754  34.768  1.00  0.00     0.074 A 
ATOM     59  C   UNL A   1      37.144  31.533  32.011  1.00  0.00     0.029 A 
ATOM     60  N   UNL A   1      39.205  30.809  32.424  1.00  0.00    -0.354 N 
ATOM     61  N   UNL A   1      41.463  30.178  34.092  1.00  0.00    -0.248 NA
ATOM     62  C   UNL A   1      42.630  30.359  36.108  1.00  0.00     0.031 C 
ATOM     63  C   UNL A   1      37.493  31.915  33.311  1.00  0.00     0.029 A 
ATOM     64  C   UNL A   1      38.765  31.439  33.576  1.00  0.00     0.049 A 
ATOM     65  H   UNL A   1      40.086  30.385  32.312  1.00  0.00     0.167 HD
ATOM     66  C   UNL A   1      40.760  31.002  34.962  1.00  0.00     0.074 A 
ATOM     67  C   UNL A   1      41.534  31.101  36.178  1.00  0.00     0.031 C 
ATOM     68  C   UNL A   1      39.533  31.547  34.787  1.00  0.00     0.031 A 
BRANCH  55  69
ATOM     69  C   UNL A   1      37.224  30.488  29.157  1.00  0.00    -0.014 A 
ATOM     70  C   UNL A   1      36.909  31.761  28.648  1.00  0.00     0.009 A 
ATOM     71  C   UNL A   1      36.441  29.390  28.782  1.00  0.00     0.009 A 
ATOM     72  C   UNL A   1      35.790  31.939  27.835  1.00  0.00     0.001 A 
ATOM     73  C   UNL A   1      35.343  29.565  27.939  1.00  0.00     0.001 A 
ATOM     74  C   UNL A   1      35.009  30.840  27.482  1.00  0.00     0.000 A 
ENDBRANCH  55  69
BRANCH  56  75
ATOM     75  C   UNL A   1      44.695  28.543  35.312  1.00  0.00    -0.014 A 
ATOM     76  C   UNL A   1      45.901  29.230  35.134  1.00  0.00     0.009 A 
ATOM     77  C   UNL A   1      44.656  27.538  36.297  1.00  0.00     0.009 A 
ATOM     78  C   UNL A   1      47.012  28.948  35.949  1.00  0.00     0.001 A 
ATOM     79  C   UNL A   1      45.749  27.279  37.133  1.00  0.00     0.001 A 
ATOM     80  C   UNL A   1      46.929  27.989  36.960  1.00  0.00     0.000 A 
ENDBRANCH  56  75
BRANCH  68  81
ATOM     81  C   UNL A   1      38.883  32.167  35.989  1.00  0.00    -0.014 A 
ATOM     82  C   UNL A   1      38.950  33.540  36.260  1.00  0.00     0.009 A 
ATOM     83  C   UNL A   1      38.174  31.331  36.869  1.00  0.00     0.009 A 
ATOM     84  C   UNL A   1      38.342  34.057  37.407  1.00  0.00     0.001 A 
ATOM     85  C   UNL A   1      37.548  31.854  37.998  1.00  0.00     0.001 A 
ATOM     86  C   UNL A   1      37.640  33.216  38.272  1.00  0.00     0.000 A 
ENDBRANCH  68  81
ENDBRANCH  42  43
ENDBRANCH  35  37
ENDBRANCH  34  35
ENDBRANCH  33  34
ENDBRANCH  32  33
ENDBRANCH  31  32
ENDBRANCH  30  31
ENDBRANCH   1  30
TORSDOF 20
ENDMDL
MODEL 2
REMARK VINA RESULT:     -11.8      5.206     10.655
REMARK SMILES COc1ccc(C2=NN(C(=O)CCC(=O)OCCOCCOC(=O)c3ccc(-c4c5nc(c(-c6ccccc6)c6ccc([nH]6)c(-c6ccccc6)c6nc(c(-c7ccccc7)c7ccc4[nH]7)C=C6)C=C5)cc3)[C@H](c3ccc(Cl)cc3Cl)C2)cc1
REMARK SMILES IDX 17 1 16 2 14 3 15 4 13 5 12 6 10 7 11 8 9 9 7 10 8 11 82 12
REMARK SMILES IDX 73 13 6 14 3 15 4 16 84 17 5 18 83 19 2 20 1 21 74 22 75 23
REMARK SMILES IDX 80 24 76 25 79 26 81 27 77 28 78 29 18 30 19 31 20 32 21 33
REMARK SMILES IDX 22 34 23 35 24 36 25 37 26 38 72 39 27 40 71 41 28 42 29 43
REMARK SMILES IDX 30 44 65 45 31 46 70 47 64 48 66 49 32 50 69 51 63 52 62 53
REMARK SMILES IDX 33 55 55 56 40 57 54 58 41 59 44 60 53 61 67 62 42 63 43 64
REMARK SMILES IDX 52 66 68 67 45 68 34 69 35 70 39 71 36 72 38 73 37 74 56 75
REMARK SMILES IDX 57 76 61 77 58 78 60 79 59 80 46 81 47 82 51 83 48 84 50 85
REMARK SMILES IDX 49 86
REMARK H PARENT 66 54 44 65
REMARK Flexibility Score: inf
ROOT
ATOM      1  C   UNL A   1      35.653  31.476  28.405  1.00  0.00     0.261 C 
ENDROOT
BRANCH   1   2
ATOM      2  O   UNL A   1      34.895  31.149  27.257  1.00  0.00    -0.463 OA
BRANCH   2   3
ATOM      3  C   UNL A   1      34.571  29.864  27.087  1.00  0.00     0.306 C 
ATOM      4  O   UNL A   1      35.116  29.094  26.273  1.00  0.00    -0.252 OA
BRANCH   3   5
ATOM      5  C   UNL A   1      33.482  29.462  28.016  1.00  0.00     0.132 C 
BRANCH   5   6
ATOM      6  C   UNL A   1      32.499  28.458  27.427  1.00  0.00     0.114 C 
BRANCH   6   7
ATOM      7  C   UNL A   1      31.724  28.888  26.172  1.00  0.00     0.243 C 
ATOM      8  O   UNL A   1      31.628  30.141  26.158  1.00  0.00    -0.273 OA
BRANCH   7   9
ATOM      9  N   UNL A   1      31.269  28.141  25.041  1.00  0.00    -0.225 N 
ATOM     10  C   UNL A   1      29.790  28.794  23.601  1.00  0.00     0.071 C 
ATOM     11  N   UNL A   1      30.913  29.090  24.141  1.00  0.00    -0.174 NA
ATOM     12  C   UNL A   1      29.272  27.396  23.833  1.00  0.00     0.091 C 
ATOM     13  C   UNL A   1      30.546  26.711  24.434  1.00  0.00     0.149 C 
BRANCH  10  14
ATOM     14  C   UNL A   1      29.145  29.913  22.908  1.00  0.00    -0.002 A 
ATOM     15  C   UNL A   1      27.975  32.164  21.833  1.00  0.00     0.118 A 
ATOM     16  C   UNL A   1      28.303  32.177  23.170  1.00  0.00     0.047 A 
ATOM     17  C   UNL A   1      28.074  30.990  21.074  1.00  0.00     0.047 A 
ATOM     18  C   UNL A   1      28.818  31.021  23.718  1.00  0.00     0.014 A 
ATOM     19  C   UNL A   1      28.715  29.863  21.595  1.00  0.00     0.014 A 
BRANCH  15  20
ATOM     20  O   UNL A   1      27.714  33.370  21.254  1.00  0.00    -0.497 OA
ATOM     21  C   UNL A   1      27.470  33.215  19.870  1.00  0.00     0.278 C 
ENDBRANCH  15  20
ENDBRANCH  10  14
BRANCH  13  22
ATOM     22  C   UNL A   1      31.104  25.173  23.630  1.00  0.00    -0.004 A 
ATOM     23  C   UNL A   1      30.762  24.060  24.452  1.00  0.00     0.009 A 
ATOM     24  C   UNL A   1      32.071  24.728  22.561  1.00  0.00     0.047 A 
ATOM     25  C   UNL A   1      31.314  22.749  24.305  1.00  0.00     0.021 A 
ATOM     26  C   UNL A   1      32.664  23.434  22.510  1.00  0.00     0.041 A 
ATOM     27  Cl  UNL A   1      32.704  25.352  21.033  1.00  0.00    -0.084 Cl
ATOM     28  C   UNL A   1      32.286  22.451  23.368  1.00  0.00     0.042 A 
ATOM     29  Cl  UNL A   1      33.002  20.898  23.217  1.00  0.00    -0.084 Cl
ENDBRANCH  13  22
ENDBRANCH   7   9
ENDBRANCH   6   7
ENDBRANCH   5   6
ENDBRANCH   3   5
ENDBRANCH   2   3
ENDBRANCH   1   2
BRANCH   1  30
ATOM     30  C   UNL A   1      35.617  33.007  28.687  1.00  0.00     0.202 C 
BRANCH  30  31
ATOM     31  O   UNL A   1      34.408  33.823  28.698  1.00  0.00    -0.374 OA
BRANCH  31  32
ATOM     32  C   UNL A   1      34.240  35.254  28.585  1.00  0.00     0.202 C 
BRANCH  32  33
ATOM     33  C   UNL A   1      32.772  36.212  29.049  1.00  0.00     0.261 C 
BRANCH  33  34
ATOM     34  O   UNL A   1      32.366  36.590  30.599  1.00  0.00    -0.460 OA
BRANCH  34  35
ATOM     35  C   UNL A   1      32.454  36.205  31.925  1.00  0.00     0.338 C 
ATOM     36  O   UNL A   1      31.635  36.491  32.796  1.00  0.00    -0.246 OA
BRANCH  35  37
ATOM     37  C   UNL A   1      33.699  35.353  32.363  1.00  0.00     0.060 A 
ATOM     38  C   UNL A   1      35.073  35.680  32.254  1.00  0.00     0.016 A 
ATOM     39  C   UNL A   1      33.479  34.044  32.795  1.00  0.00     0.016 A 
ATOM     40  C   UNL A   1      36.153  34.850  32.763  1.00  0.00     0.010 A 
ATOM     41  C   UNL A   1      34.543  33.196  33.248  1.00  0.00     0.010 A 
ATOM     42  C   UNL A   1      35.906  33.588  33.308  1.00  0.00    -0.014 A 
BRANCH  42  43
ATOM     43  C   UNL A   1      36.943  32.502  33.625  1.00  0.00     0.031 A 
ATOM     44  C   UNL A   1      37.831  32.815  34.803  1.00  0.00     0.074 A 
ATOM     45  C   UNL A   1      37.234  31.334  32.987  1.00  0.00     0.049 A 
ATOM     46  N   UNL A   1      39.021  32.374  35.115  1.00  0.00    -0.248 NA
ATOM     47  C   UNL A   1      37.259  33.768  35.768  1.00  0.00     0.031 C 
ATOM     48  C   UNL A   1      36.418  30.614  32.021  1.00  0.00     0.029 A 
ATOM     49  N   UNL A   1      38.409  30.573  33.006  1.00  0.00    -0.354 N 
ATOM     50  C   UNL A   1      39.334  32.990  36.318  1.00  0.00     0.074 A 
ATOM     51  C   UNL A   1      38.257  33.909  36.620  1.00  0.00     0.031 C 
ATOM     52  C   UNL A   1      37.167  29.677  31.395  1.00  0.00     0.029 A 
ATOM     53  C   UNL A   1      38.522  29.701  31.929  1.00  0.00     0.049 A 
ATOM     54  H   UNL A   1      39.089  30.648  33.715  1.00  0.00     0.167 HD
ATOM     55  C   UNL A   1      40.385  32.777  37.142  1.00  0.00     0.031 A 
ATOM     56  C   UNL A   1      39.595  29.058  31.399  1.00  0.00     0.031 A 
ATOM     57  C   UNL A   1      41.461  31.866  36.875  1.00  0.00     0.049 A 
ATOM     58  C   UNL A   1      40.908  29.074  32.140  1.00  0.00     0.074 A 
ATOM     59  C   UNL A   1      42.538  31.540  37.680  1.00  0.00     0.029 A 
ATOM     60  N   UNL A   1      41.598  31.138  35.707  1.00  0.00    -0.354 N 
ATOM     61  N   UNL A   1      41.232  29.714  33.234  1.00  0.00    -0.248 NA
ATOM     62  C   UNL A   1      41.981  28.209  31.610  1.00  0.00     0.031 C 
ATOM     63  C   UNL A   1      43.347  30.636  36.983  1.00  0.00     0.029 A 
ATOM     64  C   UNL A   1      42.746  30.365  35.766  1.00  0.00     0.049 A 
ATOM     65  H   UNL A   1      40.972  31.163  34.947  1.00  0.00     0.167 HD
ATOM     66  C   UNL A   1      42.490  29.240  33.585  1.00  0.00     0.074 A 
ATOM     67  C   UNL A   1      42.916  28.338  32.540  1.00  0.00     0.031 C 
ATOM     68  C   UNL A   1      43.179  29.471  34.727  1.00  0.00     0.031 A 
BRANCH  55  69
ATOM     69  C   UNL A   1      40.382  33.550  38.427  1.00  0.00    -0.014 A 
ATOM     70  C   UNL A   1      39.781  33.017  39.582  1.00  0.00     0.009 A 
ATOM     71  C   UNL A   1      40.930  34.837  38.475  1.00  0.00     0.009 A 
ATOM     72  C   UNL A   1      39.671  33.786  40.740  1.00  0.00     0.001 A 
ATOM     73  C   UNL A   1      40.851  35.591  39.648  1.00  0.00     0.001 A 
ATOM     74  C   UNL A   1      40.207  35.071  40.770  1.00  0.00     0.000 A 
ENDBRANCH  55  69
BRANCH  56  75
ATOM     75  C   UNL A   1      39.568  28.349  30.075  1.00  0.00    -0.014 A 
ATOM     76  C   UNL A   1      39.301  26.981  29.950  1.00  0.00     0.009 A 
ATOM     77  C   UNL A   1      39.992  29.038  28.923  1.00  0.00     0.009 A 
ATOM     78  C   UNL A   1      39.409  26.342  28.701  1.00  0.00     0.001 A 
ATOM     79  C   UNL A   1      40.068  28.413  27.672  1.00  0.00     0.001 A 
ATOM     80  C   UNL A   1      39.772  27.061  27.561  1.00  0.00     0.000 A 
ENDBRANCH  56  75
BRANCH  68  81
ATOM     81  C   UNL A   1      44.390  28.621  34.979  1.00  0.00    -0.014 A 
ATOM     82  C   UNL A   1      45.676  29.000  34.574  1.00  0.00     0.009 A 
ATOM     83  C   UNL A   1      44.218  27.400  35.654  1.00  0.00     0.009 A 
ATOM     84  C   UNL A   1      46.764  28.156  34.818  1.00  0.00     0.001 A 
ATOM     85  C   UNL A   1      45.308  26.573  35.918  1.00  0.00     0.001 A 
ATOM     86  C   UNL A   1      46.579  26.947  35.491  1.00  0.00     0.000 A 
ENDBRANCH  68  81
ENDBRANCH  42  43
ENDBRANCH  35  37
ENDBRANCH  34  35
ENDBRANCH  33  34
ENDBRANCH  32  33
ENDBRANCH  31  32
ENDBRANCH  30  31
ENDBRANCH   1  30
TORSDOF 20
ENDMDL
MODEL 3
REMARK VINA RESULT:     -11.6      4.477     10.093
REMARK SMILES COc1ccc(C2=NN(C(=O)CCC(=O)OCCOCCOC(=O)c3ccc(-c4c5nc(c(-c6ccccc6)c6ccc([nH]6)c(-c6ccccc6)c6nc(c(-c7ccccc7)c7ccc4[nH]7)C=C6)C=C5)cc3)[C@H](c3ccc(Cl)cc3Cl)C2)cc1
REMARK SMILES IDX 17 1 16 2 14 3 15 4 13 5 12 6 10 7 11 8 9 9 7 10 8 11 82 12
REMARK SMILES IDX 73 13 6 14 3 15 4 16 84 17 5 18 83 19 2 20 1 21 74 22 75 23
REMARK SMILES IDX 80 24 76 25 79 26 81 27 77 28 78 29 18 30 19 31 20 32 21 33
REMARK SMILES IDX 22 34 23 35 24 36 25 37 26 38 72 39 27 40 71 41 28 42 29 43
REMARK SMILES IDX 30 44 65 45 31 46 70 47 64 48 66 49 32 50 69 51 63 52 62 53
REMARK SMILES IDX 33 55 55 56 40 57 54 58 41 59 44 60 53 61 67 62 42 63 43 64
REMARK SMILES IDX 52 66 68 67 45 68 34 69 35 70 39 71 36 72 38 73 37 74 56 75
REMARK SMILES IDX 57 76 61 77 58 78 60 79 59 80 46 81 47 82 51 83 48 84 50 85
REMARK SMILES IDX 49 86
REMARK H PARENT 66 54 44 65
REMARK Flexibility Score: inf
ROOT
ATOM      1  C   UNL A   1      32.007  21.421  25.312  1.00  0.00     0.261 C 
ENDROOT
BRANCH   1   2
ATOM      2  O   UNL A   1      31.978  22.830  25.422  1.00  0.00    -0.463 OA
BRANCH   2   3
ATOM      3  C   UNL A   1      32.357  23.358  26.589  1.00  0.00     0.306 C 
ATOM      4  O   UNL A   1      32.322  22.765  27.684  1.00  0.00    -0.252 OA
BRANCH   3   5
ATOM      5  C   UNL A   1      32.851  24.749  26.409  1.00  0.00     0.132 C 
BRANCH   5   6
ATOM      6  C   UNL A   1      33.791  24.929  25.223  1.00  0.00     0.114 C 
BRANCH   6   7
ATOM      7  C   UNL A   1      33.344  25.893  24.114  1.00  0.00     0.243 C 
ATOM      8  O   UNL A   1      33.649  25.404  22.998  1.00  0.00    -0.273 OA
BRANCH   7   9
ATOM      9  N   UNL A   1      32.566  27.092  24.161  1.00  0.00    -0.225 N 
ATOM     10  C   UNL A   1      32.784  28.692  25.603  1.00  0.00     0.071 C 
ATOM     11  N   UNL A   1      33.401  28.006  24.714  1.00  0.00    -0.174 NA
ATOM     12  C   UNL A   1      31.282  28.562  25.640  1.00  0.00     0.091 C 
ATOM     13  C   UNL A   1      31.021  27.822  24.285  1.00  0.00     0.149 C 
BRANCH  10  14
ATOM     14  C   UNL A   1      33.669  29.433  26.507  1.00  0.00    -0.002 A 
ATOM     15  C   UNL A   1      35.130  31.009  28.230  1.00  0.00     0.118 A 
ATOM     16  C   UNL A   1      33.934  31.500  27.756  1.00  0.00     0.047 A 
ATOM     17  C   UNL A   1      35.676  29.821  27.728  1.00  0.00     0.047 A 
ATOM     18  C   UNL A   1      33.246  30.738  26.836  1.00  0.00     0.014 A 
ATOM     19  C   UNL A   1      34.919  28.990  26.897  1.00  0.00     0.014 A 
BRANCH  15  20
ATOM     20  O   UNL A   1      35.664  31.639  29.314  1.00  0.00    -0.497 OA
ATOM     21  C   UNL A   1      34.672  32.374  30.003  1.00  0.00     0.278 C 
ENDBRANCH  15  20
ENDBRANCH  10  14
BRANCH  13  22
ATOM     22  C   UNL A   1      29.813  28.586  23.154  1.00  0.00    -0.004 A 
ATOM     23  C   UNL A   1      30.499  29.418  22.222  1.00  0.00     0.009 A 
ATOM     24  C   UNL A   1      28.333  28.873  23.087  1.00  0.00     0.047 A 
ATOM     25  C   UNL A   1      29.867  30.409  21.408  1.00  0.00     0.021 A 
ATOM     26  C   UNL A   1      27.760  29.933  22.328  1.00  0.00     0.041 A 
ATOM     27  Cl  UNL A   1      26.832  28.114  23.628  1.00  0.00    -0.084 Cl
ATOM     28  C   UNL A   1      28.516  30.690  21.491  1.00  0.00     0.042 A 
ATOM     29  Cl  UNL A   1      27.752  31.916  20.563  1.00  0.00    -0.084 Cl
ENDBRANCH  13  22
ENDBRANCH   7   9
ENDBRANCH   6   7
ENDBRANCH   5   6
ENDBRANCH   3   5
ENDBRANCH   2   3
ENDBRANCH   1   2
BRANCH   1  30
ATOM     30  C   UNL A   1      33.108  20.956  24.313  1.00  0.00     0.202 C 
BRANCH  30  31
ATOM     31  O   UNL A   1      34.518  20.792  24.646  1.00  0.00    -0.374 OA
BRANCH  31  32
ATOM     32  C   UNL A   1      35.401  21.626  25.429  1.00  0.00     0.202 C 
BRANCH  32  33
ATOM     33  C   UNL A   1      37.209  21.700  25.310  1.00  0.00     0.261 C 
BRANCH  33  34
ATOM     34  O   UNL A   1      38.218  20.497  25.803  1.00  0.00    -0.460 OA
BRANCH  34  35
ATOM     35  C   UNL A   1      39.522  20.032  25.803  1.00  0.00     0.338 C 
ATOM     36  O   UNL A   1      39.864  18.899  25.472  1.00  0.00    -0.246 OA
BRANCH  35  37
ATOM     37  C   UNL A   1      40.653  21.015  26.275  1.00  0.00     0.060 A 
ATOM     38  C   UNL A   1      40.659  22.431  26.248  1.00  0.00     0.016 A 
ATOM     39  C   UNL A   1      41.880  20.468  26.654  1.00  0.00     0.016 A 
ATOM     40  C   UNL A   1      41.730  23.254  26.783  1.00  0.00     0.010 A 
ATOM     41  C   UNL A   1      42.965  21.275  27.133  1.00  0.00     0.010 A 
ATOM     42  C   UNL A   1      42.908  22.686  27.274  1.00  0.00    -0.014 A 
BRANCH  42  43
ATOM     43  C   UNL A   1      44.215  23.419  27.608  1.00  0.00     0.031 A 
ATOM     44  C   UNL A   1      44.367  23.786  29.063  1.00  0.00     0.074 A 
ATOM     45  C   UNL A   1      45.230  23.843  26.805  1.00  0.00     0.049 A 
ATOM     46  N   UNL A   1      45.087  24.713  29.638  1.00  0.00    -0.248 NA
ATOM     47  C   UNL A   1      43.582  22.958  29.992  1.00  0.00     0.031 C 
ATOM     48  C   UNL A   1      45.529  23.423  25.444  1.00  0.00     0.029 A 
ATOM     49  N   UNL A   1      46.181  24.847  27.020  1.00  0.00    -0.354 N 
ATOM     50  C   UNL A   1      44.848  24.571  30.997  1.00  0.00     0.074 A 
ATOM     51  C   UNL A   1      43.842  23.542  31.147  1.00  0.00     0.031 C 
ATOM     52  C   UNL A   1      46.414  24.281  24.883  1.00  0.00     0.029 A 
ATOM     53  C   UNL A   1      46.775  25.308  25.850  1.00  0.00     0.049 A 
ATOM     54  H   UNL A   1      46.409  25.192  27.915  1.00  0.00     0.167 HD
ATOM     55  C   UNL A   1      45.448  25.185  32.042  1.00  0.00     0.031 A 
ATOM     56  C   UNL A   1      47.464  26.446  25.578  1.00  0.00     0.031 A 
ATOM     57  C   UNL A   1      46.455  26.201  31.924  1.00  0.00     0.049 A 
ATOM     58  C   UNL A   1      47.875  27.352  26.710  1.00  0.00     0.074 A 
ATOM     59  C   UNL A   1      47.162  26.837  32.929  1.00  0.00     0.029 A 
ATOM     60  N   UNL A   1      46.895  26.731  30.724  1.00  0.00    -0.354 N 
ATOM     61  N   UNL A   1      47.590  27.264  27.984  1.00  0.00    -0.248 NA
ATOM     62  C   UNL A   1      48.775  28.472  26.373  1.00  0.00     0.031 C 
ATOM     63  C   UNL A   1      48.010  27.780  32.336  1.00  0.00     0.029 A 
ATOM     64  C   UNL A   1      47.863  27.693  30.963  1.00  0.00     0.049 A 
ATOM     65  H   UNL A   1      46.571  26.464  29.834  1.00  0.00     0.167 HD
ATOM     66  C   UNL A   1      48.363  28.235  28.608  1.00  0.00     0.074 A 
ATOM     67  C   UNL A   1      49.053  28.967  27.571  1.00  0.00     0.031 C 
ATOM     68  C   UNL A   1      48.547  28.429  29.936  1.00  0.00     0.031 A 
BRANCH  55  69
ATOM     69  C   UNL A   1      45.019  24.734  33.406  1.00  0.00    -0.014 A 
ATOM     70  C   UNL A   1      44.006  25.418  34.102  1.00  0.00     0.009 A 
ATOM     71  C   UNL A   1      45.664  23.656  34.025  1.00  0.00     0.009 A 
ATOM     72  C   UNL A   1      43.695  25.073  35.416  1.00  0.00     0.001 A 
ATOM     73  C   UNL A   1      45.325  23.289  35.328  1.00  0.00     0.001 A 
ATOM     74  C   UNL A   1      44.355  24.009  36.027  1.00  0.00     0.000 A 
ENDBRANCH  55  69
BRANCH  56  75
ATOM     75  C   UNL A   1      47.818  26.891  24.187  1.00  0.00    -0.014 A 
ATOM     76  C   UNL A   1      49.016  26.537  23.556  1.00  0.00     0.009 A 
ATOM     77  C   UNL A   1      46.998  27.838  23.544  1.00  0.00     0.009 A 
ATOM     78  C   UNL A   1      49.352  27.080  22.303  1.00  0.00     0.001 A 
ATOM     79  C   UNL A   1      47.313  28.355  22.282  1.00  0.00     0.001 A 
ATOM     80  C   UNL A   1      48.493  27.971  21.658  1.00  0.00     0.000 A 
ENDBRANCH  56  75
BRANCH  68  81
ATOM     81  C   UNL A   1      49.647  29.366  30.343  1.00  0.00    -0.014 A 
ATOM     82  C   UNL A   1      50.962  28.935  30.564  1.00  0.00     0.009 A 
ATOM     83  C   UNL A   1      49.338  30.728  30.500  1.00  0.00     0.009 A 
ATOM     84  C   UNL A   1      51.940  29.852  30.963  1.00  0.00     0.001 A 
ATOM     85  C   UNL A   1      50.321  31.642  30.873  1.00  0.00     0.001 A 
ATOM     86  C   UNL A   1      51.620  31.202  31.113  1.00  0.00     0.000 A 
ENDBRANCH  68  81
ENDBRANCH  42  43
ENDBRANCH  35  37
ENDBRANCH  34  35
ENDBRANCH  33  34
ENDBRANCH  32  33
ENDBRANCH  31  32
ENDBRANCH  30  31
ENDBRANCH   1  30
TORSDOF 20
ENDMDL
