MODEL 1
REMARK VINA RESULT:      -8.6      0.000      0.000
REMARK SMILES CC(C)(C)c1cc2c(cc1Cl)C=C(C(=O)OCCOCCOC(=O)c1ccc(-c3c4nc(c(-c5ccccc5)c5ccc([nH]5)c(-c5ccccc5)c5nc(c(-c6ccccc6)c6ccc3[nH]6)C=C5)C=C4)cc1)[C@@H](C(F)(F)F)O2
REMARK SMILES IDX 20 1 19 2 18 3 17 4 16 5 14 6 15 7 13 8 5 9 6 10 10 11 7 12
REMARK SMILES IDX 9 13 11 14 8 15 78 16 12 17 73 18 2 19 1 20 3 21 4 22 74 23
REMARK SMILES IDX 75 24 76 25 77 26 21 27 22 28 23 29 24 30 25 31 26 32 72 33
REMARK SMILES IDX 27 34 71 35 28 36 29 37 30 38 65 39 31 40 70 41 64 42 66 43
REMARK SMILES IDX 32 44 69 45 63 46 62 47 33 49 55 50 40 51 54 52 41 53 44 54
REMARK SMILES IDX 53 55 67 56 42 57 43 58 52 60 68 61 45 62 34 63 35 64 39 65
REMARK SMILES IDX 36 66 38 67 37 68 56 69 57 70 61 71 58 72 60 73 59 74 46 75
REMARK SMILES IDX 47 76 51 77 48 78 50 79 49 80
REMARK H PARENT 66 48 44 59
REMARK Flexibility Score: inf
ROOT
ATOM      1  C   UNL A   1      44.778  19.045  24.652  1.00  0.00     0.202 C 
ENDROOT
BRANCH   1   2
ATOM      2  O   UNL A   1      44.873  20.450  24.430  1.00  0.00    -0.374 OA
BRANCH   2   3
ATOM      3  C   UNL A   1      45.964  21.162  25.004  1.00  0.00     0.202 C 
BRANCH   3   4
ATOM      4  C   UNL A   1      45.650  22.404  25.845  1.00  0.00     0.261 C 
BRANCH   4   5
ATOM      5  O   UNL A   1      46.781  23.278  25.969  1.00  0.00    -0.460 OA
BRANCH   5   6
ATOM      6  C   UNL A   1      46.778  24.311  25.093  1.00  0.00     0.338 C 
ATOM      7  O   UNL A   1      46.817  24.239  23.876  1.00  0.00    -0.246 OA
BRANCH   6   8
ATOM      8  C   UNL A   1      46.584  25.581  25.815  1.00  0.00     0.087 C 
ATOM      9  C   UNL A   1      44.720  30.080  27.127  1.00  0.00    -0.020 A 
ATOM     10  C   UNL A   1      45.971  29.425  27.255  1.00  0.00     0.053 A 
ATOM     11  C   UNL A   1      43.633  29.262  26.747  1.00  0.00     0.045 A 
ATOM     12  C   UNL A   1      46.163  28.090  26.885  1.00  0.00     0.128 A 
ATOM     13  C   UNL A   1      43.831  27.927  26.361  1.00  0.00     0.032 A 
ATOM     14  Cl  UNL A   1      41.978  29.760  26.754  1.00  0.00    -0.084 Cl
ATOM     15  C   UNL A   1      45.100  27.356  26.385  1.00  0.00     0.019 A 
ATOM     16  O   UNL A   1      47.425  27.589  27.034  1.00  0.00    -0.475 OA
ATOM     17  C   UNL A   1      45.325  26.039  25.831  1.00  0.00     0.027 C 
ATOM     18  C   UNL A   1      47.747  26.299  26.439  1.00  0.00     0.316 C 
BRANCH   9  19
ATOM     19  C   UNL A   1      44.633  31.601  27.416  1.00  0.00    -0.012 C 
ATOM     20  C   UNL A   1      44.477  32.437  26.114  1.00  0.00     0.016 C 
ATOM     21  C   UNL A   1      45.931  32.044  28.111  1.00  0.00     0.016 C 
ATOM     22  C   UNL A   1      43.418  32.014  28.282  1.00  0.00     0.016 C 
ENDBRANCH   9  19
BRANCH  18  23
ATOM     23  C   UNL A   1      48.915  26.505  25.462  1.00  0.00     0.430 C 
ATOM     24  F   UNL A   1      49.676  25.387  25.369  1.00  0.00    -0.167 F 
ATOM     25  F   UNL A   1      48.482  26.780  24.210  1.00  0.00    -0.167 F 
ATOM     26  F   UNL A   1      49.724  27.516  25.845  1.00  0.00    -0.167 F 
ENDBRANCH  18  23
ENDBRANCH   6   8
ENDBRANCH   5   6
ENDBRANCH   4   5
ENDBRANCH   3   4
ENDBRANCH   2   3
ENDBRANCH   1   2
BRANCH   1  27
ATOM     27  C   UNL A   1      43.429  18.457  25.090  1.00  0.00     0.261 C 
BRANCH  27  28
ATOM     28  O   UNL A   1      42.894  19.091  26.264  1.00  0.00    -0.460 OA
BRANCH  28  29
ATOM     29  C   UNL A   1      41.694  19.699  26.088  1.00  0.00     0.338 C 
ATOM     30  O   UNL A   1      40.663  19.198  25.664  1.00  0.00    -0.246 OA
BRANCH  29  31
ATOM     31  C   UNL A   1      41.742  21.046  26.684  1.00  0.00     0.060 A 
ATOM     32  C   UNL A   1      41.429  21.247  28.028  1.00  0.00     0.016 A 
ATOM     33  C   UNL A   1      42.151  22.115  25.877  1.00  0.00     0.016 A 
ATOM     34  C   UNL A   1      41.549  22.529  28.570  1.00  0.00     0.010 A 
ATOM     35  C   UNL A   1      42.268  23.395  26.420  1.00  0.00     0.010 A 
ATOM     36  C   UNL A   1      41.986  23.607  27.776  1.00  0.00    -0.014 A 
BRANCH  36  37
ATOM     37  C   UNL A   1      42.270  24.923  28.397  1.00  0.00     0.031 A 
ATOM     38  C   UNL A   1      41.221  25.990  28.493  1.00  0.00     0.074 A 
ATOM     39  C   UNL A   1      43.510  25.152  28.870  1.00  0.00     0.049 A 
ATOM     40  N   UNL A   1      41.297  27.159  29.077  1.00  0.00    -0.248 NA
ATOM     41  C   UNL A   1      39.926  25.717  27.853  1.00  0.00     0.031 C 
ATOM     42  C   UNL A   1      44.619  24.198  28.803  1.00  0.00     0.029 A 
ATOM     43  N   UNL A   1      44.046  26.243  29.508  1.00  0.00    -0.354 N 
ATOM     44  C   UNL A   1      40.056  27.755  28.894  1.00  0.00     0.074 A 
ATOM     45  C   UNL A   1      39.262  26.840  28.101  1.00  0.00     0.031 C 
ATOM     46  C   UNL A   1      45.689  24.727  29.415  1.00  0.00     0.029 A 
ATOM     47  C   UNL A   1      45.358  26.072  29.880  1.00  0.00     0.049 A 
ATOM     48  H   UNL A   1      43.539  27.068  29.684  1.00  0.00     0.167 HD
ATOM     49  C   UNL A   1      39.620  28.947  29.365  1.00  0.00     0.031 A 
ATOM     50  C   UNL A   1      46.204  26.898  30.527  1.00  0.00     0.031 A 
ATOM     51  C   UNL A   1      40.426  29.858  30.137  1.00  0.00     0.049 A 
ATOM     52  C   UNL A   1      45.707  28.239  30.992  1.00  0.00     0.074 A 
ATOM     53  C   UNL A   1      40.053  31.070  30.691  1.00  0.00     0.029 A 
ATOM     54  N   UNL A   1      41.763  29.670  30.455  1.00  0.00    -0.354 N 
ATOM     55  N   UNL A   1      44.505  28.752  30.887  1.00  0.00    -0.248 NA
ATOM     56  C   UNL A   1      46.674  29.108  31.677  1.00  0.00     0.031 C 
ATOM     57  C   UNL A   1      41.181  31.653  31.268  1.00  0.00     0.029 A 
ATOM     58  C   UNL A   1      42.237  30.764  31.160  1.00  0.00     0.049 A 
ATOM     59  H   UNL A   1      42.294  28.877  30.214  1.00  0.00     0.167 HD
ATOM     60  C   UNL A   1      44.564  29.990  31.515  1.00  0.00     0.074 A 
ATOM     61  C   UNL A   1      45.914  30.143  32.014  1.00  0.00     0.031 C 
ATOM     62  C   UNL A   1      43.583  30.913  31.659  1.00  0.00     0.031 A 
BRANCH  49  63
ATOM     63  C   UNL A   1      38.198  29.352  29.080  1.00  0.00    -0.014 A 
ATOM     64  C   UNL A   1      37.871  29.946  27.849  1.00  0.00     0.009 A 
ATOM     65  C   UNL A   1      37.213  29.278  30.078  1.00  0.00     0.009 A 
ATOM     66  C   UNL A   1      36.599  30.480  27.634  1.00  0.00     0.001 A 
ATOM     67  C   UNL A   1      35.932  29.785  29.848  1.00  0.00     0.001 A 
ATOM     68  C   UNL A   1      35.630  30.397  28.631  1.00  0.00     0.000 A 
ENDBRANCH  49  63
BRANCH  50  69
ATOM     69  C   UNL A   1      47.595  26.446  30.801  1.00  0.00    -0.014 A 
ATOM     70  C   UNL A   1      47.937  25.899  32.049  1.00  0.00     0.009 A 
ATOM     71  C   UNL A   1      48.603  26.614  29.839  1.00  0.00     0.009 A 
ATOM     72  C   UNL A   1      49.260  25.560  32.340  1.00  0.00     0.001 A 
ATOM     73  C   UNL A   1      49.919  26.239  30.119  1.00  0.00     0.001 A 
ATOM     74  C   UNL A   1      50.250  25.725  31.372  1.00  0.00     0.000 A 
ENDBRANCH  50  69
BRANCH  62  75
ATOM     75  C   UNL A   1      43.902  32.186  32.399  1.00  0.00    -0.014 A 
ATOM     76  C   UNL A   1      43.641  32.274  33.777  1.00  0.00     0.009 A 
ATOM     77  C   UNL A   1      44.334  33.334  31.717  1.00  0.00     0.009 A 
ATOM     78  C   UNL A   1      43.773  33.490  34.450  1.00  0.00     0.001 A 
ATOM     79  C   UNL A   1      44.501  34.540  32.402  1.00  0.00     0.001 A 
ATOM     80  C   UNL A   1      44.207  34.621  33.762  1.00  0.00     0.000 A 
ENDBRANCH  62  75
ENDBRANCH  36  37
ENDBRANCH  29  31
ENDBRANCH  28  29
ENDBRANCH  27  28
ENDBRANCH   1  27
TORSDOF 16
ENDMDL
MODEL 2
REMARK VINA RESULT:      -8.2      0.985      5.904
REMARK SMILES CC(C)(C)c1cc2c(cc1Cl)C=C(C(=O)OCCOCCOC(=O)c1ccc(-c3c4nc(c(-c5ccccc5)c5ccc([nH]5)c(-c5ccccc5)c5nc(c(-c6ccccc6)c6ccc3[nH]6)C=C5)C=C4)cc1)[C@@H](C(F)(F)F)O2
REMARK SMILES IDX 20 1 19 2 18 3 17 4 16 5 14 6 15 7 13 8 5 9 6 10 10 11 7 12
REMARK SMILES IDX 9 13 11 14 8 15 78 16 12 17 73 18 2 19 1 20 3 21 4 22 74 23
REMARK SMILES IDX 75 24 76 25 77 26 21 27 22 28 23 29 24 30 25 31 26 32 72 33
REMARK SMILES IDX 27 34 71 35 28 36 29 37 30 38 65 39 31 40 70 41 64 42 66 43
REMARK SMILES IDX 32 44 69 45 63 46 62 47 33 49 55 50 40 51 54 52 41 53 44 54
REMARK SMILES IDX 53 55 67 56 42 57 43 58 52 60 68 61 45 62 34 63 35 64 39 65
REMARK SMILES IDX 36 66 38 67 37 68 56 69 57 70 61 71 58 72 60 73 59 74 46 75
REMARK SMILES IDX 47 76 51 77 48 78 50 79 49 80
REMARK H PARENT 66 48 44 59
REMARK Flexibility Score: inf
ROOT
ATOM      1  C   UNL A   1      45.009  19.584  24.396  1.00  0.00     0.202 C 
ENDROOT
BRANCH   1   2
ATOM      2  O   UNL A   1      44.941  21.008  24.440  1.00  0.00    -0.374 OA
BRANCH   2   3
ATOM      3  C   UNL A   1      45.793  21.708  25.340  1.00  0.00     0.202 C 
BRANCH   3   4
ATOM      4  C   UNL A   1      46.412  23.027  24.866  1.00  0.00     0.261 C 
BRANCH   4   5
ATOM      5  O   UNL A   1      46.228  24.088  25.815  1.00  0.00    -0.460 OA
BRANCH   5   6
ATOM      6  C   UNL A   1      45.576  25.165  25.317  1.00  0.00     0.338 C 
ATOM      7  O   UNL A   1      44.617  25.158  24.562  1.00  0.00    -0.246 OA
BRANCH   6   8
ATOM      8  C   UNL A   1      46.107  26.398  25.925  1.00  0.00     0.087 C 
ATOM      9  C   UNL A   1      46.623  31.259  27.169  1.00  0.00    -0.020 A 
ATOM     10  C   UNL A   1      47.492  30.144  27.055  1.00  0.00     0.053 A 
ATOM     11  C   UNL A   1      45.241  30.965  27.158  1.00  0.00     0.045 A 
ATOM     12  C   UNL A   1      47.028  28.851  26.793  1.00  0.00     0.128 A 
ATOM     13  C   UNL A   1      44.778  29.669  26.879  1.00  0.00     0.032 A 
ATOM     14  Cl  UNL A   1      43.991  32.102  27.519  1.00  0.00    -0.084 Cl
ATOM     15  C   UNL A   1      45.668  28.625  26.651  1.00  0.00     0.019 A 
ATOM     16  O   UNL A   1      47.974  27.872  26.679  1.00  0.00    -0.475 OA
ATOM     17  C   UNL A   1      45.191  27.335  26.202  1.00  0.00     0.027 C 
ATOM     18  C   UNL A   1      47.581  26.567  26.164  1.00  0.00     0.316 C 
BRANCH   9  19
ATOM     19  C   UNL A   1      47.232  32.677  27.308  1.00  0.00    -0.012 C 
ATOM     20  C   UNL A   1      48.744  32.704  26.942  1.00  0.00     0.016 C 
ATOM     21  C   UNL A   1      47.090  33.134  28.769  1.00  0.00     0.016 C 
ATOM     22  C   UNL A   1      46.596  33.735  26.373  1.00  0.00     0.016 C 
ENDBRANCH   9  19
BRANCH  18  23
ATOM     23  C   UNL A   1      48.424  26.277  24.913  1.00  0.00     0.430 C 
ATOM     24  F   UNL A   1      47.638  26.127  23.819  1.00  0.00    -0.167 F 
ATOM     25  F   UNL A   1      49.279  27.288  24.636  1.00  0.00    -0.167 F 
ATOM     26  F   UNL A   1      49.156  25.149  25.046  1.00  0.00    -0.167 F 
ENDBRANCH  18  23
ENDBRANCH   6   8
ENDBRANCH   5   6
ENDBRANCH   4   5
ENDBRANCH   3   4
ENDBRANCH   2   3
ENDBRANCH   1   2
BRANCH   1  27
ATOM     27  C   UNL A   1      43.773  18.774  24.808  1.00  0.00     0.261 C 
BRANCH  27  28
ATOM     28  O   UNL A   1      43.228  19.182  26.075  1.00  0.00    -0.460 OA
BRANCH  28  29
ATOM     29  C   UNL A   1      42.001  19.756  26.010  1.00  0.00     0.338 C 
ATOM     30  O   UNL A   1      40.956  19.236  25.649  1.00  0.00    -0.246 OA
BRANCH  29  31
ATOM     31  C   UNL A   1      42.054  21.084  26.646  1.00  0.00     0.060 A 
ATOM     32  C   UNL A   1      41.957  21.222  28.031  1.00  0.00     0.016 A 
ATOM     33  C   UNL A   1      42.248  22.205  25.829  1.00  0.00     0.016 A 
ATOM     34  C   UNL A   1      42.077  22.493  28.599  1.00  0.00     0.010 A 
ATOM     35  C   UNL A   1      42.365  23.473  26.398  1.00  0.00     0.010 A 
ATOM     36  C   UNL A   1      42.300  23.623  27.790  1.00  0.00    -0.014 A 
BRANCH  36  37
ATOM     37  C   UNL A   1      42.592  24.938  28.410  1.00  0.00     0.031 A 
ATOM     38  C   UNL A   1      43.960  25.280  28.918  1.00  0.00     0.074 A 
ATOM     39  C   UNL A   1      41.588  25.829  28.520  1.00  0.00     0.049 A 
ATOM     40  N   UNL A   1      44.387  26.414  29.412  1.00  0.00    -0.248 NA
ATOM     41  C   UNL A   1      44.977  24.219  28.872  1.00  0.00     0.031 C 
ATOM     42  C   UNL A   1      40.210  25.594  28.087  1.00  0.00     0.029 A 
ATOM     43  N   UNL A   1      41.569  27.110  29.015  1.00  0.00    -0.354 N 
ATOM     44  C   UNL A   1      45.727  26.214  29.718  1.00  0.00     0.074 A 
ATOM     45  C   UNL A   1      46.029  24.834  29.402  1.00  0.00     0.031 C 
ATOM     46  C   UNL A   1      39.490  26.706  28.294  1.00  0.00     0.029 A 
ATOM     47  C   UNL A   1      40.342  27.720  28.912  1.00  0.00     0.049 A 
ATOM     48  H   UNL A   1      42.359  27.550  29.404  1.00  0.00     0.167 HD
ATOM     49  C   UNL A   1      46.621  27.110  30.199  1.00  0.00     0.031 A 
ATOM     50  C   UNL A   1      39.941  28.956  29.269  1.00  0.00     0.031 A 
ATOM     51  C   UNL A   1      46.303  28.476  30.529  1.00  0.00     0.049 A 
ATOM     52  C   UNL A   1      40.945  29.912  29.851  1.00  0.00     0.074 A 
ATOM     53  C   UNL A   1      47.157  29.465  30.984  1.00  0.00     0.029 A 
ATOM     54  N   UNL A   1      45.040  29.043  30.454  1.00  0.00    -0.354 N 
ATOM     55  N   UNL A   1      42.228  29.736  30.053  1.00  0.00    -0.248 NA
ATOM     56  C   UNL A   1      40.453  31.242  30.240  1.00  0.00     0.031 C 
ATOM     57  C   UNL A   1      46.399  30.602  31.264  1.00  0.00     0.029 A 
ATOM     58  C   UNL A   1      45.087  30.355  30.895  1.00  0.00     0.049 A 
ATOM     59  H   UNL A   1      44.231  28.580  30.136  1.00  0.00     0.167 HD
ATOM     60  C   UNL A   1      42.701  30.938  30.567  1.00  0.00     0.074 A 
ATOM     61  C   UNL A   1      41.572  31.841  30.626  1.00  0.00     0.031 C 
ATOM     62  C   UNL A   1      43.960  31.255  30.952  1.00  0.00     0.031 A 
BRANCH  49  63
ATOM     63  C   UNL A   1      48.046  26.664  30.395  1.00  0.00    -0.014 A 
ATOM     64  C   UNL A   1      48.962  26.758  29.333  1.00  0.00     0.009 A 
ATOM     65  C   UNL A   1      48.445  26.023  31.577  1.00  0.00     0.009 A 
ATOM     66  C   UNL A   1      50.235  26.195  29.442  1.00  0.00     0.001 A 
ATOM     67  C   UNL A   1      49.731  25.489  31.695  1.00  0.00     0.001 A 
ATOM     68  C   UNL A   1      50.620  25.564  30.622  1.00  0.00     0.000 A 
ENDBRANCH  49  63
BRANCH  50  69
ATOM     69  C   UNL A   1      38.527  29.357  29.040  1.00  0.00    -0.014 A 
ATOM     70  C   UNL A   1      37.583  29.278  30.078  1.00  0.00     0.009 A 
ATOM     71  C   UNL A   1      38.098  29.764  27.767  1.00  0.00     0.009 A 
ATOM     72  C   UNL A   1      36.237  29.566  29.840  1.00  0.00     0.001 A 
ATOM     73  C   UNL A   1      36.757  30.088  27.542  1.00  0.00     0.001 A 
ATOM     74  C   UNL A   1      35.826  29.976  28.573  1.00  0.00     0.000 A 
ENDBRANCH  50  69
BRANCH  62  75
ATOM     75  C   UNL A   1      44.219  32.646  31.470  1.00  0.00    -0.014 A 
ATOM     76  C   UNL A   1      44.399  32.853  32.848  1.00  0.00     0.009 A 
ATOM     77  C   UNL A   1      44.155  33.761  30.621  1.00  0.00     0.009 A 
ATOM     78  C   UNL A   1      44.477  34.146  33.370  1.00  0.00     0.001 A 
ATOM     79  C   UNL A   1      44.270  35.052  31.142  1.00  0.00     0.001 A 
ATOM     80  C   UNL A   1      44.415  35.244  32.515  1.00  0.00     0.000 A 
ENDBRANCH  62  75
ENDBRANCH  36  37
ENDBRANCH  29  31
ENDBRANCH  28  29
ENDBRANCH  27  28
ENDBRANCH   1  27
TORSDOF 16
ENDMDL
MODEL 3
REMARK VINA RESULT:      -8.2      2.208      6.739
REMARK SMILES CC(C)(C)c1cc2c(cc1Cl)C=C(C(=O)OCCOCCOC(=O)c1ccc(-c3c4nc(c(-c5ccccc5)c5ccc([nH]5)c(-c5ccccc5)c5nc(c(-c6ccccc6)c6ccc3[nH]6)C=C5)C=C4)cc1)[C@@H](C(F)(F)F)O2
REMARK SMILES IDX 20 1 19 2 18 3 17 4 16 5 14 6 15 7 13 8 5 9 6 10 10 11 7 12
REMARK SMILES IDX 9 13 11 14 8 15 78 16 12 17 73 18 2 19 1 20 3 21 4 22 74 23
REMARK SMILES IDX 75 24 76 25 77 26 21 27 22 28 23 29 24 30 25 31 26 32 72 33
REMARK SMILES IDX 27 34 71 35 28 36 29 37 30 38 65 39 31 40 70 41 64 42 66 43
REMARK SMILES IDX 32 44 69 45 63 46 62 47 33 49 55 50 40 51 54 52 41 53 44 54
REMARK SMILES IDX 53 55 67 56 42 57 43 58 52 60 68 61 45 62 34 63 35 64 39 65
REMARK SMILES IDX 36 66 38 67 37 68 56 69 57 70 61 71 58 72 60 73 59 74 46 75
REMARK SMILES IDX 47 76 51 77 48 78 50 79 49 80
REMARK H PARENT 66 48 44 59
REMARK Flexibility Score: inf
ROOT
ATOM      1  C   UNL A   1      41.982  19.369  26.198  1.00  0.00     0.202 C 
ENDROOT
BRANCH   1   2
ATOM      2  O   UNL A   1      42.701  18.855  25.078  1.00  0.00    -0.374 OA
BRANCH   2   3
ATOM      3  C   UNL A   1      44.124  18.894  25.102  1.00  0.00     0.202 C 
BRANCH   3   4
ATOM      4  C   UNL A   1      44.831  19.895  24.183  1.00  0.00     0.261 C 
BRANCH   4   5
ATOM      5  O   UNL A   1      45.593  20.865  24.916  1.00  0.00    -0.460 OA
BRANCH   5   6
ATOM      6  C   UNL A   1      44.989  22.071  25.027  1.00  0.00     0.338 C 
ATOM      7  O   UNL A   1      44.030  22.473  24.388  1.00  0.00    -0.246 OA
BRANCH   6   8
ATOM      8  C   UNL A   1      45.574  22.824  26.151  1.00  0.00     0.087 C 
ATOM      9  C   UNL A   1      45.950  25.614  30.336  1.00  0.00    -0.020 A 
ATOM     10  C   UNL A   1      46.758  25.388  29.192  1.00  0.00     0.053 A 
ATOM     11  C   UNL A   1      44.874  24.717  30.516  1.00  0.00     0.045 A 
ATOM     12  C   UNL A   1      46.434  24.440  28.217  1.00  0.00     0.128 A 
ATOM     13  C   UNL A   1      44.541  23.777  29.528  1.00  0.00     0.032 A 
ATOM     14  Cl  UNL A   1      43.896  24.628  31.938  1.00  0.00    -0.084 Cl
ATOM     15  C   UNL A   1      45.290  23.671  28.360  1.00  0.00     0.019 A 
ATOM     16  O   UNL A   1      47.283  24.343  27.152  1.00  0.00    -0.475 OA
ATOM     17  C   UNL A   1      44.848  22.820  27.276  1.00  0.00     0.027 C 
ATOM     18  C   UNL A   1      46.873  23.562  25.991  1.00  0.00     0.316 C 
BRANCH   9  19
ATOM     19  C   UNL A   1      46.302  26.788  31.285  1.00  0.00    -0.012 C 
ATOM     20  C   UNL A   1      47.531  27.599  30.785  1.00  0.00     0.016 C 
ATOM     21  C   UNL A   1      46.645  26.214  32.671  1.00  0.00     0.016 C 
ATOM     22  C   UNL A   1      45.180  27.846  31.429  1.00  0.00     0.016 C 
ENDBRANCH   9  19
BRANCH  18  23
ATOM     23  C   UNL A   1      46.886  24.490  24.767  1.00  0.00     0.430 C 
ATOM     24  F   UNL A   1      47.915  25.370  24.832  1.00  0.00    -0.167 F 
ATOM     25  F   UNL A   1      47.044  23.800  23.614  1.00  0.00    -0.167 F 
ATOM     26  F   UNL A   1      45.746  25.206  24.661  1.00  0.00    -0.167 F 
ENDBRANCH  18  23
ENDBRANCH   6   8
ENDBRANCH   5   6
ENDBRANCH   4   5
ENDBRANCH   3   4
ENDBRANCH   2   3
ENDBRANCH   1   2
BRANCH   1  27
ATOM     27  C   UNL A   1      41.768  20.885  26.305  1.00  0.00     0.261 C 
BRANCH  27  28
ATOM     28  O   UNL A   1      40.702  21.241  27.202  1.00  0.00    -0.460 OA
BRANCH  28  29
ATOM     29  C   UNL A   1      39.789  22.103  26.690  1.00  0.00     0.338 C 
ATOM     30  O   UNL A   1      38.791  21.829  26.039  1.00  0.00    -0.246 OA
BRANCH  29  31
ATOM     31  C   UNL A   1      40.057  23.456  27.209  1.00  0.00     0.060 A 
ATOM     32  C   UNL A   1      40.845  23.646  28.344  1.00  0.00     0.016 A 
ATOM     33  C   UNL A   1      39.537  24.552  26.508  1.00  0.00     0.016 A 
ATOM     34  C   UNL A   1      41.128  24.948  28.766  1.00  0.00     0.010 A 
ATOM     35  C   UNL A   1      39.819  25.850  26.932  1.00  0.00     0.010 A 
ATOM     36  C   UNL A   1      40.633  26.057  28.054  1.00  0.00    -0.014 A 
BRANCH  36  37
ATOM     37  C   UNL A   1      41.075  27.428  28.408  1.00  0.00     0.031 A 
ATOM     38  C   UNL A   1      42.482  27.886  28.168  1.00  0.00     0.074 A 
ATOM     39  C   UNL A   1      40.179  28.263  28.969  1.00  0.00     0.049 A 
ATOM     40  N   UNL A   1      42.996  29.076  28.352  1.00  0.00    -0.248 NA
ATOM     41  C   UNL A   1      43.436  26.888  27.662  1.00  0.00     0.031 C 
ATOM     42  C   UNL A   1      38.791  27.915  29.276  1.00  0.00     0.029 A 
ATOM     43  N   UNL A   1      40.293  29.572  29.368  1.00  0.00    -0.354 N 
ATOM     44  C   UNL A   1      44.326  28.978  27.967  1.00  0.00     0.074 A 
ATOM     45  C   UNL A   1      44.554  27.600  27.587  1.00  0.00     0.031 C 
ATOM     46  C   UNL A   1      38.170  28.993  29.775  1.00  0.00     0.029 A 
ATOM     47  C   UNL A   1      39.123  30.097  29.862  1.00  0.00     0.049 A 
ATOM     48  H   UNL A   1      41.131  30.084  29.305  1.00  0.00     0.167 HD
ATOM     49  C   UNL A   1      45.260  29.958  27.918  1.00  0.00     0.031 A 
ATOM     50  C   UNL A   1      38.842  31.329  30.330  1.00  0.00     0.031 A 
ATOM     51  C   UNL A   1      45.025  31.322  28.318  1.00  0.00     0.049 A 
ATOM     52  C   UNL A   1      39.914  32.383  30.314  1.00  0.00     0.074 A 
ATOM     53  C   UNL A   1      45.903  32.391  28.263  1.00  0.00     0.029 A 
ATOM     54  N   UNL A   1      43.842  31.805  28.855  1.00  0.00    -0.354 N 
ATOM     55  N   UNL A   1      41.143  32.299  29.865  1.00  0.00    -0.248 NA
ATOM     56  C   UNL A   1      39.560  33.705  30.851  1.00  0.00     0.031 C 
ATOM     57  C   UNL A   1      45.282  33.497  28.843  1.00  0.00     0.029 A 
ATOM     58  C   UNL A   1      43.983  33.146  29.174  1.00  0.00     0.049 A 
ATOM     59  H   UNL A   1      43.024  31.274  28.990  1.00  0.00     0.167 HD
ATOM     60  C   UNL A   1      41.700  33.560  30.041  1.00  0.00     0.074 A 
ATOM     61  C   UNL A   1      40.669  34.396  30.619  1.00  0.00     0.031 C 
ATOM     62  C   UNL A   1      42.954  33.978  29.748  1.00  0.00     0.031 A 
BRANCH  49  63
ATOM     63  C   UNL A   1      46.632  29.613  27.403  1.00  0.00    -0.014 A 
ATOM     64  C   UNL A   1      46.773  28.940  26.178  1.00  0.00     0.009 A 
ATOM     65  C   UNL A   1      47.773  29.826  28.191  1.00  0.00     0.009 A 
ATOM     66  C   UNL A   1      48.019  28.464  25.767  1.00  0.00     0.001 A 
ATOM     67  C   UNL A   1      49.025  29.377  27.763  1.00  0.00     0.001 A 
ATOM     68  C   UNL A   1      49.144  28.684  26.558  1.00  0.00     0.000 A 
ENDBRANCH  49  63
BRANCH  50  69
ATOM     69  C   UNL A   1      37.466  31.628  30.813  1.00  0.00    -0.014 A 
ATOM     70  C   UNL A   1      36.461  32.021  29.913  1.00  0.00     0.009 A 
ATOM     71  C   UNL A   1      37.164  31.579  32.183  1.00  0.00     0.009 A 
ATOM     72  C   UNL A   1      35.196  32.390  30.375  1.00  0.00     0.001 A 
ATOM     73  C   UNL A   1      35.885  31.912  32.638  1.00  0.00     0.001 A 
ATOM     74  C   UNL A   1      34.907  32.330  31.737  1.00  0.00     0.000 A 
ENDBRANCH  50  69
BRANCH  62  75
ATOM     75  C   UNL A   1      43.311  35.415  30.028  1.00  0.00    -0.014 A 
ATOM     76  C   UNL A   1      43.174  36.377  29.012  1.00  0.00     0.009 A 
ATOM     77  C   UNL A   1      43.904  35.794  31.242  1.00  0.00     0.009 A 
ATOM     78  C   UNL A   1      43.650  37.677  29.193  1.00  0.00     0.001 A 
ATOM     79  C   UNL A   1      44.345  37.106  31.433  1.00  0.00     0.001 A 
ATOM     80  C   UNL A   1      44.232  38.040  30.405  1.00  0.00     0.000 A 
ENDBRANCH  62  75
ENDBRANCH  36  37
ENDBRANCH  29  31
ENDBRANCH  28  29
ENDBRANCH  27  28
ENDBRANCH   1  27
TORSDOF 16
ENDMDL
