MODEL 1
REMARK VINA RESULT:     -10.1      0.000      0.000
REMARK SMILES CCCC[C@H](C(=O)OCCOCCOC(=O)c1ccc(-c2c3nc(c(-c4ccccc4)c4ccc([nH]4)c(-c4ccccc4)c4nc(c(-c5ccccc5)c5ccc2[nH]5)C=C4)C=C3)cc1)[C@H](O)c1cccc(C2CC2)c1
REMARK SMILES IDX 10 1 9 2 8 3 6 4 7 5 5 6 4 7 3 8 2 9 1 10 65 11 67 12 68 13
REMARK SMILES IDX 75 14 69 15 71 16 70 17 72 18 73 19 74 20 66 21 11 23 12 24
REMARK SMILES IDX 13 25 14 26 15 27 16 28 17 29 18 30 64 31 19 32 63 33 20 34
REMARK SMILES IDX 21 35 22 36 57 37 23 38 62 39 56 40 58 41 24 42 61 43 55 44
REMARK SMILES IDX 54 45 25 47 47 48 32 49 46 50 33 51 36 52 45 53 59 54 34 55
REMARK SMILES IDX 35 56 44 58 60 59 37 60 26 61 27 62 31 63 28 64 30 65 29 66
REMARK SMILES IDX 48 67 49 68 53 69 50 70 52 71 51 72 38 73 39 74 43 75 40 76
REMARK SMILES IDX 42 77 41 78
REMARK H PARENT 66 22 58 46 36 57
REMARK Flexibility Score: inf
ROOT
ATOM      1  C   UNL A   1      41.337  20.179  26.897  1.00  0.00     0.202 C 
ENDROOT
BRANCH   1   2
ATOM      2  C   UNL A   1      40.460  21.427  26.999  1.00  0.00     0.261 C 
BRANCH   2   3
ATOM      3  O   UNL A   1      39.203  21.303  26.303  1.00  0.00    -0.463 OA
BRANCH   3   4
ATOM      4  C   UNL A   1      38.515  22.465  26.143  1.00  0.00     0.312 C 
ATOM      5  O   UNL A   1      38.821  23.537  26.662  1.00  0.00    -0.252 OA
BRANCH   4   6
ATOM      6  C   UNL A   1      37.213  22.321  25.378  1.00  0.00     0.132 C 
BRANCH   6   7
ATOM      7  C   UNL A   1      37.144  23.098  24.045  1.00  0.00     0.018 C 
BRANCH   7   8
ATOM      8  C   UNL A   1      35.909  23.004  23.148  1.00  0.00     0.001 C 
BRANCH   8   9
ATOM      9  C   UNL A   1      34.758  23.959  23.495  1.00  0.00    -0.003 C 
ATOM     10  C   UNL A   1      33.413  23.610  22.878  1.00  0.00     0.004 C 
ENDBRANCH   8   9
ENDBRANCH   7   8
ENDBRANCH   6   7
BRANCH   6  11
ATOM     11  C   UNL A   1      36.733  20.855  25.443  1.00  0.00     0.158 C 
BRANCH  11  12
ATOM     12  C   UNL A   1      35.242  20.612  25.302  1.00  0.00    -0.018 A 
ATOM     13  C   UNL A   1      34.292  21.463  25.879  1.00  0.00     0.006 A 
ATOM     14  C   UNL A   1      34.778  19.490  24.600  1.00  0.00     0.010 A 
ATOM     15  C   UNL A   1      32.940  21.142  25.841  1.00  0.00     0.001 A 
ATOM     16  C   UNL A   1      33.426  19.125  24.541  1.00  0.00    -0.045 A 
ATOM     17  C   UNL A   1      32.524  19.982  25.191  1.00  0.00     0.004 A 
BRANCH  16  18
ATOM     18  C   UNL A   1      32.940  17.887  23.820  1.00  0.00     0.019 C 
ATOM     19  C   UNL A   1      33.907  16.941  23.156  1.00  0.00     0.009 C 
ATOM     20  C   UNL A   1      33.132  16.493  24.360  1.00  0.00     0.009 C 
ENDBRANCH  16  18
ENDBRANCH  11  12
BRANCH  11  21
ATOM     21  O   UNL A   1      37.405  20.073  24.442  1.00  0.00    -0.388 OA
ATOM     22  H   UNL A   1      38.325  19.925  24.711  1.00  0.00     0.211 HD
ENDBRANCH  11  21
ENDBRANCH   6  11
ENDBRANCH   4   6
ENDBRANCH   3   4
ENDBRANCH   2   3
ENDBRANCH   1   2
BRANCH   1  23
ATOM     23  O   UNL A   1      41.862  19.893  25.605  1.00  0.00    -0.374 OA
BRANCH  23  24
ATOM     24  C   UNL A   1      43.280  19.807  25.483  1.00  0.00     0.202 C 
BRANCH  24  25
ATOM     25  C   UNL A   1      44.038  21.139  25.400  1.00  0.00     0.261 C 
BRANCH  25  26
ATOM     26  O   UNL A   1      43.278  22.206  24.787  1.00  0.00    -0.460 OA
BRANCH  26  27
ATOM     27  C   UNL A   1      43.938  23.387  24.680  1.00  0.00     0.338 C 
ATOM     28  O   UNL A   1      44.943  23.608  24.025  1.00  0.00    -0.246 OA
BRANCH  27  29
ATOM     29  C   UNL A   1      43.252  24.478  25.403  1.00  0.00     0.060 A 
ATOM     30  C   UNL A   1      43.840  25.752  25.403  1.00  0.00     0.016 A 
ATOM     31  C   UNL A   1      42.188  24.202  26.258  1.00  0.00     0.016 A 
ATOM     32  C   UNL A   1      43.404  26.738  26.301  1.00  0.00     0.010 A 
ATOM     33  C   UNL A   1      41.759  25.190  27.154  1.00  0.00     0.010 A 
ATOM     34  C   UNL A   1      42.385  26.456  27.216  1.00  0.00    -0.014 A 
BRANCH  34  35
ATOM     35  C   UNL A   1      42.032  27.382  28.334  1.00  0.00     0.031 A 
ATOM     36  C   UNL A   1      42.693  27.207  29.675  1.00  0.00     0.074 A 
ATOM     37  C   UNL A   1      41.083  28.332  28.219  1.00  0.00     0.049 A 
ATOM     38  N   UNL A   1      42.400  27.771  30.820  1.00  0.00    -0.248 NA
ATOM     39  C   UNL A   1      43.858  26.308  29.724  1.00  0.00     0.031 C 
ATOM     40  C   UNL A   1      40.423  28.736  26.986  1.00  0.00     0.029 A 
ATOM     41  N   UNL A   1      40.424  29.049  29.193  1.00  0.00    -0.354 N 
ATOM     42  C   UNL A   1      43.378  27.346  31.708  1.00  0.00     0.074 A 
ATOM     43  C   UNL A   1      44.210  26.397  30.999  1.00  0.00     0.031 C 
ATOM     44  C   UNL A   1      39.325  29.451  27.289  1.00  0.00     0.029 A 
ATOM     45  C   UNL A   1      39.247  29.600  28.738  1.00  0.00     0.049 A 
ATOM     46  H   UNL A   1      40.759  29.156  30.113  1.00  0.00     0.167 HD
ATOM     47  C   UNL A   1      43.604  27.759  32.977  1.00  0.00     0.031 A 
ATOM     48  C   UNL A   1      38.202  30.116  29.412  1.00  0.00     0.031 A 
ATOM     49  C   UNL A   1      42.780  28.694  33.694  1.00  0.00     0.049 A 
ATOM     50  C   UNL A   1      38.312  30.348  30.889  1.00  0.00     0.074 A 
ATOM     51  C   UNL A   1      42.987  29.250  34.944  1.00  0.00     0.029 A 
ATOM     52  N   UNL A   1      41.574  29.192  33.231  1.00  0.00    -0.354 N 
ATOM     53  N   UNL A   1      39.290  30.030  31.698  1.00  0.00    -0.248 NA
ATOM     54  C   UNL A   1      37.211  31.084  31.531  1.00  0.00     0.031 C 
ATOM     55  C   UNL A   1      41.878  30.046  35.260  1.00  0.00     0.029 A 
ATOM     56  C   UNL A   1      41.004  30.016  34.186  1.00  0.00     0.049 A 
ATOM     57  H   UNL A   1      41.181  28.990  32.351  1.00  0.00     0.167 HD
ATOM     58  C   UNL A   1      38.976  30.620  32.916  1.00  0.00     0.074 A 
ATOM     59  C   UNL A   1      37.687  31.257  32.757  1.00  0.00     0.031 C 
ATOM     60  C   UNL A   1      39.730  30.669  34.040  1.00  0.00     0.031 A 
BRANCH  47  61
ATOM     61  C   UNL A   1      44.829  27.223  33.658  1.00  0.00    -0.014 A 
ATOM     62  C   UNL A   1      46.058  27.893  33.542  1.00  0.00     0.009 A 
ATOM     63  C   UNL A   1      44.752  26.069  34.449  1.00  0.00     0.009 A 
ATOM     64  C   UNL A   1      47.197  27.396  34.176  1.00  0.00     0.001 A 
ATOM     65  C   UNL A   1      45.890  25.587  35.101  1.00  0.00     0.001 A 
ATOM     66  C   UNL A   1      47.111  26.245  34.957  1.00  0.00     0.000 A 
ENDBRANCH  47  61
BRANCH  48  67
ATOM     67  C   UNL A   1      36.945  30.451  28.698  1.00  0.00    -0.014 A 
ATOM     68  C   UNL A   1      36.610  31.778  28.405  1.00  0.00     0.009 A 
ATOM     69  C   UNL A   1      36.051  29.425  28.347  1.00  0.00     0.009 A 
ATOM     70  C   UNL A   1      35.389  32.077  27.795  1.00  0.00     0.001 A 
ATOM     71  C   UNL A   1      34.837  29.727  27.726  1.00  0.00     0.001 A 
ATOM     72  C   UNL A   1      34.504  31.052  27.456  1.00  0.00     0.000 A 
ENDBRANCH  48  67
BRANCH  60  73
ATOM     73  C   UNL A   1      39.237  31.533  35.164  1.00  0.00    -0.014 A 
ATOM     74  C   UNL A   1      38.333  31.057  36.123  1.00  0.00     0.009 A 
ATOM     75  C   UNL A   1      39.718  32.849  35.274  1.00  0.00     0.009 A 
ATOM     76  C   UNL A   1      37.901  31.892  37.156  1.00  0.00     0.001 A 
ATOM     77  C   UNL A   1      39.304  33.671  36.320  1.00  0.00     0.001 A 
ATOM     78  C   UNL A   1      38.389  33.194  37.258  1.00  0.00     0.000 A 
ENDBRANCH  60  73
ENDBRANCH  34  35
ENDBRANCH  27  29
ENDBRANCH  26  27
ENDBRANCH  25  26
ENDBRANCH  24  25
ENDBRANCH  23  24
ENDBRANCH   1  23
TORSDOF 21
ENDMDL
MODEL 2
REMARK VINA RESULT:      -9.7      1.588      3.130
REMARK SMILES CCCC[C@H](C(=O)OCCOCCOC(=O)c1ccc(-c2c3nc(c(-c4ccccc4)c4ccc([nH]4)c(-c4ccccc4)c4nc(c(-c5ccccc5)c5ccc2[nH]5)C=C4)C=C3)cc1)[C@H](O)c1cccc(C2CC2)c1
REMARK SMILES IDX 10 1 9 2 8 3 6 4 7 5 5 6 4 7 3 8 2 9 1 10 65 11 67 12 68 13
REMARK SMILES IDX 75 14 69 15 71 16 70 17 72 18 73 19 74 20 66 21 11 23 12 24
REMARK SMILES IDX 13 25 14 26 15 27 16 28 17 29 18 30 64 31 19 32 63 33 20 34
REMARK SMILES IDX 21 35 22 36 57 37 23 38 62 39 56 40 58 41 24 42 61 43 55 44
REMARK SMILES IDX 54 45 25 47 47 48 32 49 46 50 33 51 36 52 45 53 59 54 34 55
REMARK SMILES IDX 35 56 44 58 60 59 37 60 26 61 27 62 31 63 28 64 30 65 29 66
REMARK SMILES IDX 48 67 49 68 53 69 50 70 52 71 51 72 38 73 39 74 43 75 40 76
REMARK SMILES IDX 42 77 41 78
REMARK H PARENT 66 22 58 46 36 57
REMARK Flexibility Score: inf
ROOT
ATOM      1  C   UNL A   1      39.238  19.551  25.400  1.00  0.00     0.202 C 
ENDROOT
BRANCH   1   2
ATOM      2  C   UNL A   1      37.788  19.857  25.024  1.00  0.00     0.261 C 
BRANCH   2   3
ATOM      3  O   UNL A   1      37.504  21.269  24.938  1.00  0.00    -0.463 OA
BRANCH   3   4
ATOM      4  C   UNL A   1      36.190  21.583  24.779  1.00  0.00     0.312 C 
ATOM      5  O   UNL A   1      35.267  20.772  24.806  1.00  0.00    -0.252 OA
BRANCH   4   6
ATOM      6  C   UNL A   1      35.935  23.031  24.403  1.00  0.00     0.132 C 
BRANCH   6   7
ATOM      7  C   UNL A   1      35.052  23.240  23.152  1.00  0.00     0.018 C 
BRANCH   7   8
ATOM      8  C   UNL A   1      33.674  22.585  23.050  1.00  0.00     0.001 C 
BRANCH   8   9
ATOM      9  C   UNL A   1      32.501  23.536  22.773  1.00  0.00    -0.003 C 
ATOM     10  C   UNL A   1      32.807  24.692  21.835  1.00  0.00     0.004 C 
ENDBRANCH   8   9
ENDBRANCH   7   8
ENDBRANCH   6   7
BRANCH   6  11
ATOM     11  C   UNL A   1      35.675  23.861  25.679  1.00  0.00     0.158 C 
BRANCH  11  12
ATOM     12  C   UNL A   1      34.322  24.536  25.796  1.00  0.00    -0.018 A 
ATOM     13  C   UNL A   1      33.251  23.944  26.478  1.00  0.00     0.006 A 
ATOM     14  C   UNL A   1      34.104  25.780  25.186  1.00  0.00     0.010 A 
ATOM     15  C   UNL A   1      31.990  24.529  26.456  1.00  0.00     0.001 A 
ATOM     16  C   UNL A   1      32.848  26.402  25.135  1.00  0.00    -0.045 A 
ATOM     17  C   UNL A   1      31.798  25.733  25.782  1.00  0.00     0.004 A 
BRANCH  16  18
ATOM     18  C   UNL A   1      32.615  27.722  24.434  1.00  0.00     0.019 C 
ATOM     19  C   UNL A   1      31.723  28.778  25.034  1.00  0.00     0.009 C 
ATOM     20  C   UNL A   1      33.199  29.025  24.918  1.00  0.00     0.009 C 
ENDBRANCH  16  18
ENDBRANCH  11  12
BRANCH  11  21
ATOM     21  O   UNL A   1      35.862  23.041  26.845  1.00  0.00    -0.388 OA
ATOM     22  H   UNL A   1      35.016  22.638  27.097  1.00  0.00     0.211 HD
ENDBRANCH  11  21
ENDBRANCH   6  11
ENDBRANCH   4   6
ENDBRANCH   3   4
ENDBRANCH   2   3
ENDBRANCH   1   2
BRANCH   1  23
ATOM     23  O   UNL A   1      39.970  20.626  25.978  1.00  0.00    -0.374 OA
BRANCH  23  24
ATOM     24  C   UNL A   1      41.152  20.294  26.703  1.00  0.00     0.202 C 
BRANCH  24  25
ATOM     25  C   UNL A   1      42.481  20.474  25.955  1.00  0.00     0.261 C 
BRANCH  25  26
ATOM     26  O   UNL A   1      43.202  21.672  26.326  1.00  0.00    -0.460 OA
BRANCH  26  27
ATOM     27  C   UNL A   1      43.139  22.679  25.417  1.00  0.00     0.338 C 
ATOM     28  O   UNL A   1      43.396  22.608  24.228  1.00  0.00    -0.246 OA
BRANCH  27  29
ATOM     29  C   UNL A   1      42.625  23.932  26.008  1.00  0.00     0.060 A 
ATOM     30  C   UNL A   1      43.438  25.075  25.961  1.00  0.00     0.016 A 
ATOM     31  C   UNL A   1      41.478  23.925  26.797  1.00  0.00     0.016 A 
ATOM     32  C   UNL A   1      43.139  26.195  26.751  1.00  0.00     0.010 A 
ATOM     33  C   UNL A   1      41.186  25.046  27.585  1.00  0.00     0.010 A 
ATOM     34  C   UNL A   1      42.031  26.179  27.604  1.00  0.00    -0.014 A 
BRANCH  34  35
ATOM     35  C   UNL A   1      41.789  27.245  28.623  1.00  0.00     0.031 A 
ATOM     36  C   UNL A   1      42.496  27.172  29.951  1.00  0.00     0.074 A 
ATOM     37  C   UNL A   1      40.899  28.240  28.437  1.00  0.00     0.049 A 
ATOM     38  N   UNL A   1      42.291  27.876  31.035  1.00  0.00    -0.248 NA
ATOM     39  C   UNL A   1      43.600  26.204  30.057  1.00  0.00     0.031 C 
ATOM     40  C   UNL A   1      40.214  28.552  27.192  1.00  0.00     0.029 A 
ATOM     41  N   UNL A   1      40.332  29.104  29.348  1.00  0.00    -0.354 N 
ATOM     42  C   UNL A   1      43.276  27.484  31.928  1.00  0.00     0.074 A 
ATOM     43  C   UNL A   1      44.013  26.408  31.300  1.00  0.00     0.031 C 
ATOM     44  C   UNL A   1      39.179  29.371  27.452  1.00  0.00     0.029 A 
ATOM     45  C   UNL A   1      39.175  29.682  28.877  1.00  0.00     0.049 A 
ATOM     46  H   UNL A   1      40.714  29.287  30.238  1.00  0.00     0.167 HD
ATOM     47  C   UNL A   1      43.585  28.016  33.135  1.00  0.00     0.031 A 
ATOM     48  C   UNL A   1      38.196  30.340  29.527  1.00  0.00     0.031 A 
ATOM     49  C   UNL A   1      42.856  29.080  33.771  1.00  0.00     0.049 A 
ATOM     50  C   UNL A   1      38.386  30.724  30.963  1.00  0.00     0.074 A 
ATOM     51  C   UNL A   1      43.153  29.753  34.943  1.00  0.00     0.029 A 
ATOM     52  N   UNL A   1      41.666  29.607  33.299  1.00  0.00    -0.354 N 
ATOM     53  N   UNL A   1      39.376  30.429  31.767  1.00  0.00    -0.248 NA
ATOM     54  C   UNL A   1      37.365  31.601  31.559  1.00  0.00     0.031 C 
ATOM     55  C   UNL A   1      42.114  30.654  35.208  1.00  0.00     0.029 A 
ATOM     56  C   UNL A   1      41.193  30.568  34.177  1.00  0.00     0.049 A 
ATOM     57  H   UNL A   1      41.222  29.338  32.463  1.00  0.00     0.167 HD
ATOM     58  C   UNL A   1      39.155  31.169  32.921  1.00  0.00     0.074 A 
ATOM     59  C   UNL A   1      37.904  31.874  32.739  1.00  0.00     0.031 C 
ATOM     60  C   UNL A   1      39.959  31.288  34.005  1.00  0.00     0.031 A 
BRANCH  47  61
ATOM     61  C   UNL A   1      44.801  27.475  33.826  1.00  0.00    -0.014 A 
ATOM     62  C   UNL A   1      46.086  27.866  33.417  1.00  0.00     0.009 A 
ATOM     63  C   UNL A   1      44.667  26.599  34.913  1.00  0.00     0.009 A 
ATOM     64  C   UNL A   1      47.217  27.364  34.061  1.00  0.00     0.001 A 
ATOM     65  C   UNL A   1      45.801  26.116  35.569  1.00  0.00     0.001 A 
ATOM     66  C   UNL A   1      47.073  26.492  35.138  1.00  0.00     0.000 A 
ENDBRANCH  47  61
BRANCH  48  67
ATOM     67  C   UNL A   1      36.934  30.682  28.826  1.00  0.00    -0.014 A 
ATOM     68  C   UNL A   1      36.682  31.985  28.381  1.00  0.00     0.009 A 
ATOM     69  C   UNL A   1      35.951  29.694  28.643  1.00  0.00     0.009 A 
ATOM     70  C   UNL A   1      35.457  32.300  27.786  1.00  0.00     0.001 A 
ATOM     71  C   UNL A   1      34.734  30.010  28.037  1.00  0.00     0.001 A 
ATOM     72  C   UNL A   1      34.485  31.314  27.615  1.00  0.00     0.000 A 
ENDBRANCH  48  67
BRANCH  60  73
ATOM     73  C   UNL A   1      39.574  32.302  35.042  1.00  0.00    -0.014 A 
ATOM     74  C   UNL A   1      39.971  33.643  34.951  1.00  0.00     0.009 A 
ATOM     75  C   UNL A   1      38.769  31.900  36.121  1.00  0.00     0.009 A 
ATOM     76  C   UNL A   1      39.589  34.557  35.937  1.00  0.00     0.001 A 
ATOM     77  C   UNL A   1      38.369  32.821  37.090  1.00  0.00     0.001 A 
ATOM     78  C   UNL A   1      38.785  34.147  37.001  1.00  0.00     0.000 A 
ENDBRANCH  60  73
ENDBRANCH  34  35
ENDBRANCH  27  29
ENDBRANCH  26  27
ENDBRANCH  25  26
ENDBRANCH  24  25
ENDBRANCH  23  24
ENDBRANCH   1  23
TORSDOF 21
ENDMDL
MODEL 3
REMARK VINA RESULT:      -9.4      4.043      8.459
REMARK SMILES CCCC[C@H](C(=O)OCCOCCOC(=O)c1ccc(-c2c3nc(c(-c4ccccc4)c4ccc([nH]4)c(-c4ccccc4)c4nc(c(-c5ccccc5)c5ccc2[nH]5)C=C4)C=C3)cc1)[C@H](O)c1cccc(C2CC2)c1
REMARK SMILES IDX 10 1 9 2 8 3 6 4 7 5 5 6 4 7 3 8 2 9 1 10 65 11 67 12 68 13
REMARK SMILES IDX 75 14 69 15 71 16 70 17 72 18 73 19 74 20 66 21 11 23 12 24
REMARK SMILES IDX 13 25 14 26 15 27 16 28 17 29 18 30 64 31 19 32 63 33 20 34
REMARK SMILES IDX 21 35 22 36 57 37 23 38 62 39 56 40 58 41 24 42 61 43 55 44
REMARK SMILES IDX 54 45 25 47 47 48 32 49 46 50 33 51 36 52 45 53 59 54 34 55
REMARK SMILES IDX 35 56 44 58 60 59 37 60 26 61 27 62 31 63 28 64 30 65 29 66
REMARK SMILES IDX 48 67 49 68 53 69 50 70 52 71 51 72 38 73 39 74 43 75 40 76
REMARK SMILES IDX 42 77 41 78
REMARK H PARENT 66 22 58 46 36 57
REMARK Flexibility Score: inf
ROOT
ATOM      1  C   UNL A   1      36.242  22.227  25.998  1.00  0.00     0.202 C 
ENDROOT
BRANCH   1   2
ATOM      2  C   UNL A   1      34.762  21.920  26.230  1.00  0.00     0.261 C 
BRANCH   2   3
ATOM      3  O   UNL A   1      33.892  22.516  25.247  1.00  0.00    -0.463 OA
BRANCH   3   4
ATOM      4  C   UNL A   1      33.001  23.419  25.738  1.00  0.00     0.312 C 
ATOM      5  O   UNL A   1      32.532  23.393  26.873  1.00  0.00    -0.252 OA
BRANCH   4   6
ATOM      6  C   UNL A   1      32.487  24.412  24.712  1.00  0.00     0.132 C 
BRANCH   6   7
ATOM      7  C   UNL A   1      32.671  23.989  23.237  1.00  0.00     0.018 C 
BRANCH   7   8
ATOM      8  C   UNL A   1      33.576  24.790  22.301  1.00  0.00     0.001 C 
BRANCH   8   9
ATOM      9  C   UNL A   1      32.969  26.078  21.727  1.00  0.00    -0.003 C 
ATOM     10  C   UNL A   1      33.538  27.372  22.285  1.00  0.00     0.004 C 
ENDBRANCH   8   9
ENDBRANCH   7   8
ENDBRANCH   6   7
BRANCH   6  11
ATOM     11  C   UNL A   1      31.138  24.996  25.185  1.00  0.00     0.158 C 
BRANCH  11  12
ATOM     12  C   UNL A   1      30.828  26.425  24.782  1.00  0.00    -0.018 A 
ATOM     13  C   UNL A   1      29.879  26.732  23.799  1.00  0.00     0.006 A 
ATOM     14  C   UNL A   1      31.522  27.488  25.378  1.00  0.00     0.010 A 
ATOM     15  C   UNL A   1      29.712  28.040  23.362  1.00  0.00     0.001 A 
ATOM     16  C   UNL A   1      31.389  28.821  24.965  1.00  0.00    -0.045 A 
ATOM     17  C   UNL A   1      30.469  29.062  23.933  1.00  0.00     0.004 A 
BRANCH  16  18
ATOM     18  C   UNL A   1      32.177  29.955  25.584  1.00  0.00     0.019 C 
ATOM     19  C   UNL A   1      31.484  31.144  26.196  1.00  0.00     0.009 C 
ATOM     20  C   UNL A   1      32.246  30.192  27.071  1.00  0.00     0.009 C 
ENDBRANCH  16  18
ENDBRANCH  11  12
BRANCH  11  21
ATOM     21  O   UNL A   1      30.057  24.164  24.733  1.00  0.00    -0.388 OA
ATOM     22  H   UNL A   1      29.596  24.603  24.001  1.00  0.00     0.211 HD
ENDBRANCH  11  21
ENDBRANCH   6  11
ENDBRANCH   4   6
ENDBRANCH   3   4
ENDBRANCH   2   3
ENDBRANCH   1   2
BRANCH   1  23
ATOM     23  O   UNL A   1      36.830  21.620  24.853  1.00  0.00    -0.374 OA
BRANCH  23  24
ATOM     24  C   UNL A   1      36.957  20.199  24.862  1.00  0.00     0.202 C 
BRANCH  24  25
ATOM     25  C   UNL A   1      38.385  19.646  24.978  1.00  0.00     0.261 C 
BRANCH  25  26
ATOM     26  O   UNL A   1      39.212  20.361  25.925  1.00  0.00    -0.460 OA
BRANCH  26  27
ATOM     27  C   UNL A   1      40.490  19.911  26.019  1.00  0.00     0.338 C 
ATOM     28  O   UNL A   1      40.912  18.826  25.657  1.00  0.00    -0.246 OA
BRANCH  27  29
ATOM     29  C   UNL A   1      41.406  20.938  26.557  1.00  0.00     0.060 A 
ATOM     30  C   UNL A   1      41.355  21.226  27.929  1.00  0.00     0.016 A 
ATOM     31  C   UNL A   1      42.125  21.766  25.698  1.00  0.00     0.016 A 
ATOM     32  C   UNL A   1      41.974  22.376  28.440  1.00  0.00     0.010 A 
ATOM     33  C   UNL A   1      42.739  22.915  26.214  1.00  0.00     0.010 A 
ATOM     34  C   UNL A   1      42.639  23.257  27.582  1.00  0.00    -0.014 A 
BRANCH  34  35
ATOM     35  C   UNL A   1      43.123  24.598  28.028  1.00  0.00     0.031 A 
ATOM     36  C   UNL A   1      42.133  25.718  28.210  1.00  0.00     0.074 A 
ATOM     37  C   UNL A   1      44.430  24.878  28.206  1.00  0.00     0.049 A 
ATOM     38  N   UNL A   1      42.356  26.994  28.404  1.00  0.00    -0.248 NA
ATOM     39  C   UNL A   1      40.709  25.346  28.207  1.00  0.00     0.031 C 
ATOM     40  C   UNL A   1      45.519  23.912  28.200  1.00  0.00     0.029 A 
ATOM     41  N   UNL A   1      45.070  26.093  28.309  1.00  0.00    -0.354 N 
ATOM     42  C   UNL A   1      41.109  27.564  28.610  1.00  0.00     0.074 A 
ATOM     43  C   UNL A   1      40.127  26.519  28.413  1.00  0.00     0.031 C 
ATOM     44  C   UNL A   1      46.686  24.567  28.075  1.00  0.00     0.029 A 
ATOM     45  C   UNL A   1      46.420  26.001  28.054  1.00  0.00     0.049 A 
ATOM     46  H   UNL A   1      44.612  26.934  28.541  1.00  0.00     0.167 HD
ATOM     47  C   UNL A   1      40.810  28.828  28.995  1.00  0.00     0.031 A 
ATOM     48  C   UNL A   1      47.328  26.957  27.782  1.00  0.00     0.031 A 
ATOM     49  C   UNL A   1      41.776  29.876  29.186  1.00  0.00     0.049 A 
ATOM     50  C   UNL A   1      46.957  28.401  27.940  1.00  0.00     0.074 A 
ATOM     51  C   UNL A   1      41.579  31.156  29.673  1.00  0.00     0.029 A 
ATOM     52  N   UNL A   1      43.120  29.770  28.872  1.00  0.00    -0.354 N 
ATOM     53  N   UNL A   1      45.792  28.920  28.236  1.00  0.00    -0.248 NA
ATOM     54  C   UNL A   1      48.042  29.386  27.809  1.00  0.00     0.031 C 
ATOM     55  C   UNL A   1      42.798  31.843  29.605  1.00  0.00     0.029 A 
ATOM     56  C   UNL A   1      43.758  30.975  29.115  1.00  0.00     0.049 A 
ATOM     57  H   UNL A   1      43.557  28.959  28.528  1.00  0.00     0.167 HD
ATOM     58  C   UNL A   1      46.025  30.275  28.433  1.00  0.00     0.074 A 
ATOM     59  C   UNL A   1      47.427  30.507  28.160  1.00  0.00     0.031 C 
ATOM     60  C   UNL A   1      45.154  31.220  28.862  1.00  0.00     0.031 A 
BRANCH  47  61
ATOM     61  C   UNL A   1      39.368  29.130  29.277  1.00  0.00    -0.014 A 
ATOM     62  C   UNL A   1      38.520  29.578  28.250  1.00  0.00     0.009 A 
ATOM     63  C   UNL A   1      38.840  28.932  30.560  1.00  0.00     0.009 A 
ATOM     64  C   UNL A   1      37.179  29.858  28.512  1.00  0.00     0.001 A 
ATOM     65  C   UNL A   1      37.491  29.192  30.813  1.00  0.00     0.001 A 
ATOM     66  C   UNL A   1      36.666  29.662  29.792  1.00  0.00     0.000 A 
ENDBRANCH  47  61
BRANCH  48  67
ATOM     67  C   UNL A   1      48.689  26.586  27.324  1.00  0.00    -0.014 A 
ATOM     68  C   UNL A   1      48.986  26.464  25.961  1.00  0.00     0.009 A 
ATOM     69  C   UNL A   1      49.689  26.305  28.271  1.00  0.00     0.009 A 
ATOM     70  C   UNL A   1      50.256  26.044  25.553  1.00  0.00     0.001 A 
ATOM     71  C   UNL A   1      50.960  25.899  27.859  1.00  0.00     0.001 A 
ATOM     72  C   UNL A   1      51.240  25.762  26.501  1.00  0.00     0.000 A 
ENDBRANCH  48  67
BRANCH  60  73
ATOM     73  C   UNL A   1      45.707  32.579  29.173  1.00  0.00    -0.014 A 
ATOM     74  C   UNL A   1      45.716  33.611  28.225  1.00  0.00     0.009 A 
ATOM     75  C   UNL A   1      46.207  32.833  30.462  1.00  0.00     0.009 A 
ATOM     76  C   UNL A   1      46.238  34.864  28.554  1.00  0.00     0.001 A 
ATOM     77  C   UNL A   1      46.704  34.093  30.795  1.00  0.00     0.001 A 
ATOM     78  C   UNL A   1      46.726  35.106  29.839  1.00  0.00     0.000 A 
ENDBRANCH  60  73
ENDBRANCH  34  35
ENDBRANCH  27  29
ENDBRANCH  26  27
ENDBRANCH  25  26
ENDBRANCH  24  25
ENDBRANCH  23  24
ENDBRANCH   1  23
TORSDOF 21
ENDMDL
