MODEL 1
REMARK VINA RESULT:     -11.9      0.000      0.000
REMARK SMILES Cc1c(Cl)cccc1NC(=O)NCc1cn([C@@H]2C[NH2+][C@H](C(=O)OCCOCCOC(=O)c3ccc(-c4c5nc(c(-c6ccccc6)c6ccc([nH]6)c(-c6ccccc6)c6nc(c(-c7ccccc7)c7ccc4[nH]7)C=C6)C=C5)cc3)C2)nn1
REMARK SMILES IDX 25 1 24 2 23 3 21 4 22 5 20 6 17 7 18 8 80 9 19 10 16 13
REMARK SMILES IDX 14 14 15 15 82 16 81 17 13 18 12 19 9 20 10 21 11 23 8 25
REMARK SMILES IDX 1 26 2 27 3 28 4 29 5 30 7 31 6 32 26 33 27 34 28 35 29 36
REMARK SMILES IDX 30 37 31 38 32 39 33 40 79 41 34 42 78 43 35 44 36 45 37 46
REMARK SMILES IDX 72 47 38 48 77 49 71 50 73 51 39 52 76 53 70 54 69 55 40 57
REMARK SMILES IDX 62 58 47 59 61 60 48 61 51 62 60 63 74 64 49 65 50 66 59 68
REMARK SMILES IDX 75 69 52 70 41 71 42 72 46 73 43 74 45 75 44 76 63 77 64 78
REMARK SMILES IDX 68 79 65 80 67 81 66 82 53 83 54 84 58 85 55 86 57 87 56 88
REMARK H PARENT 19 11 19 12 9 22 12 24 73 56 51 67
REMARK Flexibility Score: inf
ROOT
ATOM      1  C   UNL A   1      34.259  32.037  28.552  1.00  0.00     0.202 C 
ENDROOT
BRANCH   1   2
ATOM      2  C   UNL A   1      33.641  31.220  27.417  1.00  0.00     0.261 C 
BRANCH   2   3
ATOM      3  O   UNL A   1      34.006  29.833  27.498  1.00  0.00    -0.459 OA
BRANCH   3   4
ATOM      4  C   UNL A   1      33.410  29.018  26.582  1.00  0.00     0.365 C 
ATOM      5  O   UNL A   1      33.257  27.809  26.725  1.00  0.00    -0.245 OA
BRANCH   4   6
ATOM      6  C   UNL A   1      32.793  29.816  25.416  1.00  0.00     0.295 C 
ATOM      7  C   UNL A   1      31.476  28.617  23.755  1.00  0.00     0.170 C 
ATOM      8  C   UNL A   1      32.975  28.552  23.457  1.00  0.00     0.289 C 
ATOM      9  C   UNL A   1      31.376  29.345  25.095  1.00  0.00     0.110 C 
ATOM     10  N   UNL A   1      33.569  29.698  24.157  1.00  0.00    -0.333 N 
ATOM     11  H   UNL A   1      33.480  30.546  23.598  1.00  0.00     0.347 HD
ATOM     12  H   UNL A   1      34.566  29.568  24.330  1.00  0.00     0.347 HD
BRANCH   7  13
ATOM     13  N   UNL A   1      30.869  27.309  23.784  1.00  0.00    -0.243 N 
ATOM     14  C   UNL A   1      30.499  25.191  23.977  1.00  0.00     0.102 A 
ATOM     15  C   UNL A   1      31.475  26.148  24.137  1.00  0.00     0.137 A 
ATOM     16  N   UNL A   1      29.335  25.805  23.593  1.00  0.00    -0.134 NA
ATOM     17  N   UNL A   1      29.577  27.110  23.476  1.00  0.00    -0.067 NA
BRANCH  14  18
ATOM     18  C   UNL A   1      30.683  23.755  24.252  1.00  0.00     0.178 C 
BRANCH  18  19
ATOM     19  N   UNL A   1      30.227  23.310  25.536  1.00  0.00    -0.332 N 
ATOM     20  N   UNL A   1      32.006  22.344  26.845  1.00  0.00    -0.308 N 
ATOM     21  C   UNL A   1      30.794  22.890  26.663  1.00  0.00     0.319 C 
ATOM     22  H   UNL A   1      32.160  22.157  27.801  1.00  0.00     0.171 HD
ATOM     23  O   UNL A   1      30.070  22.925  27.669  1.00  0.00    -0.248 OA
ATOM     24  H   UNL A   1      29.245  23.318  25.599  1.00  0.00     0.165 HD
BRANCH  20  25
ATOM     25  C   UNL A   1      33.123  21.958  26.081  1.00  0.00     0.047 A 
ATOM     26  C   UNL A   1      34.013  24.373  26.102  1.00  0.00     0.048 C 
ATOM     27  C   UNL A   1      34.155  22.896  25.821  1.00  0.00    -0.009 A 
ATOM     28  C   UNL A   1      35.343  22.440  25.200  1.00  0.00     0.046 A 
ATOM     29  Cl  UNL A   1      36.666  23.503  24.854  1.00  0.00    -0.084 Cl
ATOM     30  C   UNL A   1      35.495  21.109  24.813  1.00  0.00     0.021 A 
ATOM     31  C   UNL A   1      33.226  20.705  25.482  1.00  0.00     0.026 A 
ATOM     32  C   UNL A   1      34.414  20.249  24.913  1.00  0.00     0.004 A 
ENDBRANCH  20  25
ENDBRANCH  18  19
ENDBRANCH  14  18
ENDBRANCH   7  13
ENDBRANCH   4   6
ENDBRANCH   3   4
ENDBRANCH   2   3
ENDBRANCH   1   2
BRANCH   1  33
ATOM     33  O   UNL A   1      34.406  33.449  28.393  1.00  0.00    -0.374 OA
BRANCH  33  34
ATOM     34  C   UNL A   1      33.274  34.311  28.400  1.00  0.00     0.202 C 
BRANCH  34  35
ATOM     35  C   UNL A   1      33.118  35.326  29.526  1.00  0.00     0.261 C 
BRANCH  35  36
ATOM     36  O   UNL A   1      32.897  34.699  30.776  1.00  0.00    -0.460 OA
BRANCH  36  37
ATOM     37  C   UNL A   1      33.218  35.475  31.831  1.00  0.00     0.338 C 
ATOM     38  O   UNL A   1      32.903  36.647  32.011  1.00  0.00    -0.246 OA
BRANCH  37  39
ATOM     39  C   UNL A   1      34.149  34.745  32.695  1.00  0.00     0.060 A 
ATOM     40  C   UNL A   1      35.274  35.481  33.067  1.00  0.00     0.016 A 
ATOM     41  C   UNL A   1      34.146  33.345  32.631  1.00  0.00     0.016 A 
ATOM     42  C   UNL A   1      36.486  34.848  32.993  1.00  0.00     0.010 A 
ATOM     43  C   UNL A   1      35.358  32.718  32.530  1.00  0.00     0.010 A 
ATOM     44  C   UNL A   1      36.504  33.506  32.599  1.00  0.00    -0.014 A 
BRANCH  44  45
ATOM     45  C   UNL A   1      37.786  32.911  32.330  1.00  0.00     0.031 A 
ATOM     46  C   UNL A   1      38.639  32.883  33.531  1.00  0.00     0.074 A 
ATOM     47  C   UNL A   1      38.099  32.386  31.133  1.00  0.00     0.049 A 
ATOM     48  N   UNL A   1      39.710  33.569  33.739  1.00  0.00    -0.248 NA
ATOM     49  C   UNL A   1      38.124  32.175  34.714  1.00  0.00     0.031 C 
ATOM     50  C   UNL A   1      37.233  32.146  29.977  1.00  0.00     0.029 A 
ATOM     51  N   UNL A   1      39.275  31.829  30.754  1.00  0.00    -0.354 N 
ATOM     52  C   UNL A   1      40.111  33.237  35.025  1.00  0.00     0.074 A 
ATOM     53  C   UNL A   1      39.003  32.553  35.639  1.00  0.00     0.031 C 
ATOM     54  C   UNL A   1      37.843  31.265  29.148  1.00  0.00     0.029 A 
ATOM     55  C   UNL A   1      39.176  30.982  29.661  1.00  0.00     0.049 A 
ATOM     56  H   UNL A   1      40.126  32.010  31.214  1.00  0.00     0.167 HD
ATOM     57  C   UNL A   1      41.416  33.309  35.395  1.00  0.00     0.031 A 
ATOM     58  C   UNL A   1      40.095  30.056  29.288  1.00  0.00     0.031 A 
ATOM     59  C   UNL A   1      42.189  34.083  34.461  1.00  0.00     0.049 A 
ATOM     60  C   UNL A   1      41.376  30.406  29.955  1.00  0.00     0.074 A 
ATOM     61  C   UNL A   1      42.160  35.396  34.037  1.00  0.00     0.029 A 
ATOM     62  N   UNL A   1      42.897  33.385  33.508  1.00  0.00    -0.354 N 
ATOM     63  N   UNL A   1      42.071  31.464  29.645  1.00  0.00    -0.248 NA
ATOM     64  C   UNL A   1      41.630  29.868  31.286  1.00  0.00     0.031 C 
ATOM     65  C   UNL A   1      42.444  35.339  32.643  1.00  0.00     0.029 A 
ATOM     66  C   UNL A   1      42.700  34.008  32.304  1.00  0.00     0.049 A 
ATOM     67  H   UNL A   1      43.446  32.583  33.664  1.00  0.00     0.167 HD
ATOM     68  C   UNL A   1      42.493  31.981  30.863  1.00  0.00     0.074 A 
ATOM     69  C   UNL A   1      42.281  30.904  31.829  1.00  0.00     0.031 C 
ATOM     70  C   UNL A   1      42.685  33.324  31.029  1.00  0.00     0.031 A 
BRANCH  57  71
ATOM     71  C   UNL A   1      42.048  32.324  36.340  1.00  0.00    -0.014 A 
ATOM     72  C   UNL A   1      42.609  32.809  37.531  1.00  0.00     0.009 A 
ATOM     73  C   UNL A   1      42.370  31.001  35.979  1.00  0.00     0.009 A 
ATOM     74  C   UNL A   1      43.508  32.038  38.275  1.00  0.00     0.001 A 
ATOM     75  C   UNL A   1      43.232  30.213  36.740  1.00  0.00     0.001 A 
ATOM     76  C   UNL A   1      43.827  30.744  37.873  1.00  0.00     0.000 A 
ENDBRANCH  57  71
BRANCH  58  77
ATOM     77  C   UNL A   1      39.861  28.739  28.652  1.00  0.00    -0.014 A 
ATOM     78  C   UNL A   1      40.393  28.441  27.387  1.00  0.00     0.009 A 
ATOM     79  C   UNL A   1      39.323  27.673  29.399  1.00  0.00     0.009 A 
ATOM     80  C   UNL A   1      40.411  27.124  26.904  1.00  0.00     0.001 A 
ATOM     81  C   UNL A   1      39.337  26.361  28.917  1.00  0.00     0.001 A 
ATOM     82  C   UNL A   1      39.895  26.083  27.674  1.00  0.00     0.000 A 
ENDBRANCH  58  77
BRANCH  70  83
ATOM     83  C   UNL A   1      42.611  34.204  29.805  1.00  0.00    -0.014 A 
ATOM     84  C   UNL A   1      41.417  34.803  29.363  1.00  0.00     0.009 A 
ATOM     85  C   UNL A   1      43.812  34.584  29.189  1.00  0.00     0.009 A 
ATOM     86  C   UNL A   1      41.425  35.734  28.320  1.00  0.00     0.001 A 
ATOM     87  C   UNL A   1      43.822  35.531  28.162  1.00  0.00     0.001 A 
ATOM     88  C   UNL A   1      42.629  36.102  27.724  1.00  0.00     0.000 A 
ENDBRANCH  70  83
ENDBRANCH  44  45
ENDBRANCH  37  39
ENDBRANCH  36  37
ENDBRANCH  35  36
ENDBRANCH  34  35
ENDBRANCH  33  34
ENDBRANCH   1  33
TORSDOF 18
ENDMDL
MODEL 2
REMARK VINA RESULT:     -11.7      5.461     10.385
REMARK SMILES Cc1c(Cl)cccc1NC(=O)NCc1cn([C@@H]2C[NH2+][C@H](C(=O)OCCOCCOC(=O)c3ccc(-c4c5nc(c(-c6ccccc6)c6ccc([nH]6)c(-c6ccccc6)c6nc(c(-c7ccccc7)c7ccc4[nH]7)C=C6)C=C5)cc3)C2)nn1
REMARK SMILES IDX 25 1 24 2 23 3 21 4 22 5 20 6 17 7 18 8 80 9 19 10 16 13
REMARK SMILES IDX 14 14 15 15 82 16 81 17 13 18 12 19 9 20 10 21 11 23 8 25
REMARK SMILES IDX 1 26 2 27 3 28 4 29 5 30 7 31 6 32 26 33 27 34 28 35 29 36
REMARK SMILES IDX 30 37 31 38 32 39 33 40 79 41 34 42 78 43 35 44 36 45 37 46
REMARK SMILES IDX 72 47 38 48 77 49 71 50 73 51 39 52 76 53 70 54 69 55 40 57
REMARK SMILES IDX 62 58 47 59 61 60 48 61 51 62 60 63 74 64 49 65 50 66 59 68
REMARK SMILES IDX 75 69 52 70 41 71 42 72 46 73 43 74 45 75 44 76 63 77 64 78
REMARK SMILES IDX 68 79 65 80 67 81 66 82 53 83 54 84 58 85 55 86 57 87 56 88
REMARK H PARENT 19 11 19 12 9 22 12 24 73 56 51 67
REMARK Flexibility Score: inf
ROOT
ATOM      1  C   UNL A   1      39.363  21.777  26.242  1.00  0.00     0.202 C 
ENDROOT
BRANCH   1   2
ATOM      2  C   UNL A   1      38.212  21.339  25.335  1.00  0.00     0.261 C 
BRANCH   2   3
ATOM      3  O   UNL A   1      37.509  22.464  24.784  1.00  0.00    -0.459 OA
BRANCH   3   4
ATOM      4  C   UNL A   1      36.206  22.235  24.455  1.00  0.00     0.365 C 
ATOM      5  O   UNL A   1      35.688  22.575  23.397  1.00  0.00    -0.245 OA
BRANCH   4   6
ATOM      6  C   UNL A   1      35.497  21.345  25.496  1.00  0.00     0.295 C 
ATOM      7  C   UNL A   1      33.275  21.989  26.257  1.00  0.00     0.170 C 
ATOM      8  C   UNL A   1      34.380  22.715  27.025  1.00  0.00     0.289 C 
ATOM      9  C   UNL A   1      34.011  21.184  25.185  1.00  0.00     0.110 C 
ATOM     10  N   UNL A   1      35.581  21.885  26.875  1.00  0.00    -0.333 N 
ATOM     11  H   UNL A   1      35.583  21.128  27.558  1.00  0.00     0.347 HD
ATOM     12  H   UNL A   1      36.438  22.416  27.029  1.00  0.00     0.347 HD
BRANCH   7  13
ATOM     13  N   UNL A   1      32.306  22.902  25.702  1.00  0.00    -0.243 N 
ATOM     14  C   UNL A   1      31.100  24.100  24.372  1.00  0.00     0.102 A 
ATOM     15  C   UNL A   1      32.092  23.146  24.385  1.00  0.00     0.137 A 
ATOM     16  N   UNL A   1      30.714  24.356  25.662  1.00  0.00    -0.134 NA
ATOM     17  N   UNL A   1      31.466  23.612  26.472  1.00  0.00    -0.067 NA
BRANCH  14  18
ATOM     18  C   UNL A   1      30.516  24.681  23.150  1.00  0.00     0.178 C 
BRANCH  18  19
ATOM     19  N   UNL A   1      31.440  24.940  22.086  1.00  0.00    -0.332 N 
ATOM     20  N   UNL A   1      32.882  26.809  22.572  1.00  0.00    -0.308 N 
ATOM     21  C   UNL A   1      32.520  25.697  21.916  1.00  0.00     0.319 C 
ATOM     22  H   UNL A   1      33.751  27.138  22.243  1.00  0.00     0.171 HD
ATOM     23  O   UNL A   1      33.246  25.383  20.961  1.00  0.00    -0.248 OA
ATOM     24  H   UNL A   1      31.220  24.427  21.276  1.00  0.00     0.165 HD
BRANCH  20  25
ATOM     25  C   UNL A   1      32.393  27.649  23.592  1.00  0.00     0.047 A 
ATOM     26  C   UNL A   1      33.795  26.392  25.345  1.00  0.00     0.048 C 
ATOM     27  C   UNL A   1      32.916  27.538  24.905  1.00  0.00    -0.009 A 
ATOM     28  C   UNL A   1      32.535  28.503  25.869  1.00  0.00     0.046 A 
ATOM     29  Cl  UNL A   1      33.129  28.463  27.495  1.00  0.00    -0.084 Cl
ATOM     30  C   UNL A   1      31.637  29.523  25.558  1.00  0.00     0.021 A 
ATOM     31  C   UNL A   1      31.340  28.538  23.390  1.00  0.00     0.026 A 
ATOM     32  C   UNL A   1      31.003  29.513  24.328  1.00  0.00     0.004 A 
ENDBRANCH  20  25
ENDBRANCH  18  19
ENDBRANCH  14  18
ENDBRANCH   7  13
ENDBRANCH   4   6
ENDBRANCH   3   4
ENDBRANCH   2   3
ENDBRANCH   1   2
BRANCH   1  33
ATOM     33  O   UNL A   1      40.093  20.786  26.966  1.00  0.00    -0.374 OA
BRANCH  33  34
ATOM     34  C   UNL A   1      40.814  19.764  26.289  1.00  0.00     0.202 C 
BRANCH  34  35
ATOM     35  C   UNL A   1      42.337  19.818  26.264  1.00  0.00     0.261 C 
BRANCH  35  36
ATOM     36  O   UNL A   1      42.839  19.974  24.949  1.00  0.00    -0.460 OA
BRANCH  36  37
ATOM     37  C   UNL A   1      44.184  19.923  24.877  1.00  0.00     0.338 C 
ATOM     38  O   UNL A   1      44.895  18.930  24.996  1.00  0.00    -0.246 OA
BRANCH  37  39
ATOM     39  C   UNL A   1      44.709  21.287  24.779  1.00  0.00     0.060 A 
ATOM     40  C   UNL A   1      45.742  21.564  25.675  1.00  0.00     0.016 A 
ATOM     41  C   UNL A   1      43.866  22.281  24.262  1.00  0.00     0.016 A 
ATOM     42  C   UNL A   1      45.681  22.755  26.348  1.00  0.00     0.010 A 
ATOM     43  C   UNL A   1      43.789  23.460  24.953  1.00  0.00     0.010 A 
ATOM     44  C   UNL A   1      44.623  23.622  26.056  1.00  0.00    -0.014 A 
BRANCH  44  45
ATOM     45  C   UNL A   1      44.454  24.772  26.904  1.00  0.00     0.031 A 
ATOM     46  C   UNL A   1      45.592  25.701  26.800  1.00  0.00     0.074 A 
ATOM     47  C   UNL A   1      43.342  24.973  27.630  1.00  0.00     0.049 A 
ATOM     48  N   UNL A   1      46.475  25.954  27.703  1.00  0.00    -0.248 NA
ATOM     49  C   UNL A   1      45.905  26.246  25.468  1.00  0.00     0.031 C 
ATOM     50  C   UNL A   1      42.075  24.240  27.598  1.00  0.00     0.029 A 
ATOM     51  N   UNL A   1      43.080  25.994  28.482  1.00  0.00    -0.354 N 
ATOM     52  C   UNL A   1      47.361  26.840  27.110  1.00  0.00     0.074 A 
ATOM     53  C   UNL A   1      47.084  26.817  25.698  1.00  0.00     0.031 C 
ATOM     54  C   UNL A   1      41.116  24.995  28.186  1.00  0.00     0.029 A 
ATOM     55  C   UNL A   1      41.732  26.196  28.730  1.00  0.00     0.049 A 
ATOM     56  H   UNL A   1      43.787  26.545  28.890  1.00  0.00     0.167 HD
ATOM     57  C   UNL A   1      48.072  27.728  27.853  1.00  0.00     0.031 A 
ATOM     58  C   UNL A   1      41.180  27.320  29.255  1.00  0.00     0.031 A 
ATOM     59  C   UNL A   1      48.062  27.377  29.249  1.00  0.00     0.049 A 
ATOM     60  C   UNL A   1      42.271  28.086  29.913  1.00  0.00     0.074 A 
ATOM     61  C   UNL A   1      48.513  26.294  29.976  1.00  0.00     0.029 A 
ATOM     62  N   UNL A   1      47.148  28.026  30.049  1.00  0.00    -0.354 N 
ATOM     63  N   UNL A   1      42.873  27.677  30.994  1.00  0.00    -0.248 NA
ATOM     64  C   UNL A   1      43.025  29.041  29.109  1.00  0.00     0.031 C 
ATOM     65  C   UNL A   1      47.520  26.082  30.975  1.00  0.00     0.029 A 
ATOM     66  C   UNL A   1      46.556  27.085  30.851  1.00  0.00     0.049 A 
ATOM     67  H   UNL A   1      46.955  28.991  30.045  1.00  0.00     0.167 HD
ATOM     68  C   UNL A   1      44.216  27.952  30.778  1.00  0.00     0.074 A 
ATOM     69  C   UNL A   1      44.239  28.883  29.650  1.00  0.00     0.031 C 
ATOM     70  C   UNL A   1      45.192  27.169  31.328  1.00  0.00     0.031 A 
BRANCH  57  71
ATOM     71  C   UNL A   1      48.386  29.120  27.378  1.00  0.00    -0.014 A 
ATOM     72  C   UNL A   1      49.725  29.541  27.388  1.00  0.00     0.009 A 
ATOM     73  C   UNL A   1      47.407  30.117  27.199  1.00  0.00     0.009 A 
ATOM     74  C   UNL A   1      50.058  30.896  27.306  1.00  0.00     0.001 A 
ATOM     75  C   UNL A   1      47.737  31.466  27.074  1.00  0.00     0.001 A 
ATOM     76  C   UNL A   1      49.063  31.859  27.160  1.00  0.00     0.000 A 
ENDBRANCH  57  71
BRANCH  58  77
ATOM     77  C   UNL A   1      39.856  27.912  28.960  1.00  0.00    -0.014 A 
ATOM     78  C   UNL A   1      38.856  27.979  29.944  1.00  0.00     0.009 A 
ATOM     79  C   UNL A   1      39.652  28.648  27.777  1.00  0.00     0.009 A 
ATOM     80  C   UNL A   1      37.715  28.774  29.762  1.00  0.00     0.001 A 
ATOM     81  C   UNL A   1      38.512  29.437  27.591  1.00  0.00     0.001 A 
ATOM     82  C   UNL A   1      37.549  29.512  28.591  1.00  0.00     0.000 A 
ENDBRANCH  58  77
BRANCH  70  83
ATOM     83  C   UNL A   1      44.775  26.118  32.328  1.00  0.00    -0.014 A 
ATOM     84  C   UNL A   1      44.489  24.789  31.967  1.00  0.00     0.009 A 
ATOM     85  C   UNL A   1      44.848  26.434  33.692  1.00  0.00     0.009 A 
ATOM     86  C   UNL A   1      44.259  23.814  32.943  1.00  0.00     0.001 A 
ATOM     87  C   UNL A   1      44.641  25.456  34.666  1.00  0.00     0.001 A 
ATOM     88  C   UNL A   1      44.342  24.147  34.292  1.00  0.00     0.000 A 
ENDBRANCH  70  83
ENDBRANCH  44  45
ENDBRANCH  37  39
ENDBRANCH  36  37
ENDBRANCH  35  36
ENDBRANCH  34  35
ENDBRANCH  33  34
ENDBRANCH   1  33
TORSDOF 18
ENDMDL
MODEL 3
REMARK VINA RESULT:     -11.2      1.351      1.666
REMARK SMILES Cc1c(Cl)cccc1NC(=O)NCc1cn([C@@H]2C[NH2+][C@H](C(=O)OCCOCCOC(=O)c3ccc(-c4c5nc(c(-c6ccccc6)c6ccc([nH]6)c(-c6ccccc6)c6nc(c(-c7ccccc7)c7ccc4[nH]7)C=C6)C=C5)cc3)C2)nn1
REMARK SMILES IDX 25 1 24 2 23 3 21 4 22 5 20 6 17 7 18 8 80 9 19 10 16 13
REMARK SMILES IDX 14 14 15 15 82 16 81 17 13 18 12 19 9 20 10 21 11 23 8 25
REMARK SMILES IDX 1 26 2 27 3 28 4 29 5 30 7 31 6 32 26 33 27 34 28 35 29 36
REMARK SMILES IDX 30 37 31 38 32 39 33 40 79 41 34 42 78 43 35 44 36 45 37 46
REMARK SMILES IDX 72 47 38 48 77 49 71 50 73 51 39 52 76 53 70 54 69 55 40 57
REMARK SMILES IDX 62 58 47 59 61 60 48 61 51 62 60 63 74 64 49 65 50 66 59 68
REMARK SMILES IDX 75 69 52 70 41 71 42 72 46 73 43 74 45 75 44 76 63 77 64 78
REMARK SMILES IDX 68 79 65 80 67 81 66 82 53 83 54 84 58 85 55 86 57 87 56 88
REMARK H PARENT 19 11 19 12 9 22 12 24 73 56 51 67
REMARK Flexibility Score: inf
ROOT
ATOM      1  C   UNL A   1      33.495  32.655  28.062  1.00  0.00     0.202 C 
ENDROOT
BRANCH   1   2
ATOM      2  C   UNL A   1      34.003  31.312  27.536  1.00  0.00     0.261 C 
BRANCH   2   3
ATOM      3  O   UNL A   1      32.925  30.398  27.276  1.00  0.00    -0.459 OA
BRANCH   3   4
ATOM      4  C   UNL A   1      33.269  29.267  26.598  1.00  0.00     0.365 C 
ATOM      5  O   UNL A   1      33.591  28.210  27.131  1.00  0.00    -0.245 OA
BRANCH   4   6
ATOM      6  C   UNL A   1      33.039  29.414  25.080  1.00  0.00     0.295 C 
ATOM      7  C   UNL A   1      32.232  27.483  23.834  1.00  0.00     0.170 C 
ATOM      8  C   UNL A   1      33.750  27.457  24.017  1.00  0.00     0.289 C 
ATOM      9  C   UNL A   1      31.765  28.703  24.630  1.00  0.00     0.110 C 
ATOM     10  N   UNL A   1      34.145  28.848  24.269  1.00  0.00    -0.333 N 
ATOM     11  H   UNL A   1      34.244  29.358  23.391  1.00  0.00     0.347 HD
ATOM     12  H   UNL A   1      35.044  28.913  24.745  1.00  0.00     0.347 HD
BRANCH   7  13
ATOM     13  N   UNL A   1      31.608  26.259  24.274  1.00  0.00    -0.243 N 
ATOM     14  C   UNL A   1      31.062  24.477  25.363  1.00  0.00     0.102 A 
ATOM     15  C   UNL A   1      31.892  25.573  25.410  1.00  0.00     0.137 A 
ATOM     16  N   UNL A   1      30.274  24.565  24.244  1.00  0.00    -0.134 NA
ATOM     17  N   UNL A   1      30.622  25.667  23.581  1.00  0.00    -0.067 NA
BRANCH  14  18
ATOM     18  C   UNL A   1      30.999  23.432  26.400  1.00  0.00     0.178 C 
BRANCH  18  19
ATOM     19  N   UNL A   1      32.237  23.141  27.060  1.00  0.00    -0.332 N 
ATOM     20  N   UNL A   1      33.882  22.242  25.544  1.00  0.00    -0.308 N 
ATOM     21  C   UNL A   1      33.471  22.816  26.685  1.00  0.00     0.319 C 
ATOM     22  H   UNL A   1      34.863  22.148  25.539  1.00  0.00     0.171 HD
ATOM     23  O   UNL A   1      34.351  22.985  27.542  1.00  0.00    -0.248 OA
ATOM     24  H   UNL A   1      32.153  23.196  28.039  1.00  0.00     0.165 HD
BRANCH  20  25
ATOM     25  C   UNL A   1      33.332  21.733  24.352  1.00  0.00     0.047 A 
ATOM     26  C   UNL A   1      33.745  19.322  25.152  1.00  0.00     0.048 C 
ATOM     27  C   UNL A   1      33.148  20.335  24.203  1.00  0.00    -0.009 A 
ATOM     28  C   UNL A   1      32.438  19.862  23.073  1.00  0.00     0.046 A 
ATOM     29  Cl  UNL A   1      32.149  18.175  22.808  1.00  0.00    -0.084 Cl
ATOM     30  C   UNL A   1      31.957  20.737  22.100  1.00  0.00     0.021 A 
ATOM     31  C   UNL A   1      33.035  22.542  23.258  1.00  0.00     0.026 A 
ATOM     32  C   UNL A   1      32.297  22.077  22.170  1.00  0.00     0.004 A 
ENDBRANCH  20  25
ENDBRANCH  18  19
ENDBRANCH  14  18
ENDBRANCH   7  13
ENDBRANCH   4   6
ENDBRANCH   3   4
ENDBRANCH   2   3
ENDBRANCH   1   2
BRANCH   1  33
ATOM     33  O   UNL A   1      34.429  33.712  28.287  1.00  0.00    -0.374 OA
BRANCH  33  34
ATOM     34  C   UNL A   1      33.993  35.057  28.443  1.00  0.00     0.202 C 
BRANCH  34  35
ATOM     35  C   UNL A   1      33.918  35.658  29.841  1.00  0.00     0.261 C 
BRANCH  35  36
ATOM     36  O   UNL A   1      33.049  34.926  30.686  1.00  0.00    -0.460 OA
BRANCH  36  37
ATOM     37  C   UNL A   1      32.937  35.447  31.925  1.00  0.00     0.338 C 
ATOM     38  O   UNL A   1      32.247  36.402  32.267  1.00  0.00    -0.246 OA
BRANCH  37  39
ATOM     39  C   UNL A   1      33.899  34.785  32.810  1.00  0.00     0.060 A 
ATOM     40  C   UNL A   1      35.020  35.558  33.110  1.00  0.00     0.016 A 
ATOM     41  C   UNL A   1      33.916  33.383  32.832  1.00  0.00     0.016 A 
ATOM     42  C   UNL A   1      36.240  34.940  33.047  1.00  0.00     0.010 A 
ATOM     43  C   UNL A   1      35.136  32.769  32.742  1.00  0.00     0.010 A 
ATOM     44  C   UNL A   1      36.271  33.577  32.735  1.00  0.00    -0.014 A 
BRANCH  44  45
ATOM     45  C   UNL A   1      37.556  32.984  32.474  1.00  0.00     0.031 A 
ATOM     46  C   UNL A   1      38.410  32.978  33.674  1.00  0.00     0.074 A 
ATOM     47  C   UNL A   1      37.871  32.444  31.285  1.00  0.00     0.049 A 
ATOM     48  N   UNL A   1      39.477  33.673  33.872  1.00  0.00    -0.248 NA
ATOM     49  C   UNL A   1      37.900  32.284  34.867  1.00  0.00     0.031 C 
ATOM     50  C   UNL A   1      37.005  32.183  30.132  1.00  0.00     0.029 A 
ATOM     51  N   UNL A   1      39.049  31.888  30.912  1.00  0.00    -0.354 N 
ATOM     52  C   UNL A   1      39.881  33.361  35.162  1.00  0.00     0.074 A 
ATOM     53  C   UNL A   1      38.777  32.680  35.786  1.00  0.00     0.031 C 
ATOM     54  C   UNL A   1      37.619  31.294  29.315  1.00  0.00     0.029 A 
ATOM     55  C   UNL A   1      38.953  31.026  29.831  1.00  0.00     0.049 A 
ATOM     56  H   UNL A   1      39.900  32.080  31.368  1.00  0.00     0.167 HD
ATOM     57  C   UNL A   1      41.185  33.445  35.530  1.00  0.00     0.031 A 
ATOM     58  C   UNL A   1      39.877  30.099  29.470  1.00  0.00     0.031 A 
ATOM     59  C   UNL A   1      41.954  34.210  34.584  1.00  0.00     0.049 A 
ATOM     60  C   UNL A   1      41.157  30.466  30.131  1.00  0.00     0.074 A 
ATOM     61  C   UNL A   1      41.918  35.517  34.142  1.00  0.00     0.029 A 
ATOM     62  N   UNL A   1      42.665  33.503  33.641  1.00  0.00    -0.354 N 
ATOM     63  N   UNL A   1      41.847  31.523  29.806  1.00  0.00    -0.248 NA
ATOM     64  C   UNL A   1      41.415  29.947  31.470  1.00  0.00     0.031 C 
ATOM     65  C   UNL A   1      42.200  35.442  32.748  1.00  0.00     0.029 A 
ATOM     66  C   UNL A   1      42.463  34.108  32.428  1.00  0.00     0.049 A 
ATOM     67  H   UNL A   1      43.218  32.706  33.808  1.00  0.00     0.167 HD
ATOM     68  C   UNL A   1      42.267  32.059  31.016  1.00  0.00     0.074 A 
ATOM     69  C   UNL A   1      42.061  30.995  31.998  1.00  0.00     0.031 C 
ATOM     70  C   UNL A   1      42.451  33.405  31.163  1.00  0.00     0.031 A 
BRANCH  57  71
ATOM     71  C   UNL A   1      41.824  32.477  36.487  1.00  0.00    -0.014 A 
ATOM     72  C   UNL A   1      42.159  32.934  37.772  1.00  0.00     0.009 A 
ATOM     73  C   UNL A   1      42.368  31.239  36.091  1.00  0.00     0.009 A 
ATOM     74  C   UNL A   1      43.055  32.227  38.580  1.00  0.00     0.001 A 
ATOM     75  C   UNL A   1      43.228  30.510  36.911  1.00  0.00     0.001 A 
ATOM     76  C   UNL A   1      43.597  31.021  38.145  1.00  0.00     0.000 A 
ENDBRANCH  57  71
BRANCH  58  77
ATOM     77  C   UNL A   1      39.650  28.773  28.853  1.00  0.00    -0.014 A 
ATOM     78  C   UNL A   1      40.168  28.465  27.585  1.00  0.00     0.009 A 
ATOM     79  C   UNL A   1      39.134  27.709  29.620  1.00  0.00     0.009 A 
ATOM     80  C   UNL A   1      40.196  27.142  27.118  1.00  0.00     0.001 A 
ATOM     81  C   UNL A   1      39.157  26.391  29.153  1.00  0.00     0.001 A 
ATOM     82  C   UNL A   1      39.701  26.105  27.907  1.00  0.00     0.000 A 
ENDBRANCH  58  77
BRANCH  70  83
ATOM     83  C   UNL A   1      42.372  34.268  29.927  1.00  0.00    -0.014 A 
ATOM     84  C   UNL A   1      41.170  34.833  29.463  1.00  0.00     0.009 A 
ATOM     85  C   UNL A   1      43.570  34.667  29.319  1.00  0.00     0.009 A 
ATOM     86  C   UNL A   1      41.168  35.751  28.408  1.00  0.00     0.001 A 
ATOM     87  C   UNL A   1      43.571  35.600  28.280  1.00  0.00     0.001 A 
ATOM     88  C   UNL A   1      42.370  36.138  27.821  1.00  0.00     0.000 A 
ENDBRANCH  70  83
ENDBRANCH  44  45
ENDBRANCH  37  39
ENDBRANCH  36  37
ENDBRANCH  35  36
ENDBRANCH  34  35
ENDBRANCH  33  34
ENDBRANCH   1  33
TORSDOF 18
ENDMDL
