MODEL 1
REMARK VINA RESULT:     -11.9      0.000      0.000
REMARK SMILES O=C(OCCOCCOC(=O)c1ccccc1C(=O)Nc1ccc(N2C(=O)[C@H]3[C@@H]4CC[C@@H](C4)[C@@H]3C2=O)cc1)c1ccc(-c2c3nc(c(-c4ccccc4)c4ccc([nH]4)c(-c4ccccc4)c4nc(c(-c5ccccc5)c5ccc2[nH]5)C=C4)C=C3)cc1
REMARK SMILES IDX 7 1 6 2 5 3 4 4 3 5 2 6 1 7 39 8 40 9 86 10 41 11 85 12
REMARK SMILES IDX 42 13 43 14 44 15 79 16 45 17 84 18 78 19 80 20 46 21 83 22
REMARK SMILES IDX 77 23 76 24 47 26 69 27 54 28 68 29 55 30 58 31 67 32 81 33
REMARK SMILES IDX 56 34 57 35 66 37 82 38 59 39 48 40 49 41 53 42 50 43 52 44
REMARK SMILES IDX 51 45 70 46 71 47 75 48 72 49 74 50 73 51 60 52 61 53 65 54
REMARK SMILES IDX 62 55 64 56 63 57 8 58 9 59 10 60 11 61 12 62 13 63 17 64
REMARK SMILES IDX 14 65 16 66 15 67 18 68 19 69 20 70 21 72 22 73 38 74 23 75
REMARK SMILES IDX 37 76 24 77 25 78 26 79 35 80 27 81 28 82 34 83 36 84 29 85
REMARK SMILES IDX 32 86 30 87 33 88 31 89
REMARK H PARENT 80 25 58 36 20 71
REMARK Flexibility Score: inf
ROOT
ATOM      1  C   UNL A   1      32.153  30.977  26.860  1.00  0.00     0.202 C 
ENDROOT
BRANCH   1   2
ATOM      2  O   UNL A   1      32.622  32.257  27.266  1.00  0.00    -0.374 OA
BRANCH   2   3
ATOM      3  C   UNL A   1      33.857  32.269  27.984  1.00  0.00     0.202 C 
BRANCH   3   4
ATOM      4  C   UNL A   1      33.929  33.502  28.885  1.00  0.00     0.261 C 
BRANCH   4   5
ATOM      5  O   UNL A   1      35.123  33.472  29.690  1.00  0.00    -0.460 OA
BRANCH   5   6
ATOM      6  C   UNL A   1      35.436  32.497  30.586  1.00  0.00     0.338 C 
ATOM      7  O   UNL A   1      34.629  32.189  31.461  1.00  0.00    -0.246 OA
BRANCH   6   8
ATOM      8  C   UNL A   1      36.636  31.626  30.410  1.00  0.00     0.060 A 
ATOM      9  C   UNL A   1      37.344  31.031  31.447  1.00  0.00     0.016 A 
ATOM     10  C   UNL A   1      37.017  31.308  29.095  1.00  0.00     0.016 A 
ATOM     11  C   UNL A   1      38.473  30.255  31.183  1.00  0.00     0.010 A 
ATOM     12  C   UNL A   1      38.143  30.506  28.832  1.00  0.00     0.010 A 
ATOM     13  C   UNL A   1      38.937  30.035  29.881  1.00  0.00    -0.014 A 
BRANCH  13  14
ATOM     14  C   UNL A   1      40.317  29.482  29.689  1.00  0.00     0.031 A 
ATOM     15  C   UNL A   1      40.488  28.029  29.288  1.00  0.00     0.074 A 
ATOM     16  C   UNL A   1      41.397  30.293  29.627  1.00  0.00     0.049 A 
ATOM     17  N   UNL A   1      41.582  27.384  28.954  1.00  0.00    -0.248 NA
ATOM     18  C   UNL A   1      39.268  27.210  29.187  1.00  0.00     0.031 C 
ATOM     19  C   UNL A   1      41.389  31.738  29.866  1.00  0.00     0.029 A 
ATOM     20  N   UNL A   1      42.704  30.027  29.282  1.00  0.00    -0.354 N 
ATOM     21  C   UNL A   1      41.171  26.118  28.552  1.00  0.00     0.074 A 
ATOM     22  C   UNL A   1      39.743  26.051  28.759  1.00  0.00     0.031 C 
ATOM     23  C   UNL A   1      42.607  32.236  29.599  1.00  0.00     0.029 A 
ATOM     24  C   UNL A   1      43.512  31.141  29.261  1.00  0.00     0.049 A 
ATOM     25  H   UNL A   1      43.030  29.122  29.070  1.00  0.00     0.167 HD
ATOM     26  C   UNL A   1      41.890  25.113  27.998  1.00  0.00     0.031 A 
ATOM     27  C   UNL A   1      44.836  31.273  29.037  1.00  0.00     0.031 A 
ATOM     28  C   UNL A   1      43.310  25.130  27.794  1.00  0.00     0.049 A 
ATOM     29  C   UNL A   1      45.662  30.052  28.730  1.00  0.00     0.074 A 
ATOM     30  C   UNL A   1      44.125  24.108  27.338  1.00  0.00     0.029 A 
ATOM     31  N   UNL A   1      44.126  26.220  28.032  1.00  0.00    -0.354 N 
ATOM     32  N   UNL A   1      45.266  28.836  28.444  1.00  0.00    -0.248 NA
ATOM     33  C   UNL A   1      47.124  30.218  28.743  1.00  0.00     0.031 C 
ATOM     34  C   UNL A   1      45.448  24.565  27.352  1.00  0.00     0.029 A 
ATOM     35  C   UNL A   1      45.444  25.884  27.772  1.00  0.00     0.049 A 
ATOM     36  H   UNL A   1      43.817  27.101  28.340  1.00  0.00     0.167 HD
ATOM     37  C   UNL A   1      46.427  28.098  28.242  1.00  0.00     0.074 A 
ATOM     38  C   UNL A   1      47.540  29.007  28.403  1.00  0.00     0.031 C 
ATOM     39  C   UNL A   1      46.554  26.779  27.957  1.00  0.00     0.031 A 
BRANCH  26  40
ATOM     40  C   UNL A   1      41.133  23.894  27.567  1.00  0.00    -0.014 A 
ATOM     41  C   UNL A   1      40.103  23.995  26.619  1.00  0.00     0.009 A 
ATOM     42  C   UNL A   1      41.466  22.635  28.086  1.00  0.00     0.009 A 
ATOM     43  C   UNL A   1      39.406  22.857  26.211  1.00  0.00     0.001 A 
ATOM     44  C   UNL A   1      40.776  21.496  27.666  1.00  0.00     0.001 A 
ATOM     45  C   UNL A   1      39.744  21.609  26.733  1.00  0.00     0.000 A 
ENDBRANCH  26  40
BRANCH  27  46
ATOM     46  C   UNL A   1      45.509  32.594  29.217  1.00  0.00    -0.014 A 
ATOM     47  C   UNL A   1      45.740  33.452  28.131  1.00  0.00     0.009 A 
ATOM     48  C   UNL A   1      45.999  32.962  30.481  1.00  0.00     0.009 A 
ATOM     49  C   UNL A   1      46.472  34.632  28.305  1.00  0.00     0.001 A 
ATOM     50  C   UNL A   1      46.695  34.158  30.660  1.00  0.00     0.001 A 
ATOM     51  C   UNL A   1      46.943  34.986  29.568  1.00  0.00     0.000 A 
ENDBRANCH  27  46
BRANCH  39  52
ATOM     52  C   UNL A   1      47.947  26.234  27.818  1.00  0.00    -0.014 A 
ATOM     53  C   UNL A   1      48.611  25.672  28.919  1.00  0.00     0.009 A 
ATOM     54  C   UNL A   1      48.594  26.254  26.572  1.00  0.00     0.009 A 
ATOM     55  C   UNL A   1      49.907  25.168  28.783  1.00  0.00     0.001 A 
ATOM     56  C   UNL A   1      49.878  25.724  26.432  1.00  0.00     0.001 A 
ATOM     57  C   UNL A   1      50.536  25.191  27.540  1.00  0.00     0.000 A 
ENDBRANCH  39  52
ENDBRANCH  13  14
ENDBRANCH   6   8
ENDBRANCH   5   6
ENDBRANCH   4   5
ENDBRANCH   3   4
ENDBRANCH   2   3
ENDBRANCH   1   2
BRANCH   1  58
ATOM     58  C   UNL A   1      33.293  29.977  26.655  1.00  0.00     0.261 C 
BRANCH  58  59
ATOM     59  O   UNL A   1      33.490  29.573  25.287  1.00  0.00    -0.460 OA
BRANCH  59  60
ATOM     60  C   UNL A   1      33.316  28.255  25.067  1.00  0.00     0.339 C 
ATOM     61  O   UNL A   1      34.085  27.346  25.336  1.00  0.00    -0.246 OA
BRANCH  60  62
ATOM     62  C   UNL A   1      32.033  28.003  24.431  1.00  0.00     0.072 A 
ATOM     63  C   UNL A   1      31.850  28.475  23.124  1.00  0.00     0.016 A 
ATOM     64  C   UNL A   1      31.001  27.350  25.115  1.00  0.00     0.054 A 
ATOM     65  C   UNL A   1      30.650  28.220  22.463  1.00  0.00     0.001 A 
ATOM     66  C   UNL A   1      29.823  27.049  24.420  1.00  0.00     0.015 A 
ATOM     67  C   UNL A   1      29.649  27.485  23.100  1.00  0.00     0.001 A 
BRANCH  64  68
ATOM     68  C   UNL A   1      31.130  26.864  26.510  1.00  0.00     0.256 C 
ATOM     69  O   UNL A   1      31.053  27.701  27.409  1.00  0.00    -0.269 OA
ATOM     70  N   UNL A   1      31.245  25.526  26.833  1.00  0.00    -0.322 N 
ATOM     71  H   UNL A   1      31.106  25.326  27.787  1.00  0.00     0.170 HD
BRANCH  70  72
ATOM     72  C   UNL A   1      31.527  24.397  26.040  1.00  0.00     0.041 A 
ATOM     73  C   UNL A   1      32.838  24.264  25.556  1.00  0.00     0.028 A 
ATOM     74  C   UNL A   1      30.611  23.369  25.810  1.00  0.00     0.028 A 
ATOM     75  C   UNL A   1      33.271  23.042  25.020  1.00  0.00     0.029 A 
ATOM     76  C   UNL A   1      31.033  22.160  25.235  1.00  0.00     0.029 A 
ATOM     77  C   UNL A   1      32.375  21.976  24.894  1.00  0.00     0.052 A 
BRANCH  77  78
ATOM     78  N   UNL A   1      32.846  20.689  24.586  1.00  0.00    -0.250 N 
ATOM     79  C   UNL A   1      32.470  19.942  23.457  1.00  0.00     0.237 C 
ATOM     80  C   UNL A   1      33.579  19.906  25.490  1.00  0.00     0.237 C 
ATOM     81  O   UNL A   1      31.889  20.294  22.449  1.00  0.00    -0.274 OA
ATOM     82  C   UNL A   1      32.793  18.523  23.871  1.00  0.00     0.095 C 
ATOM     83  C   UNL A   1      34.090  18.821  24.606  1.00  0.00     0.095 C 
ATOM     84  O   UNL A   1      33.789  20.024  26.681  1.00  0.00    -0.274 OA
ATOM     85  C   UNL A   1      33.139  17.197  23.188  1.00  0.00     0.002 C 
ATOM     86  C   UNL A   1      34.720  17.461  24.788  1.00  0.00     0.002 C 
ATOM     87  C   UNL A   1      32.786  16.106  24.236  1.00  0.00     0.005 C 
ATOM     88  C   UNL A   1      34.671  17.068  23.292  1.00  0.00     0.009 C 
ATOM     89  C   UNL A   1      33.768  16.418  25.397  1.00  0.00     0.005 C 
ENDBRANCH  77  78
ENDBRANCH  70  72
ENDBRANCH  64  68
ENDBRANCH  60  62
ENDBRANCH  59  60
ENDBRANCH  58  59
ENDBRANCH   1  58
TORSDOF 17
ENDMDL
MODEL 2
REMARK VINA RESULT:     -11.8      6.186     13.771
REMARK SMILES O=C(OCCOCCOC(=O)c1ccccc1C(=O)Nc1ccc(N2C(=O)[C@H]3[C@@H]4CC[C@@H](C4)[C@@H]3C2=O)cc1)c1ccc(-c2c3nc(c(-c4ccccc4)c4ccc([nH]4)c(-c4ccccc4)c4nc(c(-c5ccccc5)c5ccc2[nH]5)C=C4)C=C3)cc1
REMARK SMILES IDX 7 1 6 2 5 3 4 4 3 5 2 6 1 7 39 8 40 9 86 10 41 11 85 12
REMARK SMILES IDX 42 13 43 14 44 15 79 16 45 17 84 18 78 19 80 20 46 21 83 22
REMARK SMILES IDX 77 23 76 24 47 26 69 27 54 28 68 29 55 30 58 31 67 32 81 33
REMARK SMILES IDX 56 34 57 35 66 37 82 38 59 39 48 40 49 41 53 42 50 43 52 44
REMARK SMILES IDX 51 45 70 46 71 47 75 48 72 49 74 50 73 51 60 52 61 53 65 54
REMARK SMILES IDX 62 55 64 56 63 57 8 58 9 59 10 60 11 61 12 62 13 63 17 64
REMARK SMILES IDX 14 65 16 66 15 67 18 68 19 69 20 70 21 72 22 73 38 74 23 75
REMARK SMILES IDX 37 76 24 77 25 78 26 79 35 80 27 81 28 82 34 83 36 84 29 85
REMARK SMILES IDX 32 86 30 87 33 88 31 89
REMARK H PARENT 80 25 58 36 20 71
REMARK Flexibility Score: inf
ROOT
ATOM      1  C   UNL A   1      49.236  26.814  29.752  1.00  0.00     0.202 C 
ENDROOT
BRANCH   1   2
ATOM      2  O   UNL A   1      50.255  26.531  30.703  1.00  0.00    -0.374 OA
BRANCH   2   3
ATOM      3  C   UNL A   1      50.411  25.156  31.059  1.00  0.00     0.202 C 
BRANCH   3   4
ATOM      4  C   UNL A   1      50.366  24.998  32.578  1.00  0.00     0.261 C 
BRANCH   4   5
ATOM      5  O   UNL A   1      49.049  25.296  33.080  1.00  0.00    -0.460 OA
BRANCH   5   6
ATOM      6  C   UNL A   1      48.727  26.385  33.829  1.00  0.00     0.338 C 
ATOM      7  O   UNL A   1      49.556  26.861  34.602  1.00  0.00    -0.246 OA
BRANCH   6   8
ATOM      8  C   UNL A   1      47.477  27.163  33.583  1.00  0.00     0.060 A 
ATOM      9  C   UNL A   1      46.357  27.145  34.404  1.00  0.00     0.016 A 
ATOM     10  C   UNL A   1      47.472  28.053  32.495  1.00  0.00     0.016 A 
ATOM     11  C   UNL A   1      45.222  27.887  34.075  1.00  0.00     0.010 A 
ATOM     12  C   UNL A   1      46.334  28.817  32.179  1.00  0.00     0.010 A 
ATOM     13  C   UNL A   1      45.159  28.680  32.924  1.00  0.00    -0.014 A 
BRANCH  13  14
ATOM     14  C   UNL A   1      43.824  29.178  32.460  1.00  0.00     0.031 A 
ATOM     15  C   UNL A   1      43.368  30.569  32.859  1.00  0.00     0.074 A 
ATOM     16  C   UNL A   1      43.123  28.525  31.505  1.00  0.00     0.049 A 
ATOM     17  N   UNL A   1      42.308  31.238  32.469  1.00  0.00    -0.248 NA
ATOM     18  C   UNL A   1      44.247  31.332  33.762  1.00  0.00     0.031 C 
ATOM     19  C   UNL A   1      43.485  27.232  30.921  1.00  0.00     0.029 A 
ATOM     20  N   UNL A   1      41.990  28.891  30.813  1.00  0.00    -0.354 N 
ATOM     21  C   UNL A   1      42.429  32.505  33.028  1.00  0.00     0.074 A 
ATOM     22  C   UNL A   1      43.616  32.493  33.851  1.00  0.00     0.031 C 
ATOM     23  C   UNL A   1      42.634  26.946  29.922  1.00  0.00     0.029 A 
ATOM     24  C   UNL A   1      41.609  27.984  29.850  1.00  0.00     0.049 A 
ATOM     25  H   UNL A   1      41.497  29.725  30.990  1.00  0.00     0.167 HD
ATOM     26  C   UNL A   1      41.668  33.609  32.836  1.00  0.00     0.031 A 
ATOM     27  C   UNL A   1      40.539  27.959  29.027  1.00  0.00     0.031 A 
ATOM     28  C   UNL A   1      40.473  33.660  32.046  1.00  0.00     0.049 A 
ATOM     29  C   UNL A   1      39.537  29.081  29.080  1.00  0.00     0.074 A 
ATOM     30  C   UNL A   1      39.589  34.714  31.890  1.00  0.00     0.029 A 
ATOM     31  N   UNL A   1      39.991  32.615  31.279  1.00  0.00    -0.354 N 
ATOM     32  N   UNL A   1      39.621  30.238  29.690  1.00  0.00    -0.248 NA
ATOM     33  C   UNL A   1      38.275  28.880  28.349  1.00  0.00     0.031 C 
ATOM     34  C   UNL A   1      38.539  34.287  31.069  1.00  0.00     0.029 A 
ATOM     35  C   UNL A   1      38.798  32.984  30.680  1.00  0.00     0.049 A 
ATOM     36  H   UNL A   1      40.430  31.740  31.176  1.00  0.00     0.167 HD
ATOM     37  C   UNL A   1      38.429  30.898  29.414  1.00  0.00     0.074 A 
ATOM     38  C   UNL A   1      37.653  30.032  28.555  1.00  0.00     0.031 C 
ATOM     39  C   UNL A   1      38.014  32.114  29.846  1.00  0.00     0.031 A 
BRANCH  26  40
ATOM     40  C   UNL A   1      42.123  34.871  33.505  1.00  0.00    -0.014 A 
ATOM     41  C   UNL A   1      42.980  35.760  32.838  1.00  0.00     0.009 A 
ATOM     42  C   UNL A   1      41.672  35.189  34.793  1.00  0.00     0.009 A 
ATOM     43  C   UNL A   1      43.393  36.940  33.458  1.00  0.00     0.001 A 
ATOM     44  C   UNL A   1      42.076  36.377  35.406  1.00  0.00     0.001 A 
ATOM     45  C   UNL A   1      42.940  37.248  34.740  1.00  0.00     0.000 A 
ENDBRANCH  26  40
BRANCH  27  46
ATOM     46  C   UNL A   1      40.275  26.772  28.161  1.00  0.00    -0.014 A 
ATOM     47  C   UNL A   1      40.683  26.739  26.819  1.00  0.00     0.009 A 
ATOM     48  C   UNL A   1      39.531  25.692  28.664  1.00  0.00     0.009 A 
ATOM     49  C   UNL A   1      40.326  25.664  25.997  1.00  0.00     0.001 A 
ATOM     50  C   UNL A   1      39.209  24.603  27.853  1.00  0.00     0.001 A 
ATOM     51  C   UNL A   1      39.594  24.597  26.515  1.00  0.00     0.000 A 
ENDBRANCH  27  46
BRANCH  39  52
ATOM     52  C   UNL A   1      36.651  32.573  29.411  1.00  0.00    -0.014 A 
ATOM     53  C   UNL A   1      36.487  33.313  28.230  1.00  0.00     0.009 A 
ATOM     54  C   UNL A   1      35.517  32.241  30.169  1.00  0.00     0.009 A 
ATOM     55  C   UNL A   1      35.217  33.738  27.832  1.00  0.00     0.001 A 
ATOM     56  C   UNL A   1      34.246  32.643  29.754  1.00  0.00     0.001 A 
ATOM     57  C   UNL A   1      34.099  33.399  28.591  1.00  0.00     0.000 A 
ENDBRANCH  39  52
ENDBRANCH  13  14
ENDBRANCH   6   8
ENDBRANCH   5   6
ENDBRANCH   4   5
ENDBRANCH   3   4
ENDBRANCH   2   3
ENDBRANCH   1   2
BRANCH   1  58
ATOM     58  C   UNL A   1      48.744  25.556  29.032  1.00  0.00     0.261 C 
BRANCH  58  59
ATOM     59  O   UNL A   1      47.408  25.659  28.506  1.00  0.00    -0.460 OA
BRANCH  59  60
ATOM     60  C   UNL A   1      47.090  24.706  27.608  1.00  0.00     0.339 C 
ATOM     61  O   UNL A   1      47.834  24.144  26.821  1.00  0.00    -0.246 OA
BRANCH  60  62
ATOM     62  C   UNL A   1      45.671  24.390  27.672  1.00  0.00     0.072 A 
ATOM     63  C   UNL A   1      45.188  23.804  28.850  1.00  0.00     0.016 A 
ATOM     64  C   UNL A   1      44.827  24.622  26.581  1.00  0.00     0.054 A 
ATOM     65  C   UNL A   1      43.829  23.521  28.969  1.00  0.00     0.001 A 
ATOM     66  C   UNL A   1      43.454  24.388  26.735  1.00  0.00     0.015 A 
ATOM     67  C   UNL A   1      42.960  23.838  27.924  1.00  0.00     0.001 A 
BRANCH  64  68
ATOM     68  C   UNL A   1      45.295  25.204  25.300  1.00  0.00     0.256 C 
ATOM     69  O   UNL A   1      45.639  24.421  24.415  1.00  0.00    -0.269 OA
ATOM     70  N   UNL A   1      45.277  26.561  25.040  1.00  0.00    -0.322 N 
ATOM     71  H   UNL A   1      45.406  26.793  24.092  1.00  0.00     0.170 HD
BRANCH  70  72
ATOM     72  C   UNL A   1      45.108  27.671  25.890  1.00  0.00     0.041 A 
ATOM     73  C   UNL A   1      46.231  28.480  26.119  1.00  0.00     0.028 A 
ATOM     74  C   UNL A   1      43.874  28.058  26.417  1.00  0.00     0.028 A 
ATOM     75  C   UNL A   1      46.081  29.748  26.701  1.00  0.00     0.029 A 
ATOM     76  C   UNL A   1      43.730  29.308  27.036  1.00  0.00     0.029 A 
ATOM     77  C   UNL A   1      44.820  30.178  27.126  1.00  0.00     0.052 A 
BRANCH  77  78
ATOM     78  N   UNL A   1      44.613  31.519  27.486  1.00  0.00    -0.250 N 
ATOM     79  C   UNL A   1      44.459  31.986  28.802  1.00  0.00     0.237 C 
ATOM     80  C   UNL A   1      44.315  32.524  26.554  1.00  0.00     0.237 C 
ATOM     81  O   UNL A   1      44.685  31.427  29.858  1.00  0.00    -0.274 OA
ATOM     82  C   UNL A   1      43.750  33.309  28.608  1.00  0.00     0.095 C 
ATOM     83  C   UNL A   1      44.506  33.758  27.367  1.00  0.00     0.095 C 
ATOM     84  O   UNL A   1      43.990  32.475  25.385  1.00  0.00    -0.274 OA
ATOM     85  C   UNL A   1      43.604  34.634  29.360  1.00  0.00     0.002 C 
ATOM     86  C   UNL A   1      44.153  35.221  27.242  1.00  0.00     0.002 C 
ATOM     87  C   UNL A   1      42.298  35.265  28.803  1.00  0.00     0.005 C 
ATOM     88  C   UNL A   1      44.586  35.605  28.678  1.00  0.00     0.009 C 
ATOM     89  C   UNL A   1      42.642  35.497  27.308  1.00  0.00     0.005 C 
ENDBRANCH  77  78
ENDBRANCH  70  72
ENDBRANCH  64  68
ENDBRANCH  60  62
ENDBRANCH  59  60
ENDBRANCH  58  59
ENDBRANCH   1  58
TORSDOF 17
ENDMDL
MODEL 3
REMARK VINA RESULT:     -11.7      2.508      9.079
REMARK SMILES O=C(OCCOCCOC(=O)c1ccccc1C(=O)Nc1ccc(N2C(=O)[C@H]3[C@@H]4CC[C@@H](C4)[C@@H]3C2=O)cc1)c1ccc(-c2c3nc(c(-c4ccccc4)c4ccc([nH]4)c(-c4ccccc4)c4nc(c(-c5ccccc5)c5ccc2[nH]5)C=C4)C=C3)cc1
REMARK SMILES IDX 7 1 6 2 5 3 4 4 3 5 2 6 1 7 39 8 40 9 86 10 41 11 85 12
REMARK SMILES IDX 42 13 43 14 44 15 79 16 45 17 84 18 78 19 80 20 46 21 83 22
REMARK SMILES IDX 77 23 76 24 47 26 69 27 54 28 68 29 55 30 58 31 67 32 81 33
REMARK SMILES IDX 56 34 57 35 66 37 82 38 59 39 48 40 49 41 53 42 50 43 52 44
REMARK SMILES IDX 51 45 70 46 71 47 75 48 72 49 74 50 73 51 60 52 61 53 65 54
REMARK SMILES IDX 62 55 64 56 63 57 8 58 9 59 10 60 11 61 12 62 13 63 17 64
REMARK SMILES IDX 14 65 16 66 15 67 18 68 19 69 20 70 21 72 22 73 38 74 23 75
REMARK SMILES IDX 37 76 24 77 25 78 26 79 35 80 27 81 28 82 34 83 36 84 29 85
REMARK SMILES IDX 32 86 30 87 33 88 31 89
REMARK H PARENT 80 25 58 36 20 71
REMARK Flexibility Score: inf
ROOT
ATOM      1  C   UNL A   1      36.860  22.612  24.749  1.00  0.00     0.202 C 
ENDROOT
BRANCH   1   2
ATOM      2  O   UNL A   1      37.219  21.462  25.505  1.00  0.00    -0.374 OA
BRANCH   2   3
ATOM      3  C   UNL A   1      37.764  20.371  24.760  1.00  0.00     0.202 C 
BRANCH   3   4
ATOM      4  C   UNL A   1      38.599  19.475  25.675  1.00  0.00     0.261 C 
BRANCH   4   5
ATOM      5  O   UNL A   1      39.951  19.963  25.765  1.00  0.00    -0.460 OA
BRANCH   5   6
ATOM      6  C   UNL A   1      40.546  20.409  26.904  1.00  0.00     0.338 C 
ATOM      7  O   UNL A   1      41.074  19.607  27.672  1.00  0.00    -0.246 OA
BRANCH   6   8
ATOM      8  C   UNL A   1      40.780  21.864  27.148  1.00  0.00     0.060 A 
ATOM      9  C   UNL A   1      40.051  22.893  26.566  1.00  0.00     0.016 A 
ATOM     10  C   UNL A   1      41.742  22.211  28.111  1.00  0.00     0.016 A 
ATOM     11  C   UNL A   1      40.363  24.226  26.835  1.00  0.00     0.010 A 
ATOM     12  C   UNL A   1      42.039  23.557  28.397  1.00  0.00     0.010 A 
ATOM     13  C   UNL A   1      41.405  24.587  27.697  1.00  0.00    -0.014 A 
BRANCH  13  14
ATOM     14  C   UNL A   1      41.896  26.003  27.685  1.00  0.00     0.031 A 
ATOM     15  C   UNL A   1      41.177  27.048  28.517  1.00  0.00     0.074 A 
ATOM     16  C   UNL A   1      43.096  26.326  27.150  1.00  0.00     0.049 A 
ATOM     17  N   UNL A   1      41.508  28.298  28.744  1.00  0.00    -0.248 NA
ATOM     18  C   UNL A   1      39.968  26.618  29.240  1.00  0.00     0.031 C 
ATOM     19  C   UNL A   1      43.974  25.410  26.420  1.00  0.00     0.029 A 
ATOM     20  N   UNL A   1      43.811  27.502  27.191  1.00  0.00    -0.354 N 
ATOM     21  C   UNL A   1      40.587  28.774  29.671  1.00  0.00     0.074 A 
ATOM     22  C   UNL A   1      39.636  27.713  29.906  1.00  0.00     0.031 C 
ATOM     23  C   UNL A   1      45.130  26.036  26.141  1.00  0.00     0.029 A 
ATOM     24  C   UNL A   1      45.045  27.424  26.586  1.00  0.00     0.049 A 
ATOM     25  H   UNL A   1      43.472  28.324  27.615  1.00  0.00     0.167 HD
ATOM     26  C   UNL A   1      40.557  29.958  30.326  1.00  0.00     0.031 A 
ATOM     27  C   UNL A   1      45.990  28.364  26.371  1.00  0.00     0.031 A 
ATOM     28  C   UNL A   1      41.468  31.045  30.110  1.00  0.00     0.049 A 
ATOM     29  C   UNL A   1      45.760  29.771  26.855  1.00  0.00     0.074 A 
ATOM     30  C   UNL A   1      41.436  32.316  30.658  1.00  0.00     0.029 A 
ATOM     31  N   UNL A   1      42.572  30.992  29.280  1.00  0.00    -0.354 N 
ATOM     32  N   UNL A   1      44.829  30.228  27.657  1.00  0.00    -0.248 NA
ATOM     33  C   UNL A   1      46.699  30.799  26.379  1.00  0.00     0.031 C 
ATOM     34  C   UNL A   1      42.496  33.053  30.115  1.00  0.00     0.029 A 
ATOM     35  C   UNL A   1      43.209  32.222  29.267  1.00  0.00     0.049 A 
ATOM     36  H   UNL A   1      42.862  30.200  28.774  1.00  0.00     0.167 HD
ATOM     37  C   UNL A   1      45.074  31.591  27.781  1.00  0.00     0.074 A 
ATOM     38  C   UNL A   1      46.258  31.882  27.003  1.00  0.00     0.031 C 
ATOM     39  C   UNL A   1      44.370  32.519  28.474  1.00  0.00     0.031 A 
BRANCH  26  40
ATOM     40  C   UNL A   1      39.485  30.136  31.359  1.00  0.00    -0.014 A 
ATOM     41  C   UNL A   1      38.218  30.617  30.992  1.00  0.00     0.009 A 
ATOM     42  C   UNL A   1      39.728  29.795  32.696  1.00  0.00     0.009 A 
ATOM     43  C   UNL A   1      37.218  30.771  31.953  1.00  0.00     0.001 A 
ATOM     44  C   UNL A   1      38.721  29.937  33.653  1.00  0.00     0.001 A 
ATOM     45  C   UNL A   1      37.469  30.430  33.281  1.00  0.00     0.000 A 
ENDBRANCH  26  40
BRANCH  27  46
ATOM     46  C   UNL A   1      47.197  28.053  25.551  1.00  0.00    -0.014 A 
ATOM     47  C   UNL A   1      47.098  27.755  24.183  1.00  0.00     0.009 A 
ATOM     48  C   UNL A   1      48.458  27.973  26.166  1.00  0.00     0.009 A 
ATOM     49  C   UNL A   1      48.229  27.357  23.461  1.00  0.00     0.001 A 
ATOM     50  C   UNL A   1      49.592  27.613  25.435  1.00  0.00     0.001 A 
ATOM     51  C   UNL A   1      49.473  27.291  24.086  1.00  0.00     0.000 A 
ENDBRANCH  27  46
BRANCH  39  52
ATOM     52  C   UNL A   1      44.850  33.941  28.408  1.00  0.00    -0.014 A 
ATOM     53  C   UNL A   1      45.717  34.452  29.386  1.00  0.00     0.009 A 
ATOM     54  C   UNL A   1      44.458  34.772  27.346  1.00  0.00     0.009 A 
ATOM     55  C   UNL A   1      46.159  35.775  29.319  1.00  0.00     0.001 A 
ATOM     56  C   UNL A   1      44.924  36.086  27.267  1.00  0.00     0.001 A 
ATOM     57  C   UNL A   1      45.766  36.589  28.258  1.00  0.00     0.000 A 
ENDBRANCH  39  52
ENDBRANCH  13  14
ENDBRANCH   6   8
ENDBRANCH   5   6
ENDBRANCH   4   5
ENDBRANCH   3   4
ENDBRANCH   2   3
ENDBRANCH   1   2
BRANCH   1  58
ATOM     58  C   UNL A   1      35.591  23.285  25.278  1.00  0.00     0.261 C 
BRANCH  58  59
ATOM     59  O   UNL A   1      34.893  24.083  24.303  1.00  0.00    -0.460 OA
BRANCH  59  60
ATOM     60  C   UNL A   1      33.851  23.460  23.719  1.00  0.00     0.339 C 
ATOM     61  O   UNL A   1      33.632  22.261  23.667  1.00  0.00    -0.246 OA
BRANCH  60  62
ATOM     62  C   UNL A   1      32.947  24.426  23.113  1.00  0.00     0.072 A 
ATOM     63  C   UNL A   1      33.200  24.812  21.790  1.00  0.00     0.016 A 
ATOM     64  C   UNL A   1      31.889  24.984  23.839  1.00  0.00     0.054 A 
ATOM     65  C   UNL A   1      32.336  25.704  21.158  1.00  0.00     0.001 A 
ATOM     66  C   UNL A   1      30.995  25.833  23.175  1.00  0.00     0.015 A 
ATOM     67  C   UNL A   1      31.221  26.193  21.840  1.00  0.00     0.001 A 
BRANCH  64  68
ATOM     68  C   UNL A   1      31.601  24.637  25.252  1.00  0.00     0.256 C 
ATOM     69  O   UNL A   1      31.091  23.539  25.473  1.00  0.00    -0.269 OA
ATOM     70  N   UNL A   1      31.957  25.448  26.313  1.00  0.00    -0.322 N 
ATOM     71  H   UNL A   1      31.906  25.009  27.193  1.00  0.00     0.170 HD
BRANCH  70  72
ATOM     72  C   UNL A   1      32.378  26.791  26.359  1.00  0.00     0.041 A 
ATOM     73  C   UNL A   1      31.542  27.704  27.019  1.00  0.00     0.028 A 
ATOM     74  C   UNL A   1      33.617  27.226  25.884  1.00  0.00     0.028 A 
ATOM     75  C   UNL A   1      32.020  28.977  27.364  1.00  0.00     0.029 A 
ATOM     76  C   UNL A   1      34.080  28.514  26.193  1.00  0.00     0.029 A 
ATOM     77  C   UNL A   1      33.306  29.369  26.982  1.00  0.00     0.052 A 
BRANCH  77  78
ATOM     78  N   UNL A   1      33.880  30.533  27.518  1.00  0.00    -0.250 N 
ATOM     79  C   UNL A   1      34.983  30.561  28.387  1.00  0.00     0.237 C 
ATOM     80  C   UNL A   1      33.279  31.796  27.423  1.00  0.00     0.237 C 
ATOM     81  O   UNL A   1      35.778  29.683  28.666  1.00  0.00    -0.274 OA
ATOM     82  C   UNL A   1      34.845  31.908  29.062  1.00  0.00     0.095 C 
ATOM     83  C   UNL A   1      34.391  32.694  27.842  1.00  0.00     0.095 C 
ATOM     84  O   UNL A   1      32.162  32.140  27.091  1.00  0.00    -0.274 OA
ATOM     85  C   UNL A   1      35.758  32.928  29.747  1.00  0.00     0.002 C 
ATOM     86  C   UNL A   1      34.538  34.135  28.269  1.00  0.00     0.002 C 
ATOM     87  C   UNL A   1      34.811  33.766  30.650  1.00  0.00     0.005 C 
ATOM     88  C   UNL A   1      36.023  34.019  28.691  1.00  0.00     0.009 C 
ATOM     89  C   UNL A   1      33.873  34.448  29.619  1.00  0.00     0.005 C 
ENDBRANCH  77  78
ENDBRANCH  70  72
ENDBRANCH  64  68
ENDBRANCH  60  62
ENDBRANCH  59  60
ENDBRANCH  58  59
ENDBRANCH   1  58
TORSDOF 17
ENDMDL
