MODEL 1
REMARK VINA RESULT:      -9.0      0.000      0.000
REMARK SMILES C/C(C(=O)OCCOCCOC(=O)c1ccc(-c2c3nc(c(-c4ccccc4)c4ccc([nH]4)c(-c4ccccc4)c4nc(c(-c5ccccc5)c5ccc2[nH]5)C=C4)C=C3)cc1)=C(\C)c1ccc(C)c(F)c1
REMARK SMILES IDX 9 1 8 2 7 3 6 4 5 5 3 6 4 7 2 8 1 9 62 10 63 11 64 12 65 13
REMARK SMILES IDX 71 14 66 15 69 16 67 17 70 18 68 19 10 20 11 21 12 22 13 23
REMARK SMILES IDX 14 24 15 25 61 26 16 27 60 28 17 29 18 30 19 31 54 32 20 33
REMARK SMILES IDX 59 34 53 35 55 36 21 37 58 38 52 39 51 40 22 42 44 43 29 44
REMARK SMILES IDX 43 45 30 46 33 47 42 48 56 49 31 50 32 51 41 53 57 54 34 55
REMARK SMILES IDX 23 56 24 57 28 58 25 59 27 60 26 61 45 62 46 63 50 64 47 65
REMARK SMILES IDX 49 66 48 67 35 68 36 69 40 70 37 71 39 72 38 73
REMARK H PARENT 55 41 33 52
REMARK Flexibility Score: inf
ROOT
ATOM      1  C   UNL A   1      33.658  34.268  28.086  1.00  0.00     0.202 C 
ENDROOT
BRANCH   1   2
ATOM      2  O   UNL A   1      33.982  35.629  28.347  1.00  0.00    -0.374 OA
BRANCH   2   3
ATOM      3  C   UNL A   1      33.225  36.304  29.354  1.00  0.00     0.202 C 
BRANCH   3   4
ATOM      4  C   UNL A   1      33.255  35.712  30.765  1.00  0.00     0.261 C 
BRANCH   4   5
ATOM      5  O   UNL A   1      34.494  35.005  30.977  1.00  0.00    -0.460 OA
BRANCH   5   6
ATOM      6  C   UNL A   1      34.980  35.034  32.245  1.00  0.00     0.334 C 
ATOM      7  O   UNL A   1      35.252  36.035  32.885  1.00  0.00    -0.247 OA
BRANCH   6   8
ATOM      8  C   UNL A   1      35.151  33.640  32.756  1.00  0.00     0.038 C 
ATOM      9  C   UNL A   1      34.044  33.125  33.633  1.00  0.00     0.052 C 
ATOM     10  C   UNL A   1      36.229  32.897  32.399  1.00  0.00    -0.034 C 
ATOM     11  C   UNL A   1      36.374  31.424  32.684  1.00  0.00     0.045 C 
BRANCH  10  12
ATOM     12  C   UNL A   1      37.422  33.470  31.735  1.00  0.00    -0.019 A 
ATOM     13  C   UNL A   1      38.504  33.987  32.453  1.00  0.00     0.009 A 
ATOM     14  C   UNL A   1      37.447  33.539  30.339  1.00  0.00     0.048 A 
ATOM     15  C   UNL A   1      39.615  34.514  31.778  1.00  0.00     0.007 A 
ATOM     16  C   UNL A   1      38.564  34.034  29.676  1.00  0.00     0.126 A 
ATOM     17  C   UNL A   1      39.669  34.510  30.378  1.00  0.00    -0.015 A 
ATOM     18  F   UNL A   1      38.562  34.043  28.335  1.00  0.00    -0.207 F 
ATOM     19  C   UNL A   1      40.858  35.055  29.646  1.00  0.00     0.047 C 
ENDBRANCH  10  12
ENDBRANCH   6   8
ENDBRANCH   5   6
ENDBRANCH   4   5
ENDBRANCH   3   4
ENDBRANCH   2   3
ENDBRANCH   1   2
BRANCH   1  20
ATOM     20  C   UNL A   1      34.804  33.244  28.070  1.00  0.00     0.261 C 
BRANCH  20  21
ATOM     21  O   UNL A   1      34.547  32.072  28.844  1.00  0.00    -0.460 OA
BRANCH  21  22
ATOM     22  C   UNL A   1      34.544  30.934  28.108  1.00  0.00     0.338 C 
ATOM     23  O   UNL A   1      33.717  30.569  27.294  1.00  0.00    -0.246 OA
BRANCH  22  24
ATOM     24  C   UNL A   1      35.817  30.231  28.328  1.00  0.00     0.060 A 
ATOM     25  C   UNL A   1      36.061  29.718  29.606  1.00  0.00     0.016 A 
ATOM     26  C   UNL A   1      36.762  30.110  27.307  1.00  0.00     0.016 A 
ATOM     27  C   UNL A   1      37.280  29.108  29.882  1.00  0.00     0.010 A 
ATOM     28  C   UNL A   1      37.987  29.507  27.589  1.00  0.00     0.010 A 
ATOM     29  C   UNL A   1      38.262  29.035  28.885  1.00  0.00    -0.014 A 
BRANCH  29  30
ATOM     30  C   UNL A   1      39.629  28.602  29.242  1.00  0.00     0.031 A 
ATOM     31  C   UNL A   1      40.476  29.512  30.088  1.00  0.00     0.074 A 
ATOM     32  C   UNL A   1      40.095  27.406  28.844  1.00  0.00     0.049 A 
ATOM     33  N   UNL A   1      41.704  29.349  30.505  1.00  0.00    -0.248 NA
ATOM     34  C   UNL A   1      39.852  30.775  30.518  1.00  0.00     0.031 C 
ATOM     35  C   UNL A   1      39.347  26.426  28.058  1.00  0.00     0.029 A 
ATOM     36  N   UNL A   1      41.315  26.817  29.048  1.00  0.00    -0.354 N 
ATOM     37  C   UNL A   1      42.003  30.490  31.239  1.00  0.00     0.074 A 
ATOM     38  C   UNL A   1      40.843  31.350  31.183  1.00  0.00     0.031 C 
ATOM     39  C   UNL A   1      40.128  25.353  27.845  1.00  0.00     0.029 A 
ATOM     40  C   UNL A   1      41.438  25.589  28.447  1.00  0.00     0.049 A 
ATOM     41  H   UNL A   1      42.035  27.235  29.574  1.00  0.00     0.167 HD
ATOM     42  C   UNL A   1      43.143  30.789  31.907  1.00  0.00     0.031 A 
ATOM     43  C   UNL A   1      42.497  24.760  28.378  1.00  0.00     0.031 A 
ATOM     44  C   UNL A   1      44.299  29.935  31.944  1.00  0.00     0.049 A 
ATOM     45  C   UNL A   1      43.780  25.153  29.060  1.00  0.00     0.074 A 
ATOM     46  C   UNL A   1      45.500  30.138  32.601  1.00  0.00     0.029 A 
ATOM     47  N   UNL A   1      44.399  28.717  31.288  1.00  0.00    -0.354 N 
ATOM     48  N   UNL A   1      44.043  26.221  29.774  1.00  0.00    -0.248 NA
ATOM     49  C   UNL A   1      44.908  24.220  28.933  1.00  0.00     0.031 C 
ATOM     50  C   UNL A   1      46.350  29.072  32.290  1.00  0.00     0.029 A 
ATOM     51  C   UNL A   1      45.654  28.172  31.498  1.00  0.00     0.049 A 
ATOM     52  H   UNL A   1      43.685  28.303  30.753  1.00  0.00     0.167 HD
ATOM     53  C   UNL A   1      45.356  26.074  30.207  1.00  0.00     0.074 A 
ATOM     54  C   UNL A   1      45.828  24.806  29.687  1.00  0.00     0.031 C 
ATOM     55  C   UNL A   1      46.104  26.909  30.969  1.00  0.00     0.031 A 
BRANCH  42  56
ATOM     56  C   UNL A   1      43.201  32.115  32.614  1.00  0.00    -0.014 A 
ATOM     57  C   UNL A   1      43.611  33.282  31.952  1.00  0.00     0.009 A 
ATOM     58  C   UNL A   1      42.815  32.200  33.962  1.00  0.00     0.009 A 
ATOM     59  C   UNL A   1      43.668  34.500  32.633  1.00  0.00     0.001 A 
ATOM     60  C   UNL A   1      42.844  33.423  34.632  1.00  0.00     0.001 A 
ATOM     61  C   UNL A   1      43.279  34.570  33.970  1.00  0.00     0.000 A 
ENDBRANCH  42  56
BRANCH  43  62
ATOM     62  C   UNL A   1      42.398  23.485  27.619  1.00  0.00    -0.014 A 
ATOM     63  C   UNL A   1      41.994  22.301  28.254  1.00  0.00     0.009 A 
ATOM     64  C   UNL A   1      42.723  23.444  26.254  1.00  0.00     0.009 A 
ATOM     65  C   UNL A   1      41.945  21.098  27.545  1.00  0.00     0.001 A 
ATOM     66  C   UNL A   1      42.643  22.247  25.539  1.00  0.00     0.001 A 
ATOM     67  C   UNL A   1      42.264  21.073  26.188  1.00  0.00     0.000 A 
ENDBRANCH  43  62
BRANCH  55  68
ATOM     68  C   UNL A   1      47.496  26.462  31.319  1.00  0.00    -0.014 A 
ATOM     69  C   UNL A   1      47.754  25.704  32.471  1.00  0.00     0.009 A 
ATOM     70  C   UNL A   1      48.559  26.769  30.455  1.00  0.00     0.009 A 
ATOM     71  C   UNL A   1      49.055  25.293  32.768  1.00  0.00     0.001 A 
ATOM     72  C   UNL A   1      49.853  26.330  30.737  1.00  0.00     0.001 A 
ATOM     73  C   UNL A   1      50.102  25.601  31.898  1.00  0.00     0.000 A 
ENDBRANCH  55  68
ENDBRANCH  29  30
ENDBRANCH  22  24
ENDBRANCH  21  22
ENDBRANCH  20  21
ENDBRANCH   1  20
TORSDOF 15
ENDMDL
MODEL 2
REMARK VINA RESULT:      -8.9      4.286      7.088
REMARK SMILES C/C(C(=O)OCCOCCOC(=O)c1ccc(-c2c3nc(c(-c4ccccc4)c4ccc([nH]4)c(-c4ccccc4)c4nc(c(-c5ccccc5)c5ccc2[nH]5)C=C4)C=C3)cc1)=C(\C)c1ccc(C)c(F)c1
REMARK SMILES IDX 9 1 8 2 7 3 6 4 5 5 3 6 4 7 2 8 1 9 62 10 63 11 64 12 65 13
REMARK SMILES IDX 71 14 66 15 69 16 67 17 70 18 68 19 10 20 11 21 12 22 13 23
REMARK SMILES IDX 14 24 15 25 61 26 16 27 60 28 17 29 18 30 19 31 54 32 20 33
REMARK SMILES IDX 59 34 53 35 55 36 21 37 58 38 52 39 51 40 22 42 44 43 29 44
REMARK SMILES IDX 43 45 30 46 33 47 42 48 56 49 31 50 32 51 41 53 57 54 34 55
REMARK SMILES IDX 23 56 24 57 28 58 25 59 27 60 26 61 45 62 46 63 50 64 47 65
REMARK SMILES IDX 49 66 48 67 35 68 36 69 40 70 37 71 39 72 38 73
REMARK H PARENT 55 41 33 52
REMARK Flexibility Score: inf
ROOT
ATOM      1  C   UNL A   1      31.399  32.181  26.862  1.00  0.00     0.202 C 
ENDROOT
BRANCH   1   2
ATOM      2  O   UNL A   1      31.861  30.901  26.445  1.00  0.00    -0.374 OA
BRANCH   2   3
ATOM      3  C   UNL A   1      33.126  30.462  26.946  1.00  0.00     0.202 C 
BRANCH   3   4
ATOM      4  C   UNL A   1      33.341  28.952  27.070  1.00  0.00     0.261 C 
BRANCH   4   5
ATOM      5  O   UNL A   1      32.877  28.288  25.878  1.00  0.00    -0.460 OA
BRANCH   5   6
ATOM      6  C   UNL A   1      31.917  27.345  26.064  1.00  0.00     0.334 C 
ATOM      7  O   UNL A   1      31.029  27.382  26.898  1.00  0.00    -0.247 OA
BRANCH   6   8
ATOM      8  C   UNL A   1      32.110  26.224  25.094  1.00  0.00     0.038 C 
ATOM      9  C   UNL A   1      33.121  25.184  25.491  1.00  0.00     0.052 C 
ATOM     10  C   UNL A   1      31.374  26.156  23.956  1.00  0.00    -0.034 C 
ATOM     11  C   UNL A   1      31.344  24.961  23.038  1.00  0.00     0.045 C 
BRANCH  10  12
ATOM     12  C   UNL A   1      30.556  27.283  23.454  1.00  0.00    -0.019 A 
ATOM     13  C   UNL A   1      31.124  28.418  22.868  1.00  0.00     0.009 A 
ATOM     14  C   UNL A   1      29.169  27.231  23.612  1.00  0.00     0.048 A 
ATOM     15  C   UNL A   1      30.306  29.458  22.400  1.00  0.00     0.007 A 
ATOM     16  C   UNL A   1      28.363  28.251  23.119  1.00  0.00     0.126 A 
ATOM     17  C   UNL A   1      28.912  29.367  22.492  1.00  0.00    -0.015 A 
ATOM     18  F   UNL A   1      27.033  28.140  23.256  1.00  0.00    -0.207 F 
ATOM     19  C   UNL A   1      28.027  30.463  21.981  1.00  0.00     0.047 C 
ENDBRANCH  10  12
ENDBRANCH   6   8
ENDBRANCH   5   6
ENDBRANCH   4   5
ENDBRANCH   3   4
ENDBRANCH   2   3
ENDBRANCH   1   2
BRANCH   1  20
ATOM     20  C   UNL A   1      32.442  33.287  27.084  1.00  0.00     0.261 C 
BRANCH  20  21
ATOM     21  O   UNL A   1      32.317  33.961  28.336  1.00  0.00    -0.460 OA
BRANCH  21  22
ATOM     22  C   UNL A   1      33.388  34.736  28.637  1.00  0.00     0.338 C 
ATOM     23  O   UNL A   1      33.429  35.946  28.757  1.00  0.00    -0.246 OA
BRANCH  22  24
ATOM     24  C   UNL A   1      34.523  33.859  28.961  1.00  0.00     0.060 A 
ATOM     25  C   UNL A   1      34.250  32.675  29.654  1.00  0.00     0.016 A 
ATOM     26  C   UNL A   1      35.829  34.211  28.617  1.00  0.00     0.016 A 
ATOM     27  C   UNL A   1      35.298  31.849  30.046  1.00  0.00     0.010 A 
ATOM     28  C   UNL A   1      36.879  33.385  29.018  1.00  0.00     0.010 A 
ATOM     29  C   UNL A   1      36.618  32.220  29.762  1.00  0.00    -0.014 A 
BRANCH  29  30
ATOM     30  C   UNL A   1      37.733  31.468  30.376  1.00  0.00     0.031 A 
ATOM     31  C   UNL A   1      38.068  31.725  31.818  1.00  0.00     0.074 A 
ATOM     32  C   UNL A   1      38.413  30.551  29.667  1.00  0.00     0.049 A 
ATOM     33  N   UNL A   1      39.011  31.199  32.556  1.00  0.00    -0.248 NA
ATOM     34  C   UNL A   1      37.227  32.709  32.521  1.00  0.00     0.031 C 
ATOM     35  C   UNL A   1      38.146  30.189  28.276  1.00  0.00     0.029 A 
ATOM     36  N   UNL A   1      39.471  29.758  30.027  1.00  0.00    -0.354 N 
ATOM     37  C   UNL A   1      38.882  31.793  33.805  1.00  0.00     0.074 A 
ATOM     38  C   UNL A   1      37.794  32.741  33.718  1.00  0.00     0.031 C 
ATOM     39  C   UNL A   1      39.022  29.243  27.898  1.00  0.00     0.029 A 
ATOM     40  C   UNL A   1      39.930  28.962  29.007  1.00  0.00     0.049 A 
ATOM     41  H   UNL A   1      39.865  29.760  30.929  1.00  0.00     0.167 HD
ATOM     42  C   UNL A   1      39.603  31.562  34.928  1.00  0.00     0.031 A 
ATOM     43  C   UNL A   1      40.978  28.116  28.973  1.00  0.00     0.031 A 
ATOM     44  C   UNL A   1      40.695  30.629  35.002  1.00  0.00     0.049 A 
ATOM     45  C   UNL A   1      41.814  27.937  30.211  1.00  0.00     0.074 A 
ATOM     46  C   UNL A   1      41.484  30.310  36.094  1.00  0.00     0.029 A 
ATOM     47  N   UNL A   1      41.157  29.871  33.937  1.00  0.00    -0.354 N 
ATOM     48  N   UNL A   1      41.668  28.482  31.395  1.00  0.00    -0.248 NA
ATOM     49  C   UNL A   1      42.956  27.018  30.109  1.00  0.00     0.031 C 
ATOM     50  C   UNL A   1      42.463  29.405  35.672  1.00  0.00     0.029 A 
ATOM     51  C   UNL A   1      42.240  29.108  34.336  1.00  0.00     0.049 A 
ATOM     52  H   UNL A   1      40.772  29.875  33.032  1.00  0.00     0.167 HD
ATOM     53  C   UNL A   1      42.679  27.950  32.186  1.00  0.00     0.074 A 
ATOM     54  C   UNL A   1      43.421  27.028  31.351  1.00  0.00     0.031 C 
ATOM     55  C   UNL A   1      42.967  28.198  33.488  1.00  0.00     0.031 A 
BRANCH  42  56
ATOM     56  C   UNL A   1      39.255  32.364  36.151  1.00  0.00    -0.014 A 
ATOM     57  C   UNL A   1      39.908  33.571  36.446  1.00  0.00     0.009 A 
ATOM     58  C   UNL A   1      38.239  31.916  37.009  1.00  0.00     0.009 A 
ATOM     59  C   UNL A   1      39.574  34.295  37.594  1.00  0.00     0.001 A 
ATOM     60  C   UNL A   1      37.886  32.655  38.139  1.00  0.00     0.001 A 
ATOM     61  C   UNL A   1      38.561  33.839  38.436  1.00  0.00     0.000 A 
ENDBRANCH  42  56
BRANCH  43  62
ATOM     62  C   UNL A   1      41.307  27.387  27.720  1.00  0.00    -0.014 A 
ATOM     63  C   UNL A   1      40.779  26.112  27.471  1.00  0.00     0.009 A 
ATOM     64  C   UNL A   1      42.167  27.961  26.770  1.00  0.00     0.009 A 
ATOM     65  C   UNL A   1      41.128  25.415  26.311  1.00  0.00     0.001 A 
ATOM     66  C   UNL A   1      42.490  27.277  25.596  1.00  0.00     0.001 A 
ATOM     67  C   UNL A   1      41.978  26.000  25.372  1.00  0.00     0.000 A 
ENDBRANCH  43  62
BRANCH  55  68
ATOM     68  C   UNL A   1      44.108  27.433  34.099  1.00  0.00    -0.014 A 
ATOM     69  C   UNL A   1      45.403  27.969  34.152  1.00  0.00     0.009 A 
ATOM     70  C   UNL A   1      43.869  26.172  34.668  1.00  0.00     0.009 A 
ATOM     71  C   UNL A   1      46.444  27.242  34.733  1.00  0.00     0.001 A 
ATOM     72  C   UNL A   1      44.903  25.461  35.277  1.00  0.00     0.001 A 
ATOM     73  C   UNL A   1      46.192  25.992  35.300  1.00  0.00     0.000 A 
ENDBRANCH  55  68
ENDBRANCH  29  30
ENDBRANCH  22  24
ENDBRANCH  21  22
ENDBRANCH  20  21
ENDBRANCH   1  20
TORSDOF 15
ENDMDL
MODEL 3
REMARK VINA RESULT:      -8.8      5.577     10.586
REMARK SMILES C/C(C(=O)OCCOCCOC(=O)c1ccc(-c2c3nc(c(-c4ccccc4)c4ccc([nH]4)c(-c4ccccc4)c4nc(c(-c5ccccc5)c5ccc2[nH]5)C=C4)C=C3)cc1)=C(\C)c1ccc(C)c(F)c1
REMARK SMILES IDX 9 1 8 2 7 3 6 4 5 5 3 6 4 7 2 8 1 9 62 10 63 11 64 12 65 13
REMARK SMILES IDX 71 14 66 15 69 16 67 17 70 18 68 19 10 20 11 21 12 22 13 23
REMARK SMILES IDX 14 24 15 25 61 26 16 27 60 28 17 29 18 30 19 31 54 32 20 33
REMARK SMILES IDX 59 34 53 35 55 36 21 37 58 38 52 39 51 40 22 42 44 43 29 44
REMARK SMILES IDX 43 45 30 46 33 47 42 48 56 49 31 50 32 51 41 53 57 54 34 55
REMARK SMILES IDX 23 56 24 57 28 58 25 59 27 60 26 61 45 62 46 63 50 64 47 65
REMARK SMILES IDX 49 66 48 67 35 68 36 69 40 70 37 71 39 72 38 73
REMARK H PARENT 55 41 33 52
REMARK Flexibility Score: inf
ROOT
ATOM      1  C   UNL A   1      38.656  20.183  25.302  1.00  0.00     0.202 C 
ENDROOT
BRANCH   1   2
ATOM      2  O   UNL A   1      38.738  21.561  25.648  1.00  0.00    -0.374 OA
BRANCH   2   3
ATOM      3  C   UNL A   1      37.637  22.398  25.284  1.00  0.00     0.202 C 
BRANCH   3   4
ATOM      4  C   UNL A   1      37.026  22.183  23.897  1.00  0.00     0.261 C 
BRANCH   4   5
ATOM      5  O   UNL A   1      36.295  23.357  23.491  1.00  0.00    -0.460 OA
BRANCH   5   6
ATOM      6  C   UNL A   1      34.948  23.210  23.398  1.00  0.00     0.334 C 
ATOM      7  O   UNL A   1      34.323  22.964  22.381  1.00  0.00    -0.247 OA
BRANCH   6   8
ATOM      8  C   UNL A   1      34.321  23.407  24.740  1.00  0.00     0.038 C 
ATOM      9  C   UNL A   1      34.529  24.759  25.366  1.00  0.00     0.052 C 
ATOM     10  C   UNL A   1      33.581  22.424  25.313  1.00  0.00    -0.034 C 
ATOM     11  C   UNL A   1      32.738  22.609  26.549  1.00  0.00     0.045 C 
BRANCH  10  12
ATOM     12  C   UNL A   1      33.567  21.030  24.816  1.00  0.00    -0.019 A 
ATOM     13  C   UNL A   1      32.486  20.497  24.109  1.00  0.00     0.009 A 
ATOM     14  C   UNL A   1      34.656  20.202  25.104  1.00  0.00     0.048 A 
ATOM     15  C   UNL A   1      32.522  19.170  23.653  1.00  0.00     0.007 A 
ATOM     16  C   UNL A   1      34.698  18.898  24.622  1.00  0.00     0.126 A 
ATOM     17  C   UNL A   1      33.648  18.368  23.877  1.00  0.00    -0.015 A 
ATOM     18  F   UNL A   1      35.782  18.152  24.887  1.00  0.00    -0.207 F 
ATOM     19  C   UNL A   1      33.705  16.955  23.380  1.00  0.00     0.047 C 
ENDBRANCH  10  12
ENDBRANCH   6   8
ENDBRANCH   5   6
ENDBRANCH   4   5
ENDBRANCH   3   4
ENDBRANCH   2   3
ENDBRANCH   1   2
BRANCH   1  20
ATOM     20  C   UNL A   1      39.629  19.209  25.984  1.00  0.00     0.261 C 
BRANCH  20  21
ATOM     21  O   UNL A   1      40.917  19.149  25.372  1.00  0.00    -0.460 OA
BRANCH  21  22
ATOM     22  C   UNL A   1      41.938  19.218  26.261  1.00  0.00     0.338 C 
ATOM     23  O   UNL A   1      42.670  18.320  26.633  1.00  0.00    -0.246 OA
BRANCH  22  24
ATOM     24  C   UNL A   1      42.146  20.627  26.625  1.00  0.00     0.060 A 
ATOM     25  C   UNL A   1      42.345  21.542  25.587  1.00  0.00     0.016 A 
ATOM     26  C   UNL A   1      42.178  21.031  27.962  1.00  0.00     0.016 A 
ATOM     27  C   UNL A   1      42.617  22.873  25.885  1.00  0.00     0.010 A 
ATOM     28  C   UNL A   1      42.460  22.364  28.258  1.00  0.00     0.010 A 
ATOM     29  C   UNL A   1      42.713  23.280  27.221  1.00  0.00    -0.014 A 
BRANCH  29  30
ATOM     30  C   UNL A   1      43.229  24.630  27.534  1.00  0.00     0.031 A 
ATOM     31  C   UNL A   1      42.255  25.694  27.954  1.00  0.00     0.074 A 
ATOM     32  C   UNL A   1      44.546  24.891  27.472  1.00  0.00     0.049 A 
ATOM     33  N   UNL A   1      42.477  26.947  28.256  1.00  0.00    -0.248 NA
ATOM     34  C   UNL A   1      40.841  25.292  28.042  1.00  0.00     0.031 C 
ATOM     35  C   UNL A   1      45.584  23.924  27.120  1.00  0.00     0.029 A 
ATOM     36  N   UNL A   1      45.231  26.055  27.706  1.00  0.00    -0.354 N 
ATOM     37  C   UNL A   1      41.232  27.483  28.562  1.00  0.00     0.074 A 
ATOM     38  C   UNL A   1      40.257  26.432  28.378  1.00  0.00     0.031 C 
ATOM     39  C   UNL A   1      46.780  24.537  27.159  1.00  0.00     0.029 A 
ATOM     40  C   UNL A   1      46.584  25.943  27.503  1.00  0.00     0.049 A 
ATOM     41  H   UNL A   1      44.795  26.890  27.991  1.00  0.00     0.167 HD
ATOM     42  C   UNL A   1      40.931  28.740  28.969  1.00  0.00     0.031 A 
ATOM     43  C   UNL A   1      47.551  26.879  27.571  1.00  0.00     0.031 A 
ATOM     44  C   UNL A   1      41.905  29.784  29.134  1.00  0.00     0.049 A 
ATOM     45  C   UNL A   1      47.179  28.289  27.946  1.00  0.00     0.074 A 
ATOM     46  C   UNL A   1      41.708  31.089  29.552  1.00  0.00     0.029 A 
ATOM     47  N   UNL A   1      43.261  29.644  28.879  1.00  0.00    -0.354 N 
ATOM     48  N   UNL A   1      46.004  28.779  28.260  1.00  0.00    -0.248 NA
ATOM     49  C   UNL A   1      48.270  29.271  27.984  1.00  0.00     0.031 C 
ATOM     50  C   UNL A   1      42.936  31.755  29.490  1.00  0.00     0.029 A 
ATOM     51  C   UNL A   1      43.909  30.847  29.100  1.00  0.00     0.049 A 
ATOM     52  H   UNL A   1      43.697  28.813  28.583  1.00  0.00     0.167 HD
ATOM     53  C   UNL A   1      46.219  30.118  28.563  1.00  0.00     0.074 A 
ATOM     54  C   UNL A   1      47.639  30.358  28.408  1.00  0.00     0.031 C 
ATOM     55  C   UNL A   1      45.324  31.065  28.938  1.00  0.00     0.031 A 
BRANCH  42  56
ATOM     56  C   UNL A   1      39.483  29.056  29.221  1.00  0.00    -0.014 A 
ATOM     57  C   UNL A   1      38.903  28.876  30.486  1.00  0.00     0.009 A 
ATOM     58  C   UNL A   1      38.693  29.567  28.179  1.00  0.00     0.009 A 
ATOM     59  C   UNL A   1      37.552  29.167  30.693  1.00  0.00     0.001 A 
ATOM     60  C   UNL A   1      37.352  29.886  28.396  1.00  0.00     0.001 A 
ATOM     61  C   UNL A   1      36.780  29.676  29.650  1.00  0.00     0.000 A 
ENDBRANCH  42  56
BRANCH  43  62
ATOM     62  C   UNL A   1      48.959  26.520  27.260  1.00  0.00    -0.014 A 
ATOM     63  C   UNL A   1      49.443  26.585  25.946  1.00  0.00     0.009 A 
ATOM     64  C   UNL A   1      49.825  26.093  28.280  1.00  0.00     0.009 A 
ATOM     65  C   UNL A   1      50.756  26.204  25.654  1.00  0.00     0.001 A 
ATOM     66  C   UNL A   1      51.146  25.743  27.992  1.00  0.00     0.001 A 
ATOM     67  C   UNL A   1      51.607  25.790  26.678  1.00  0.00     0.000 A 
ENDBRANCH  43  62
BRANCH  55  68
ATOM     68  C   UNL A   1      45.860  32.436  29.245  1.00  0.00    -0.014 A 
ATOM     69  C   UNL A   1      46.321  32.771  30.527  1.00  0.00     0.009 A 
ATOM     70  C   UNL A   1      45.942  33.392  28.221  1.00  0.00     0.009 A 
ATOM     71  C   UNL A   1      46.823  34.049  30.784  1.00  0.00     0.001 A 
ATOM     72  C   UNL A   1      46.473  34.657  28.472  1.00  0.00     0.001 A 
ATOM     73  C   UNL A   1      46.903  34.988  29.755  1.00  0.00     0.000 A 
ENDBRANCH  55  68
ENDBRANCH  29  30
ENDBRANCH  22  24
ENDBRANCH  21  22
ENDBRANCH  20  21
ENDBRANCH   1  20
TORSDOF 15
ENDMDL
