MODEL 1
REMARK VINA RESULT:     -11.6      0.000      0.000
REMARK SMILES CN1C(=O)C[C@@H](C(=O)OCCOCCOC(=O)c2ccc(-c3c4nc(c(-c5ccccc5)c5ccc([nH]5)c(-c5ccccc5)c5nc(c(-c6ccccc6)c6ccc3[nH]6)C=C5)C=C4)cc2)C12CCN(C(=O)c1ccccc1-n1cccn1)CC2
REMARK SMILES IDX 12 1 11 2 10 3 9 4 7 5 8 6 6 7 1 8 2 9 3 10 66 11 4 12 5 13
REMARK SMILES IDX 67 14 84 15 68 16 83 17 69 18 70 19 71 20 72 21 73 22 77 23
REMARK SMILES IDX 74 24 76 25 75 26 78 27 79 28 82 29 80 30 81 31 13 32 14 33
REMARK SMILES IDX 15 34 16 35 17 36 18 37 19 38 65 39 20 40 64 41 21 42 22 43
REMARK SMILES IDX 23 44 58 45 24 46 63 47 57 48 59 49 25 50 62 51 56 52 55 53
REMARK SMILES IDX 26 55 48 56 33 57 47 58 34 59 37 60 46 61 60 62 35 63 36 64
REMARK SMILES IDX 45 66 61 67 38 68 27 69 28 70 32 71 29 72 31 73 30 74 49 75
REMARK SMILES IDX 50 76 54 77 51 78 53 79 52 80 39 81 40 82 44 83 41 84 43 85
REMARK SMILES IDX 42 86
REMARK H PARENT 59 54 37 65
REMARK Flexibility Score: inf
ROOT
ATOM      1  O   UNL A   1      34.324  31.519  27.963  1.00  0.00    -0.374 OA
ENDROOT
BRANCH   1   2
ATOM      2  C   UNL A   1      34.713  30.155  28.120  1.00  0.00     0.202 C 
BRANCH   2   3
ATOM      3  C   UNL A   1      34.697  29.285  26.856  1.00  0.00     0.261 C 
BRANCH   3   4
ATOM      4  O   UNL A   1      33.877  28.098  26.938  1.00  0.00    -0.463 OA
BRANCH   4   5
ATOM      5  C   UNL A   1      32.631  28.208  26.419  1.00  0.00     0.311 C 
ATOM      6  O   UNL A   1      31.607  28.265  27.095  1.00  0.00    -0.252 OA
BRANCH   5   7
ATOM      7  C   UNL A   1      32.551  28.142  24.904  1.00  0.00     0.134 C 
ATOM      8  C   UNL A   1      29.254  27.094  23.442  1.00  0.00     0.147 C 
ATOM      9  N   UNL A   1      30.456  27.750  23.926  1.00  0.00    -0.339 N 
ATOM     10  C   UNL A   1      30.540  29.125  24.070  1.00  0.00     0.223 C 
ATOM     11  C   UNL A   1      31.737  27.062  24.146  1.00  0.00     0.060 C 
ATOM     12  O   UNL A   1      29.647  29.935  23.884  1.00  0.00    -0.275 OA
ATOM     13  C   UNL A   1      31.954  29.476  24.440  1.00  0.00     0.118 C 
ATOM     14  C   UNL A   1      31.563  25.713  24.863  1.00  0.00     0.051 C 
ATOM     15  C   UNL A   1      32.403  26.783  22.758  1.00  0.00     0.051 C 
ATOM     16  C   UNL A   1      32.866  24.931  24.951  1.00  0.00     0.122 C 
ATOM     17  C   UNL A   1      33.654  25.900  22.835  1.00  0.00     0.122 C 
ATOM     18  N   UNL A   1      33.411  24.696  23.619  1.00  0.00    -0.338 N 
ATOM     19  C   UNL A   1      33.841  23.463  23.123  1.00  0.00     0.256 C 
ATOM     20  O   UNL A   1      34.426  23.325  22.052  1.00  0.00    -0.269 OA
BRANCH  19  21
ATOM     21  C   UNL A   1      33.610  22.240  23.926  1.00  0.00     0.065 A 
ATOM     22  C   UNL A   1      32.404  21.564  23.674  1.00  0.00     0.016 A 
ATOM     23  C   UNL A   1      34.553  21.685  24.806  1.00  0.00     0.077 A 
ATOM     24  C   UNL A   1      32.161  20.319  24.253  1.00  0.00     0.001 A 
ATOM     25  C   UNL A   1      34.320  20.403  25.338  1.00  0.00     0.029 A 
ATOM     26  C   UNL A   1      33.126  19.730  25.066  1.00  0.00     0.002 A 
BRANCH  23  27
ATOM     27  N   UNL A   1      35.741  22.363  25.185  1.00  0.00    -0.240 N 
ATOM     28  C   UNL A   1      35.904  23.358  26.124  1.00  0.00     0.115 A 
ATOM     29  N   UNL A   1      36.929  22.048  24.598  1.00  0.00    -0.177 NA
ATOM     30  C   UNL A   1      37.226  23.731  26.100  1.00  0.00     0.042 A 
ATOM     31  C   UNL A   1      37.807  22.894  25.140  1.00  0.00     0.135 A 
ENDBRANCH  23  27
ENDBRANCH  19  21
ENDBRANCH   5   7
ENDBRANCH   4   5
ENDBRANCH   3   4
ENDBRANCH   2   3
ENDBRANCH   1   2
BRANCH   1  32
ATOM     32  C   UNL A   1      33.028  31.772  27.423  1.00  0.00     0.202 C 
BRANCH  32  33
ATOM     33  C   UNL A   1      32.677  33.251  27.248  1.00  0.00     0.261 C 
BRANCH  33  34
ATOM     34  O   UNL A   1      32.269  33.814  28.506  1.00  0.00    -0.460 OA
BRANCH  34  35
ATOM     35  C   UNL A   1      32.917  34.959  28.819  1.00  0.00     0.338 C 
ATOM     36  O   UNL A   1      32.510  36.100  28.668  1.00  0.00    -0.246 OA
BRANCH  35  37
ATOM     37  C   UNL A   1      34.122  34.633  29.598  1.00  0.00     0.060 A 
ATOM     38  C   UNL A   1      35.357  34.691  28.942  1.00  0.00     0.016 A 
ATOM     39  C   UNL A   1      34.030  34.153  30.905  1.00  0.00     0.016 A 
ATOM     40  C   UNL A   1      36.500  34.201  29.571  1.00  0.00     0.010 A 
ATOM     41  C   UNL A   1      35.183  33.670  31.538  1.00  0.00     0.010 A 
ATOM     42  C   UNL A   1      36.414  33.644  30.856  1.00  0.00    -0.014 A 
BRANCH  42  43
ATOM     43  C   UNL A   1      37.575  32.892  31.401  1.00  0.00     0.031 A 
ATOM     44  C   UNL A   1      38.138  33.281  32.743  1.00  0.00     0.074 A 
ATOM     45  C   UNL A   1      38.087  31.832  30.747  1.00  0.00     0.049 A 
ATOM     46  N   UNL A   1      39.101  32.721  33.433  1.00  0.00    -0.248 NA
ATOM     47  C   UNL A   1      37.534  34.454  33.394  1.00  0.00     0.031 C 
ATOM     48  C   UNL A   1      37.619  31.325  29.460  1.00  0.00     0.029 A 
ATOM     49  N   UNL A   1      39.113  30.986  31.092  1.00  0.00    -0.354 N 
ATOM     50  C   UNL A   1      39.214  33.472  34.598  1.00  0.00     0.074 A 
ATOM     51  C   UNL A   1      38.251  34.547  34.504  1.00  0.00     0.031 C 
ATOM     52  C   UNL A   1      38.348  30.245  29.126  1.00  0.00     0.029 A 
ATOM     53  C   UNL A   1      39.347  29.999  30.166  1.00  0.00     0.049 A 
ATOM     54  H   UNL A   1      39.631  31.078  31.924  1.00  0.00     0.167 HD
ATOM     55  C   UNL A   1      40.037  33.281  35.658  1.00  0.00     0.031 A 
ATOM     56  C   UNL A   1      40.261  29.010  30.156  1.00  0.00     0.031 A 
ATOM     57  C   UNL A   1      41.008  32.226  35.758  1.00  0.00     0.049 A 
ATOM     58  C   UNL A   1      41.212  28.859  31.313  1.00  0.00     0.074 A 
ATOM     59  C   UNL A   1      41.875  31.946  36.799  1.00  0.00     0.029 A 
ATOM     60  N   UNL A   1      41.248  31.283  34.772  1.00  0.00    -0.354 N 
ATOM     61  N   UNL A   1      41.281  29.554  32.422  1.00  0.00    -0.248 NA
ATOM     62  C   UNL A   1      42.205  27.778  31.218  1.00  0.00     0.031 C 
ATOM     63  C   UNL A   1      42.673  30.860  36.424  1.00  0.00     0.029 A 
ATOM     64  C   UNL A   1      42.269  30.435  35.170  1.00  0.00     0.049 A 
ATOM     65  H   UNL A   1      40.765  31.223  33.916  1.00  0.00     0.167 HD
ATOM     66  C   UNL A   1      42.307  28.982  33.165  1.00  0.00     0.074 A 
ATOM     67  C   UNL A   1      42.822  27.874  32.388  1.00  0.00     0.031 C 
ATOM     68  C   UNL A   1      42.776  29.340  34.385  1.00  0.00     0.031 A 
BRANCH  55  69
ATOM     69  C   UNL A   1      39.931  34.264  36.790  1.00  0.00    -0.014 A 
ATOM     70  C   UNL A   1      40.676  35.454  36.791  1.00  0.00     0.009 A 
ATOM     71  C   UNL A   1      39.064  34.002  37.862  1.00  0.00     0.009 A 
ATOM     72  C   UNL A   1      40.582  36.344  37.863  1.00  0.00     0.001 A 
ATOM     73  C   UNL A   1      38.955  34.906  38.920  1.00  0.00     0.001 A 
ATOM     74  C   UNL A   1      39.720  36.071  38.925  1.00  0.00     0.000 A 
ENDBRANCH  55  69
BRANCH  56  75
ATOM     75  C   UNL A   1      40.324  28.071  29.006  1.00  0.00    -0.014 A 
ATOM     76  C   UNL A   1      39.607  26.866  29.027  1.00  0.00     0.009 A 
ATOM     77  C   UNL A   1      41.112  28.374  27.885  1.00  0.00     0.009 A 
ATOM     78  C   UNL A   1      39.691  25.974  27.954  1.00  0.00     0.001 A 
ATOM     79  C   UNL A   1      41.175  27.492  26.803  1.00  0.00     0.001 A 
ATOM     80  C   UNL A   1      40.471  26.291  26.843  1.00  0.00     0.000 A 
ENDBRANCH  56  75
BRANCH  68  81
ATOM     81  C   UNL A   1      43.888  28.513  34.967  1.00  0.00    -0.014 A 
ATOM     82  C   UNL A   1      43.619  27.336  35.683  1.00  0.00     0.009 A 
ATOM     83  C   UNL A   1      45.222  28.894  34.758  1.00  0.00     0.009 A 
ATOM     84  C   UNL A   1      44.667  26.572  36.202  1.00  0.00     0.001 A 
ATOM     85  C   UNL A   1      46.267  28.116  35.258  1.00  0.00     0.001 A 
ATOM     86  C   UNL A   1      45.990  26.960  35.986  1.00  0.00     0.000 A 
ENDBRANCH  68  81
ENDBRANCH  42  43
ENDBRANCH  35  37
ENDBRANCH  34  35
ENDBRANCH  33  34
ENDBRANCH  32  33
ENDBRANCH   1  32
TORSDOF 16
ENDMDL
MODEL 2
REMARK VINA RESULT:     -11.5      4.126      7.684
REMARK SMILES CN1C(=O)C[C@@H](C(=O)OCCOCCOC(=O)c2ccc(-c3c4nc(c(-c5ccccc5)c5ccc([nH]5)c(-c5ccccc5)c5nc(c(-c6ccccc6)c6ccc3[nH]6)C=C5)C=C4)cc2)C12CCN(C(=O)c1ccccc1-n1cccn1)CC2
REMARK SMILES IDX 12 1 11 2 10 3 9 4 7 5 8 6 6 7 1 8 2 9 3 10 66 11 4 12 5 13
REMARK SMILES IDX 67 14 84 15 68 16 83 17 69 18 70 19 71 20 72 21 73 22 77 23
REMARK SMILES IDX 74 24 76 25 75 26 78 27 79 28 82 29 80 30 81 31 13 32 14 33
REMARK SMILES IDX 15 34 16 35 17 36 18 37 19 38 65 39 20 40 64 41 21 42 22 43
REMARK SMILES IDX 23 44 58 45 24 46 63 47 57 48 59 49 25 50 62 51 56 52 55 53
REMARK SMILES IDX 26 55 48 56 33 57 47 58 34 59 37 60 46 61 60 62 35 63 36 64
REMARK SMILES IDX 45 66 61 67 38 68 27 69 28 70 32 71 29 72 31 73 30 74 49 75
REMARK SMILES IDX 50 76 54 77 51 78 53 79 52 80 39 81 40 82 44 83 41 84 43 85
REMARK SMILES IDX 42 86
REMARK H PARENT 59 54 37 65
REMARK Flexibility Score: inf
ROOT
ATOM      1  O   UNL A   1      34.579  31.827  27.620  1.00  0.00    -0.374 OA
ENDROOT
BRANCH   1   2
ATOM      2  C   UNL A   1      33.808  30.723  27.150  1.00  0.00     0.202 C 
BRANCH   2   3
ATOM      3  C   UNL A   1      34.349  29.322  27.462  1.00  0.00     0.261 C 
BRANCH   3   4
ATOM      4  O   UNL A   1      34.162  28.343  26.415  1.00  0.00    -0.463 OA
BRANCH   4   5
ATOM      5  C   UNL A   1      32.878  28.095  26.065  1.00  0.00     0.311 C 
ATOM      6  O   UNL A   1      31.978  27.866  26.868  1.00  0.00    -0.252 OA
BRANCH   5   7
ATOM      7  C   UNL A   1      32.620  28.001  24.571  1.00  0.00     0.134 C 
ATOM      8  C   UNL A   1      29.169  26.949  23.527  1.00  0.00     0.147 C 
ATOM      9  N   UNL A   1      30.422  27.606  23.854  1.00  0.00    -0.339 N 
ATOM     10  C   UNL A   1      30.529  28.983  23.960  1.00  0.00     0.223 C 
ATOM     11  C   UNL A   1      31.717  26.913  23.936  1.00  0.00     0.060 C 
ATOM     12  O   UNL A   1      29.625  29.796  23.865  1.00  0.00    -0.275 OA
ATOM     13  C   UNL A   1      31.979  29.331  24.154  1.00  0.00     0.118 C 
ATOM     14  C   UNL A   1      31.622  25.579  24.694  1.00  0.00     0.051 C 
ATOM     15  C   UNL A   1      32.214  26.604  22.484  1.00  0.00     0.051 C 
ATOM     16  C   UNL A   1      32.923  24.790  24.643  1.00  0.00     0.122 C 
ATOM     17  C   UNL A   1      33.460  25.713  22.430  1.00  0.00     0.122 C 
ATOM     18  N   UNL A   1      33.306  24.526  23.261  1.00  0.00    -0.338 N 
ATOM     19  C   UNL A   1      33.668  23.281  22.742  1.00  0.00     0.256 C 
ATOM     20  O   UNL A   1      34.123  23.119  21.613  1.00  0.00    -0.269 OA
BRANCH  19  21
ATOM     21  C   UNL A   1      33.528  22.074  23.590  1.00  0.00     0.065 A 
ATOM     22  C   UNL A   1      32.395  21.283  23.340  1.00  0.00     0.016 A 
ATOM     23  C   UNL A   1      34.494  21.643  24.514  1.00  0.00     0.077 A 
ATOM     24  C   UNL A   1      32.249  20.044  23.965  1.00  0.00     0.001 A 
ATOM     25  C   UNL A   1      34.363  20.367  25.093  1.00  0.00     0.029 A 
ATOM     26  C   UNL A   1      33.242  19.579  24.823  1.00  0.00     0.002 A 
BRANCH  23  27
ATOM     27  N   UNL A   1      35.605  22.440  24.890  1.00  0.00    -0.240 N 
ATOM     28  C   UNL A   1      35.793  23.167  26.046  1.00  0.00     0.115 A 
ATOM     29  N   UNL A   1      36.681  22.556  24.062  1.00  0.00    -0.177 NA
ATOM     30  C   UNL A   1      37.001  23.813  25.932  1.00  0.00     0.042 A 
ATOM     31  C   UNL A   1      37.500  23.402  24.689  1.00  0.00     0.135 A 
ENDBRANCH  23  27
ENDBRANCH  19  21
ENDBRANCH   5   7
ENDBRANCH   4   5
ENDBRANCH   3   4
ENDBRANCH   2   3
ENDBRANCH   1   2
BRANCH   1  32
ATOM     32  C   UNL A   1      33.913  32.793  28.432  1.00  0.00     0.202 C 
BRANCH  32  33
ATOM     33  C   UNL A   1      34.623  33.138  29.742  1.00  0.00     0.261 C 
BRANCH  33  34
ATOM     34  O   UNL A   1      35.952  32.588  29.744  1.00  0.00    -0.460 OA
BRANCH  34  35
ATOM     35  C   UNL A   1      36.131  31.616  30.665  1.00  0.00     0.338 C 
ATOM     36  O   UNL A   1      35.397  31.346  31.603  1.00  0.00    -0.246 OA
BRANCH  35  37
ATOM     37  C   UNL A   1      37.245  30.752  30.243  1.00  0.00     0.060 A 
ATOM     38  C   UNL A   1      38.012  30.144  31.244  1.00  0.00     0.016 A 
ATOM     39  C   UNL A   1      37.611  30.648  28.902  1.00  0.00     0.016 A 
ATOM     40  C   UNL A   1      39.193  29.484  30.908  1.00  0.00     0.010 A 
ATOM     41  C   UNL A   1      38.794  29.976  28.566  1.00  0.00     0.010 A 
ATOM     42  C   UNL A   1      39.617  29.435  29.572  1.00  0.00    -0.014 A 
BRANCH  42  43
ATOM     43  C   UNL A   1      40.995  28.967  29.264  1.00  0.00     0.031 A 
ATOM     44  C   UNL A   1      41.205  27.541  28.825  1.00  0.00     0.074 A 
ATOM     45  C   UNL A   1      42.043  29.810  29.308  1.00  0.00     0.049 A 
ATOM     46  N   UNL A   1      42.308  26.944  28.446  1.00  0.00    -0.248 NA
ATOM     47  C   UNL A   1      40.016  26.676  28.811  1.00  0.00     0.031 C 
ATOM     48  C   UNL A   1      41.979  31.221  29.681  1.00  0.00     0.029 A 
ATOM     49  N   UNL A   1      43.369  29.595  29.022  1.00  0.00    -0.354 N 
ATOM     50  C   UNL A   1      41.943  25.636  28.145  1.00  0.00     0.074 A 
ATOM     51  C   UNL A   1      40.528  25.517  28.422  1.00  0.00     0.031 C 
ATOM     52  C   UNL A   1      43.211  31.752  29.590  1.00  0.00     0.029 A 
ATOM     53  C   UNL A   1      44.153  30.714  29.173  1.00  0.00     0.049 A 
ATOM     54  H   UNL A   1      43.724  28.723  28.736  1.00  0.00     0.167 HD
ATOM     55  C   UNL A   1      42.710  24.625  27.670  1.00  0.00     0.031 A 
ATOM     56  C   UNL A   1      45.477  30.882  28.996  1.00  0.00     0.031 A 
ATOM     57  C   UNL A   1      44.119  24.726  27.404  1.00  0.00     0.049 A 
ATOM     58  C   UNL A   1      46.323  29.726  28.534  1.00  0.00     0.074 A 
ATOM     59  C   UNL A   1      44.976  23.758  26.908  1.00  0.00     0.029 A 
ATOM     60  N   UNL A   1      44.882  25.861  27.623  1.00  0.00    -0.354 N 
ATOM     61  N   UNL A   1      45.956  28.508  28.219  1.00  0.00    -0.248 NA
ATOM     62  C   UNL A   1      47.766  29.975  28.395  1.00  0.00     0.031 C 
ATOM     63  C   UNL A   1      46.268  24.295  26.871  1.00  0.00     0.029 A 
ATOM     64  C   UNL A   1      46.205  25.611  27.298  1.00  0.00     0.049 A 
ATOM     65  H   UNL A   1      44.536  26.719  27.960  1.00  0.00     0.167 HD
ATOM     66  C   UNL A   1      47.116  27.852  27.823  1.00  0.00     0.074 A 
ATOM     67  C   UNL A   1      48.197  28.812  27.925  1.00  0.00     0.031 C 
ATOM     68  C   UNL A   1      47.271  26.571  27.409  1.00  0.00     0.031 A 
BRANCH  55  69
ATOM     69  C   UNL A   1      42.031  23.306  27.432  1.00  0.00    -0.014 A 
ATOM     70  C   UNL A   1      42.045  22.295  28.406  1.00  0.00     0.009 A 
ATOM     71  C   UNL A   1      41.356  23.077  26.223  1.00  0.00     0.009 A 
ATOM     72  C   UNL A   1      41.428  21.067  28.159  1.00  0.00     0.001 A 
ATOM     73  C   UNL A   1      40.720  21.857  25.989  1.00  0.00     0.001 A 
ATOM     74  C   UNL A   1      40.765  20.849  26.952  1.00  0.00     0.000 A 
ENDBRANCH  55  69
BRANCH  56  75
ATOM     75  C   UNL A   1      46.096  32.208  29.253  1.00  0.00    -0.014 A 
ATOM     76  C   UNL A   1      46.165  33.174  28.238  1.00  0.00     0.009 A 
ATOM     77  C   UNL A   1      46.630  32.510  30.515  1.00  0.00     0.009 A 
ATOM     78  C   UNL A   1      46.772  34.410  28.478  1.00  0.00     0.001 A 
ATOM     79  C   UNL A   1      47.215  33.755  30.759  1.00  0.00     0.001 A 
ATOM     80  C   UNL A   1      47.292  34.700  29.738  1.00  0.00     0.000 A 
ENDBRANCH  56  75
BRANCH  68  81
ATOM     81  C   UNL A   1      48.654  26.137  27.010  1.00  0.00    -0.014 A 
ATOM     82  C   UNL A   1      49.145  26.374  25.717  1.00  0.00     0.009 A 
ATOM     83  C   UNL A   1      49.489  25.523  27.956  1.00  0.00     0.009 A 
ATOM     84  C   UNL A   1      50.439  25.978  25.371  1.00  0.00     0.001 A 
ATOM     85  C   UNL A   1      50.790  25.149  27.612  1.00  0.00     0.001 A 
ATOM     86  C   UNL A   1      51.261  25.369  26.319  1.00  0.00     0.000 A 
ENDBRANCH  68  81
ENDBRANCH  42  43
ENDBRANCH  35  37
ENDBRANCH  34  35
ENDBRANCH  33  34
ENDBRANCH  32  33
ENDBRANCH   1  32
TORSDOF 16
ENDMDL
MODEL 3
REMARK VINA RESULT:     -11.3      4.060      5.898
REMARK SMILES CN1C(=O)C[C@@H](C(=O)OCCOCCOC(=O)c2ccc(-c3c4nc(c(-c5ccccc5)c5ccc([nH]5)c(-c5ccccc5)c5nc(c(-c6ccccc6)c6ccc3[nH]6)C=C5)C=C4)cc2)C12CCN(C(=O)c1ccccc1-n1cccn1)CC2
REMARK SMILES IDX 12 1 11 2 10 3 9 4 7 5 8 6 6 7 1 8 2 9 3 10 66 11 4 12 5 13
REMARK SMILES IDX 67 14 84 15 68 16 83 17 69 18 70 19 71 20 72 21 73 22 77 23
REMARK SMILES IDX 74 24 76 25 75 26 78 27 79 28 82 29 80 30 81 31 13 32 14 33
REMARK SMILES IDX 15 34 16 35 17 36 18 37 19 38 65 39 20 40 64 41 21 42 22 43
REMARK SMILES IDX 23 44 58 45 24 46 63 47 57 48 59 49 25 50 62 51 56 52 55 53
REMARK SMILES IDX 26 55 48 56 33 57 47 58 34 59 37 60 46 61 60 62 35 63 36 64
REMARK SMILES IDX 45 66 61 67 38 68 27 69 28 70 32 71 29 72 31 73 30 74 49 75
REMARK SMILES IDX 50 76 54 77 51 78 53 79 52 80 39 81 40 82 44 83 41 84 43 85
REMARK SMILES IDX 42 86
REMARK H PARENT 59 54 37 65
REMARK Flexibility Score: inf
ROOT
ATOM      1  O   UNL A   1      34.815  31.792  27.595  1.00  0.00    -0.374 OA
ENDROOT
BRANCH   1   2
ATOM      2  C   UNL A   1      34.021  30.699  27.137  1.00  0.00     0.202 C 
BRANCH   2   3
ATOM      3  C   UNL A   1      34.311  29.328  27.763  1.00  0.00     0.261 C 
BRANCH   3   4
ATOM      4  O   UNL A   1      33.929  28.192  26.957  1.00  0.00    -0.463 OA
BRANCH   4   5
ATOM      5  C   UNL A   1      32.684  28.239  26.425  1.00  0.00     0.311 C 
ATOM      6  O   UNL A   1      31.652  28.254  27.091  1.00  0.00    -0.252 OA
BRANCH   5   7
ATOM      7  C   UNL A   1      32.623  28.158  24.911  1.00  0.00     0.134 C 
ATOM      8  C   UNL A   1      29.342  27.101  23.419  1.00  0.00     0.147 C 
ATOM      9  N   UNL A   1      30.539  27.760  23.911  1.00  0.00    -0.339 N 
ATOM     10  C   UNL A   1      30.623  29.137  24.043  1.00  0.00     0.223 C 
ATOM     11  C   UNL A   1      31.816  27.073  24.153  1.00  0.00     0.060 C 
ATOM     12  O   UNL A   1      29.734  29.946  23.838  1.00  0.00    -0.275 OA
ATOM     13  C   UNL A   1      32.033  29.489  24.426  1.00  0.00     0.118 C 
ATOM     14  C   UNL A   1      31.631  25.731  24.881  1.00  0.00     0.051 C 
ATOM     15  C   UNL A   1      32.499  26.779  22.776  1.00  0.00     0.051 C 
ATOM     16  C   UNL A   1      32.932  24.948  24.992  1.00  0.00     0.122 C 
ATOM     17  C   UNL A   1      33.746  25.895  22.876  1.00  0.00     0.122 C 
ATOM     18  N   UNL A   1      33.492  24.699  23.669  1.00  0.00    -0.338 N 
ATOM     19  C   UNL A   1      33.926  23.461  23.190  1.00  0.00     0.256 C 
ATOM     20  O   UNL A   1      34.524  23.312  22.128  1.00  0.00    -0.269 OA
BRANCH  19  21
ATOM     21  C   UNL A   1      33.685  22.246  24.002  1.00  0.00     0.065 A 
ATOM     22  C   UNL A   1      32.460  21.596  23.775  1.00  0.00     0.016 A 
ATOM     23  C   UNL A   1      34.631  21.674  24.868  1.00  0.00     0.077 A 
ATOM     24  C   UNL A   1      32.200  20.358  24.363  1.00  0.00     0.001 A 
ATOM     25  C   UNL A   1      34.381  20.399  25.408  1.00  0.00     0.029 A 
ATOM     26  C   UNL A   1      33.168  19.752  25.161  1.00  0.00     0.002 A 
BRANCH  23  27
ATOM     27  N   UNL A   1      35.840  22.327  25.222  1.00  0.00    -0.240 N 
ATOM     28  C   UNL A   1      36.011  23.511  25.906  1.00  0.00     0.115 A 
ATOM     29  N   UNL A   1      37.042  21.780  24.887  1.00  0.00    -0.177 NA
ATOM     30  C   UNL A   1      37.362  23.759  25.964  1.00  0.00     0.042 A 
ATOM     31  C   UNL A   1      37.945  22.662  25.317  1.00  0.00     0.135 A 
ENDBRANCH  23  27
ENDBRANCH  19  21
ENDBRANCH   5   7
ENDBRANCH   4   5
ENDBRANCH   3   4
ENDBRANCH   2   3
ENDBRANCH   1   2
BRANCH   1  32
ATOM     32  C   UNL A   1      34.144  32.842  28.291  1.00  0.00     0.202 C 
BRANCH  32  33
ATOM     33  C   UNL A   1      34.636  33.089  29.719  1.00  0.00     0.261 C 
BRANCH  33  34
ATOM     34  O   UNL A   1      35.086  31.856  30.306  1.00  0.00    -0.460 OA
BRANCH  34  35
ATOM     35  C   UNL A   1      36.200  31.994  31.059  1.00  0.00     0.338 C 
ATOM     36  O   UNL A   1      36.309  32.614  32.106  1.00  0.00    -0.246 OA
BRANCH  35  37
ATOM     37  C   UNL A   1      37.239  31.082  30.554  1.00  0.00     0.060 A 
ATOM     38  C   UNL A   1      38.080  30.471  31.492  1.00  0.00     0.016 A 
ATOM     39  C   UNL A   1      37.468  30.934  29.187  1.00  0.00     0.016 A 
ATOM     40  C   UNL A   1      39.200  29.763  31.060  1.00  0.00     0.010 A 
ATOM     41  C   UNL A   1      38.590  30.214  28.756  1.00  0.00     0.010 A 
ATOM     42  C   UNL A   1      39.490  29.667  29.691  1.00  0.00    -0.014 A 
BRANCH  42  43
ATOM     43  C   UNL A   1      40.814  29.145  29.263  1.00  0.00     0.031 A 
ATOM     44  C   UNL A   1      42.019  30.048  29.337  1.00  0.00     0.074 A 
ATOM     45  C   UNL A   1      40.967  27.865  28.875  1.00  0.00     0.049 A 
ATOM     46  N   UNL A   1      43.274  29.780  29.078  1.00  0.00    -0.248 NA
ATOM     47  C   UNL A   1      41.774  31.436  29.760  1.00  0.00     0.031 C 
ATOM     48  C   UNL A   1      39.897  26.874  28.791  1.00  0.00     0.029 A 
ATOM     49  N   UNL A   1      42.094  27.182  28.490  1.00  0.00    -0.354 N 
ATOM     50  C   UNL A   1      43.967  30.963  29.309  1.00  0.00     0.074 A 
ATOM     51  C   UNL A   1      42.990  31.958  29.693  1.00  0.00     0.031 C 
ATOM     52  C   UNL A   1      40.421  25.702  28.390  1.00  0.00     0.029 A 
ATOM     53  C   UNL A   1      41.858  25.866  28.170  1.00  0.00     0.049 A 
ATOM     54  H   UNL A   1      42.987  27.594  28.447  1.00  0.00     0.167 HD
ATOM     55  C   UNL A   1      45.298  31.201  29.224  1.00  0.00     0.031 A 
ATOM     56  C   UNL A   1      42.700  24.905  27.748  1.00  0.00     0.031 A 
ATOM     57  C   UNL A   1      46.279  30.226  28.831  1.00  0.00     0.049 A 
ATOM     58  C   UNL A   1      44.166  25.211  27.594  1.00  0.00     0.074 A 
ATOM     59  C   UNL A   1      47.651  30.372  28.730  1.00  0.00     0.029 A 
ATOM     60  N   UNL A   1      45.987  28.922  28.463  1.00  0.00    -0.354 N 
ATOM     61  N   UNL A   1      44.810  26.323  27.852  1.00  0.00    -0.248 NA
ATOM     62  C   UNL A   1      45.022  24.123  27.096  1.00  0.00     0.031 C 
ATOM     63  C   UNL A   1      48.186  29.170  28.256  1.00  0.00     0.029 A 
ATOM     64  C   UNL A   1      47.152  28.261  28.109  1.00  0.00     0.049 A 
ATOM     65  H   UNL A   1      45.087  28.524  28.455  1.00  0.00     0.167 HD
ATOM     66  C   UNL A   1      46.146  26.063  27.572  1.00  0.00     0.074 A 
ATOM     67  C   UNL A   1      46.223  24.683  27.137  1.00  0.00     0.031 C 
ATOM     68  C   UNL A   1      47.215  26.891  27.671  1.00  0.00     0.031 A 
BRANCH  55  69
ATOM     69  C   UNL A   1      45.765  32.593  29.542  1.00  0.00    -0.014 A 
ATOM     70  C   UNL A   1      45.842  33.580  28.546  1.00  0.00     0.009 A 
ATOM     71  C   UNL A   1      46.118  32.927  30.859  1.00  0.00     0.009 A 
ATOM     72  C   UNL A   1      46.300  34.862  28.855  1.00  0.00     0.001 A 
ATOM     73  C   UNL A   1      46.552  34.217  31.169  1.00  0.00     0.001 A 
ATOM     74  C   UNL A   1      46.652  35.180  30.167  1.00  0.00     0.000 A 
ENDBRANCH  55  69
BRANCH  56  75
ATOM     75  C   UNL A   1      42.182  23.547  27.442  1.00  0.00    -0.014 A 
ATOM     76  C   UNL A   1      42.003  23.131  26.114  1.00  0.00     0.009 A 
ATOM     77  C   UNL A   1      41.854  22.662  28.481  1.00  0.00     0.009 A 
ATOM     78  C   UNL A   1      41.490  21.862  25.834  1.00  0.00     0.001 A 
ATOM     79  C   UNL A   1      41.364  21.385  28.197  1.00  0.00     0.001 A 
ATOM     80  C   UNL A   1      41.176  20.990  26.875  1.00  0.00     0.000 A 
ENDBRANCH  56  75
BRANCH  68  81
ATOM     81  C   UNL A   1      48.562  26.323  27.326  1.00  0.00    -0.014 A 
ATOM     82  C   UNL A   1      49.091  26.442  26.032  1.00  0.00     0.009 A 
ATOM     83  C   UNL A   1      49.330  25.700  28.322  1.00  0.00     0.009 A 
ATOM     84  C   UNL A   1      50.353  25.922  25.735  1.00  0.00     0.001 A 
ATOM     85  C   UNL A   1      50.601  25.202  28.028  1.00  0.00     0.001 A 
ATOM     86  C   UNL A   1      51.108  25.306  26.734  1.00  0.00     0.000 A 
ENDBRANCH  68  81
ENDBRANCH  42  43
ENDBRANCH  35  37
ENDBRANCH  34  35
ENDBRANCH  33  34
ENDBRANCH  32  33
ENDBRANCH   1  32
TORSDOF 16
ENDMDL
