MODEL 1
REMARK VINA RESULT:     -12.0      0.000      0.000
REMARK SMILES O=C(OCCOCCOC(=O)c1ccc(N2C(=O)C[C@H]([NH+]3CCN(c4ccc(F)cc4)CC3)C2=O)cc1)c1ccc(-c2c3nc(c(-c4ccccc4)c4ccc([nH]4)c(-c4ccccc4)c4nc(c(-c5ccccc5)c5ccc2[nH]5)C=C4)C=C3)cc1
REMARK SMILES IDX 7 1 6 2 5 3 4 4 3 5 2 6 1 7 38 8 39 9 85 10 40 11 84 12
REMARK SMILES IDX 41 13 42 14 43 15 78 16 44 17 83 18 77 19 79 20 45 21 82 22
REMARK SMILES IDX 76 23 75 24 46 26 68 27 53 28 67 29 54 30 57 31 66 32 80 33
REMARK SMILES IDX 55 34 56 35 65 37 81 38 58 39 47 40 48 41 52 42 49 43 51 44
REMARK SMILES IDX 50 45 69 46 70 47 74 48 71 49 73 50 72 51 59 52 60 53 64 54
REMARK SMILES IDX 61 55 63 56 62 57 8 58 9 59 10 60 11 61 12 62 13 63 37 64
REMARK SMILES IDX 14 65 36 66 15 67 16 68 17 69 34 70 18 71 19 72 20 73 35 74
REMARK SMILES IDX 21 75 22 76 33 77 23 79 32 80 24 81 25 82 26 83 31 84 27 85
REMARK SMILES IDX 30 86 28 87 29 88
REMARK H PARENT 79 25 57 36 21 78
REMARK Flexibility Score: inf
ROOT
ATOM      1  C   UNL A   1      43.900  18.753  24.969  1.00  0.00     0.202 C 
ENDROOT
BRANCH   1   2
ATOM      2  O   UNL A   1      45.068  19.493  25.346  1.00  0.00    -0.374 OA
BRANCH   2   3
ATOM      3  C   UNL A   1      44.908  20.910  25.431  1.00  0.00     0.202 C 
BRANCH   3   4
ATOM      4  C   UNL A   1      44.158  21.526  24.248  1.00  0.00     0.261 C 
BRANCH   4   5
ATOM      5  O   UNL A   1      43.353  22.632  24.688  1.00  0.00    -0.460 OA
BRANCH   5   6
ATOM      6  C   UNL A   1      43.749  23.893  24.976  1.00  0.00     0.338 C 
ATOM      7  O   UNL A   1      44.594  24.424  24.257  1.00  0.00    -0.246 OA
BRANCH   6   8
ATOM      8  C   UNL A   1      43.210  24.691  26.118  1.00  0.00     0.060 A 
ATOM      9  C   UNL A   1      42.415  24.181  27.146  1.00  0.00     0.016 A 
ATOM     10  C   UNL A   1      43.621  26.032  26.209  1.00  0.00     0.016 A 
ATOM     11  C   UNL A   1      41.987  24.974  28.197  1.00  0.00     0.010 A 
ATOM     12  C   UNL A   1      43.232  26.831  27.288  1.00  0.00     0.010 A 
ATOM     13  C   UNL A   1      42.399  26.300  28.278  1.00  0.00    -0.014 A 
BRANCH  13  14
ATOM     14  C   UNL A   1      41.857  27.118  29.374  1.00  0.00     0.031 A 
ATOM     15  C   UNL A   1      42.653  27.235  30.634  1.00  0.00     0.074 A 
ATOM     16  C   UNL A   1      40.749  27.848  29.164  1.00  0.00     0.049 A 
ATOM     17  N   UNL A   1      42.379  27.897  31.724  1.00  0.00    -0.248 NA
ATOM     18  C   UNL A   1      43.942  26.523  30.661  1.00  0.00     0.031 C 
ATOM     19  C   UNL A   1      39.993  27.894  27.908  1.00  0.00     0.029 A 
ATOM     20  N   UNL A   1      40.089  28.724  29.982  1.00  0.00    -0.354 N 
ATOM     21  C   UNL A   1      43.447  27.658  32.579  1.00  0.00     0.074 A 
ATOM     22  C   UNL A   1      44.370  26.790  31.885  1.00  0.00     0.031 C 
ATOM     23  C   UNL A   1      38.994  28.781  28.031  1.00  0.00     0.029 A 
ATOM     24  C   UNL A   1      38.997  29.309  29.390  1.00  0.00     0.049 A 
ATOM     25  H   UNL A   1      40.371  28.916  30.906  1.00  0.00     0.167 HD
ATOM     26  C   UNL A   1      43.624  28.115  33.840  1.00  0.00     0.031 A 
ATOM     27  C   UNL A   1      38.090  30.155  29.909  1.00  0.00     0.031 A 
ATOM     28  C   UNL A   1      42.673  28.957  34.511  1.00  0.00     0.049 A 
ATOM     29  C   UNL A   1      38.249  30.558  31.348  1.00  0.00     0.074 A 
ATOM     30  C   UNL A   1      42.693  29.429  35.809  1.00  0.00     0.029 A 
ATOM     31  N   UNL A   1      41.517  29.452  33.918  1.00  0.00    -0.354 N 
ATOM     32  N   UNL A   1      39.221  30.270  32.182  1.00  0.00    -0.248 NA
ATOM     33  C   UNL A   1      37.183  31.386  31.924  1.00  0.00     0.031 C 
ATOM     34  C   UNL A   1      41.523  30.168  36.017  1.00  0.00     0.029 A 
ATOM     35  C   UNL A   1      40.803  30.205  34.831  1.00  0.00     0.049 A 
ATOM     36  H   UNL A   1      41.246  29.290  32.986  1.00  0.00     0.167 HD
ATOM     37  C   UNL A   1      38.891  30.888  33.379  1.00  0.00     0.074 A 
ATOM     38  C   UNL A   1      37.640  31.586  33.153  1.00  0.00     0.031 C 
ATOM     39  C   UNL A   1      39.556  30.878  34.562  1.00  0.00     0.031 A 
BRANCH  26  40
ATOM     40  C   UNL A   1      44.838  27.618  34.571  1.00  0.00    -0.014 A 
ATOM     41  C   UNL A   1      46.062  28.305  34.527  1.00  0.00     0.009 A 
ATOM     42  C   UNL A   1      44.770  26.398  35.263  1.00  0.00     0.009 A 
ATOM     43  C   UNL A   1      47.203  27.753  35.115  1.00  0.00     0.001 A 
ATOM     44  C   UNL A   1      45.905  25.863  35.872  1.00  0.00     0.001 A 
ATOM     45  C   UNL A   1      47.125  26.533  35.785  1.00  0.00     0.000 A 
ENDBRANCH  26  40
BRANCH  27  46
ATOM     46  C   UNL A   1      36.939  30.619  29.088  1.00  0.00    -0.014 A 
ATOM     47  C   UNL A   1      35.976  29.714  28.619  1.00  0.00     0.009 A 
ATOM     48  C   UNL A   1      36.793  31.981  28.774  1.00  0.00     0.009 A 
ATOM     49  C   UNL A   1      34.902  30.162  27.842  1.00  0.00     0.001 A 
ATOM     50  C   UNL A   1      35.705  32.429  28.024  1.00  0.00     0.001 A 
ATOM     51  C   UNL A   1      34.764  31.518  27.550  1.00  0.00     0.000 A 
ENDBRANCH  27  46
BRANCH  39  52
ATOM     52  C   UNL A   1      38.947  31.670  35.681  1.00  0.00    -0.014 A 
ATOM     53  C   UNL A   1      38.150  31.052  36.656  1.00  0.00     0.009 A 
ATOM     54  C   UNL A   1      39.219  33.043  35.783  1.00  0.00     0.009 A 
ATOM     55  C   UNL A   1      37.611  31.806  37.700  1.00  0.00     0.001 A 
ATOM     56  C   UNL A   1      38.703  33.786  36.844  1.00  0.00     0.001 A 
ATOM     57  C   UNL A   1      37.893  33.169  37.796  1.00  0.00     0.000 A 
ENDBRANCH  39  52
ENDBRANCH  13  14
ENDBRANCH   6   8
ENDBRANCH   5   6
ENDBRANCH   4   5
ENDBRANCH   3   4
ENDBRANCH   2   3
ENDBRANCH   1   2
BRANCH   1  58
ATOM     58  C   UNL A   1      42.936  18.688  26.156  1.00  0.00     0.261 C 
BRANCH  58  59
ATOM     59  O   UNL A   1      41.690  19.282  25.758  1.00  0.00    -0.460 OA
BRANCH  59  60
ATOM     60  C   UNL A   1      41.188  20.177  26.647  1.00  0.00     0.338 C 
ATOM     61  O   UNL A   1      41.750  20.675  27.607  1.00  0.00    -0.246 OA
BRANCH  60  62
ATOM     62  C   UNL A   1      39.883  20.628  26.133  1.00  0.00     0.060 A 
ATOM     63  C   UNL A   1      39.507  21.964  26.330  1.00  0.00     0.018 A 
ATOM     64  C   UNL A   1      39.054  19.760  25.427  1.00  0.00     0.018 A 
ATOM     65  C   UNL A   1      38.304  22.440  25.804  1.00  0.00     0.028 A 
ATOM     66  C   UNL A   1      37.820  20.217  24.975  1.00  0.00     0.028 A 
ATOM     67  C   UNL A   1      37.431  21.553  25.170  1.00  0.00     0.052 A 
BRANCH  67  68
ATOM     68  N   UNL A   1      36.148  21.961  24.762  1.00  0.00    -0.245 N 
ATOM     69  C   UNL A   1      35.925  22.646  23.593  1.00  0.00     0.240 C 
ATOM     70  C   UNL A   1      34.985  21.767  25.479  1.00  0.00     0.292 C 
ATOM     71  O   UNL A   1      36.739  22.994  22.747  1.00  0.00    -0.274 OA
ATOM     72  C   UNL A   1      34.454  22.848  23.441  1.00  0.00     0.176 C 
ATOM     73  C   UNL A   1      33.932  22.694  24.859  1.00  0.00     0.284 C 
ATOM     74  O   UNL A   1      34.822  21.083  26.480  1.00  0.00    -0.267 OA
BRANCH  73  75
ATOM     75  N   UNL A   1      33.738  23.913  25.677  1.00  0.00    -0.321 N 
ATOM     76  C   UNL A   1      34.318  25.182  25.190  1.00  0.00     0.284 C 
ATOM     77  C   UNL A   1      32.353  24.145  26.144  1.00  0.00     0.284 C 
ATOM     78  H   UNL A   1      34.320  23.644  26.471  1.00  0.00     0.348 HD
ATOM     79  C   UNL A   1      33.474  25.954  24.154  1.00  0.00     0.178 C 
ATOM     80  C   UNL A   1      31.424  25.022  25.259  1.00  0.00     0.178 C 
ATOM     81  N   UNL A   1      32.125  26.165  24.673  1.00  0.00    -0.360 N 
BRANCH  81  82
ATOM     82  C   UNL A   1      31.717  27.470  24.860  1.00  0.00     0.037 A 
ATOM     83  C   UNL A   1      30.976  28.125  23.860  1.00  0.00     0.029 A 
ATOM     84  C   UNL A   1      32.086  28.201  25.994  1.00  0.00     0.029 A 
ATOM     85  C   UNL A   1      30.628  29.471  23.982  1.00  0.00     0.041 A 
ATOM     86  C   UNL A   1      31.754  29.553  26.116  1.00  0.00     0.041 A 
ATOM     87  C   UNL A   1      31.031  30.176  25.106  1.00  0.00     0.123 A 
ATOM     88  F   UNL A   1      30.725  31.475  25.215  1.00  0.00    -0.207 F 
ENDBRANCH  81  82
ENDBRANCH  73  75
ENDBRANCH  67  68
ENDBRANCH  60  62
ENDBRANCH  59  60
ENDBRANCH  58  59
ENDBRANCH   1  58
TORSDOF 17
ENDMDL
MODEL 2
REMARK VINA RESULT:     -11.5      4.132      6.320
REMARK SMILES O=C(OCCOCCOC(=O)c1ccc(N2C(=O)C[C@H]([NH+]3CCN(c4ccc(F)cc4)CC3)C2=O)cc1)c1ccc(-c2c3nc(c(-c4ccccc4)c4ccc([nH]4)c(-c4ccccc4)c4nc(c(-c5ccccc5)c5ccc2[nH]5)C=C4)C=C3)cc1
REMARK SMILES IDX 7 1 6 2 5 3 4 4 3 5 2 6 1 7 38 8 39 9 85 10 40 11 84 12
REMARK SMILES IDX 41 13 42 14 43 15 78 16 44 17 83 18 77 19 79 20 45 21 82 22
REMARK SMILES IDX 76 23 75 24 46 26 68 27 53 28 67 29 54 30 57 31 66 32 80 33
REMARK SMILES IDX 55 34 56 35 65 37 81 38 58 39 47 40 48 41 52 42 49 43 51 44
REMARK SMILES IDX 50 45 69 46 70 47 74 48 71 49 73 50 72 51 59 52 60 53 64 54
REMARK SMILES IDX 61 55 63 56 62 57 8 58 9 59 10 60 11 61 12 62 13 63 37 64
REMARK SMILES IDX 14 65 36 66 15 67 16 68 17 69 34 70 18 71 19 72 20 73 35 74
REMARK SMILES IDX 21 75 22 76 33 77 23 79 32 80 24 81 25 82 26 83 31 84 27 85
REMARK SMILES IDX 30 86 28 87 29 88
REMARK H PARENT 79 25 57 36 21 78
REMARK Flexibility Score: inf
ROOT
ATOM      1  C   UNL A   1      41.695  20.696  27.509  1.00  0.00     0.202 C 
ENDROOT
BRANCH   1   2
ATOM      2  O   UNL A   1      42.210  19.378  27.282  1.00  0.00    -0.374 OA
BRANCH   2   3
ATOM      3  C   UNL A   1      42.497  19.046  25.923  1.00  0.00     0.202 C 
BRANCH   3   4
ATOM      4  C   UNL A   1      43.670  18.078  25.751  1.00  0.00     0.261 C 
BRANCH   4   5
ATOM      5  O   UNL A   1      44.754  18.724  25.063  1.00  0.00    -0.460 OA
BRANCH   5   6
ATOM      6  C   UNL A   1      44.703  19.796  24.240  1.00  0.00     0.338 C 
ATOM      7  O   UNL A   1      44.528  19.608  23.037  1.00  0.00    -0.246 OA
BRANCH   6   8
ATOM      8  C   UNL A   1      44.834  21.209  24.709  1.00  0.00     0.060 A 
ATOM      9  C   UNL A   1      44.503  22.336  23.955  1.00  0.00     0.016 A 
ATOM     10  C   UNL A   1      45.227  21.403  26.045  1.00  0.00     0.016 A 
ATOM     11  C   UNL A   1      44.611  23.615  24.473  1.00  0.00     0.010 A 
ATOM     12  C   UNL A   1      45.297  22.687  26.592  1.00  0.00     0.010 A 
ATOM     13  C   UNL A   1      45.001  23.798  25.796  1.00  0.00    -0.014 A 
BRANCH  13  14
ATOM     14  C   UNL A   1      45.170  25.178  26.273  1.00  0.00     0.031 A 
ATOM     15  C   UNL A   1      46.509  25.824  26.121  1.00  0.00     0.074 A 
ATOM     16  C   UNL A   1      44.094  25.865  26.694  1.00  0.00     0.049 A 
ATOM     17  N   UNL A   1      46.890  27.024  26.464  1.00  0.00    -0.248 NA
ATOM     18  C   UNL A   1      47.556  25.014  25.476  1.00  0.00     0.031 C 
ATOM     19  C   UNL A   1      42.724  25.344  26.740  1.00  0.00     0.029 A 
ATOM     20  N   UNL A   1      43.973  27.159  27.121  1.00  0.00    -0.354 N 
ATOM     21  C   UNL A   1      48.229  27.103  26.105  1.00  0.00     0.074 A 
ATOM     22  C   UNL A   1      48.595  25.833  25.520  1.00  0.00     0.031 C 
ATOM     23  C   UNL A   1      41.897  26.322  27.138  1.00  0.00     0.029 A 
ATOM     24  C   UNL A   1      42.685  27.511  27.442  1.00  0.00     0.049 A 
ATOM     25  H   UNL A   1      44.735  27.777  27.192  1.00  0.00     0.167 HD
ATOM     26  C   UNL A   1      49.076  28.145  26.267  1.00  0.00     0.031 A 
ATOM     27  C   UNL A   1      42.211  28.662  27.952  1.00  0.00     0.031 A 
ATOM     28  C   UNL A   1      48.686  29.387  26.876  1.00  0.00     0.049 A 
ATOM     29  C   UNL A   1      43.194  29.764  28.227  1.00  0.00     0.074 A 
ATOM     30  C   UNL A   1      49.460  30.493  27.168  1.00  0.00     0.029 A 
ATOM     31  N   UNL A   1      47.391  29.678  27.288  1.00  0.00    -0.354 N 
ATOM     32  N   UNL A   1      44.478  29.810  27.958  1.00  0.00    -0.248 NA
ATOM     33  C   UNL A   1      42.671  30.963  28.892  1.00  0.00     0.031 C 
ATOM     34  C   UNL A   1      48.644  31.434  27.805  1.00  0.00     0.029 A 
ATOM     35  C   UNL A   1      47.349  30.938  27.856  1.00  0.00     0.049 A 
ATOM     36  H   UNL A   1      46.619  29.076  27.192  1.00  0.00     0.167 HD
ATOM     37  C   UNL A   1      44.917  31.045  28.409  1.00  0.00     0.074 A 
ATOM     38  C   UNL A   1      43.755  31.726  28.949  1.00  0.00     0.031 C 
ATOM     39  C   UNL A   1      46.167  31.573  28.386  1.00  0.00     0.031 A 
BRANCH  26  40
ATOM     40  C   UNL A   1      50.506  27.918  25.868  1.00  0.00    -0.014 A 
ATOM     41  C   UNL A   1      51.475  27.497  26.794  1.00  0.00     0.009 A 
ATOM     42  C   UNL A   1      50.904  28.199  24.552  1.00  0.00     0.009 A 
ATOM     43  C   UNL A   1      52.819  27.415  26.422  1.00  0.00     0.001 A 
ATOM     44  C   UNL A   1      52.243  28.090  24.176  1.00  0.00     0.001 A 
ATOM     45  C   UNL A   1      53.202  27.712  25.114  1.00  0.00     0.000 A 
ENDBRANCH  26  40
BRANCH  27  46
ATOM     46  C   UNL A   1      40.766  28.799  28.281  1.00  0.00    -0.014 A 
ATOM     47  C   UNL A   1      40.281  28.463  29.553  1.00  0.00     0.009 A 
ATOM     48  C   UNL A   1      39.860  29.278  27.320  1.00  0.00     0.009 A 
ATOM     49  C   UNL A   1      38.920  28.590  29.849  1.00  0.00     0.001 A 
ATOM     50  C   UNL A   1      38.507  29.431  27.626  1.00  0.00     0.001 A 
ATOM     51  C   UNL A   1      38.036  29.078  28.889  1.00  0.00     0.000 A 
ENDBRANCH  27  46
BRANCH  39  52
ATOM     52  C   UNL A   1      46.322  32.959  28.939  1.00  0.00    -0.014 A 
ATOM     53  C   UNL A   1      46.652  33.171  30.286  1.00  0.00     0.009 A 
ATOM     54  C   UNL A   1      46.182  34.062  28.083  1.00  0.00     0.009 A 
ATOM     55  C   UNL A   1      46.811  34.469  30.772  1.00  0.00     0.001 A 
ATOM     56  C   UNL A   1      46.371  35.356  28.566  1.00  0.00     0.001 A 
ATOM     57  C   UNL A   1      46.676  35.559  29.912  1.00  0.00     0.000 A 
ENDBRANCH  39  52
ENDBRANCH  13  14
ENDBRANCH   6   8
ENDBRANCH   5   6
ENDBRANCH   4   5
ENDBRANCH   3   4
ENDBRANCH   2   3
ENDBRANCH   1   2
BRANCH   1  58
ATOM     58  C   UNL A   1      41.270  21.311  26.173  1.00  0.00     0.261 C 
BRANCH  58  59
ATOM     59  O   UNL A   1      39.835  21.335  26.124  1.00  0.00    -0.460 OA
BRANCH  59  60
ATOM     60  C   UNL A   1      39.286  22.543  26.413  1.00  0.00     0.338 C 
ATOM     61  O   UNL A   1      39.842  23.531  26.859  1.00  0.00    -0.246 OA
BRANCH  60  62
ATOM     62  C   UNL A   1      37.909  22.542  25.887  1.00  0.00     0.060 A 
ATOM     63  C   UNL A   1      37.460  21.421  25.176  1.00  0.00     0.018 A 
ATOM     64  C   UNL A   1      37.053  23.614  26.126  1.00  0.00     0.018 A 
ATOM     65  C   UNL A   1      36.143  21.361  24.716  1.00  0.00     0.028 A 
ATOM     66  C   UNL A   1      35.767  23.586  25.595  1.00  0.00     0.028 A 
ATOM     67  C   UNL A   1      35.307  22.468  24.878  1.00  0.00     0.052 A 
BRANCH  67  68
ATOM     68  N   UNL A   1      34.027  22.505  24.298  1.00  0.00    -0.245 N 
ATOM     69  C   UNL A   1      33.773  23.126  23.100  1.00  0.00     0.240 C 
ATOM     70  C   UNL A   1      32.883  21.971  24.857  1.00  0.00     0.292 C 
ATOM     71  O   UNL A   1      34.558  23.711  22.365  1.00  0.00    -0.274 OA
ATOM     72  C   UNL A   1      32.339  22.906  22.751  1.00  0.00     0.176 C 
ATOM     73  C   UNL A   1      31.700  22.576  24.090  1.00  0.00     0.284 C 
ATOM     74  O   UNL A   1      32.791  21.245  25.837  1.00  0.00    -0.267 OA
BRANCH  73  75
ATOM     75  N   UNL A   1      31.062  23.670  24.857  1.00  0.00    -0.321 N 
ATOM     76  C   UNL A   1      31.838  24.314  25.937  1.00  0.00     0.284 C 
ATOM     77  C   UNL A   1      30.393  24.706  24.038  1.00  0.00     0.284 C 
ATOM     78  H   UNL A   1      30.354  23.113  25.336  1.00  0.00     0.348 HD
ATOM     79  C   UNL A   1      32.812  25.427  25.495  1.00  0.00     0.178 C 
ATOM     80  C   UNL A   1      31.221  25.956  23.628  1.00  0.00     0.178 C 
ATOM     81  N   UNL A   1      32.096  26.425  24.703  1.00  0.00    -0.360 N 
BRANCH  81  82
ATOM     82  C   UNL A   1      32.044  27.709  25.204  1.00  0.00     0.037 A 
ATOM     83  C   UNL A   1      32.447  27.965  26.527  1.00  0.00     0.029 A 
ATOM     84  C   UNL A   1      31.524  28.771  24.456  1.00  0.00     0.029 A 
ATOM     85  C   UNL A   1      32.320  29.235  27.090  1.00  0.00     0.041 A 
ATOM     86  C   UNL A   1      31.380  30.042  25.018  1.00  0.00     0.041 A 
ATOM     87  C   UNL A   1      31.777  30.261  26.332  1.00  0.00     0.123 A 
ATOM     88  F   UNL A   1      31.625  31.475  26.876  1.00  0.00    -0.207 F 
ENDBRANCH  81  82
ENDBRANCH  73  75
ENDBRANCH  67  68
ENDBRANCH  60  62
ENDBRANCH  59  60
ENDBRANCH  58  59
ENDBRANCH   1  58
TORSDOF 17
ENDMDL
MODEL 3
REMARK VINA RESULT:     -11.4      4.330      9.726
REMARK SMILES O=C(OCCOCCOC(=O)c1ccc(N2C(=O)C[C@H]([NH+]3CCN(c4ccc(F)cc4)CC3)C2=O)cc1)c1ccc(-c2c3nc(c(-c4ccccc4)c4ccc([nH]4)c(-c4ccccc4)c4nc(c(-c5ccccc5)c5ccc2[nH]5)C=C4)C=C3)cc1
REMARK SMILES IDX 7 1 6 2 5 3 4 4 3 5 2 6 1 7 38 8 39 9 85 10 40 11 84 12
REMARK SMILES IDX 41 13 42 14 43 15 78 16 44 17 83 18 77 19 79 20 45 21 82 22
REMARK SMILES IDX 76 23 75 24 46 26 68 27 53 28 67 29 54 30 57 31 66 32 80 33
REMARK SMILES IDX 55 34 56 35 65 37 81 38 58 39 47 40 48 41 52 42 49 43 51 44
REMARK SMILES IDX 50 45 69 46 70 47 74 48 71 49 73 50 72 51 59 52 60 53 64 54
REMARK SMILES IDX 61 55 63 56 62 57 8 58 9 59 10 60 11 61 12 62 13 63 37 64
REMARK SMILES IDX 14 65 36 66 15 67 16 68 17 69 34 70 18 71 19 72 20 73 35 74
REMARK SMILES IDX 21 75 22 76 33 77 23 79 32 80 24 81 25 82 26 83 31 84 27 85
REMARK SMILES IDX 30 86 28 87 29 88
REMARK H PARENT 79 25 57 36 21 78
REMARK Flexibility Score: inf
ROOT
ATOM      1  C   UNL A   1      34.707  33.546  29.532  1.00  0.00     0.202 C 
ENDROOT
BRANCH   1   2
ATOM      2  O   UNL A   1      33.375  34.067  29.628  1.00  0.00    -0.374 OA
BRANCH   2   3
ATOM      3  C   UNL A   1      33.153  35.331  29.002  1.00  0.00     0.202 C 
BRANCH   3   4
ATOM      4  C   UNL A   1      32.824  36.463  29.977  1.00  0.00     0.261 C 
BRANCH   4   5
ATOM      5  O   UNL A   1      32.292  35.929  31.201  1.00  0.00    -0.460 OA
BRANCH   5   6
ATOM      6  C   UNL A   1      32.883  35.872  32.416  1.00  0.00     0.338 C 
ATOM      7  O   UNL A   1      32.346  36.450  33.360  1.00  0.00    -0.246 OA
BRANCH   6   8
ATOM      8  C   UNL A   1      34.154  35.134  32.686  1.00  0.00     0.060 A 
ATOM      9  C   UNL A   1      35.435  35.660  32.515  1.00  0.00     0.016 A 
ATOM     10  C   UNL A   1      34.039  33.852  33.249  1.00  0.00     0.016 A 
ATOM     11  C   UNL A   1      36.569  34.930  32.828  1.00  0.00     0.010 A 
ATOM     12  C   UNL A   1      35.175  33.122  33.610  1.00  0.00     0.010 A 
ATOM     13  C   UNL A   1      36.445  33.661  33.384  1.00  0.00    -0.014 A 
BRANCH  13  14
ATOM     14  C   UNL A   1      37.679  32.899  33.630  1.00  0.00     0.031 A 
ATOM     15  C   UNL A   1      38.370  33.071  34.945  1.00  0.00     0.074 A 
ATOM     16  C   UNL A   1      38.068  31.971  32.739  1.00  0.00     0.049 A 
ATOM     17  N   UNL A   1      39.462  32.507  35.383  1.00  0.00    -0.248 NA
ATOM     18  C   UNL A   1      37.733  33.989  35.903  1.00  0.00     0.031 C 
ATOM     19  C   UNL A   1      37.365  31.648  31.495  1.00  0.00     0.029 A 
ATOM     20  N   UNL A   1      39.123  31.100  32.762  1.00  0.00    -0.354 N 
ATOM     21  C   UNL A   1      39.660  33.024  36.656  1.00  0.00     0.074 A 
ATOM     22  C   UNL A   1      38.579  33.948  36.919  1.00  0.00     0.031 C 
ATOM     23  C   UNL A   1      37.989  30.625  30.892  1.00  0.00     0.029 A 
ATOM     24  C   UNL A   1      39.171  30.271  31.668  1.00  0.00     0.049 A 
ATOM     25  H   UNL A   1      39.783  31.071  33.492  1.00  0.00     0.167 HD
ATOM     26  C   UNL A   1      40.668  32.758  37.517  1.00  0.00     0.031 A 
ATOM     27  C   UNL A   1      40.091  29.351  31.328  1.00  0.00     0.031 A 
ATOM     28  C   UNL A   1      41.741  31.852  37.213  1.00  0.00     0.049 A 
ATOM     29  C   UNL A   1      41.261  29.156  32.251  1.00  0.00     0.074 A 
ATOM     30  C   UNL A   1      42.861  31.549  37.963  1.00  0.00     0.029 A 
ATOM     31  N   UNL A   1      41.819  31.101  36.047  1.00  0.00    -0.354 N 
ATOM     32  N   UNL A   1      41.489  29.703  33.422  1.00  0.00    -0.248 NA
ATOM     33  C   UNL A   1      42.310  28.233  31.800  1.00  0.00     0.031 C 
ATOM     34  C   UNL A   1      43.643  30.652  37.226  1.00  0.00     0.029 A 
ATOM     35  C   UNL A   1      42.981  30.352  36.044  1.00  0.00     0.049 A 
ATOM     36  H   UNL A   1      41.147  31.102  35.328  1.00  0.00     0.167 HD
ATOM     37  C   UNL A   1      42.699  29.185  33.856  1.00  0.00     0.074 A 
ATOM     38  C   UNL A   1      43.146  28.262  32.829  1.00  0.00     0.031 C 
ATOM     39  C   UNL A   1      43.387  29.449  34.995  1.00  0.00     0.031 A 
BRANCH  26  40
ATOM     40  C   UNL A   1      40.681  33.538  38.800  1.00  0.00    -0.014 A 
ATOM     41  C   UNL A   1      40.039  33.069  39.958  1.00  0.00     0.009 A 
ATOM     42  C   UNL A   1      41.291  34.802  38.828  1.00  0.00     0.009 A 
ATOM     43  C   UNL A   1      39.963  33.873  41.099  1.00  0.00     0.001 A 
ATOM     44  C   UNL A   1      41.237  35.592  39.978  1.00  0.00     0.001 A 
ATOM     45  C   UNL A   1      40.560  35.134  41.107  1.00  0.00     0.000 A 
ENDBRANCH  26  40
BRANCH  27  46
ATOM     46  C   UNL A   1      39.969  28.603  30.048  1.00  0.00    -0.014 A 
ATOM     47  C   UNL A   1      40.436  29.151  28.845  1.00  0.00     0.009 A 
ATOM     48  C   UNL A   1      39.387  27.325  30.024  1.00  0.00     0.009 A 
ATOM     49  C   UNL A   1      40.309  28.441  27.646  1.00  0.00     0.001 A 
ATOM     50  C   UNL A   1      39.288  26.606  28.832  1.00  0.00     0.001 A 
ATOM     51  C   UNL A   1      39.741  27.169  27.641  1.00  0.00     0.000 A 
ENDBRANCH  27  46
BRANCH  39  52
ATOM     52  C   UNL A   1      44.675  28.705  35.190  1.00  0.00    -0.014 A 
ATOM     53  C   UNL A   1      45.897  29.245  34.764  1.00  0.00     0.009 A 
ATOM     54  C   UNL A   1      44.664  27.468  35.854  1.00  0.00     0.009 A 
ATOM     55  C   UNL A   1      47.085  28.543  34.975  1.00  0.00     0.001 A 
ATOM     56  C   UNL A   1      45.856  26.785  36.089  1.00  0.00     0.001 A 
ATOM     57  C   UNL A   1      47.064  27.318  35.642  1.00  0.00     0.000 A 
ENDBRANCH  39  52
ENDBRANCH  13  14
ENDBRANCH   6   8
ENDBRANCH   5   6
ENDBRANCH   4   5
ENDBRANCH   3   4
ENDBRANCH   2   3
ENDBRANCH   1   2
BRANCH   1  58
ATOM     58  C   UNL A   1      34.988  33.137  28.084  1.00  0.00     0.261 C 
BRANCH  58  59
ATOM     59  O   UNL A   1      34.150  32.015  27.762  1.00  0.00    -0.460 OA
BRANCH  59  60
ATOM     60  C   UNL A   1      34.818  30.841  27.624  1.00  0.00     0.338 C 
ATOM     61  O   UNL A   1      35.890  30.526  28.112  1.00  0.00    -0.246 OA
BRANCH  60  62
ATOM     62  C   UNL A   1      33.918  29.897  26.939  1.00  0.00     0.060 A 
ATOM     63  C   UNL A   1      34.431  28.665  26.513  1.00  0.00     0.018 A 
ATOM     64  C   UNL A   1      32.571  30.201  26.754  1.00  0.00     0.018 A 
ATOM     65  C   UNL A   1      33.592  27.722  25.915  1.00  0.00     0.028 A 
ATOM     66  C   UNL A   1      31.757  29.293  26.084  1.00  0.00     0.028 A 
ATOM     67  C   UNL A   1      32.262  28.055  25.651  1.00  0.00     0.052 A 
BRANCH  67  68
ATOM     68  N   UNL A   1      31.428  27.193  24.916  1.00  0.00    -0.245 N 
ATOM     69  C   UNL A   1      30.670  26.212  25.508  1.00  0.00     0.240 C 
ATOM     70  C   UNL A   1      31.294  27.193  23.542  1.00  0.00     0.292 C 
ATOM     71  O   UNL A   1      30.580  25.933  26.696  1.00  0.00    -0.274 OA
ATOM     72  C   UNL A   1      29.857  25.545  24.449  1.00  0.00     0.176 C 
ATOM     73  C   UNL A   1      30.611  25.871  23.171  1.00  0.00     0.284 C 
ATOM     74  O   UNL A   1      31.720  28.016  22.744  1.00  0.00    -0.267 OA
BRANCH  73  75
ATOM     75  N   UNL A   1      31.589  24.884  22.657  1.00  0.00    -0.321 N 
ATOM     76  C   UNL A   1      33.026  25.219  22.729  1.00  0.00     0.284 C 
ATOM     77  C   UNL A   1      31.378  23.492  23.114  1.00  0.00     0.284 C 
ATOM     78  H   UNL A   1      31.351  24.952  21.667  1.00  0.00     0.348 HD
ATOM     79  C   UNL A   1      33.716  24.938  24.081  1.00  0.00     0.178 C 
ATOM     80  C   UNL A   1      32.121  23.027  24.397  1.00  0.00     0.178 C 
ATOM     81  N   UNL A   1      33.486  23.549  24.475  1.00  0.00    -0.360 N 
BRANCH  81  82
ATOM     82  C   UNL A   1      34.593  22.736  24.596  1.00  0.00     0.037 A 
ATOM     83  C   UNL A   1      35.860  23.210  24.213  1.00  0.00     0.029 A 
ATOM     84  C   UNL A   1      34.487  21.407  25.021  1.00  0.00     0.029 A 
ATOM     85  C   UNL A   1      36.982  22.382  24.239  1.00  0.00     0.041 A 
ATOM     86  C   UNL A   1      35.604  20.566  25.035  1.00  0.00     0.041 A 
ATOM     87  C   UNL A   1      36.840  21.062  24.640  1.00  0.00     0.123 A 
ATOM     88  F   UNL A   1      37.908  20.253  24.639  1.00  0.00    -0.207 F 
ENDBRANCH  81  82
ENDBRANCH  73  75
ENDBRANCH  67  68
ENDBRANCH  60  62
ENDBRANCH  59  60
ENDBRANCH  58  59
ENDBRANCH   1  58
TORSDOF 17
ENDMDL
