MODEL 1
REMARK VINA RESULT:      -9.5      0.000      0.000
REMARK SMILES CC(C)[C@@H](CNC(=O)NCC1C(C)(C)C1(C)C)C(=O)OCCOCCOC(=O)c1ccc(-c2c3nc(c(-c4ccccc4)c4ccc([nH]4)c(-c4ccccc4)c4nc(c(-c5ccccc5)c5ccc2[nH]5)C=C4)C=C3)cc1
REMARK SMILES IDX 22 1 21 2 20 3 18 4 19 5 4 6 2 7 1 8 3 9 5 10 6 11 7 12 8 14
REMARK SMILES IDX 9 15 10 17 11 18 12 19 15 20 13 21 14 22 16 23 17 24 23 25
REMARK SMILES IDX 24 26 25 27 26 28 27 29 28 30 29 31 30 32 76 33 31 34 75 35
REMARK SMILES IDX 32 36 33 37 34 38 69 39 35 40 74 41 68 42 70 43 36 44 73 45
REMARK SMILES IDX 67 46 66 47 37 49 59 50 44 51 58 52 45 53 48 54 57 55 71 56
REMARK SMILES IDX 46 57 47 58 56 60 72 61 49 62 38 63 39 64 43 65 40 66 42 67
REMARK SMILES IDX 41 68 60 69 61 70 65 71 62 72 64 73 63 74 50 75 51 76 55 77
REMARK SMILES IDX 52 78 54 79 53 80
REMARK H PARENT 6 13 9 16 70 48 48 59
REMARK Flexibility Score: inf
ROOT
ATOM      1  C   UNL A   1      36.345  21.934  25.923  1.00  0.00     0.202 C 
ENDROOT
BRANCH   1   2
ATOM      2  C   UNL A   1      35.228  21.892  26.969  1.00  0.00     0.261 C 
BRANCH   2   3
ATOM      3  O   UNL A   1      34.052  22.647  26.612  1.00  0.00    -0.463 OA
BRANCH   3   4
ATOM      4  C   UNL A   1      33.224  22.035  25.722  1.00  0.00     0.311 C 
ATOM      5  O   UNL A   1      32.928  20.845  25.748  1.00  0.00    -0.252 OA
BRANCH   4   6
ATOM      6  C   UNL A   1      32.760  22.949  24.599  1.00  0.00     0.121 C 
BRANCH   6   7
ATOM      7  C   UNL A   1      33.357  22.729  23.187  1.00  0.00    -0.001 C 
ATOM      8  C   UNL A   1      32.490  23.433  22.125  1.00  0.00     0.008 C 
ATOM      9  C   UNL A   1      34.779  23.273  23.050  1.00  0.00     0.008 C 
ENDBRANCH   6   7
BRANCH   6  10
ATOM     10  C   UNL A   1      31.226  22.990  24.606  1.00  0.00     0.133 C 
BRANCH  10  11
ATOM     11  N   UNL A   1      30.614  22.873  25.914  1.00  0.00    -0.337 N 
ATOM     12  C   UNL A   1      29.851  23.691  26.652  1.00  0.00     0.314 C 
ATOM     13  H   UNL A   1      30.797  22.011  26.353  1.00  0.00     0.165 HD
ATOM     14  O   UNL A   1      29.291  23.208  27.638  1.00  0.00    -0.249 OA
ATOM     15  N   UNL A   1      29.652  24.986  26.389  1.00  0.00    -0.338 N 
ATOM     16  H   UNL A   1      28.883  25.356  26.881  1.00  0.00     0.165 HD
BRANCH  15  17
ATOM     17  C   UNL A   1      30.300  25.972  25.551  1.00  0.00     0.122 C 
BRANCH  17  18
ATOM     18  C   UNL A   1      31.594  26.429  26.149  1.00  0.00     0.021 C 
ATOM     19  C   UNL A   1      32.843  26.671  25.293  1.00  0.00    -0.025 C 
ATOM     20  C   UNL A   1      32.197  27.835  26.074  1.00  0.00    -0.025 C 
ATOM     21  C   UNL A   1      34.118  26.023  25.787  1.00  0.00     0.012 C 
ATOM     22  C   UNL A   1      32.796  26.678  23.780  1.00  0.00     0.012 C 
ATOM     23  C   UNL A   1      31.465  28.946  25.356  1.00  0.00     0.012 C 
ATOM     24  C   UNL A   1      32.919  28.358  27.300  1.00  0.00     0.012 C 
ENDBRANCH  17  18
ENDBRANCH  15  17
ENDBRANCH  10  11
ENDBRANCH   6  10
ENDBRANCH   4   6
ENDBRANCH   3   4
ENDBRANCH   2   3
ENDBRANCH   1   2
BRANCH   1  25
ATOM     25  O   UNL A   1      36.620  20.721  25.228  1.00  0.00    -0.374 OA
BRANCH  25  26
ATOM     26  C   UNL A   1      37.977  20.468  24.863  1.00  0.00     0.202 C 
BRANCH  26  27
ATOM     27  C   UNL A   1      39.036  21.024  25.823  1.00  0.00     0.261 C 
BRANCH  27  28
ATOM     28  O   UNL A   1      39.755  19.968  26.491  1.00  0.00    -0.460 OA
BRANCH  28  29
ATOM     29  C   UNL A   1      41.073  19.912  26.196  1.00  0.00     0.338 C 
ATOM     30  O   UNL A   1      41.643  19.068  25.510  1.00  0.00    -0.246 OA
BRANCH  29  31
ATOM     31  C   UNL A   1      41.769  21.120  26.672  1.00  0.00     0.060 A 
ATOM     32  C   UNL A   1      41.813  21.328  28.055  1.00  0.00     0.016 A 
ATOM     33  C   UNL A   1      42.252  22.092  25.794  1.00  0.00     0.016 A 
ATOM     34  C   UNL A   1      42.271  22.542  28.565  1.00  0.00     0.010 A 
ATOM     35  C   UNL A   1      42.709  23.314  26.307  1.00  0.00     0.010 A 
ATOM     36  C   UNL A   1      42.672  23.562  27.693  1.00  0.00    -0.014 A 
BRANCH  36  37
ATOM     37  C   UNL A   1      42.873  24.929  28.238  1.00  0.00     0.031 A 
ATOM     38  C   UNL A   1      44.267  25.377  28.596  1.00  0.00     0.074 A 
ATOM     39  C   UNL A   1      41.849  25.794  28.344  1.00  0.00     0.049 A 
ATOM     40  N   UNL A   1      44.680  26.544  29.025  1.00  0.00    -0.248 NA
ATOM     41  C   UNL A   1      45.339  24.380  28.444  1.00  0.00     0.031 C 
ATOM     42  C   UNL A   1      40.458  25.507  27.999  1.00  0.00     0.029 A 
ATOM     43  N   UNL A   1      41.830  27.101  28.767  1.00  0.00    -0.354 N 
ATOM     44  C   UNL A   1      46.053  26.420  29.195  1.00  0.00     0.074 A 
ATOM     45  C   UNL A   1      46.401  25.058  28.853  1.00  0.00     0.031 C 
ATOM     46  C   UNL A   1      39.719  26.608  28.219  1.00  0.00     0.029 A 
ATOM     47  C   UNL A   1      40.580  27.669  28.741  1.00  0.00     0.049 A 
ATOM     48  H   UNL A   1      42.636  27.584  29.060  1.00  0.00     0.167 HD
ATOM     49  C   UNL A   1      46.950  27.355  29.591  1.00  0.00     0.031 A 
ATOM     50  C   UNL A   1      40.174  28.901  29.105  1.00  0.00     0.031 A 
ATOM     51  C   UNL A   1      46.616  28.711  29.935  1.00  0.00     0.049 A 
ATOM     52  C   UNL A   1      41.180  29.904  29.602  1.00  0.00     0.074 A 
ATOM     53  C   UNL A   1      47.464  29.735  30.324  1.00  0.00     0.029 A 
ATOM     54  N   UNL A   1      45.332  29.230  29.941  1.00  0.00    -0.354 N 
ATOM     55  N   UNL A   1      42.481  29.783  29.720  1.00  0.00    -0.248 NA
ATOM     56  C   UNL A   1      40.661  31.219  30.007  1.00  0.00     0.031 C 
ATOM     57  C   UNL A   1      46.686  30.861  30.613  1.00  0.00     0.029 A 
ATOM     58  C   UNL A   1      45.361  30.551  30.354  1.00  0.00     0.049 A 
ATOM     59  H   UNL A   1      44.521  28.734  29.688  1.00  0.00     0.167 HD
ATOM     60  C   UNL A   1      42.934  31.010  30.189  1.00  0.00     0.074 A 
ATOM     61  C   UNL A   1      41.774  31.867  30.318  1.00  0.00     0.031 C 
ATOM     62  C   UNL A   1      44.201  31.393  30.482  1.00  0.00     0.031 A 
BRANCH  49  63
ATOM     63  C   UNL A   1      48.386  26.931  29.700  1.00  0.00    -0.014 A 
ATOM     64  C   UNL A   1      49.267  27.058  28.615  1.00  0.00     0.009 A 
ATOM     65  C   UNL A   1      48.873  26.435  30.919  1.00  0.00     0.009 A 
ATOM     66  C   UNL A   1      50.603  26.670  28.742  1.00  0.00     0.001 A 
ATOM     67  C   UNL A   1      50.214  26.069  31.050  1.00  0.00     0.001 A 
ATOM     68  C   UNL A   1      51.075  26.180  29.960  1.00  0.00     0.000 A 
ENDBRANCH  49  63
BRANCH  50  69
ATOM     69  C   UNL A   1      38.734  29.260  29.031  1.00  0.00    -0.014 A 
ATOM     70  C   UNL A   1      37.895  29.103  30.145  1.00  0.00     0.009 A 
ATOM     71  C   UNL A   1      38.187  29.738  27.830  1.00  0.00     0.009 A 
ATOM     72  C   UNL A   1      36.532  29.394  30.049  1.00  0.00     0.001 A 
ATOM     73  C   UNL A   1      36.830  30.053  27.745  1.00  0.00     0.001 A 
ATOM     74  C   UNL A   1      36.001  29.873  28.851  1.00  0.00     0.000 A 
ENDBRANCH  50  69
BRANCH  62  75
ATOM     75  C   UNL A   1      44.405  32.808  30.947  1.00  0.00    -0.014 A 
ATOM     76  C   UNL A   1      44.616  33.851  30.031  1.00  0.00     0.009 A 
ATOM     77  C   UNL A   1      44.345  33.106  32.316  1.00  0.00     0.009 A 
ATOM     78  C   UNL A   1      44.793  35.160  30.482  1.00  0.00     0.001 A 
ATOM     79  C   UNL A   1      44.497  34.420  32.763  1.00  0.00     0.001 A 
ATOM     80  C   UNL A   1      44.729  35.444  31.846  1.00  0.00     0.000 A 
ENDBRANCH  62  75
ENDBRANCH  36  37
ENDBRANCH  29  31
ENDBRANCH  28  29
ENDBRANCH  27  28
ENDBRANCH  26  27
ENDBRANCH  25  26
ENDBRANCH   1  25
TORSDOF 19
ENDMDL
MODEL 2
REMARK VINA RESULT:      -9.3      0.654      5.928
REMARK SMILES CC(C)[C@@H](CNC(=O)NCC1C(C)(C)C1(C)C)C(=O)OCCOCCOC(=O)c1ccc(-c2c3nc(c(-c4ccccc4)c4ccc([nH]4)c(-c4ccccc4)c4nc(c(-c5ccccc5)c5ccc2[nH]5)C=C4)C=C3)cc1
REMARK SMILES IDX 22 1 21 2 20 3 18 4 19 5 4 6 2 7 1 8 3 9 5 10 6 11 7 12 8 14
REMARK SMILES IDX 9 15 10 17 11 18 12 19 15 20 13 21 14 22 16 23 17 24 23 25
REMARK SMILES IDX 24 26 25 27 26 28 27 29 28 30 29 31 30 32 76 33 31 34 75 35
REMARK SMILES IDX 32 36 33 37 34 38 69 39 35 40 74 41 68 42 70 43 36 44 73 45
REMARK SMILES IDX 67 46 66 47 37 49 59 50 44 51 58 52 45 53 48 54 57 55 71 56
REMARK SMILES IDX 46 57 47 58 56 60 72 61 49 62 38 63 39 64 43 65 40 66 42 67
REMARK SMILES IDX 41 68 60 69 61 70 65 71 62 72 64 73 63 74 50 75 51 76 55 77
REMARK SMILES IDX 52 78 54 79 53 80
REMARK H PARENT 6 13 9 16 70 48 48 59
REMARK Flexibility Score: inf
ROOT
ATOM      1  C   UNL A   1      36.382  22.058  25.939  1.00  0.00     0.202 C 
ENDROOT
BRANCH   1   2
ATOM      2  C   UNL A   1      35.286  22.005  27.007  1.00  0.00     0.261 C 
BRANCH   2   3
ATOM      3  O   UNL A   1      34.080  22.714  26.657  1.00  0.00    -0.463 OA
BRANCH   3   4
ATOM      4  C   UNL A   1      33.250  22.053  25.806  1.00  0.00     0.311 C 
ATOM      5  O   UNL A   1      32.978  20.859  25.884  1.00  0.00    -0.252 OA
BRANCH   4   6
ATOM      6  C   UNL A   1      32.749  22.912  24.656  1.00  0.00     0.121 C 
BRANCH   6   7
ATOM      7  C   UNL A   1      33.359  22.678  23.252  1.00  0.00    -0.001 C 
ATOM      8  C   UNL A   1      32.438  23.266  22.165  1.00  0.00     0.008 C 
ATOM      9  C   UNL A   1      34.735  23.323  23.084  1.00  0.00     0.008 C 
ENDBRANCH   6   7
BRANCH   6  10
ATOM     10  C   UNL A   1      31.215  22.888  24.661  1.00  0.00     0.133 C 
BRANCH  10  11
ATOM     11  N   UNL A   1      30.606  22.785  25.971  1.00  0.00    -0.337 N 
ATOM     12  C   UNL A   1      29.837  23.608  26.697  1.00  0.00     0.314 C 
ATOM     13  H   UNL A   1      30.797  21.932  26.423  1.00  0.00     0.165 HD
ATOM     14  O   UNL A   1      29.282  23.135  27.691  1.00  0.00    -0.249 OA
ATOM     15  N   UNL A   1      29.627  24.897  26.415  1.00  0.00    -0.338 N 
ATOM     16  H   UNL A   1      28.856  25.268  26.902  1.00  0.00     0.165 HD
BRANCH  15  17
ATOM     17  C   UNL A   1      30.266  25.876  25.561  1.00  0.00     0.122 C 
BRANCH  17  18
ATOM     18  C   UNL A   1      31.563  26.345  26.146  1.00  0.00     0.021 C 
ATOM     19  C   UNL A   1      32.798  26.602  25.277  1.00  0.00    -0.025 C 
ATOM     20  C   UNL A   1      32.150  27.757  26.068  1.00  0.00    -0.025 C 
ATOM     21  C   UNL A   1      34.086  25.965  25.755  1.00  0.00     0.012 C 
ATOM     22  C   UNL A   1      32.735  26.611  23.764  1.00  0.00     0.012 C 
ATOM     23  C   UNL A   1      31.398  28.862  25.361  1.00  0.00     0.012 C 
ATOM     24  C   UNL A   1      32.880  28.285  27.286  1.00  0.00     0.012 C 
ENDBRANCH  17  18
ENDBRANCH  15  17
ENDBRANCH  10  11
ENDBRANCH   6  10
ENDBRANCH   4   6
ENDBRANCH   3   4
ENDBRANCH   2   3
ENDBRANCH   1   2
BRANCH   1  25
ATOM     25  O   UNL A   1      36.683  20.839  25.266  1.00  0.00    -0.374 OA
BRANCH  25  26
ATOM     26  C   UNL A   1      38.042  20.617  24.891  1.00  0.00     0.202 C 
BRANCH  26  27
ATOM     27  C   UNL A   1      39.095  21.236  25.818  1.00  0.00     0.261 C 
BRANCH  27  28
ATOM     28  O   UNL A   1      39.739  20.237  26.634  1.00  0.00    -0.460 OA
BRANCH  28  29
ATOM     29  C   UNL A   1      41.030  19.996  26.314  1.00  0.00     0.338 C 
ATOM     30  O   UNL A   1      41.470  19.043  25.678  1.00  0.00    -0.246 OA
BRANCH  29  31
ATOM     31  C   UNL A   1      41.884  21.139  26.685  1.00  0.00     0.060 A 
ATOM     32  C   UNL A   1      41.929  21.487  28.040  1.00  0.00     0.016 A 
ATOM     33  C   UNL A   1      42.521  21.930  25.728  1.00  0.00     0.016 A 
ATOM     34  C   UNL A   1      42.547  22.672  28.436  1.00  0.00     0.010 A 
ATOM     35  C   UNL A   1      43.139  23.124  26.127  1.00  0.00     0.010 A 
ATOM     36  C   UNL A   1      43.110  23.524  27.477  1.00  0.00    -0.014 A 
BRANCH  36  37
ATOM     37  C   UNL A   1      43.497  24.900  27.883  1.00  0.00     0.031 A 
ATOM     38  C   UNL A   1      42.415  25.912  28.161  1.00  0.00     0.074 A 
ATOM     39  C   UNL A   1      44.785  25.231  28.081  1.00  0.00     0.049 A 
ATOM     40  N   UNL A   1      42.523  27.146  28.587  1.00  0.00    -0.248 NA
ATOM     41  C   UNL A   1      41.028  25.475  27.932  1.00  0.00     0.031 C 
ATOM     42  C   UNL A   1      45.928  24.341  27.889  1.00  0.00     0.029 A 
ATOM     43  N   UNL A   1      45.343  26.413  28.502  1.00  0.00    -0.354 N 
ATOM     44  C   UNL A   1      41.224  27.630  28.676  1.00  0.00     0.074 A 
ATOM     45  C   UNL A   1      40.345  26.570  28.230  1.00  0.00     0.031 C 
ATOM     46  C   UNL A   1      47.055  25.008  28.195  1.00  0.00     0.029 A 
ATOM     47  C   UNL A   1      46.713  26.376  28.584  1.00  0.00     0.049 A 
ATOM     48  H   UNL A   1      44.811  27.212  28.724  1.00  0.00     0.167 HD
ATOM     49  C   UNL A   1      40.794  28.843  29.098  1.00  0.00     0.031 A 
ATOM     50  C   UNL A   1      47.594  27.337  28.924  1.00  0.00     0.031 A 
ATOM     51  C   UNL A   1      41.656  29.905  29.541  1.00  0.00     0.049 A 
ATOM     52  C   UNL A   1      47.096  28.698  29.329  1.00  0.00     0.074 A 
ATOM     53  C   UNL A   1      41.307  31.160  30.011  1.00  0.00     0.029 A 
ATOM     54  N   UNL A   1      43.040  29.840  29.563  1.00  0.00    -0.354 N 
ATOM     55  N   UNL A   1      45.862  29.128  29.445  1.00  0.00    -0.248 NA
ATOM     56  C   UNL A   1      48.115  29.705  29.662  1.00  0.00     0.031 C 
ATOM     57  C   UNL A   1      42.482  31.874  30.269  1.00  0.00     0.029 A 
ATOM     58  C   UNL A   1      43.560  31.044  30.009  1.00  0.00     0.049 A 
ATOM     59  H   UNL A   1      43.573  29.056  29.300  1.00  0.00     0.167 HD
ATOM     60  C   UNL A   1      45.958  30.442  29.885  1.00  0.00     0.074 A 
ATOM     61  C   UNL A   1      47.368  30.736  30.031  1.00  0.00     0.031 C 
ATOM     62  C   UNL A   1      44.964  31.326  30.147  1.00  0.00     0.031 A 
BRANCH  49  63
ATOM     63  C   UNL A   1      39.314  29.098  29.075  1.00  0.00    -0.014 A 
ATOM     64  C   UNL A   1      38.504  28.781  30.176  1.00  0.00     0.009 A 
ATOM     65  C   UNL A   1      38.731  29.699  27.949  1.00  0.00     0.009 A 
ATOM     66  C   UNL A   1      37.131  29.039  30.138  1.00  0.00     0.001 A 
ATOM     67  C   UNL A   1      37.363  29.976  27.923  1.00  0.00     0.001 A 
ATOM     68  C   UNL A   1      36.564  29.639  29.014  1.00  0.00     0.000 A 
ENDBRANCH  49  63
BRANCH  50  69
ATOM     69  C   UNL A   1      49.053  27.057  28.881  1.00  0.00    -0.014 A 
ATOM     70  C   UNL A   1      49.789  27.250  27.703  1.00  0.00     0.009 A 
ATOM     71  C   UNL A   1      49.710  26.566  30.021  1.00  0.00     0.009 A 
ATOM     72  C   UNL A   1      51.149  26.934  27.659  1.00  0.00     0.001 A 
ATOM     73  C   UNL A   1      51.075  26.276  29.981  1.00  0.00     0.001 A 
ATOM     74  C   UNL A   1      51.792  26.451  28.799  1.00  0.00     0.000 A 
ENDBRANCH  50  69
BRANCH  62  75
ATOM     75  C   UNL A   1      45.363  32.687  30.646  1.00  0.00    -0.014 A 
ATOM     76  C   UNL A   1      45.543  32.936  32.015  1.00  0.00     0.009 A 
ATOM     77  C   UNL A   1      45.602  33.721  29.728  1.00  0.00     0.009 A 
ATOM     78  C   UNL A   1      45.924  34.205  32.456  1.00  0.00     0.001 A 
ATOM     79  C   UNL A   1      46.009  34.981  30.170  1.00  0.00     0.001 A 
ATOM     80  C   UNL A   1      46.160  35.224  31.535  1.00  0.00     0.000 A 
ENDBRANCH  62  75
ENDBRANCH  36  37
ENDBRANCH  29  31
ENDBRANCH  28  29
ENDBRANCH  27  28
ENDBRANCH  26  27
ENDBRANCH  25  26
ENDBRANCH   1  25
TORSDOF 19
ENDMDL
MODEL 3
REMARK VINA RESULT:      -9.3      2.264      5.975
REMARK SMILES CC(C)[C@@H](CNC(=O)NCC1C(C)(C)C1(C)C)C(=O)OCCOCCOC(=O)c1ccc(-c2c3nc(c(-c4ccccc4)c4ccc([nH]4)c(-c4ccccc4)c4nc(c(-c5ccccc5)c5ccc2[nH]5)C=C4)C=C3)cc1
REMARK SMILES IDX 22 1 21 2 20 3 18 4 19 5 4 6 2 7 1 8 3 9 5 10 6 11 7 12 8 14
REMARK SMILES IDX 9 15 10 17 11 18 12 19 15 20 13 21 14 22 16 23 17 24 23 25
REMARK SMILES IDX 24 26 25 27 26 28 27 29 28 30 29 31 30 32 76 33 31 34 75 35
REMARK SMILES IDX 32 36 33 37 34 38 69 39 35 40 74 41 68 42 70 43 36 44 73 45
REMARK SMILES IDX 67 46 66 47 37 49 59 50 44 51 58 52 45 53 48 54 57 55 71 56
REMARK SMILES IDX 46 57 47 58 56 60 72 61 49 62 38 63 39 64 43 65 40 66 42 67
REMARK SMILES IDX 41 68 60 69 61 70 65 71 62 72 64 73 63 74 50 75 51 76 55 77
REMARK SMILES IDX 52 78 54 79 53 80
REMARK H PARENT 6 13 9 16 70 48 48 59
REMARK Flexibility Score: inf
ROOT
ATOM      1  C   UNL A   1      34.168  18.152  24.731  1.00  0.00     0.202 C 
ENDROOT
BRANCH   1   2
ATOM      2  C   UNL A   1      33.250  18.318  23.517  1.00  0.00     0.261 C 
BRANCH   2   3
ATOM      3  O   UNL A   1      32.532  19.568  23.482  1.00  0.00    -0.463 OA
BRANCH   3   4
ATOM      4  C   UNL A   1      32.474  20.232  24.668  1.00  0.00     0.311 C 
ATOM      5  O   UNL A   1      32.151  19.724  25.737  1.00  0.00    -0.252 OA
BRANCH   4   6
ATOM      6  C   UNL A   1      32.753  21.721  24.544  1.00  0.00     0.121 C 
BRANCH   6   7
ATOM      7  C   UNL A   1      33.718  22.192  23.427  1.00  0.00    -0.001 C 
ATOM      8  C   UNL A   1      32.954  23.023  22.378  1.00  0.00     0.008 C 
ATOM      9  C   UNL A   1      34.862  23.058  23.954  1.00  0.00     0.008 C 
ENDBRANCH   6   7
BRANCH   6  10
ATOM     10  C   UNL A   1      31.413  22.470  24.540  1.00  0.00     0.133 C 
BRANCH  10  11
ATOM     11  N   UNL A   1      30.722  22.497  25.813  1.00  0.00    -0.337 N 
ATOM     12  C   UNL A   1      30.484  23.462  26.712  1.00  0.00     0.314 C 
ATOM     13  H   UNL A   1      30.346  21.625  26.070  1.00  0.00     0.165 HD
ATOM     14  O   UNL A   1      29.659  23.222  27.597  1.00  0.00    -0.249 OA
ATOM     15  N   UNL A   1      31.073  24.661  26.712  1.00  0.00    -0.338 N 
ATOM     16  H   UNL A   1      30.602  25.312  27.283  1.00  0.00     0.165 HD
BRANCH  15  17
ATOM     17  C   UNL A   1      32.239  25.230  26.070  1.00  0.00     0.122 C 
BRANCH  17  18
ATOM     18  C   UNL A   1      31.883  25.875  24.766  1.00  0.00     0.021 C 
ATOM     19  C   UNL A   1      31.369  27.317  24.688  1.00  0.00    -0.025 C 
ATOM     20  C   UNL A   1      32.697  26.927  24.007  1.00  0.00    -0.025 C 
ATOM     21  C   UNL A   1      30.113  27.527  23.869  1.00  0.00     0.012 C 
ATOM     22  C   UNL A   1      31.393  28.249  25.880  1.00  0.00     0.012 C 
ATOM     23  C   UNL A   1      34.024  27.408  24.550  1.00  0.00     0.012 C 
ATOM     24  C   UNL A   1      32.724  26.839  22.494  1.00  0.00     0.012 C 
ENDBRANCH  17  18
ENDBRANCH  15  17
ENDBRANCH  10  11
ENDBRANCH   6  10
ENDBRANCH   4   6
ENDBRANCH   3   4
ENDBRANCH   2   3
ENDBRANCH   1   2
BRANCH   1  25
ATOM     25  O   UNL A   1      35.562  18.346  24.515  1.00  0.00    -0.374 OA
BRANCH  25  26
ATOM     26  C   UNL A   1      36.135  19.564  24.988  1.00  0.00     0.202 C 
BRANCH  26  27
ATOM     27  C   UNL A   1      37.641  19.726  24.747  1.00  0.00     0.261 C 
BRANCH  27  28
ATOM     28  O   UNL A   1      38.146  20.944  25.332  1.00  0.00    -0.460 OA
BRANCH  28  29
ATOM     29  C   UNL A   1      39.295  20.799  26.028  1.00  0.00     0.338 C 
ATOM     30  O   UNL A   1      40.020  19.809  26.063  1.00  0.00    -0.246 OA
BRANCH  29  31
ATOM     31  C   UNL A   1      39.697  22.074  26.647  1.00  0.00     0.060 A 
ATOM     32  C   UNL A   1      39.072  23.235  26.177  1.00  0.00     0.016 A 
ATOM     33  C   UNL A   1      40.744  22.155  27.567  1.00  0.00     0.016 A 
ATOM     34  C   UNL A   1      39.543  24.488  26.568  1.00  0.00     0.010 A 
ATOM     35  C   UNL A   1      41.219  23.415  27.956  1.00  0.00     0.010 A 
ATOM     36  C   UNL A   1      40.653  24.587  27.417  1.00  0.00    -0.014 A 
BRANCH  36  37
ATOM     37  C   UNL A   1      41.310  25.909  27.582  1.00  0.00     0.031 A 
ATOM     38  C   UNL A   1      40.645  26.956  28.436  1.00  0.00     0.074 A 
ATOM     39  C   UNL A   1      42.520  26.156  27.048  1.00  0.00     0.049 A 
ATOM     40  N   UNL A   1      41.070  28.151  28.767  1.00  0.00    -0.248 NA
ATOM     41  C   UNL A   1      39.328  26.611  28.996  1.00  0.00     0.031 C 
ATOM     42  C   UNL A   1      43.293  25.221  26.233  1.00  0.00     0.029 A 
ATOM     43  N   UNL A   1      43.313  27.274  27.125  1.00  0.00    -0.354 N 
ATOM     44  C   UNL A   1      40.076  28.697  29.570  1.00  0.00     0.074 A 
ATOM     45  C   UNL A   1      39.012  27.719  29.652  1.00  0.00     0.031 C 
ATOM     46  C   UNL A   1      44.455  25.803  25.887  1.00  0.00     0.029 A 
ATOM     47  C   UNL A   1      44.496  27.157  26.438  1.00  0.00     0.049 A 
ATOM     48  H   UNL A   1      43.057  28.083  27.625  1.00  0.00     0.167 HD
ATOM     49  C   UNL A   1      40.049  29.899  30.192  1.00  0.00     0.031 A 
ATOM     50  C   UNL A   1      45.495  28.045  26.264  1.00  0.00     0.031 A 
ATOM     51  C   UNL A   1      41.097  30.880  30.117  1.00  0.00     0.049 A 
ATOM     52  C   UNL A   1      45.414  29.400  26.914  1.00  0.00     0.074 A 
ATOM     53  C   UNL A   1      41.167  32.117  30.736  1.00  0.00     0.029 A 
ATOM     54  N   UNL A   1      42.257  30.740  29.372  1.00  0.00    -0.354 N 
ATOM     55  N   UNL A   1      44.485  29.886  27.702  1.00  0.00    -0.248 NA
ATOM     56  C   UNL A   1      46.529  30.325  26.659  1.00  0.00     0.031 C 
ATOM     57  C   UNL A   1      42.346  32.747  30.324  1.00  0.00     0.029 A 
ATOM     58  C   UNL A   1      43.034  31.880  29.492  1.00  0.00     0.049 A 
ATOM     59  H   UNL A   1      42.493  29.948  28.838  1.00  0.00     0.167 HD
ATOM     60  C   UNL A   1      44.915  31.160  28.052  1.00  0.00     0.074 A 
ATOM     61  C   UNL A   1      46.193  31.367  27.406  1.00  0.00     0.031 C 
ATOM     62  C   UNL A   1      44.303  32.076  28.842  1.00  0.00     0.031 A 
BRANCH  49  63
ATOM     63  C   UNL A   1      38.824  30.235  30.994  1.00  0.00    -0.014 A 
ATOM     64  C   UNL A   1      38.770  29.994  32.376  1.00  0.00     0.009 A 
ATOM     65  C   UNL A   1      37.724  30.835  30.363  1.00  0.00     0.009 A 
ATOM     66  C   UNL A   1      37.625  30.326  33.105  1.00  0.00     0.001 A 
ATOM     67  C   UNL A   1      36.591  31.186  31.098  1.00  0.00     0.001 A 
ATOM     68  C   UNL A   1      36.540  30.925  32.466  1.00  0.00     0.000 A 
ENDBRANCH  49  63
BRANCH  50  69
ATOM     69  C   UNL A   1      46.665  27.689  25.418  1.00  0.00    -0.014 A 
ATOM     70  C   UNL A   1      47.812  27.111  25.981  1.00  0.00     0.009 A 
ATOM     71  C   UNL A   1      46.644  27.956  24.040  1.00  0.00     0.009 A 
ATOM     72  C   UNL A   1      48.924  26.829  25.185  1.00  0.00     0.001 A 
ATOM     73  C   UNL A   1      47.748  27.648  23.242  1.00  0.00     0.001 A 
ATOM     74  C   UNL A   1      48.890  27.093  23.816  1.00  0.00     0.000 A 
ENDBRANCH  50  69
BRANCH  62  75
ATOM     75  C   UNL A   1      45.021  33.376  29.077  1.00  0.00    -0.014 A 
ATOM     76  C   UNL A   1      44.809  34.484  28.242  1.00  0.00     0.009 A 
ATOM     77  C   UNL A   1      45.889  33.504  30.171  1.00  0.00     0.009 A 
ATOM     78  C   UNL A   1      45.477  35.686  28.483  1.00  0.00     0.001 A 
ATOM     79  C   UNL A   1      46.536  34.714  30.425  1.00  0.00     0.001 A 
ATOM     80  C   UNL A   1      46.336  35.802  29.575  1.00  0.00     0.000 A 
ENDBRANCH  62  75
ENDBRANCH  36  37
ENDBRANCH  29  31
ENDBRANCH  28  29
ENDBRANCH  27  28
ENDBRANCH  26  27
ENDBRANCH  25  26
ENDBRANCH   1  25
TORSDOF 19
ENDMDL
