MODEL 1
REMARK VINA RESULT:     -10.2      0.000      0.000
REMARK SMILES O=C(N[C@@H](Cc1ccc(O)cc1)C(=O)N[C@@H](Cc1c[nH]c2ccccc12)C(=O)N[C@@H](CO)C(=O)OCCOCCOC(=O)c1ccc(-c2c3nc(c(-c4ccccc4)c4ccc([nH]4)c(-c4ccccc4)c4nc(c(-c5ccccc5)c5ccc2[nH]5)C=C4)C=C3)cc1)c1ccc(F)cc1
REMARK SMILES IDX 36 1 35 2 33 3 34 4 30 5 29 6 27 7 28 8 16 10 15 11 13 12
REMARK SMILES IDX 14 13 4 15 3 16 1 17 2 18 92 20 93 21 98 22 94 23 97 24
REMARK SMILES IDX 95 25 96 26 5 27 6 28 7 29 12 30 8 31 11 32 9 33 10 34 17 36
REMARK SMILES IDX 18 37 19 38 26 39 20 40 21 41 25 42 22 44 24 45 23 46 31 47
REMARK SMILES IDX 32 48 37 50 38 51 39 52 40 53 41 54 42 55 43 56 44 57 45 58
REMARK SMILES IDX 91 59 46 60 90 61 47 62 48 63 49 64 84 65 50 66 89 67 83 68
REMARK SMILES IDX 85 69 51 70 88 71 82 72 81 73 52 75 74 76 59 77 73 78 60 79
REMARK SMILES IDX 63 80 72 81 86 82 61 83 62 84 71 86 87 87 64 88 53 89 54 90
REMARK SMILES IDX 58 91 55 92 57 93 56 94 75 95 76 96 80 97 77 98 79 99 78 100
REMARK SMILES IDX 65 101 66 102 70 103 67 104 69 105 68 106
REMARK H PARENT 29 9 15 14 3 19 10 35 20 43 32 49 85 74 63 85
REMARK Flexibility Score: inf
ROOT
ATOM      1  C   UNL A   1      35.197  30.564  28.251  1.00  0.00     0.261 C 
ENDROOT
BRANCH   1   2
ATOM      2  O   UNL A   1      34.821  30.431  26.872  1.00  0.00    -0.462 OA
BRANCH   2   3
ATOM      3  C   UNL A   1      33.500  30.201  26.631  1.00  0.00     0.331 C 
ATOM      4  O   UNL A   1      32.607  31.034  26.751  1.00  0.00    -0.250 OA
BRANCH   3   5
ATOM      5  C   UNL A   1      33.258  28.718  26.291  1.00  0.00     0.218 C 
BRANCH   5   6
ATOM      6  N   UNL A   1      31.845  28.347  26.481  1.00  0.00    -0.339 N 
ATOM      7  C   UNL A   1      31.276  27.136  26.728  1.00  0.00     0.243 C 
ATOM      8  O   UNL A   1      30.306  27.123  27.493  1.00  0.00    -0.273 OA
ATOM      9  H   UNL A   1      31.210  29.097  26.418  1.00  0.00     0.164 HD
BRANCH   7  10
ATOM     10  C   UNL A   1      31.779  25.795  26.167  1.00  0.00     0.175 C 
BRANCH  10  11
ATOM     11  N   UNL A   1      31.660  24.650  27.066  1.00  0.00    -0.342 N 
ATOM     12  C   UNL A   1      32.100  23.371  26.900  1.00  0.00     0.243 C 
ATOM     13  O   UNL A   1      32.281  22.721  27.937  1.00  0.00    -0.273 OA
ATOM     14  H   UNL A   1      31.195  24.830  27.914  1.00  0.00     0.164 HD
BRANCH  12  15
ATOM     15  C   UNL A   1      32.437  22.741  25.521  1.00  0.00     0.176 C 
BRANCH  15  16
ATOM     16  N   UNL A   1      33.872  22.566  25.264  1.00  0.00    -0.340 N 
ATOM     17  O   UNL A   1      35.861  22.790  24.255  1.00  0.00    -0.269 OA
ATOM     18  C   UNL A   1      34.665  23.071  24.265  1.00  0.00     0.251 C 
ATOM     19  H   UNL A   1      34.341  21.995  25.913  1.00  0.00     0.164 HD
BRANCH  18  20
ATOM     20  C   UNL A   1      34.094  23.850  23.145  1.00  0.00     0.040 A 
ATOM     21  C   UNL A   1      34.180  25.245  23.074  1.00  0.00     0.017 A 
ATOM     22  C   UNL A   1      33.456  23.131  22.123  1.00  0.00     0.017 A 
ATOM     23  C   UNL A   1      33.552  25.922  22.026  1.00  0.00     0.040 A 
ATOM     24  C   UNL A   1      32.846  23.812  21.068  1.00  0.00     0.040 A 
ATOM     25  C   UNL A   1      32.885  25.201  21.039  1.00  0.00     0.123 A 
ATOM     26  F   UNL A   1      32.275  25.855  20.043  1.00  0.00    -0.207 F 
ENDBRANCH  18  20
ENDBRANCH  15  16
BRANCH  15  27
ATOM     27  C   UNL A   1      31.571  21.537  25.114  1.00  0.00     0.070 C 
BRANCH  27  28
ATOM     28  C   UNL A   1      32.248  20.287  24.617  1.00  0.00    -0.045 A 
ATOM     29  C   UNL A   1      32.201  19.926  23.263  1.00  0.00     0.007 A 
ATOM     30  C   UNL A   1      32.878  19.423  25.529  1.00  0.00     0.007 A 
ATOM     31  C   UNL A   1      32.792  18.735  22.826  1.00  0.00     0.046 A 
ATOM     32  C   UNL A   1      33.452  18.229  25.094  1.00  0.00     0.046 A 
ATOM     33  C   UNL A   1      33.418  17.900  23.746  1.00  0.00     0.115 A 
BRANCH  33  34
ATOM     34  O   UNL A   1      34.039  16.749  23.357  1.00  0.00    -0.508 OA
ATOM     35  H   UNL A   1      34.157  16.566  22.446  1.00  0.00     0.293 HD
ENDBRANCH  33  34
ENDBRANCH  27  28
ENDBRANCH  15  27
ENDBRANCH  12  15
ENDBRANCH  10  11
BRANCH  10  36
ATOM     36  C   UNL A   1      31.335  25.526  24.718  1.00  0.00     0.072 C 
BRANCH  36  37
ATOM     37  C   UNL A   1      30.045  26.163  24.306  1.00  0.00    -0.020 A 
ATOM     38  C   UNL A   1      28.770  25.736  24.616  1.00  0.00     0.087 A 
ATOM     39  C   UNL A   1      29.899  27.332  23.484  1.00  0.00     0.003 A 
ATOM     40  N   UNL A   1      27.877  26.651  24.122  1.00  0.00    -0.361 N 
ATOM     41  C   UNL A   1      28.541  27.642  23.440  1.00  0.00     0.046 A 
ATOM     42  C   UNL A   1      30.799  28.179  22.799  1.00  0.00     0.010 A 
ATOM     43  H   UNL A   1      26.901  26.606  24.240  1.00  0.00     0.166 HD
ATOM     44  C   UNL A   1      28.041  28.781  22.795  1.00  0.00     0.026 A 
ATOM     45  C   UNL A   1      30.314  29.315  22.138  1.00  0.00     0.001 A 
ATOM     46  C   UNL A   1      28.957  29.618  22.153  1.00  0.00     0.002 A 
ENDBRANCH  36  37
ENDBRANCH  10  36
ENDBRANCH   7  10
ENDBRANCH   5   6
BRANCH   5  47
ATOM     47  C   UNL A   1      33.694  28.502  24.840  1.00  0.00     0.193 C 
BRANCH  47  48
ATOM     48  O   UNL A   1      33.628  29.714  24.084  1.00  0.00    -0.394 OA
ATOM     49  H   UNL A   1      34.526  30.037  23.912  1.00  0.00     0.210 HD
ENDBRANCH  47  48
ENDBRANCH   5  47
ENDBRANCH   3   5
ENDBRANCH   2   3
ENDBRANCH   1   2
BRANCH   1  50
ATOM     50  C   UNL A   1      35.724  31.982  28.497  1.00  0.00     0.202 C 
BRANCH  50  51
ATOM     51  O   UNL A   1      34.707  32.951  28.775  1.00  0.00    -0.374 OA
BRANCH  51  52
ATOM     52  C   UNL A   1      35.143  34.017  29.630  1.00  0.00     0.202 C 
BRANCH  52  53
ATOM     53  C   UNL A   1      35.042  33.629  31.106  1.00  0.00     0.261 C 
BRANCH  53  54
ATOM     54  O   UNL A   1      36.379  33.528  31.610  1.00  0.00    -0.460 OA
BRANCH  54  55
ATOM     55  C   UNL A   1      36.645  32.284  32.076  1.00  0.00     0.338 C 
ATOM     56  O   UNL A   1      35.852  31.514  32.577  1.00  0.00    -0.246 OA
BRANCH  55  57
ATOM     57  C   UNL A   1      38.034  31.929  31.704  1.00  0.00     0.060 A 
ATOM     58  C   UNL A   1      38.476  32.357  30.450  1.00  0.00     0.016 A 
ATOM     59  C   UNL A   1      38.893  31.229  32.562  1.00  0.00     0.016 A 
ATOM     60  C   UNL A   1      39.745  32.008  30.010  1.00  0.00     0.010 A 
ATOM     61  C   UNL A   1      40.173  30.888  32.126  1.00  0.00     0.010 A 
ATOM     62  C   UNL A   1      40.576  31.230  30.827  1.00  0.00    -0.014 A 
BRANCH  62  63
ATOM     63  C   UNL A   1      41.770  30.615  30.217  1.00  0.00     0.031 A 
ATOM     64  C   UNL A   1      41.620  29.271  29.565  1.00  0.00     0.074 A 
ATOM     65  C   UNL A   1      42.928  31.293  30.156  1.00  0.00     0.049 A 
ATOM     66  N   UNL A   1      42.471  28.609  28.827  1.00  0.00    -0.248 NA
ATOM     67  C   UNL A   1      40.332  28.584  29.765  1.00  0.00     0.031 C 
ATOM     68  C   UNL A   1      43.166  32.614  30.739  1.00  0.00     0.029 A 
ATOM     69  N   UNL A   1      44.111  30.971  29.548  1.00  0.00    -0.354 N 
ATOM     70  C   UNL A   1      41.816  27.439  28.463  1.00  0.00     0.074 A 
ATOM     71  C   UNL A   1      40.518  27.457  29.096  1.00  0.00     0.031 C 
ATOM     72  C   UNL A   1      44.419  33.000  30.438  1.00  0.00     0.029 A 
ATOM     73  C   UNL A   1      45.065  31.951  29.652  1.00  0.00     0.049 A 
ATOM     74  H   UNL A   1      44.263  30.117  29.081  1.00  0.00     0.167 HD
ATOM     75  C   UNL A   1      42.252  26.444  27.655  1.00  0.00     0.031 A 
ATOM     76  C   UNL A   1      46.314  31.996  29.153  1.00  0.00     0.031 A 
ATOM     77  C   UNL A   1      43.557  26.420  27.054  1.00  0.00     0.049 A 
ATOM     78  C   UNL A   1      46.796  30.854  28.302  1.00  0.00     0.074 A 
ATOM     79  C   UNL A   1      44.112  25.462  26.226  1.00  0.00     0.029 A 
ATOM     80  N   UNL A   1      44.516  27.406  27.231  1.00  0.00    -0.354 N 
ATOM     81  N   UNL A   1      46.154  29.772  27.930  1.00  0.00    -0.248 NA
ATOM     82  C   UNL A   1      48.169  30.950  27.789  1.00  0.00     0.031 C 
ATOM     83  C   UNL A   1      45.427  25.847  25.940  1.00  0.00     0.029 A 
ATOM     84  C   UNL A   1      45.671  27.069  26.549  1.00  0.00     0.049 A 
ATOM     85  H   UNL A   1      44.394  28.225  27.764  1.00  0.00     0.167 HD
ATOM     86  C   UNL A   1      47.038  29.064  27.126  1.00  0.00     0.074 A 
ATOM     87  C   UNL A   1      48.251  29.854  27.047  1.00  0.00     0.031 C 
ATOM     88  C   UNL A   1      46.868  27.868  26.508  1.00  0.00     0.031 A 
BRANCH  75  89
ATOM     89  C   UNL A   1      41.313  25.296  27.420  1.00  0.00    -0.014 A 
ATOM     90  C   UNL A   1      40.227  25.413  26.537  1.00  0.00     0.009 A 
ATOM     91  C   UNL A   1      41.507  24.085  28.101  1.00  0.00     0.009 A 
ATOM     92  C   UNL A   1      39.332  24.353  26.370  1.00  0.00     0.001 A 
ATOM     93  C   UNL A   1      40.625  23.018  27.913  1.00  0.00     0.001 A 
ATOM     94  C   UNL A   1      39.534  23.156  27.057  1.00  0.00     0.000 A 
ENDBRANCH  75  89
BRANCH  76  95
ATOM     95  C   UNL A   1      47.181  33.169  29.432  1.00  0.00    -0.014 A 
ATOM     96  C   UNL A   1      48.234  33.082  30.357  1.00  0.00     0.009 A 
ATOM     97  C   UNL A   1      46.962  34.386  28.766  1.00  0.00     0.009 A 
ATOM     98  C   UNL A   1      49.036  34.194  30.622  1.00  0.00     0.001 A 
ATOM     99  C   UNL A   1      47.781  35.489  29.015  1.00  0.00     0.001 A 
ATOM    100  C   UNL A   1      48.813  35.394  29.948  1.00  0.00     0.000 A 
ENDBRANCH  76  95
BRANCH  88 101
ATOM    101  C   UNL A   1      48.024  27.357  25.696  1.00  0.00    -0.014 A 
ATOM    102  C   UNL A   1      49.072  26.647  26.300  1.00  0.00     0.009 A 
ATOM    103  C   UNL A   1      48.051  27.572  24.311  1.00  0.00     0.009 A 
ATOM    104  C   UNL A   1      50.148  26.194  25.534  1.00  0.00     0.001 A 
ATOM    105  C   UNL A   1      49.113  27.095  23.543  1.00  0.00     0.001 A 
ATOM    106  C   UNL A   1      50.165  26.417  24.157  1.00  0.00     0.000 A 
ENDBRANCH  88 101
ENDBRANCH  62  63
ENDBRANCH  55  57
ENDBRANCH  54  55
ENDBRANCH  53  54
ENDBRANCH  52  53
ENDBRANCH  51  52
ENDBRANCH  50  51
ENDBRANCH   1  50
TORSDOF 27
ENDMDL
MODEL 2
REMARK VINA RESULT:     -10.1      6.457     10.615
REMARK SMILES O=C(N[C@@H](Cc1ccc(O)cc1)C(=O)N[C@@H](Cc1c[nH]c2ccccc12)C(=O)N[C@@H](CO)C(=O)OCCOCCOC(=O)c1ccc(-c2c3nc(c(-c4ccccc4)c4ccc([nH]4)c(-c4ccccc4)c4nc(c(-c5ccccc5)c5ccc2[nH]5)C=C4)C=C3)cc1)c1ccc(F)cc1
REMARK SMILES IDX 36 1 35 2 33 3 34 4 30 5 29 6 27 7 28 8 16 10 15 11 13 12
REMARK SMILES IDX 14 13 4 15 3 16 1 17 2 18 92 20 93 21 98 22 94 23 97 24
REMARK SMILES IDX 95 25 96 26 5 27 6 28 7 29 12 30 8 31 11 32 9 33 10 34 17 36
REMARK SMILES IDX 18 37 19 38 26 39 20 40 21 41 25 42 22 44 24 45 23 46 31 47
REMARK SMILES IDX 32 48 37 50 38 51 39 52 40 53 41 54 42 55 43 56 44 57 45 58
REMARK SMILES IDX 91 59 46 60 90 61 47 62 48 63 49 64 84 65 50 66 89 67 83 68
REMARK SMILES IDX 85 69 51 70 88 71 82 72 81 73 52 75 74 76 59 77 73 78 60 79
REMARK SMILES IDX 63 80 72 81 86 82 61 83 62 84 71 86 87 87 64 88 53 89 54 90
REMARK SMILES IDX 58 91 55 92 57 93 56 94 75 95 76 96 80 97 77 98 79 99 78 100
REMARK SMILES IDX 65 101 66 102 70 103 67 104 69 105 68 106
REMARK H PARENT 29 9 15 14 3 19 10 35 20 43 32 49 85 74 63 85
REMARK Flexibility Score: inf
ROOT
ATOM      1  C   UNL A   1      35.613  30.120  28.234  1.00  0.00     0.261 C 
ENDROOT
BRANCH   1   2
ATOM      2  O   UNL A   1      35.262  29.549  26.965  1.00  0.00    -0.462 OA
BRANCH   2   3
ATOM      3  C   UNL A   1      33.945  29.609  26.623  1.00  0.00     0.331 C 
ATOM      4  O   UNL A   1      33.192  30.542  26.883  1.00  0.00    -0.250 OA
BRANCH   3   5
ATOM      5  C   UNL A   1      33.494  28.293  25.960  1.00  0.00     0.218 C 
BRANCH   5   6
ATOM      6  N   UNL A   1      32.054  28.055  26.165  1.00  0.00    -0.339 N 
ATOM      7  C   UNL A   1      31.383  26.910  26.468  1.00  0.00     0.243 C 
ATOM      8  O   UNL A   1      30.418  27.017  27.232  1.00  0.00    -0.273 OA
ATOM      9  H   UNL A   1      31.485  28.853  26.066  1.00  0.00     0.164 HD
BRANCH   7  10
ATOM     10  C   UNL A   1      31.767  25.507  25.972  1.00  0.00     0.175 C 
BRANCH  10  11
ATOM     11  N   UNL A   1      31.736  24.450  26.979  1.00  0.00    -0.342 N 
ATOM     12  C   UNL A   1      32.220  23.178  26.914  1.00  0.00     0.243 C 
ATOM     13  O   UNL A   1      32.474  22.638  27.998  1.00  0.00    -0.273 OA
ATOM     14  H   UNL A   1      31.302  24.693  27.828  1.00  0.00     0.164 HD
BRANCH  12  15
ATOM     15  C   UNL A   1      32.522  22.431  25.587  1.00  0.00     0.176 C 
BRANCH  15  16
ATOM     16  N   UNL A   1      33.949  22.255  25.295  1.00  0.00    -0.340 N 
ATOM     17  O   UNL A   1      35.924  22.515  24.268  1.00  0.00    -0.269 OA
ATOM     18  C   UNL A   1      34.733  22.808  24.315  1.00  0.00     0.251 C 
ATOM     19  H   UNL A   1      34.422  21.640  25.901  1.00  0.00     0.164 HD
BRANCH  18  20
ATOM     20  C   UNL A   1      34.153  23.660  23.253  1.00  0.00     0.040 A 
ATOM     21  C   UNL A   1      34.295  25.052  23.240  1.00  0.00     0.017 A 
ATOM     22  C   UNL A   1      33.448  23.014  22.226  1.00  0.00     0.017 A 
ATOM     23  C   UNL A   1      33.658  25.801  22.247  1.00  0.00     0.040 A 
ATOM     24  C   UNL A   1      32.829  23.766  21.226  1.00  0.00     0.040 A 
ATOM     25  C   UNL A   1      32.925  25.152  21.256  1.00  0.00     0.123 A 
ATOM     26  F   UNL A   1      32.306  25.875  20.314  1.00  0.00    -0.207 F 
ENDBRANCH  18  20
ENDBRANCH  15  16
BRANCH  15  27
ATOM     27  C   UNL A   1      31.664  21.182  25.320  1.00  0.00     0.070 C 
BRANCH  27  28
ATOM     28  C   UNL A   1      32.287  20.006  24.616  1.00  0.00    -0.045 A 
ATOM     29  C   UNL A   1      32.095  19.799  23.242  1.00  0.00     0.007 A 
ATOM     30  C   UNL A   1      33.014  19.056  25.350  1.00  0.00     0.007 A 
ATOM     31  C   UNL A   1      32.640  18.674  22.612  1.00  0.00     0.046 A 
ATOM     32  C   UNL A   1      33.542  17.926  24.725  1.00  0.00     0.046 A 
ATOM     33  C   UNL A   1      33.364  17.751  23.359  1.00  0.00     0.115 A 
BRANCH  33  34
ATOM     34  O   UNL A   1      33.944  16.661  22.778  1.00  0.00    -0.508 OA
ATOM     35  H   UNL A   1      34.678  16.247  23.188  1.00  0.00     0.293 HD
ENDBRANCH  33  34
ENDBRANCH  27  28
ENDBRANCH  15  27
ENDBRANCH  12  15
ENDBRANCH  10  11
BRANCH  10  36
ATOM     36  C   UNL A   1      31.125  25.131  24.624  1.00  0.00     0.072 C 
BRANCH  36  37
ATOM     37  C   UNL A   1      29.923  25.932  24.232  1.00  0.00    -0.020 A 
ATOM     38  C   UNL A   1      28.603  25.642  24.511  1.00  0.00     0.087 A 
ATOM     39  C   UNL A   1      29.924  27.147  23.466  1.00  0.00     0.003 A 
ATOM     40  N   UNL A   1      27.829  26.676  24.054  1.00  0.00    -0.361 N 
ATOM     41  C   UNL A   1      28.612  27.614  23.426  1.00  0.00     0.046 A 
ATOM     42  C   UNL A   1      30.925  27.915  22.831  1.00  0.00     0.010 A 
ATOM     43  H   UNL A   1      26.852  26.739  24.160  1.00  0.00     0.166 HD
ATOM     44  C   UNL A   1      28.256  28.832  22.832  1.00  0.00     0.026 A 
ATOM     45  C   UNL A   1      30.585  29.129  22.221  1.00  0.00     0.001 A 
ATOM     46  C   UNL A   1      29.272  29.587  22.239  1.00  0.00     0.002 A 
ENDBRANCH  36  37
ENDBRANCH  10  36
ENDBRANCH   7  10
ENDBRANCH   5   6
BRANCH   5  47
ATOM     47  C   UNL A   1      33.828  28.391  24.470  1.00  0.00     0.193 C 
BRANCH  47  48
ATOM     48  O   UNL A   1      33.702  29.732  23.989  1.00  0.00    -0.394 OA
ATOM     49  H   UNL A   1      33.226  29.729  23.144  1.00  0.00     0.210 HD
ENDBRANCH  47  48
ENDBRANCH   5  47
ENDBRANCH   3   5
ENDBRANCH   2   3
ENDBRANCH   1   2
BRANCH   1  50
ATOM     50  C   UNL A   1      36.317  31.461  28.007  1.00  0.00     0.202 C 
BRANCH  50  51
ATOM     51  O   UNL A   1      35.432  32.577  27.857  1.00  0.00    -0.374 OA
BRANCH  51  52
ATOM     52  C   UNL A   1      35.534  33.542  28.913  1.00  0.00     0.202 C 
BRANCH  52  53
ATOM     53  C   UNL A   1      34.804  33.073  30.173  1.00  0.00     0.261 C 
BRANCH  53  54
ATOM     54  O   UNL A   1      35.714  33.221  31.270  1.00  0.00    -0.460 OA
BRANCH  54  55
ATOM     55  C   UNL A   1      35.819  32.079  31.989  1.00  0.00     0.338 C 
ATOM     56  O   UNL A   1      35.529  30.960  31.618  1.00  0.00    -0.246 OA
BRANCH  55  57
ATOM     57  C   UNL A   1      36.528  32.381  33.254  1.00  0.00     0.060 A 
ATOM     58  C   UNL A   1      36.223  33.599  33.868  1.00  0.00     0.016 A 
ATOM     59  C   UNL A   1      37.439  31.494  33.844  1.00  0.00     0.016 A 
ATOM     60  C   UNL A   1      36.894  33.975  35.023  1.00  0.00     0.010 A 
ATOM     61  C   UNL A   1      38.104  31.866  35.011  1.00  0.00     0.010 A 
ATOM     62  C   UNL A   1      37.872  33.133  35.567  1.00  0.00    -0.014 A 
BRANCH  62  63
ATOM     63  C   UNL A   1      38.777  33.690  36.589  1.00  0.00     0.031 A 
ATOM     64  C   UNL A   1      39.940  34.520  36.128  1.00  0.00     0.074 A 
ATOM     65  C   UNL A   1      38.499  33.545  37.895  1.00  0.00     0.049 A 
ATOM     66  N   UNL A   1      40.770  35.245  36.831  1.00  0.00    -0.248 NA
ATOM     67  C   UNL A   1      40.197  34.544  34.677  1.00  0.00     0.031 C 
ATOM     68  C   UNL A   1      37.381  32.776  38.442  1.00  0.00     0.029 A 
ATOM     69  N   UNL A   1      39.126  34.063  38.996  1.00  0.00    -0.354 N 
ATOM     70  C   UNL A   1      41.634  35.822  35.907  1.00  0.00     0.074 A 
ATOM     71  C   UNL A   1      41.260  35.328  34.602  1.00  0.00     0.031 C 
ATOM     72  C   UNL A   1      37.388  32.895  39.781  1.00  0.00     0.029 A 
ATOM     73  C   UNL A   1      38.513  33.737  40.179  1.00  0.00     0.049 A 
ATOM     74  H   UNL A   1      39.939  34.618  38.944  1.00  0.00     0.167 HD
ATOM     75  C   UNL A   1      42.639  36.700  36.127  1.00  0.00     0.031 A 
ATOM     76  C   UNL A   1      38.823  34.095  41.439  1.00  0.00     0.031 A 
ATOM     77  C   UNL A   1      43.024  37.162  37.432  1.00  0.00     0.049 A 
ATOM     78  C   UNL A   1      39.979  35.031  41.663  1.00  0.00     0.074 A 
ATOM     79  C   UNL A   1      44.030  38.044  37.778  1.00  0.00     0.029 A 
ATOM     80  N   UNL A   1      42.414  36.763  38.612  1.00  0.00    -0.354 N 
ATOM     81  N   UNL A   1      40.762  35.603  40.780  1.00  0.00    -0.248 NA
ATOM     82  C   UNL A   1      40.279  35.384  43.057  1.00  0.00     0.031 C 
ATOM     83  C   UNL A   1      44.060  38.142  39.174  1.00  0.00     0.029 A 
ATOM     84  C   UNL A   1      43.038  37.361  39.692  1.00  0.00     0.049 A 
ATOM     85  H   UNL A   1      41.649  36.145  38.672  1.00  0.00     0.167 HD
ATOM     86  C   UNL A   1      41.641  36.395  41.508  1.00  0.00     0.074 A 
ATOM     87  C   UNL A   1      41.274  36.247  42.903  1.00  0.00     0.031 C 
ATOM     88  C   UNL A   1      42.660  37.175  41.069  1.00  0.00     0.031 A 
BRANCH  75  89
ATOM     89  C   UNL A   1      43.404  37.176  34.924  1.00  0.00    -0.014 A 
ATOM     90  C   UNL A   1      44.537  36.487  34.463  1.00  0.00     0.009 A 
ATOM     91  C   UNL A   1      42.994  38.336  34.251  1.00  0.00     0.009 A 
ATOM     92  C   UNL A   1      45.267  36.972  33.375  1.00  0.00     0.001 A 
ATOM     93  C   UNL A   1      43.711  38.805  33.148  1.00  0.00     0.001 A 
ATOM     94  C   UNL A   1      44.852  38.130  32.718  1.00  0.00     0.000 A 
ENDBRANCH  75  89
BRANCH  76  95
ATOM     95  C   UNL A   1      38.017  33.581  42.575  1.00  0.00    -0.014 A 
ATOM     96  C   UNL A   1      38.154  32.255  43.013  1.00  0.00     0.009 A 
ATOM     97  C   UNL A   1      37.105  34.422  43.234  1.00  0.00     0.009 A 
ATOM     98  C   UNL A   1      37.382  31.776  44.074  1.00  0.00     0.001 A 
ATOM     99  C   UNL A   1      36.352  33.948  44.310  1.00  0.00     0.001 A 
ATOM    100  C   UNL A   1      36.486  32.624  44.725  1.00  0.00     0.000 A 
ENDBRANCH  76  95
BRANCH  88 101
ATOM    101  C   UNL A   1      43.437  37.922  42.114  1.00  0.00    -0.014 A 
ATOM    102  C   UNL A   1      44.628  37.399  42.641  1.00  0.00     0.009 A 
ATOM    103  C   UNL A   1      42.983  39.172  42.560  1.00  0.00     0.009 A 
ATOM    104  C   UNL A   1      45.329  38.098  43.626  1.00  0.00     0.001 A 
ATOM    105  C   UNL A   1      43.700  39.881  43.523  1.00  0.00     0.001 A 
ATOM    106  C   UNL A   1      44.866  39.339  44.063  1.00  0.00     0.000 A 
ENDBRANCH  88 101
ENDBRANCH  62  63
ENDBRANCH  55  57
ENDBRANCH  54  55
ENDBRANCH  53  54
ENDBRANCH  52  53
ENDBRANCH  51  52
ENDBRANCH  50  51
ENDBRANCH   1  50
TORSDOF 27
ENDMDL
MODEL 3
REMARK VINA RESULT:      -9.7      6.132      9.391
REMARK SMILES O=C(N[C@@H](Cc1ccc(O)cc1)C(=O)N[C@@H](Cc1c[nH]c2ccccc12)C(=O)N[C@@H](CO)C(=O)OCCOCCOC(=O)c1ccc(-c2c3nc(c(-c4ccccc4)c4ccc([nH]4)c(-c4ccccc4)c4nc(c(-c5ccccc5)c5ccc2[nH]5)C=C4)C=C3)cc1)c1ccc(F)cc1
REMARK SMILES IDX 36 1 35 2 33 3 34 4 30 5 29 6 27 7 28 8 16 10 15 11 13 12
REMARK SMILES IDX 14 13 4 15 3 16 1 17 2 18 92 20 93 21 98 22 94 23 97 24
REMARK SMILES IDX 95 25 96 26 5 27 6 28 7 29 12 30 8 31 11 32 9 33 10 34 17 36
REMARK SMILES IDX 18 37 19 38 26 39 20 40 21 41 25 42 22 44 24 45 23 46 31 47
REMARK SMILES IDX 32 48 37 50 38 51 39 52 40 53 41 54 42 55 43 56 44 57 45 58
REMARK SMILES IDX 91 59 46 60 90 61 47 62 48 63 49 64 84 65 50 66 89 67 83 68
REMARK SMILES IDX 85 69 51 70 88 71 82 72 81 73 52 75 74 76 59 77 73 78 60 79
REMARK SMILES IDX 63 80 72 81 86 82 61 83 62 84 71 86 87 87 64 88 53 89 54 90
REMARK SMILES IDX 58 91 55 92 57 93 56 94 75 95 76 96 80 97 77 98 79 99 78 100
REMARK SMILES IDX 65 101 66 102 70 103 67 104 69 105 68 106
REMARK H PARENT 29 9 15 14 3 19 10 35 20 43 32 49 85 74 63 85
REMARK Flexibility Score: inf
ROOT
ATOM      1  C   UNL A   1      35.994  30.613  28.757  1.00  0.00     0.261 C 
ENDROOT
BRANCH   1   2
ATOM      2  O   UNL A   1      35.595  29.964  27.540  1.00  0.00    -0.462 OA
BRANCH   2   3
ATOM      3  C   UNL A   1      34.287  30.104  27.187  1.00  0.00     0.331 C 
ATOM      4  O   UNL A   1      33.590  31.081  27.442  1.00  0.00    -0.250 OA
BRANCH   3   5
ATOM      5  C   UNL A   1      33.762  28.819  26.517  1.00  0.00     0.218 C 
BRANCH   5   6
ATOM      6  N   UNL A   1      32.306  28.678  26.692  1.00  0.00    -0.339 N 
ATOM      7  C   UNL A   1      31.538  27.564  26.834  1.00  0.00     0.243 C 
ATOM      8  O   UNL A   1      30.579  27.644  27.609  1.00  0.00    -0.273 OA
ATOM      9  H   UNL A   1      31.808  29.528  26.709  1.00  0.00     0.164 HD
BRANCH   7  10
ATOM     10  C   UNL A   1      31.805  26.217  26.143  1.00  0.00     0.175 C 
BRANCH  10  11
ATOM     11  N   UNL A   1      31.357  25.033  26.872  1.00  0.00    -0.342 N 
ATOM     12  C   UNL A   1      31.666  23.722  26.667  1.00  0.00     0.243 C 
ATOM     13  O   UNL A   1      31.538  22.975  27.645  1.00  0.00    -0.273 OA
ATOM     14  H   UNL A   1      30.742  25.209  27.620  1.00  0.00     0.164 HD
BRANCH  12  15
ATOM     15  C   UNL A   1      32.221  23.160  25.330  1.00  0.00     0.176 C 
BRANCH  15  16
ATOM     16  N   UNL A   1      33.684  23.188  25.214  1.00  0.00    -0.340 N 
ATOM     17  O   UNL A   1      35.708  23.626  24.358  1.00  0.00    -0.269 OA
ATOM     18  C   UNL A   1      34.489  23.716  24.238  1.00  0.00     0.251 C 
ATOM     19  H   UNL A   1      34.165  22.760  25.958  1.00  0.00     0.164 HD
BRANCH  18  20
ATOM     20  C   UNL A   1      33.923  24.289  22.998  1.00  0.00     0.040 A 
ATOM     21  C   UNL A   1      33.871  25.667  22.758  1.00  0.00     0.017 A 
ATOM     22  C   UNL A   1      33.439  23.389  22.037  1.00  0.00     0.017 A 
ATOM     23  C   UNL A   1      33.254  26.143  21.597  1.00  0.00     0.040 A 
ATOM     24  C   UNL A   1      32.841  23.869  20.871  1.00  0.00     0.040 A 
ATOM     25  C   UNL A   1      32.739  25.241  20.670  1.00  0.00     0.123 A 
ATOM     26  F   UNL A   1      32.138  25.701  19.566  1.00  0.00    -0.207 F 
ENDBRANCH  18  20
ENDBRANCH  15  16
BRANCH  15  27
ATOM     27  C   UNL A   1      31.574  21.852  24.844  1.00  0.00     0.070 C 
BRANCH  27  28
ATOM     28  C   UNL A   1      32.452  20.653  24.595  1.00  0.00    -0.045 A 
ATOM     29  C   UNL A   1      32.185  19.765  23.543  1.00  0.00     0.007 A 
ATOM     30  C   UNL A   1      33.514  20.370  25.469  1.00  0.00     0.007 A 
ATOM     31  C   UNL A   1      32.980  18.629  23.355  1.00  0.00     0.046 A 
ATOM     32  C   UNL A   1      34.295  19.229  25.291  1.00  0.00     0.046 A 
ATOM     33  C   UNL A   1      34.032  18.375  24.228  1.00  0.00     0.115 A 
BRANCH  33  34
ATOM     34  O   UNL A   1      34.856  17.300  24.060  1.00  0.00    -0.508 OA
ATOM     35  H   UNL A   1      35.385  17.232  23.290  1.00  0.00     0.293 HD
ENDBRANCH  33  34
ENDBRANCH  27  28
ENDBRANCH  15  27
ENDBRANCH  12  15
ENDBRANCH  10  11
BRANCH  10  36
ATOM     36  C   UNL A   1      31.467  26.214  24.641  1.00  0.00     0.072 C 
BRANCH  36  37
ATOM     37  C   UNL A   1      30.050  26.545  24.295  1.00  0.00    -0.020 A 
ATOM     38  C   UNL A   1      28.924  25.810  24.608  1.00  0.00     0.087 A 
ATOM     39  C   UNL A   1      29.601  27.685  23.545  1.00  0.00     0.003 A 
ATOM     40  N   UNL A   1      27.823  26.509  24.187  1.00  0.00    -0.361 N 
ATOM     41  C   UNL A   1      28.207  27.663  23.549  1.00  0.00     0.046 A 
ATOM     42  C   UNL A   1      30.250  28.756  22.890  1.00  0.00     0.010 A 
ATOM     43  H   UNL A   1      26.890  26.225  24.323  1.00  0.00     0.166 HD
ATOM     44  C   UNL A   1      27.429  28.680  22.981  1.00  0.00     0.026 A 
ATOM     45  C   UNL A   1      29.487  29.775  22.306  1.00  0.00     0.001 A 
ATOM     46  C   UNL A   1      28.097  29.744  22.368  1.00  0.00     0.002 A 
ENDBRANCH  36  37
ENDBRANCH  10  36
ENDBRANCH   7  10
ENDBRANCH   5   6
BRANCH   5  47
ATOM     47  C   UNL A   1      34.134  28.890  25.034  1.00  0.00     0.193 C 
BRANCH  47  48
ATOM     48  O   UNL A   1      33.209  29.695  24.297  1.00  0.00    -0.394 OA
ATOM     49  H   UNL A   1      33.278  30.616  24.592  1.00  0.00     0.210 HD
ENDBRANCH  47  48
ENDBRANCH   5  47
ENDBRANCH   3   5
ENDBRANCH   2   3
ENDBRANCH   1   2
BRANCH   1  50
ATOM     50  C   UNL A   1      36.725  31.916  28.418  1.00  0.00     0.202 C 
BRANCH  50  51
ATOM     51  O   UNL A   1      35.862  33.014  28.101  1.00  0.00    -0.374 OA
BRANCH  51  52
ATOM     52  C   UNL A   1      35.797  34.013  29.129  1.00  0.00     0.202 C 
BRANCH  52  53
ATOM     53  C   UNL A   1      34.761  33.653  30.195  1.00  0.00     0.261 C 
BRANCH  53  54
ATOM     54  O   UNL A   1      35.393  33.814  31.471  1.00  0.00    -0.460 OA
BRANCH  54  55
ATOM     55  C   UNL A   1      35.363  32.668  32.192  1.00  0.00     0.338 C 
ATOM     56  O   UNL A   1      34.848  31.619  31.863  1.00  0.00    -0.246 OA
BRANCH  55  57
ATOM     57  C   UNL A   1      36.229  32.837  33.381  1.00  0.00     0.060 A 
ATOM     58  C   UNL A   1      35.979  33.951  34.186  1.00  0.00     0.016 A 
ATOM     59  C   UNL A   1      37.234  31.921  33.724  1.00  0.00     0.016 A 
ATOM     60  C   UNL A   1      36.790  34.205  35.283  1.00  0.00     0.010 A 
ATOM     61  C   UNL A   1      38.041  32.169  34.833  1.00  0.00     0.010 A 
ATOM     62  C   UNL A   1      37.854  33.343  35.578  1.00  0.00    -0.014 A 
BRANCH  62  63
ATOM     63  C   UNL A   1      38.875  33.803  36.538  1.00  0.00     0.031 A 
ATOM     64  C   UNL A   1      38.759  33.350  37.965  1.00  0.00     0.074 A 
ATOM     65  C   UNL A   1      39.932  34.516  36.117  1.00  0.00     0.049 A 
ATOM     66  N   UNL A   1      39.611  33.483  38.947  1.00  0.00    -0.248 NA
ATOM     67  C   UNL A   1      37.520  32.643  38.332  1.00  0.00     0.031 C 
ATOM     68  C   UNL A   1      40.145  34.984  34.747  1.00  0.00     0.029 A 
ATOM     69  N   UNL A   1      41.038  34.946  36.799  1.00  0.00    -0.354 N 
ATOM     70  C   UNL A   1      39.018  32.863  40.040  1.00  0.00     0.074 A 
ATOM     71  C   UNL A   1      37.717  32.397  39.618  1.00  0.00     0.031 C 
ATOM     72  C   UNL A   1      41.328  35.619  34.686  1.00  0.00     0.029 A 
ATOM     73  C   UNL A   1      41.945  35.607  36.010  1.00  0.00     0.049 A 
ATOM     74  H   UNL A   1      41.170  34.794  37.764  1.00  0.00     0.167 HD
ATOM     75  C   UNL A   1      39.521  32.684  41.284  1.00  0.00     0.031 A 
ATOM     76  C   UNL A   1      43.144  36.129  36.327  1.00  0.00     0.031 A 
ATOM     77  C   UNL A   1      40.803  33.178  41.704  1.00  0.00     0.049 A 
ATOM     78  C   UNL A   1      43.659  35.963  37.730  1.00  0.00     0.074 A 
ATOM     79  C   UNL A   1      41.413  33.064  42.939  1.00  0.00     0.029 A 
ATOM     80  N   UNL A   1      41.668  33.894  40.891  1.00  0.00    -0.354 N 
ATOM     81  N   UNL A   1      43.109  35.339  38.744  1.00  0.00    -0.248 NA
ATOM     82  C   UNL A   1      44.970  36.557  38.024  1.00  0.00     0.031 C 
ATOM     83  C   UNL A   1      42.630  33.754  42.886  1.00  0.00     0.029 A 
ATOM     84  C   UNL A   1      42.798  34.252  41.603  1.00  0.00     0.049 A 
ATOM     85  H   UNL A   1      41.502  34.116  39.945  1.00  0.00     0.167 HD
ATOM     86  C   UNL A   1      44.011  35.453  39.794  1.00  0.00     0.074 A 
ATOM     87  C   UNL A   1      45.154  36.183  39.283  1.00  0.00     0.031 C 
ATOM     88  C   UNL A   1      43.908  34.998  41.068  1.00  0.00     0.031 A 
BRANCH  75  89
ATOM     89  C   UNL A   1      38.655  31.954  42.270  1.00  0.00    -0.014 A 
ATOM     90  C   UNL A   1      38.716  30.557  42.398  1.00  0.00     0.009 A 
ATOM     91  C   UNL A   1      37.755  32.671  43.073  1.00  0.00     0.009 A 
ATOM     92  C   UNL A   1      37.866  29.889  43.283  1.00  0.00     0.001 A 
ATOM     93  C   UNL A   1      36.923  32.003  43.975  1.00  0.00     0.001 A 
ATOM     94  C   UNL A   1      36.972  30.613  44.072  1.00  0.00     0.000 A 
ENDBRANCH  75  89
BRANCH  76  95
ATOM     95  C   UNL A   1      43.941  36.836  35.293  1.00  0.00    -0.014 A 
ATOM     96  C   UNL A   1      43.819  38.224  35.115  1.00  0.00     0.009 A 
ATOM     97  C   UNL A   1      44.835  36.124  34.476  1.00  0.00     0.009 A 
ATOM     98  C   UNL A   1      44.563  38.879  34.130  1.00  0.00     0.001 A 
ATOM     99  C   UNL A   1      45.595  36.785  33.510  1.00  0.00     0.001 A 
ATOM    100  C   UNL A   1      45.453  38.160  33.333  1.00  0.00     0.000 A 
ENDBRANCH  76  95
BRANCH  88 101
ATOM    101  C   UNL A   1      45.067  35.280  41.982  1.00  0.00    -0.014 A 
ATOM    102  C   UNL A   1      46.144  34.386  42.079  1.00  0.00     0.009 A 
ATOM    103  C   UNL A   1      45.088  36.462  42.735  1.00  0.00     0.009 A 
ATOM    104  C   UNL A   1      47.205  34.655  42.946  1.00  0.00     0.001 A 
ATOM    105  C   UNL A   1      46.161  36.741  43.580  1.00  0.00     0.001 A 
ATOM    106  C   UNL A   1      47.213  35.833  43.693  1.00  0.00     0.000 A 
ENDBRANCH  88 101
ENDBRANCH  62  63
ENDBRANCH  55  57
ENDBRANCH  54  55
ENDBRANCH  53  54
ENDBRANCH  52  53
ENDBRANCH  51  52
ENDBRANCH  50  51
ENDBRANCH   1  50
TORSDOF 27
ENDMDL
