MODEL 1
REMARK VINA RESULT:     -11.6      0.000      0.000
REMARK SMILES C[C@@](COc1ccccc1)(NC(=O)CN1CSCC1=O)C(=O)OCCOCCOC(=O)c1ccc(-c2c3nc(c(-c4ccccc4)c4ccc([nH]4)c(-c4ccccc4)c4nc(c(-c5ccccc5)c5ccc2[nH]5)C=C4)C=C3)cc1
REMARK SMILES IDX 25 1 24 2 23 3 21 4 22 5 2 6 1 7 3 8 4 9 5 10 6 11 10 12
REMARK SMILES IDX 7 13 9 14 8 15 11 16 12 17 13 19 14 20 15 21 16 22 19 23
REMARK SMILES IDX 17 24 18 25 20 26 26 27 27 28 28 29 29 30 30 31 31 32 32 33
REMARK SMILES IDX 33 34 79 35 34 36 78 37 35 38 36 39 37 40 72 41 38 42 77 43
REMARK SMILES IDX 71 44 73 45 39 46 76 47 70 48 69 49 40 51 62 52 47 53 61 54
REMARK SMILES IDX 48 55 51 56 60 57 74 58 49 59 50 60 59 62 75 63 52 64 41 65
REMARK SMILES IDX 42 66 46 67 43 68 45 69 44 70 63 71 64 72 68 73 65 74 67 75
REMARK SMILES IDX 66 76 53 77 54 78 58 79 55 80 57 81 56 82
REMARK H PARENT 11 18 73 50 51 61
REMARK Flexibility Score: inf
ROOT
ATOM      1  C   UNL A   1      39.236  22.407  26.856  1.00  0.00     0.202 C 
ENDROOT
BRANCH   1   2
ATOM      2  C   UNL A   1      38.433  23.467  25.928  1.00  0.00     0.261 C 
BRANCH   2   3
ATOM      3  O   UNL A   1      37.082  23.102  25.525  1.00  0.00    -0.461 OA
BRANCH   3   4
ATOM      4  C   UNL A   1      36.480  23.321  24.327  1.00  0.00     0.335 C 
ATOM      5  O   UNL A   1      37.051  23.231  23.252  1.00  0.00    -0.249 OA
BRANCH   4   6
ATOM      6  C   UNL A   1      34.917  23.348  24.527  1.00  0.00     0.169 C 
ATOM      7  C   UNL A   1      34.329  23.394  23.081  1.00  0.00     0.051 C 
BRANCH   6   8
ATOM      8  C   UNL A   1      34.378  24.654  25.197  1.00  0.00     0.269 C 
BRANCH   8   9
ATOM      9  O   UNL A   1      34.188  25.712  24.190  1.00  0.00    -0.491 OA
BRANCH   9  10
ATOM     10  C   UNL A   1      33.716  26.914  24.658  1.00  0.00     0.119 A 
ATOM     11  C   UNL A   1      33.587  27.154  26.022  1.00  0.00     0.046 A 
ATOM     12  C   UNL A   1      33.303  27.892  23.744  1.00  0.00     0.046 A 
ATOM     13  C   UNL A   1      33.139  28.402  26.470  1.00  0.00     0.004 A 
ATOM     14  C   UNL A   1      32.899  29.155  24.192  1.00  0.00     0.004 A 
ATOM     15  C   UNL A   1      32.824  29.411  25.558  1.00  0.00     0.000 A 
ENDBRANCH   9  10
ENDBRANCH   8   9
ENDBRANCH   6   8
BRANCH   6  16
ATOM     16  N   UNL A   1      34.327  22.245  25.404  1.00  0.00    -0.336 N 
ATOM     17  C   UNL A   1      33.201  21.541  25.668  1.00  0.00     0.240 C 
ATOM     18  H   UNL A   1      35.036  21.922  26.007  1.00  0.00     0.164 HD
ATOM     19  O   UNL A   1      33.247  20.860  26.702  1.00  0.00    -0.273 OA
BRANCH  17  20
ATOM     20  C   UNL A   1      31.926  21.541  24.823  1.00  0.00     0.220 C 
BRANCH  20  21
ATOM     21  N   UNL A   1      31.293  22.866  24.895  1.00  0.00    -0.323 N 
ATOM     22  C   UNL A   1      30.779  23.742  23.278  1.00  0.00     0.190 C 
ATOM     23  C   UNL A   1      30.883  23.776  26.436  1.00  0.00     0.233 C 
ATOM     24  S   UNL A   1      30.085  25.929  23.738  1.00  0.00    -0.130 SA
ATOM     25  C   UNL A   1      30.224  25.618  26.068  1.00  0.00     0.171 C 
ATOM     26  O   UNL A   1      30.900  23.344  27.575  1.00  0.00    -0.274 OA
ENDBRANCH  20  21
ENDBRANCH  17  20
ENDBRANCH   6  16
ENDBRANCH   4   6
ENDBRANCH   3   4
ENDBRANCH   2   3
ENDBRANCH   1   2
BRANCH   1  27
ATOM     27  O   UNL A   1      40.196  21.164  26.348  1.00  0.00    -0.374 OA
BRANCH  27  28
ATOM     28  C   UNL A   1      42.131  20.656  26.206  1.00  0.00     0.202 C 
BRANCH  28  29
ATOM     29  C   UNL A   1      43.467  21.406  25.376  1.00  0.00     0.261 C 
BRANCH  29  30
ATOM     30  O   UNL A   1      43.273  22.597  24.559  1.00  0.00    -0.460 OA
BRANCH  30  31
ATOM     31  C   UNL A   1      43.982  23.745  24.770  1.00  0.00     0.338 C 
ATOM     32  O   UNL A   1      45.101  23.971  24.344  1.00  0.00    -0.246 OA
BRANCH  31  33
ATOM     33  C   UNL A   1      43.164  24.765  25.546  1.00  0.00     0.060 A 
ATOM     34  C   UNL A   1      43.353  26.158  25.409  1.00  0.00     0.016 A 
ATOM     35  C   UNL A   1      42.240  24.341  26.499  1.00  0.00     0.016 A 
ATOM     36  C   UNL A   1      42.696  27.100  26.222  1.00  0.00     0.010 A 
ATOM     37  C   UNL A   1      41.597  25.281  27.337  1.00  0.00     0.010 A 
ATOM     38  C   UNL A   1      41.857  26.665  27.244  1.00  0.00    -0.014 A 
BRANCH  38  39
ATOM     39  C   UNL A   1      41.485  27.574  28.376  1.00  0.00     0.031 A 
ATOM     40  C   UNL A   1      42.282  27.458  29.659  1.00  0.00     0.074 A 
ATOM     41  C   UNL A   1      40.490  28.483  28.322  1.00  0.00     0.049 A 
ATOM     42  N   UNL A   1      42.059  27.988  30.836  1.00  0.00    -0.248 NA
ATOM     43  C   UNL A   1      43.489  26.618  29.597  1.00  0.00     0.031 C 
ATOM     44  C   UNL A   1      39.685  28.806  27.147  1.00  0.00     0.029 A 
ATOM     45  N   UNL A   1      39.971  29.293  29.312  1.00  0.00    -0.354 N 
ATOM     46  C   UNL A   1      43.076  27.517  31.661  1.00  0.00     0.074 A 
ATOM     47  C   UNL A   1      43.905  26.647  30.853  1.00  0.00     0.031 C 
ATOM     48  C   UNL A   1      38.759  29.721  27.489  1.00  0.00     0.029 A 
ATOM     49  C   UNL A   1      38.870  30.019  28.919  1.00  0.00     0.049 A 
ATOM     50  H   UNL A   1      40.355  29.346  30.217  1.00  0.00     0.167 HD
ATOM     51  C   UNL A   1      43.308  27.774  32.971  1.00  0.00     0.031 A 
ATOM     52  C   UNL A   1      38.028  30.802  29.628  1.00  0.00     0.031 A 
ATOM     53  C   UNL A   1      42.496  28.631  33.793  1.00  0.00     0.049 A 
ATOM     54  C   UNL A   1      38.238  30.989  31.115  1.00  0.00     0.074 A 
ATOM     55  C   UNL A   1      42.659  28.947  35.131  1.00  0.00     0.029 A 
ATOM     56  N   UNL A   1      41.369  29.307  33.357  1.00  0.00    -0.354 N 
ATOM     57  N   UNL A   1      39.192  30.527  31.884  1.00  0.00    -0.248 NA
ATOM     58  C   UNL A   1      37.246  31.813  31.830  1.00  0.00     0.031 C 
ATOM     59  C   UNL A   1      41.595  29.766  35.521  1.00  0.00     0.029 A 
ATOM     60  C   UNL A   1      40.812  30.018  34.407  1.00  0.00     0.049 A 
ATOM     61  H   UNL A   1      41.017  29.286  32.437  1.00  0.00     0.167 HD
ATOM     62  C   UNL A   1      38.940  31.033  33.156  1.00  0.00     0.074 A 
ATOM     63  C   UNL A   1      37.748  31.848  33.056  1.00  0.00     0.031 C 
ATOM     64  C   UNL A   1      39.635  30.840  34.303  1.00  0.00     0.031 A 
BRANCH  51  65
ATOM     65  C   UNL A   1      44.477  27.080  33.618  1.00  0.00    -0.014 A 
ATOM     66  C   UNL A   1      44.349  25.804  34.187  1.00  0.00     0.009 A 
ATOM     67  C   UNL A   1      45.737  27.701  33.618  1.00  0.00     0.009 A 
ATOM     68  C   UNL A   1      45.453  25.179  34.775  1.00  0.00     0.001 A 
ATOM     69  C   UNL A   1      46.845  27.059  34.176  1.00  0.00     0.001 A 
ATOM     70  C   UNL A   1      46.699  25.804  34.762  1.00  0.00     0.000 A 
ENDBRANCH  51  65
BRANCH  52  71
ATOM     71  C   UNL A   1      36.858  31.452  28.968  1.00  0.00    -0.014 A 
ATOM     72  C   UNL A   1      36.900  32.809  28.606  1.00  0.00     0.009 A 
ATOM     73  C   UNL A   1      35.667  30.739  28.760  1.00  0.00     0.009 A 
ATOM     74  C   UNL A   1      35.769  33.440  28.077  1.00  0.00     0.001 A 
ATOM     75  C   UNL A   1      34.549  31.362  28.199  1.00  0.00     0.001 A 
ATOM     76  C   UNL A   1      34.598  32.715  27.869  1.00  0.00     0.000 A 
ENDBRANCH  52  71
BRANCH  64  77
ATOM     77  C   UNL A   1      39.173  31.568  35.539  1.00  0.00    -0.014 A 
ATOM     78  C   UNL A   1      39.630  32.859  35.850  1.00  0.00     0.009 A 
ATOM     79  C   UNL A   1      38.222  30.968  36.381  1.00  0.00     0.009 A 
ATOM     80  C   UNL A   1      39.170  33.516  36.995  1.00  0.00     0.001 A 
ATOM     81  C   UNL A   1      37.741  31.639  37.506  1.00  0.00     0.001 A 
ATOM     82  C   UNL A   1      38.223  32.908  37.819  1.00  0.00     0.000 A 
ENDBRANCH  64  77
ENDBRANCH  38  39
ENDBRANCH  31  33
ENDBRANCH  30  31
ENDBRANCH  29  30
ENDBRANCH  28  29
ENDBRANCH  27  28
ENDBRANCH   1  27
TORSDOF 20
ENDMDL
MODEL 2
REMARK VINA RESULT:     -11.2      3.328      8.709
REMARK SMILES C[C@@](COc1ccccc1)(NC(=O)CN1CSCC1=O)C(=O)OCCOCCOC(=O)c1ccc(-c2c3nc(c(-c4ccccc4)c4ccc([nH]4)c(-c4ccccc4)c4nc(c(-c5ccccc5)c5ccc2[nH]5)C=C4)C=C3)cc1
REMARK SMILES IDX 25 1 24 2 23 3 21 4 22 5 2 6 1 7 3 8 4 9 5 10 6 11 10 12
REMARK SMILES IDX 7 13 9 14 8 15 11 16 12 17 13 19 14 20 15 21 16 22 19 23
REMARK SMILES IDX 17 24 18 25 20 26 26 27 27 28 28 29 29 30 30 31 31 32 32 33
REMARK SMILES IDX 33 34 79 35 34 36 78 37 35 38 36 39 37 40 72 41 38 42 77 43
REMARK SMILES IDX 71 44 73 45 39 46 76 47 70 48 69 49 40 51 62 52 47 53 61 54
REMARK SMILES IDX 48 55 51 56 60 57 74 58 49 59 50 60 59 62 75 63 52 64 41 65
REMARK SMILES IDX 42 66 46 67 43 68 45 69 44 70 63 71 64 72 68 73 65 74 67 75
REMARK SMILES IDX 66 76 53 77 54 78 58 79 55 80 57 81 56 82
REMARK H PARENT 11 18 73 50 51 61
REMARK Flexibility Score: inf
ROOT
ATOM      1  C   UNL A   1      34.806  30.723  27.997  1.00  0.00     0.202 C 
ENDROOT
BRANCH   1   2
ATOM      2  C   UNL A   1      34.363  30.080  26.576  1.00  0.00     0.261 C 
BRANCH   2   3
ATOM      3  O   UNL A   1      32.964  29.700  26.430  1.00  0.00    -0.461 OA
BRANCH   3   4
ATOM      4  C   UNL A   1      32.398  28.963  25.440  1.00  0.00     0.335 C 
ATOM      5  O   UNL A   1      32.544  29.196  24.250  1.00  0.00    -0.249 OA
BRANCH   4   6
ATOM      6  C   UNL A   1      31.854  27.611  26.042  1.00  0.00     0.169 C 
ATOM      7  C   UNL A   1      31.720  27.880  27.574  1.00  0.00     0.051 C 
BRANCH   6   8
ATOM      8  C   UNL A   1      32.862  26.419  25.953  1.00  0.00     0.269 C 
BRANCH   8   9
ATOM      9  O   UNL A   1      32.234  25.174  26.426  1.00  0.00    -0.491 OA
BRANCH   9  10
ATOM     10  C   UNL A   1      33.056  24.077  26.509  1.00  0.00     0.119 A 
ATOM     11  C   UNL A   1      32.599  22.875  27.038  1.00  0.00     0.046 A 
ATOM     12  C   UNL A   1      34.394  24.190  26.108  1.00  0.00     0.046 A 
ATOM     13  C   UNL A   1      33.449  21.763  27.076  1.00  0.00     0.004 A 
ATOM     14  C   UNL A   1      35.229  23.067  26.103  1.00  0.00     0.004 A 
ATOM     15  C   UNL A   1      34.752  21.850  26.582  1.00  0.00     0.000 A 
ENDBRANCH   9  10
ENDBRANCH   8   9
ENDBRANCH   6   8
BRANCH   6  16
ATOM     16  N   UNL A   1      30.592  27.043  25.397  1.00  0.00    -0.336 N 
ATOM     17  C   UNL A   1      30.026  26.699  24.215  1.00  0.00     0.240 C 
ATOM     18  H   UNL A   1      29.942  26.855  26.112  1.00  0.00     0.164 HD
ATOM     19  O   UNL A   1      28.811  26.464  24.273  1.00  0.00    -0.273 OA
BRANCH  17  20
ATOM     20  C   UNL A   1      30.748  26.600  22.871  1.00  0.00     0.220 C 
BRANCH  20  21
ATOM     21  N   UNL A   1      31.529  25.355  22.827  1.00  0.00    -0.323 N 
ATOM     22  C   UNL A   1      30.657  23.696  23.196  1.00  0.00     0.190 C 
ATOM     23  C   UNL A   1      33.305  25.218  22.386  1.00  0.00     0.233 C 
ATOM     24  S   UNL A   1      32.237  21.974  23.329  1.00  0.00    -0.130 SA
ATOM     25  C   UNL A   1      34.006  23.374  22.652  1.00  0.00     0.171 C 
ATOM     26  O   UNL A   1      34.014  26.082  21.900  1.00  0.00    -0.274 OA
ENDBRANCH  20  21
ENDBRANCH  17  20
ENDBRANCH   6  16
ENDBRANCH   4   6
ENDBRANCH   3   4
ENDBRANCH   2   3
ENDBRANCH   1   2
BRANCH   1  27
ATOM     27  O   UNL A   1      34.209  32.091  28.702  1.00  0.00    -0.374 OA
BRANCH  27  28
ATOM     28  C   UNL A   1      34.395  34.086  28.620  1.00  0.00     0.202 C 
BRANCH  28  29
ATOM     29  C   UNL A   1      33.370  35.371  29.199  1.00  0.00     0.261 C 
BRANCH  29  30
ATOM     30  O   UNL A   1      32.479  35.169  30.335  1.00  0.00    -0.460 OA
BRANCH  30  31
ATOM     31  C   UNL A   1      32.700  35.762  31.545  1.00  0.00     0.338 C 
ATOM     32  O   UNL A   1      32.049  36.684  32.006  1.00  0.00    -0.246 OA
BRANCH  31  33
ATOM     33  C   UNL A   1      33.822  35.072  32.303  1.00  0.00     0.060 A 
ATOM     34  C   UNL A   1      35.117  35.625  32.419  1.00  0.00     0.016 A 
ATOM     35  C   UNL A   1      33.623  33.804  32.846  1.00  0.00     0.016 A 
ATOM     36  C   UNL A   1      36.194  34.930  33.000  1.00  0.00     0.010 A 
ATOM     37  C   UNL A   1      34.707  33.091  33.407  1.00  0.00     0.010 A 
ATOM     38  C   UNL A   1      36.013  33.622  33.443  1.00  0.00    -0.014 A 
BRANCH  38  39
ATOM     39  C   UNL A   1      37.186  32.715  33.663  1.00  0.00     0.031 A 
ATOM     40  C   UNL A   1      37.989  32.903  34.933  1.00  0.00     0.074 A 
ATOM     41  C   UNL A   1      37.568  31.749  32.802  1.00  0.00     0.049 A 
ATOM     42  N   UNL A   1      39.140  32.384  35.283  1.00  0.00    -0.248 NA
ATOM     43  C   UNL A   1      37.409  33.810  35.936  1.00  0.00     0.031 C 
ATOM     44  C   UNL A   1      36.863  31.356  31.584  1.00  0.00     0.029 A 
ATOM     45  N   UNL A   1      38.678  30.929  32.821  1.00  0.00    -0.354 N 
ATOM     46  C   UNL A   1      39.437  32.930  36.528  1.00  0.00     0.074 A 
ATOM     47  C   UNL A   1      38.355  33.831  36.863  1.00  0.00     0.031 C 
ATOM     48  C   UNL A   1      37.571  30.395  30.961  1.00  0.00     0.029 A 
ATOM     49  C   UNL A   1      38.803  30.132  31.707  1.00  0.00     0.049 A 
ATOM     50  H   UNL A   1      39.322  30.916  33.566  1.00  0.00     0.167 HD
ATOM     51  C   UNL A   1      40.510  32.713  37.327  1.00  0.00     0.031 A 
ATOM     52  C   UNL A   1      39.804  29.316  31.312  1.00  0.00     0.031 A 
ATOM     53  C   UNL A   1      41.598  31.826  37.012  1.00  0.00     0.049 A 
ATOM     54  C   UNL A   1      41.046  29.171  32.164  1.00  0.00     0.074 A 
ATOM     55  C   UNL A   1      42.726  31.547  37.765  1.00  0.00     0.029 A 
ATOM     56  N   UNL A   1      41.697  31.076  35.852  1.00  0.00    -0.354 N 
ATOM     57  N   UNL A   1      41.321  29.703  33.328  1.00  0.00    -0.248 NA
ATOM     58  C   UNL A   1      42.117  28.304  31.639  1.00  0.00     0.031 C 
ATOM     59  C   UNL A   1      43.537  30.674  37.033  1.00  0.00     0.029 A 
ATOM     60  C   UNL A   1      42.878  30.355  35.858  1.00  0.00     0.049 A 
ATOM     61  H   UNL A   1      41.026  31.059  35.131  1.00  0.00     0.167 HD
ATOM     62  C   UNL A   1      42.570  29.208  33.692  1.00  0.00     0.074 A 
ATOM     63  C   UNL A   1      42.997  28.323  32.630  1.00  0.00     0.031 C 
ATOM     64  C   UNL A   1      43.297  29.463  34.807  1.00  0.00     0.031 A 
BRANCH  51  65
ATOM     65  C   UNL A   1      40.583  33.486  38.616  1.00  0.00    -0.014 A 
ATOM     66  C   UNL A   1      39.982  33.010  39.791  1.00  0.00     0.009 A 
ATOM     67  C   UNL A   1      41.302  34.692  38.661  1.00  0.00     0.009 A 
ATOM     68  C   UNL A   1      40.072  33.744  40.978  1.00  0.00     0.001 A 
ATOM     69  C   UNL A   1      41.417  35.406  39.856  1.00  0.00     0.001 A 
ATOM     70  C   UNL A   1      40.794  34.936  41.009  1.00  0.00     0.000 A 
ENDBRANCH  51  65
BRANCH  52  71
ATOM     71  C   UNL A   1      39.721  28.585  30.013  1.00  0.00    -0.014 A 
ATOM     72  C   UNL A   1      39.325  27.238  29.970  1.00  0.00     0.009 A 
ATOM     73  C   UNL A   1      40.104  29.210  28.815  1.00  0.00     0.009 A 
ATOM     74  C   UNL A   1      39.341  26.529  28.765  1.00  0.00     0.001 A 
ATOM     75  C   UNL A   1      40.085  28.510  27.606  1.00  0.00     0.001 A 
ATOM     76  C   UNL A   1      39.715  27.166  27.584  1.00  0.00     0.000 A 
ENDBRANCH  52  71
BRANCH  64  77
ATOM     77  C   UNL A   1      44.603  28.734  34.980  1.00  0.00    -0.014 A 
ATOM     78  C   UNL A   1      44.669  27.470  35.587  1.00  0.00     0.009 A 
ATOM     79  C   UNL A   1      45.786  29.304  34.480  1.00  0.00     0.009 A 
ATOM     80  C   UNL A   1      45.895  26.810  35.719  1.00  0.00     0.001 A 
ATOM     81  C   UNL A   1      47.003  28.629  34.584  1.00  0.00     0.001 A 
ATOM     82  C   UNL A   1      47.059  27.388  35.213  1.00  0.00     0.000 A 
ENDBRANCH  64  77
ENDBRANCH  38  39
ENDBRANCH  31  33
ENDBRANCH  30  31
ENDBRANCH  29  30
ENDBRANCH  28  29
ENDBRANCH  27  28
ENDBRANCH   1  27
TORSDOF 20
ENDMDL
MODEL 3
REMARK VINA RESULT:     -11.2      3.537      8.600
REMARK SMILES C[C@@](COc1ccccc1)(NC(=O)CN1CSCC1=O)C(=O)OCCOCCOC(=O)c1ccc(-c2c3nc(c(-c4ccccc4)c4ccc([nH]4)c(-c4ccccc4)c4nc(c(-c5ccccc5)c5ccc2[nH]5)C=C4)C=C3)cc1
REMARK SMILES IDX 25 1 24 2 23 3 21 4 22 5 2 6 1 7 3 8 4 9 5 10 6 11 10 12
REMARK SMILES IDX 7 13 9 14 8 15 11 16 12 17 13 19 14 20 15 21 16 22 19 23
REMARK SMILES IDX 17 24 18 25 20 26 26 27 27 28 28 29 29 30 30 31 31 32 32 33
REMARK SMILES IDX 33 34 79 35 34 36 78 37 35 38 36 39 37 40 72 41 38 42 77 43
REMARK SMILES IDX 71 44 73 45 39 46 76 47 70 48 69 49 40 51 62 52 47 53 61 54
REMARK SMILES IDX 48 55 51 56 60 57 74 58 49 59 50 60 59 62 75 63 52 64 41 65
REMARK SMILES IDX 42 66 46 67 43 68 45 69 44 70 63 71 64 72 68 73 65 74 67 75
REMARK SMILES IDX 66 76 53 77 54 78 58 79 55 80 57 81 56 82
REMARK H PARENT 11 18 73 50 51 61
REMARK Flexibility Score: inf
ROOT
ATOM      1  C   UNL A   1      34.738  30.545  27.893  1.00  0.00     0.202 C 
ENDROOT
BRANCH   1   2
ATOM      2  C   UNL A   1      34.879  29.542  26.627  1.00  0.00     0.261 C 
BRANCH   2   3
ATOM      3  O   UNL A   1      33.647  29.124  25.973  1.00  0.00    -0.461 OA
BRANCH   3   4
ATOM      4  C   UNL A   1      33.224  27.859  25.718  1.00  0.00     0.335 C 
ATOM      5  O   UNL A   1      33.380  26.922  26.485  1.00  0.00    -0.249 OA
BRANCH   4   6
ATOM      6  C   UNL A   1      32.225  27.879  24.499  1.00  0.00     0.169 C 
ATOM      7  C   UNL A   1      33.071  27.392  23.280  1.00  0.00     0.051 C 
BRANCH   6   8
ATOM      8  C   UNL A   1      31.749  29.308  24.083  1.00  0.00     0.269 C 
BRANCH   8   9
ATOM      9  O   UNL A   1      30.320  29.487  24.386  1.00  0.00    -0.491 OA
BRANCH   9  10
ATOM     10  C   UNL A   1      29.614  30.286  23.520  1.00  0.00     0.119 A 
ATOM     11  C   UNL A   1      29.063  31.492  23.940  1.00  0.00     0.046 A 
ATOM     12  C   UNL A   1      29.396  29.850  22.206  1.00  0.00     0.046 A 
ATOM     13  C   UNL A   1      28.381  32.303  23.026  1.00  0.00     0.004 A 
ATOM     14  C   UNL A   1      28.755  30.682  21.281  1.00  0.00     0.004 A 
ATOM     15  C   UNL A   1      28.253  31.913  21.691  1.00  0.00     0.000 A 
ENDBRANCH   9  10
ENDBRANCH   8   9
ENDBRANCH   6   8
BRANCH   6  16
ATOM     16  N   UNL A   1      30.912  27.121  24.687  1.00  0.00    -0.336 N 
ATOM     17  C   UNL A   1      30.282  25.946  24.447  1.00  0.00     0.240 C 
ATOM     18  H   UNL A   1      30.285  27.711  25.165  1.00  0.00     0.164 HD
ATOM     19  O   UNL A   1      29.061  25.962  24.657  1.00  0.00    -0.273 OA
BRANCH  17  20
ATOM     20  C   UNL A   1      30.942  24.663  23.942  1.00  0.00     0.220 C 
BRANCH  20  21
ATOM     21  N   UNL A   1      31.815  24.117  24.991  1.00  0.00    -0.323 N 
ATOM     22  C   UNL A   1      33.701  24.056  24.695  1.00  0.00     0.190 C 
ATOM     23  C   UNL A   1      31.267  23.518  26.637  1.00  0.00     0.233 C 
ATOM     24  S   UNL A   1      34.744  22.872  26.424  1.00  0.00    -0.130 SA
ATOM     25  C   UNL A   1      32.751  22.677  27.663  1.00  0.00     0.171 C 
ATOM     26  O   UNL A   1      30.170  23.659  27.147  1.00  0.00    -0.274 OA
ENDBRANCH  20  21
ENDBRANCH  17  20
ENDBRANCH   6  16
ENDBRANCH   4   6
ENDBRANCH   3   4
ENDBRANCH   2   3
ENDBRANCH   1   2
BRANCH   1  27
ATOM     27  O   UNL A   1      34.169  32.095  27.879  1.00  0.00    -0.374 OA
BRANCH  27  28
ATOM     28  C   UNL A   1      34.398  33.840  28.840  1.00  0.00     0.202 C 
BRANCH  28  29
ATOM     29  C   UNL A   1      33.263  35.100  29.240  1.00  0.00     0.261 C 
BRANCH  29  30
ATOM     30  O   UNL A   1      32.423  35.008  30.427  1.00  0.00    -0.460 OA
BRANCH  30  31
ATOM     31  C   UNL A   1      32.708  35.695  31.573  1.00  0.00     0.338 C 
ATOM     32  O   UNL A   1      32.095  36.666  31.982  1.00  0.00    -0.246 OA
BRANCH  31  33
ATOM     33  C   UNL A   1      33.849  35.045  32.338  1.00  0.00     0.060 A 
ATOM     34  C   UNL A   1      35.148  35.600  32.387  1.00  0.00     0.016 A 
ATOM     35  C   UNL A   1      33.663  33.811  32.956  1.00  0.00     0.016 A 
ATOM     36  C   UNL A   1      36.239  34.936  32.977  1.00  0.00     0.010 A 
ATOM     37  C   UNL A   1      34.762  33.127  33.527  1.00  0.00     0.010 A 
ATOM     38  C   UNL A   1      36.069  33.656  33.497  1.00  0.00    -0.014 A 
BRANCH  38  39
ATOM     39  C   UNL A   1      37.246  32.759  33.736  1.00  0.00     0.031 A 
ATOM     40  C   UNL A   1      38.027  32.954  35.019  1.00  0.00     0.074 A 
ATOM     41  C   UNL A   1      37.650  31.796  32.882  1.00  0.00     0.049 A 
ATOM     42  N   UNL A   1      39.177  32.446  35.387  1.00  0.00    -0.248 NA
ATOM     43  C   UNL A   1      37.423  33.857  36.012  1.00  0.00     0.031 C 
ATOM     44  C   UNL A   1      36.968  31.396  31.653  1.00  0.00     0.029 A 
ATOM     45  N   UNL A   1      38.767  30.986  32.919  1.00  0.00    -0.354 N 
ATOM     46  C   UNL A   1      39.450  32.995  36.636  1.00  0.00     0.074 A 
ATOM     47  C   UNL A   1      38.354  33.886  36.954  1.00  0.00     0.031 C 
ATOM     48  C   UNL A   1      37.694  30.442  31.042  1.00  0.00     0.029 A 
ATOM     49  C   UNL A   1      38.916  30.190  31.807  1.00  0.00     0.049 A 
ATOM     50  H   UNL A   1      39.399  30.979  33.674  1.00  0.00     0.167 HD
ATOM     51  C   UNL A   1      40.512  32.787  37.452  1.00  0.00     0.031 A 
ATOM     52  C   UNL A   1      39.931  29.382  31.428  1.00  0.00     0.031 A 
ATOM     53  C   UNL A   1      41.612  31.910  37.155  1.00  0.00     0.049 A 
ATOM     54  C   UNL A   1      41.160  29.248  32.300  1.00  0.00     0.074 A 
ATOM     55  C   UNL A   1      42.730  31.641  37.926  1.00  0.00     0.029 A 
ATOM     56  N   UNL A   1      41.736  31.161  35.998  1.00  0.00    -0.354 N 
ATOM     57  N   UNL A   1      41.412  29.783  33.469  1.00  0.00    -0.248 NA
ATOM     58  C   UNL A   1      42.247  28.391  31.793  1.00  0.00     0.031 C 
ATOM     59  C   UNL A   1      43.561  30.775  37.207  1.00  0.00     0.029 A 
ATOM     60  C   UNL A   1      42.924  30.450  36.022  1.00  0.00     0.049 A 
ATOM     61  H   UNL A   1      41.076  31.137  35.266  1.00  0.00     0.167 HD
ATOM     62  C   UNL A   1      42.660  29.300  33.852  1.00  0.00     0.074 A 
ATOM     63  C   UNL A   1      43.111  28.418  32.798  1.00  0.00     0.031 C 
ATOM     64  C   UNL A   1      43.366  29.562  34.979  1.00  0.00     0.031 A 
BRANCH  51  65
ATOM     65  C   UNL A   1      40.557  33.562  38.742  1.00  0.00    -0.014 A 
ATOM     66  C   UNL A   1      41.204  34.803  38.830  1.00  0.00     0.009 A 
ATOM     67  C   UNL A   1      39.903  33.055  39.877  1.00  0.00     0.009 A 
ATOM     68  C   UNL A   1      41.225  35.506  40.038  1.00  0.00     0.001 A 
ATOM     69  C   UNL A   1      39.897  33.775  41.074  1.00  0.00     0.001 A 
ATOM     70  C   UNL A   1      40.566  34.994  41.155  1.00  0.00     0.000 A 
ENDBRANCH  51  65
BRANCH  52  71
ATOM     71  C   UNL A   1      39.874  28.650  30.129  1.00  0.00    -0.014 A 
ATOM     72  C   UNL A   1      40.292  29.267  28.937  1.00  0.00     0.009 A 
ATOM     73  C   UNL A   1      39.337  27.355  30.061  1.00  0.00     0.009 A 
ATOM     74  C   UNL A   1      40.148  28.615  27.709  1.00  0.00     0.001 A 
ATOM     75  C   UNL A   1      39.225  26.691  28.836  1.00  0.00     0.001 A 
ATOM     76  C   UNL A   1      39.620  27.326  27.660  1.00  0.00     0.000 A 
ENDBRANCH  52  71
BRANCH  64  77
ATOM     77  C   UNL A   1      44.676  28.844  35.172  1.00  0.00    -0.014 A 
ATOM     78  C   UNL A   1      45.874  29.333  34.627  1.00  0.00     0.009 A 
ATOM     79  C   UNL A   1      44.719  27.681  35.960  1.00  0.00     0.009 A 
ATOM     80  C   UNL A   1      47.078  28.653  34.838  1.00  0.00     0.001 A 
ATOM     81  C   UNL A   1      45.927  27.023  36.195  1.00  0.00     0.001 A 
ATOM     82  C   UNL A   1      47.104  27.502  35.626  1.00  0.00     0.000 A 
ENDBRANCH  64  77
ENDBRANCH  38  39
ENDBRANCH  31  33
ENDBRANCH  30  31
ENDBRANCH  29  30
ENDBRANCH  28  29
ENDBRANCH  27  28
ENDBRANCH   1  27
TORSDOF 20
ENDMDL
