MODEL 1
REMARK VINA RESULT:     -10.5      0.000      0.000
REMARK SMILES O=C(OCCOCCOC(=O)[C@H]1CS[C@]2(c3ccccc3)CCC(=O)N12)c1ccc(-c2c3nc(c(-c4ccccc4)c4ccc([nH]4)c(-c4ccccc4)c4nc(c(-c5ccccc5)c5ccc2[nH]5)C=C4)C=C3)cc1
REMARK SMILES IDX 5 1 4 2 3 3 2 4 1 5 27 6 28 7 74 8 29 9 73 10 30 11 31 12
REMARK SMILES IDX 32 13 67 14 33 15 72 16 66 17 68 18 34 19 71 20 65 21 64 22
REMARK SMILES IDX 35 24 57 25 42 26 56 27 43 28 46 29 55 30 69 31 44 32 45 33
REMARK SMILES IDX 54 35 70 36 47 37 36 38 37 39 41 40 38 41 40 42 39 43 58 44
REMARK SMILES IDX 59 45 63 46 60 47 62 48 61 49 48 50 49 51 53 52 50 53 52 54
REMARK SMILES IDX 51 55 6 56 7 57 8 58 9 59 10 60 11 61 12 62 13 63 26 64
REMARK SMILES IDX 14 65 15 66 24 67 22 68 23 69 25 70 16 71 17 72 21 73 18 74
REMARK SMILES IDX 20 75 19 76
REMARK H PARENT 68 23 46 34
REMARK Flexibility Score: inf
ROOT
ATOM      1  C   UNL A   1      32.263  30.805  26.529  1.00  0.00     0.202 C 
ENDROOT
BRANCH   1   2
ATOM      2  C   UNL A   1      31.453  32.022  26.966  1.00  0.00     0.261 C 
BRANCH   2   3
ATOM      3  O   UNL A   1      32.279  33.195  26.886  1.00  0.00    -0.460 OA
BRANCH   3   4
ATOM      4  C   UNL A   1      32.937  33.807  27.893  1.00  0.00     0.338 C 
ATOM      5  O   UNL A   1      32.408  34.764  28.456  1.00  0.00    -0.246 OA
BRANCH   4   6
ATOM      6  C   UNL A   1      34.257  33.346  28.411  1.00  0.00     0.060 A 
ATOM      7  C   UNL A   1      35.500  33.862  28.032  1.00  0.00     0.016 A 
ATOM      8  C   UNL A   1      34.216  32.403  29.450  1.00  0.00     0.016 A 
ATOM      9  C   UNL A   1      36.674  33.434  28.635  1.00  0.00     0.010 A 
ATOM     10  C   UNL A   1      35.388  31.987  30.082  1.00  0.00     0.010 A 
ATOM     11  C   UNL A   1      36.621  32.503  29.667  1.00  0.00    -0.014 A 
BRANCH  11  12
ATOM     12  C   UNL A   1      37.882  32.029  30.252  1.00  0.00     0.031 A 
ATOM     13  C   UNL A   1      38.543  30.836  29.642  1.00  0.00     0.074 A 
ATOM     14  C   UNL A   1      38.444  32.718  31.261  1.00  0.00     0.049 A 
ATOM     15  N   UNL A   1      39.597  30.182  30.044  1.00  0.00    -0.248 NA
ATOM     16  C   UNL A   1      37.936  30.312  28.406  1.00  0.00     0.031 C 
ATOM     17  C   UNL A   1      37.918  33.962  31.829  1.00  0.00     0.029 A 
ATOM     18  N   UNL A   1      39.586  32.480  31.974  1.00  0.00    -0.354 N 
ATOM     19  C   UNL A   1      39.758  29.146  29.134  1.00  0.00     0.074 A 
ATOM     20  C   UNL A   1      38.702  29.262  28.155  1.00  0.00     0.031 C 
ATOM     21  C   UNL A   1      38.746  34.383  32.799  1.00  0.00     0.029 A 
ATOM     22  C   UNL A   1      39.813  33.404  32.966  1.00  0.00     0.049 A 
ATOM     23  H   UNL A   1      40.188  31.722  31.795  1.00  0.00     0.167 HD
ATOM     24  C   UNL A   1      40.697  28.174  29.141  1.00  0.00     0.031 A 
ATOM     25  C   UNL A   1      40.755  33.419  33.926  1.00  0.00     0.031 A 
ATOM     26  C   UNL A   1      41.725  28.084  30.142  1.00  0.00     0.049 A 
ATOM     27  C   UNL A   1      41.732  32.275  33.965  1.00  0.00     0.074 A 
ATOM     28  C   UNL A   1      42.707  27.124  30.291  1.00  0.00     0.029 A 
ATOM     29  N   UNL A   1      41.891  29.001  31.170  1.00  0.00    -0.354 N 
ATOM     30  N   UNL A   1      41.852  31.264  33.135  1.00  0.00    -0.248 NA
ATOM     31  C   UNL A   1      42.683  32.255  35.082  1.00  0.00     0.031 C 
ATOM     32  C   UNL A   1      43.438  27.435  31.443  1.00  0.00     0.029 A 
ATOM     33  C   UNL A   1      42.942  28.616  31.980  1.00  0.00     0.049 A 
ATOM     34  H   UNL A   1      41.341  29.806  31.304  1.00  0.00     0.167 HD
ATOM     35  C   UNL A   1      42.895  30.493  33.624  1.00  0.00     0.074 A 
ATOM     36  C   UNL A   1      43.390  31.167  34.808  1.00  0.00     0.031 C 
ATOM     37  C   UNL A   1      43.396  29.326  33.149  1.00  0.00     0.031 A 
BRANCH  24  38
ATOM     38  C   UNL A   1      40.579  27.104  28.096  1.00  0.00    -0.014 A 
ATOM     39  C   UNL A   1      41.221  27.209  26.852  1.00  0.00     0.009 A 
ATOM     40  C   UNL A   1      39.776  25.982  28.354  1.00  0.00     0.009 A 
ATOM     41  C   UNL A   1      41.028  26.229  25.874  1.00  0.00     0.001 A 
ATOM     42  C   UNL A   1      39.604  24.993  27.384  1.00  0.00     0.001 A 
ATOM     43  C   UNL A   1      40.222  25.123  26.142  1.00  0.00     0.000 A 
ENDBRANCH  24  38
BRANCH  25  44
ATOM     44  C   UNL A   1      40.766  34.489  34.960  1.00  0.00    -0.014 A 
ATOM     45  C   UNL A   1      41.536  35.648  34.794  1.00  0.00     0.009 A 
ATOM     46  C   UNL A   1      40.007  34.347  36.135  1.00  0.00     0.009 A 
ATOM     47  C   UNL A   1      41.564  36.631  35.790  1.00  0.00     0.001 A 
ATOM     48  C   UNL A   1      40.011  35.344  37.113  1.00  0.00     0.001 A 
ATOM     49  C   UNL A   1      40.798  36.480  36.945  1.00  0.00     0.000 A 
ENDBRANCH  25  44
BRANCH  37  50
ATOM     50  C   UNL A   1      44.543  28.727  33.906  1.00  0.00    -0.014 A 
ATOM     51  C   UNL A   1      45.869  29.012  33.549  1.00  0.00     0.009 A 
ATOM     52  C   UNL A   1      44.288  27.922  35.027  1.00  0.00     0.009 A 
ATOM     53  C   UNL A   1      46.923  28.482  34.293  1.00  0.00     0.001 A 
ATOM     54  C   UNL A   1      45.344  27.417  35.783  1.00  0.00     0.001 A 
ATOM     55  C   UNL A   1      46.659  27.691  35.413  1.00  0.00     0.000 A 
ENDBRANCH  37  50
ENDBRANCH  11  12
ENDBRANCH   4   6
ENDBRANCH   3   4
ENDBRANCH   2   3
ENDBRANCH   1   2
BRANCH   1  56
ATOM     56  O   UNL A   1      31.849  29.602  27.167  1.00  0.00    -0.374 OA
BRANCH  56  57
ATOM     57  C   UNL A   1      32.802  28.544  27.287  1.00  0.00     0.202 C 
BRANCH  57  58
ATOM     58  C   UNL A   1      33.679  28.573  26.030  1.00  0.00     0.261 C 
BRANCH  58  59
ATOM     59  O   UNL A   1      33.765  27.226  25.540  1.00  0.00    -0.462 OA
BRANCH  59  60
ATOM     60  C   UNL A   1      33.222  27.029  24.303  1.00  0.00     0.329 C 
ATOM     61  O   UNL A   1      33.662  27.508  23.265  1.00  0.00    -0.250 OA
BRANCH  60  62
ATOM     62  C   UNL A   1      32.098  25.995  24.377  1.00  0.00     0.206 C 
ATOM     63  C   UNL A   1      31.529  25.545  23.030  1.00  0.00     0.109 C 
ATOM     64  N   UNL A   1      32.374  24.759  25.108  1.00  0.00    -0.309 N 
ATOM     65  S   UNL A   1      32.484  24.057  22.588  1.00  0.00    -0.126 SA
ATOM     66  C   UNL A   1      32.972  23.674  24.332  1.00  0.00     0.116 C 
ATOM     67  C   UNL A   1      31.303  24.327  25.903  1.00  0.00     0.224 C 
ATOM     68  C   UNL A   1      32.217  22.430  24.851  1.00  0.00     0.055 C 
ATOM     69  C   UNL A   1      30.934  22.938  25.470  1.00  0.00     0.104 C 
ATOM     70  O   UNL A   1      30.612  25.028  26.620  1.00  0.00    -0.275 OA
BRANCH  66  71
ATOM     71  C   UNL A   1      34.504  23.548  24.452  1.00  0.00    -0.012 A 
ATOM     72  C   UNL A   1      35.208  23.927  25.609  1.00  0.00     0.007 A 
ATOM     73  C   UNL A   1      35.301  23.063  23.394  1.00  0.00     0.007 A 
ATOM     74  C   UNL A   1      36.586  23.721  25.757  1.00  0.00     0.000 A 
ATOM     75  C   UNL A   1      36.683  22.864  23.529  1.00  0.00     0.000 A 
ATOM     76  C   UNL A   1      37.322  23.172  24.721  1.00  0.00     0.000 A 
ENDBRANCH  66  71
ENDBRANCH  60  62
ENDBRANCH  59  60
ENDBRANCH  58  59
ENDBRANCH  57  58
ENDBRANCH  56  57
ENDBRANCH   1  56
TORSDOF 15
ENDMDL
MODEL 2
REMARK VINA RESULT:     -10.4      0.719      6.041
REMARK SMILES O=C(OCCOCCOC(=O)[C@H]1CS[C@]2(c3ccccc3)CCC(=O)N12)c1ccc(-c2c3nc(c(-c4ccccc4)c4ccc([nH]4)c(-c4ccccc4)c4nc(c(-c5ccccc5)c5ccc2[nH]5)C=C4)C=C3)cc1
REMARK SMILES IDX 5 1 4 2 3 3 2 4 1 5 27 6 28 7 74 8 29 9 73 10 30 11 31 12
REMARK SMILES IDX 32 13 67 14 33 15 72 16 66 17 68 18 34 19 71 20 65 21 64 22
REMARK SMILES IDX 35 24 57 25 42 26 56 27 43 28 46 29 55 30 69 31 44 32 45 33
REMARK SMILES IDX 54 35 70 36 47 37 36 38 37 39 41 40 38 41 40 42 39 43 58 44
REMARK SMILES IDX 59 45 63 46 60 47 62 48 61 49 48 50 49 51 53 52 50 53 52 54
REMARK SMILES IDX 51 55 6 56 7 57 8 58 9 59 10 60 11 61 12 62 13 63 26 64
REMARK SMILES IDX 14 65 15 66 24 67 22 68 23 69 25 70 16 71 17 72 21 73 18 74
REMARK SMILES IDX 20 75 19 76
REMARK H PARENT 68 23 46 34
REMARK Flexibility Score: inf
ROOT
ATOM      1  C   UNL A   1      32.481  31.190  26.735  1.00  0.00     0.202 C 
ENDROOT
BRANCH   1   2
ATOM      2  C   UNL A   1      31.482  32.302  27.041  1.00  0.00     0.261 C 
BRANCH   2   3
ATOM      3  O   UNL A   1      32.167  33.563  27.064  1.00  0.00    -0.460 OA
BRANCH   3   4
ATOM      4  C   UNL A   1      32.918  34.073  28.063  1.00  0.00     0.338 C 
ATOM      5  O   UNL A   1      32.522  35.077  28.653  1.00  0.00    -0.246 OA
BRANCH   4   6
ATOM      6  C   UNL A   1      34.183  33.446  28.543  1.00  0.00     0.060 A 
ATOM      7  C   UNL A   1      35.451  33.665  27.996  1.00  0.00     0.016 A 
ATOM      8  C   UNL A   1      34.085  32.674  29.710  1.00  0.00     0.016 A 
ATOM      9  C   UNL A   1      36.588  33.109  28.565  1.00  0.00     0.010 A 
ATOM     10  C   UNL A   1      35.225  32.133  30.306  1.00  0.00     0.010 A 
ATOM     11  C   UNL A   1      36.480  32.349  29.726  1.00  0.00    -0.014 A 
BRANCH  11  12
ATOM     12  C   UNL A   1      37.692  31.729  30.277  1.00  0.00     0.031 A 
ATOM     13  C   UNL A   1      38.332  32.360  31.470  1.00  0.00     0.074 A 
ATOM     14  C   UNL A   1      38.145  30.579  29.748  1.00  0.00     0.049 A 
ATOM     15  N   UNL A   1      39.452  32.053  32.063  1.00  0.00    -0.248 NA
ATOM     16  C   UNL A   1      37.607  33.487  32.082  1.00  0.00     0.031 C 
ATOM     17  C   UNL A   1      37.501  29.839  28.659  1.00  0.00     0.029 A 
ATOM     18  N   UNL A   1      39.240  29.823  30.066  1.00  0.00    -0.354 N 
ATOM     19  C   UNL A   1      39.588  32.973  33.094  1.00  0.00     0.074 A 
ATOM     20  C   UNL A   1      38.434  33.842  33.054  1.00  0.00     0.031 C 
ATOM     21  C   UNL A   1      38.212  28.728  28.407  1.00  0.00     0.029 A 
ATOM     22  C   UNL A   1      39.391  28.718  29.264  1.00  0.00     0.049 A 
ATOM     23  H   UNL A   1      39.858  30.049  30.798  1.00  0.00     0.167 HD
ATOM     24  C   UNL A   1      40.605  33.086  33.977  1.00  0.00     0.031 A 
ATOM     25  C   UNL A   1      40.402  27.831  29.206  1.00  0.00     0.031 A 
ATOM     26  C   UNL A   1      41.744  32.210  33.977  1.00  0.00     0.049 A 
ATOM     27  C   UNL A   1      41.565  28.035  30.139  1.00  0.00     0.074 A 
ATOM     28  C   UNL A   1      42.864  32.244  34.784  1.00  0.00     0.029 A 
ATOM     29  N   UNL A   1      41.898  31.136  33.111  1.00  0.00    -0.354 N 
ATOM     30  N   UNL A   1      41.719  28.938  31.081  1.00  0.00    -0.248 NA
ATOM     31  C   UNL A   1      42.703  27.121  29.988  1.00  0.00     0.031 C 
ATOM     32  C   UNL A   1      43.721  31.218  34.371  1.00  0.00     0.029 A 
ATOM     33  C   UNL A   1      43.110  30.514  33.342  1.00  0.00     0.049 A 
ATOM     34  H   UNL A   1      41.242  30.858  32.432  1.00  0.00     0.167 HD
ATOM     35  C   UNL A   1      42.965  28.698  31.638  1.00  0.00     0.074 A 
ATOM     36  C   UNL A   1      43.514  27.547  30.947  1.00  0.00     0.031 C 
ATOM     37  C   UNL A   1      43.609  29.369  32.624  1.00  0.00     0.031 A 
BRANCH  24  38
ATOM     38  C   UNL A   1      40.557  34.245  34.928  1.00  0.00    -0.014 A 
ATOM     39  C   UNL A   1      41.128  35.488  34.612  1.00  0.00     0.009 A 
ATOM     40  C   UNL A   1      39.956  34.074  36.185  1.00  0.00     0.009 A 
ATOM     41  C   UNL A   1      41.130  36.523  35.551  1.00  0.00     0.001 A 
ATOM     42  C   UNL A   1      39.939  35.116  37.113  1.00  0.00     0.001 A 
ATOM     43  C   UNL A   1      40.535  36.336  36.800  1.00  0.00     0.000 A 
ENDBRANCH  24  38
BRANCH  25  44
ATOM     44  C   UNL A   1      40.397  26.743  28.192  1.00  0.00    -0.014 A 
ATOM     45  C   UNL A   1      40.977  26.928  26.929  1.00  0.00     0.009 A 
ATOM     46  C   UNL A   1      39.793  25.507  28.482  1.00  0.00     0.009 A 
ATOM     47  C   UNL A   1      40.935  25.908  25.973  1.00  0.00     0.001 A 
ATOM     48  C   UNL A   1      39.780  24.478  27.536  1.00  0.00     0.001 A 
ATOM     49  C   UNL A   1      40.341  24.683  26.278  1.00  0.00     0.000 A 
ENDBRANCH  25  44
BRANCH  37  50
ATOM     50  C   UNL A   1      44.964  28.858  33.014  1.00  0.00    -0.014 A 
ATOM     51  C   UNL A   1      45.103  27.842  33.971  1.00  0.00     0.009 A 
ATOM     52  C   UNL A   1      46.105  29.356  32.367  1.00  0.00     0.009 A 
ATOM     53  C   UNL A   1      46.368  27.348  34.289  1.00  0.00     0.001 A 
ATOM     54  C   UNL A   1      47.364  28.841  32.668  1.00  0.00     0.001 A 
ATOM     55  C   UNL A   1      47.495  27.842  33.631  1.00  0.00     0.000 A 
ENDBRANCH  37  50
ENDBRANCH  11  12
ENDBRANCH   4   6
ENDBRANCH   3   4
ENDBRANCH   2   3
ENDBRANCH   1   2
BRANCH   1  56
ATOM     56  O   UNL A   1      32.048  30.322  25.693  1.00  0.00    -0.374 OA
BRANCH  56  57
ATOM     57  C   UNL A   1      32.725  29.073  25.537  1.00  0.00     0.202 C 
BRANCH  57  58
ATOM     58  C   UNL A   1      32.779  28.767  24.036  1.00  0.00     0.261 C 
BRANCH  58  59
ATOM     59  O   UNL A   1      33.707  27.686  23.855  1.00  0.00    -0.462 OA
BRANCH  59  60
ATOM     60  C   UNL A   1      33.257  26.669  23.062  1.00  0.00     0.329 C 
ATOM     61  O   UNL A   1      33.755  26.350  21.989  1.00  0.00    -0.250 OA
BRANCH  60  62
ATOM     62  C   UNL A   1      32.160  25.884  23.780  1.00  0.00     0.206 C 
ATOM     63  C   UNL A   1      31.372  24.906  22.906  1.00  0.00     0.109 C 
ATOM     64  N   UNL A   1      32.552  25.112  24.958  1.00  0.00    -0.309 N 
ATOM     65  S   UNL A   1      32.235  23.312  23.084  1.00  0.00    -0.126 SA
ATOM     66  C   UNL A   1      33.010  23.745  24.708  1.00  0.00     0.116 C 
ATOM     67  C   UNL A   1      31.630  25.187  26.012  1.00  0.00     0.224 C 
ATOM     68  C   UNL A   1      32.351  22.952  25.858  1.00  0.00     0.055 C 
ATOM     69  C   UNL A   1      31.191  23.792  26.346  1.00  0.00     0.104 C 
ATOM     70  O   UNL A   1      31.071  26.195  26.406  1.00  0.00    -0.275 OA
BRANCH  66  71
ATOM     71  C   UNL A   1      34.540  23.566  24.646  1.00  0.00    -0.012 A 
ATOM     72  C   UNL A   1      35.398  24.006  25.670  1.00  0.00     0.007 A 
ATOM     73  C   UNL A   1      35.179  22.967  23.541  1.00  0.00     0.007 A 
ATOM     74  C   UNL A   1      36.776  23.755  25.661  1.00  0.00     0.000 A 
ATOM     75  C   UNL A   1      36.560  22.722  23.517  1.00  0.00     0.000 A 
ATOM     76  C   UNL A   1      37.356  23.096  24.590  1.00  0.00     0.000 A 
ENDBRANCH  66  71
ENDBRANCH  60  62
ENDBRANCH  59  60
ENDBRANCH  58  59
ENDBRANCH  57  58
ENDBRANCH  56  57
ENDBRANCH   1  56
TORSDOF 15
ENDMDL
MODEL 3
REMARK VINA RESULT:     -10.4      4.604      9.515
REMARK SMILES O=C(OCCOCCOC(=O)[C@H]1CS[C@]2(c3ccccc3)CCC(=O)N12)c1ccc(-c2c3nc(c(-c4ccccc4)c4ccc([nH]4)c(-c4ccccc4)c4nc(c(-c5ccccc5)c5ccc2[nH]5)C=C4)C=C3)cc1
REMARK SMILES IDX 5 1 4 2 3 3 2 4 1 5 27 6 28 7 74 8 29 9 73 10 30 11 31 12
REMARK SMILES IDX 32 13 67 14 33 15 72 16 66 17 68 18 34 19 71 20 65 21 64 22
REMARK SMILES IDX 35 24 57 25 42 26 56 27 43 28 46 29 55 30 69 31 44 32 45 33
REMARK SMILES IDX 54 35 70 36 47 37 36 38 37 39 41 40 38 41 40 42 39 43 58 44
REMARK SMILES IDX 59 45 63 46 60 47 62 48 61 49 48 50 49 51 53 52 50 53 52 54
REMARK SMILES IDX 51 55 6 56 7 57 8 58 9 59 10 60 11 61 12 62 13 63 26 64
REMARK SMILES IDX 14 65 15 66 24 67 22 68 23 69 25 70 16 71 17 72 21 73 18 74
REMARK SMILES IDX 20 75 19 76
REMARK H PARENT 68 23 46 34
REMARK Flexibility Score: inf
ROOT
ATOM      1  C   UNL A   1      40.994  20.398  27.246  1.00  0.00     0.202 C 
ENDROOT
BRANCH   1   2
ATOM      2  C   UNL A   1      40.125  20.733  26.037  1.00  0.00     0.261 C 
BRANCH   2   3
ATOM      3  O   UNL A   1      40.067  22.159  25.874  1.00  0.00    -0.460 OA
BRANCH   3   4
ATOM      4  C   UNL A   1      39.106  22.998  26.315  1.00  0.00     0.338 C 
ATOM      5  O   UNL A   1      37.927  22.671  26.193  1.00  0.00    -0.246 OA
BRANCH   4   6
ATOM      6  C   UNL A   1      39.396  24.286  27.008  1.00  0.00     0.060 A 
ATOM      7  C   UNL A   1      39.130  24.557  28.354  1.00  0.00     0.016 A 
ATOM      8  C   UNL A   1      40.100  25.243  26.262  1.00  0.00     0.016 A 
ATOM      9  C   UNL A   1      39.517  25.755  28.939  1.00  0.00     0.010 A 
ATOM     10  C   UNL A   1      40.518  26.439  26.848  1.00  0.00     0.010 A 
ATOM     11  C   UNL A   1      40.219  26.694  28.191  1.00  0.00    -0.014 A 
BRANCH  11  12
ATOM     12  C   UNL A   1      40.571  27.974  28.820  1.00  0.00     0.031 A 
ATOM     13  C   UNL A   1      41.968  28.163  29.313  1.00  0.00     0.074 A 
ATOM     14  C   UNL A   1      39.658  28.961  28.866  1.00  0.00     0.049 A 
ATOM     15  N   UNL A   1      42.477  29.157  29.985  1.00  0.00    -0.248 NA
ATOM     16  C   UNL A   1      42.923  27.086  29.001  1.00  0.00     0.031 C 
ATOM     17  C   UNL A   1      38.310  28.892  28.295  1.00  0.00     0.029 A 
ATOM     18  N   UNL A   1      39.732  30.218  29.400  1.00  0.00    -0.354 N 
ATOM     19  C   UNL A   1      43.802  28.810  30.211  1.00  0.00     0.074 A 
ATOM     20  C   UNL A   1      44.022  27.520  29.598  1.00  0.00     0.031 C 
ATOM     21  C   UNL A   1      37.687  30.063  28.503  1.00  0.00     0.029 A 
ATOM     22  C   UNL A   1      38.563  30.931  29.280  1.00  0.00     0.049 A 
ATOM     23  H   UNL A   1      40.542  30.577  29.828  1.00  0.00     0.167 HD
ATOM     24  C   UNL A   1      44.738  29.507  30.893  1.00  0.00     0.031 A 
ATOM     25  C   UNL A   1      38.235  32.133  29.789  1.00  0.00     0.031 A 
ATOM     26  C   UNL A   1      44.478  30.782  31.502  1.00  0.00     0.049 A 
ATOM     27  C   UNL A   1      39.266  32.844  30.622  1.00  0.00     0.074 A 
ATOM     28  C   UNL A   1      45.321  31.569  32.260  1.00  0.00     0.029 A 
ATOM     29  N   UNL A   1      43.264  31.451  31.415  1.00  0.00    -0.354 N 
ATOM     30  N   UNL A   1      40.505  32.491  30.881  1.00  0.00    -0.248 NA
ATOM     31  C   UNL A   1      38.852  34.102  31.255  1.00  0.00     0.031 C 
ATOM     32  C   UNL A   1      44.601  32.694  32.675  1.00  0.00     0.029 A 
ATOM     33  C   UNL A   1      43.324  32.631  32.131  1.00  0.00     0.049 A 
ATOM     34  H   UNL A   1      42.478  31.133  30.917  1.00  0.00     0.167 HD
ATOM     35  C   UNL A   1      41.020  33.484  31.700  1.00  0.00     0.074 A 
ATOM     36  C   UNL A   1      39.968  34.468  31.872  1.00  0.00     0.031 C 
ATOM     37  C   UNL A   1      42.246  33.577  32.270  1.00  0.00     0.031 A 
BRANCH  24  38
ATOM     38  C   UNL A   1      46.073  28.849  31.084  1.00  0.00    -0.014 A 
ATOM     39  C   UNL A   1      46.327  27.988  32.163  1.00  0.00     0.009 A 
ATOM     40  C   UNL A   1      47.110  29.129  30.181  1.00  0.00     0.009 A 
ATOM     41  C   UNL A   1      47.604  27.451  32.352  1.00  0.00     0.001 A 
ATOM     42  C   UNL A   1      48.378  28.574  30.359  1.00  0.00     0.001 A 
ATOM     43  C   UNL A   1      48.627  27.744  31.450  1.00  0.00     0.000 A 
ENDBRANCH  24  38
BRANCH  25  44
ATOM     44  C   UNL A   1      36.868  32.687  29.600  1.00  0.00    -0.014 A 
ATOM     45  C   UNL A   1      35.866  32.487  30.559  1.00  0.00     0.009 A 
ATOM     46  C   UNL A   1      36.552  33.414  28.438  1.00  0.00     0.009 A 
ATOM     47  C   UNL A   1      34.574  32.984  30.352  1.00  0.00     0.001 A 
ATOM     48  C   UNL A   1      35.270  33.937  28.248  1.00  0.00     0.001 A 
ATOM     49  C   UNL A   1      34.279  33.712  29.201  1.00  0.00     0.000 A 
ENDBRANCH  25  44
BRANCH  37  50
ATOM     50  C   UNL A   1      42.508  34.789  33.113  1.00  0.00    -0.014 A 
ATOM     51  C   UNL A   1      43.121  35.927  32.567  1.00  0.00     0.009 A 
ATOM     52  C   UNL A   1      42.078  34.811  34.448  1.00  0.00     0.009 A 
ATOM     53  C   UNL A   1      43.315  37.062  33.354  1.00  0.00     0.001 A 
ATOM     54  C   UNL A   1      42.250  35.956  35.223  1.00  0.00     0.001 A 
ATOM     55  C   UNL A   1      42.873  37.077  34.678  1.00  0.00     0.000 A 
ENDBRANCH  37  50
ENDBRANCH  11  12
ENDBRANCH   4   6
ENDBRANCH   3   4
ENDBRANCH   2   3
ENDBRANCH   1   2
BRANCH   1  56
ATOM     56  O   UNL A   1      42.353  20.148  26.904  1.00  0.00    -0.374 OA
BRANCH  56  57
ATOM     57  C   UNL A   1      42.629  19.078  25.998  1.00  0.00     0.202 C 
BRANCH  57  58
ATOM     58  C   UNL A   1      43.924  19.431  25.256  1.00  0.00     0.261 C 
BRANCH  58  59
ATOM     59  O   UNL A   1      44.191  20.820  25.503  1.00  0.00    -0.462 OA
BRANCH  59  60
ATOM     60  C   UNL A   1      45.494  21.193  25.335  1.00  0.00     0.329 C 
ATOM     61  O   UNL A   1      46.458  20.467  25.546  1.00  0.00    -0.250 OA
BRANCH  60  62
ATOM     62  C   UNL A   1      45.571  22.575  24.687  1.00  0.00     0.206 C 
ATOM     63  C   UNL A   1      44.374  22.958  23.813  1.00  0.00     0.109 C 
ATOM     64  N   UNL A   1      45.777  23.719  25.573  1.00  0.00    -0.309 N 
ATOM     65  S   UNL A   1      43.245  23.855  24.925  1.00  0.00    -0.126 SA
ATOM     66  C   UNL A   1      44.569  24.329  26.128  1.00  0.00     0.116 C 
ATOM     67  C   UNL A   1      46.676  24.668  25.065  1.00  0.00     0.224 C 
ATOM     68  C   UNL A   1      44.879  25.839  26.034  1.00  0.00     0.055 C 
ATOM     69  C   UNL A   1      45.966  25.988  24.992  1.00  0.00     0.104 C 
ATOM     70  O   UNL A   1      47.740  24.430  24.522  1.00  0.00    -0.275 OA
BRANCH  66  71
ATOM     71  C   UNL A   1      44.198  23.873  27.553  1.00  0.00    -0.012 A 
ATOM     72  C   UNL A   1      45.135  23.820  28.601  1.00  0.00     0.007 A 
ATOM     73  C   UNL A   1      42.893  23.458  27.890  1.00  0.00     0.007 A 
ATOM     74  C   UNL A   1      44.779  23.502  29.918  1.00  0.00     0.000 A 
ATOM     75  C   UNL A   1      42.530  23.126  29.204  1.00  0.00     0.000 A 
ATOM     76  C   UNL A   1      43.469  23.172  30.223  1.00  0.00     0.000 A 
ENDBRANCH  66  71
ENDBRANCH  60  62
ENDBRANCH  59  60
ENDBRANCH  58  59
ENDBRANCH  57  58
ENDBRANCH  56  57
ENDBRANCH   1  56
TORSDOF 15
ENDMDL
