MODEL 1
REMARK VINA RESULT:     -10.0      0.000      0.000
REMARK SMILES O=C(OCCOCCOC(=O)[C@@H]1CCCC[C@@H]1C(=O)Nc1cccc(Br)c1)c1ccc(-c2c3nc(c(-c4ccccc4)c4ccc([nH]4)c(-c4ccccc4)c4nc(c(-c5ccccc5)c5ccc2[nH]5)C=C4)C=C3)cc1
REMARK SMILES IDX 6 1 5 2 4 3 3 4 2 5 1 6 28 7 29 8 75 9 30 10 74 11 31 12
REMARK SMILES IDX 32 13 33 14 68 15 34 16 73 17 67 18 69 19 35 20 72 21 66 22
REMARK SMILES IDX 65 23 36 25 58 26 43 27 57 28 44 29 47 30 56 31 70 32 45 33
REMARK SMILES IDX 46 34 55 36 71 37 48 38 37 39 38 40 42 41 39 42 41 43 40 44
REMARK SMILES IDX 59 45 60 46 64 47 61 48 63 49 62 50 49 51 50 52 54 53 51 54
REMARK SMILES IDX 53 55 52 56 7 57 8 58 9 59 10 60 11 61 12 62 13 63 17 64
REMARK SMILES IDX 14 65 16 66 15 67 18 68 19 69 20 70 21 72 22 73 27 74 23 75
REMARK SMILES IDX 25 76 24 77 26 78
REMARK H PARENT 69 24 47 35 20 71
REMARK Flexibility Score: inf
ROOT
ATOM      1  O   UNL A   1      34.692  20.977  25.656  1.00  0.00    -0.374 OA
ENDROOT
BRANCH   1   2
ATOM      2  C   UNL A   1      36.083  21.183  25.399  1.00  0.00     0.202 C 
BRANCH   2   3
ATOM      3  C   UNL A   1      36.602  22.570  25.786  1.00  0.00     0.261 C 
BRANCH   3   4
ATOM      4  O   UNL A   1      37.988  22.703  25.445  1.00  0.00    -0.460 OA
BRANCH   4   5
ATOM      5  C   UNL A   1      39.026  22.842  26.306  1.00  0.00     0.338 C 
ATOM      6  O   UNL A   1      39.663  21.842  26.630  1.00  0.00    -0.246 OA
BRANCH   5   7
ATOM      7  C   UNL A   1      39.461  24.159  26.863  1.00  0.00     0.060 A 
ATOM      8  C   UNL A   1      40.155  25.136  26.152  1.00  0.00     0.016 A 
ATOM      9  C   UNL A   1      39.071  24.463  28.178  1.00  0.00     0.016 A 
ATOM     10  C   UNL A   1      40.481  26.352  26.700  1.00  0.00     0.010 A 
ATOM     11  C   UNL A   1      39.373  25.706  28.743  1.00  0.00     0.010 A 
ATOM     12  C   UNL A   1      40.078  26.648  27.990  1.00  0.00    -0.014 A 
BRANCH  12  13
ATOM     13  C   UNL A   1      40.571  27.926  28.506  1.00  0.00     0.031 A 
ATOM     14  C   UNL A   1      39.575  29.020  28.704  1.00  0.00     0.074 A 
ATOM     15  C   UNL A   1      41.811  27.970  29.027  1.00  0.00     0.049 A 
ATOM     16  N   UNL A   1      39.755  30.217  29.184  1.00  0.00    -0.248 NA
ATOM     17  C   UNL A   1      38.177  28.713  28.342  1.00  0.00     0.031 C 
ATOM     18  C   UNL A   1      42.759  26.847  29.052  1.00  0.00     0.029 A 
ATOM     19  N   UNL A   1      42.462  28.965  29.697  1.00  0.00    -0.354 N 
ATOM     20  C   UNL A   1      38.504  30.816  29.154  1.00  0.00     0.074 A 
ATOM     21  C   UNL A   1      37.571  29.858  28.611  1.00  0.00     0.031 C 
ATOM     22  C   UNL A   1      43.859  27.215  29.727  1.00  0.00     0.029 A 
ATOM     23  C   UNL A   1      43.726  28.614  30.102  1.00  0.00     0.049 A 
ATOM     24  H   UNL A   1      42.064  29.849  29.872  1.00  0.00     0.167 HD
ATOM     25  C   UNL A   1      38.182  32.069  29.542  1.00  0.00     0.031 A 
ATOM     26  C   UNL A   1      44.680  29.373  30.670  1.00  0.00     0.031 A 
ATOM     27  C   UNL A   1      39.151  32.991  30.063  1.00  0.00     0.049 A 
ATOM     28  C   UNL A   1      44.333  30.811  30.940  1.00  0.00     0.074 A 
ATOM     29  C   UNL A   1      38.994  34.322  30.391  1.00  0.00     0.029 A 
ATOM     30  N   UNL A   1      40.472  32.656  30.336  1.00  0.00    -0.354 N 
ATOM     31  N   UNL A   1      43.178  31.423  30.803  1.00  0.00    -0.248 NA
ATOM     32  C   UNL A   1      45.418  31.668  31.426  1.00  0.00     0.031 C 
ATOM     33  C   UNL A   1      40.238  34.808  30.810  1.00  0.00     0.029 A 
ATOM     34  C   UNL A   1      41.150  33.762  30.809  1.00  0.00     0.049 A 
ATOM     35  H   UNL A   1      40.866  31.762  30.210  1.00  0.00     0.167 HD
ATOM     36  C   UNL A   1      43.393  32.733  31.200  1.00  0.00     0.074 A 
ATOM     37  C   UNL A   1      44.781  32.814  31.617  1.00  0.00     0.031 C 
ATOM     38  C   UNL A   1      42.534  33.782  31.211  1.00  0.00     0.031 A 
BRANCH  25  39
ATOM     39  C   UNL A   1      36.767  32.511  29.314  1.00  0.00    -0.014 A 
ATOM     40  C   UNL A   1      36.384  33.197  28.150  1.00  0.00     0.009 A 
ATOM     41  C   UNL A   1      35.806  32.268  30.306  1.00  0.00     0.009 A 
ATOM     42  C   UNL A   1      35.072  33.654  28.000  1.00  0.00     0.001 A 
ATOM     43  C   UNL A   1      34.490  32.702  30.143  1.00  0.00     0.001 A 
ATOM     44  C   UNL A   1      34.126  33.403  28.994  1.00  0.00     0.000 A 
ENDBRANCH  25  39
BRANCH  26  45
ATOM     45  C   UNL A   1      46.051  28.841  30.902  1.00  0.00    -0.014 A 
ATOM     46  C   UNL A   1      47.020  28.850  29.889  1.00  0.00     0.009 A 
ATOM     47  C   UNL A   1      46.379  28.258  32.139  1.00  0.00     0.009 A 
ATOM     48  C   UNL A   1      48.265  28.246  30.091  1.00  0.00     0.001 A 
ATOM     49  C   UNL A   1      47.636  27.689  32.353  1.00  0.00     0.001 A 
ATOM     50  C   UNL A   1      48.573  27.667  31.323  1.00  0.00     0.000 A 
ENDBRANCH  26  45
BRANCH  38  51
ATOM     51  C   UNL A   1      43.079  35.080  31.729  1.00  0.00    -0.014 A 
ATOM     52  C   UNL A   1      43.707  35.999  30.874  1.00  0.00     0.009 A 
ATOM     53  C   UNL A   1      42.933  35.394  33.088  1.00  0.00     0.009 A 
ATOM     54  C   UNL A   1      44.221  37.191  31.384  1.00  0.00     0.001 A 
ATOM     55  C   UNL A   1      43.412  36.604  33.586  1.00  0.00     0.001 A 
ATOM     56  C   UNL A   1      44.067  37.494  32.737  1.00  0.00     0.000 A 
ENDBRANCH  38  51
ENDBRANCH  12  13
ENDBRANCH   5   7
ENDBRANCH   4   5
ENDBRANCH   3   4
ENDBRANCH   2   3
ENDBRANCH   1   2
BRANCH   1  57
ATOM     57  C   UNL A   1      33.764  21.455  24.685  1.00  0.00     0.202 C 
BRANCH  57  58
ATOM     58  C   UNL A   1      32.776  22.422  25.340  1.00  0.00     0.261 C 
BRANCH  58  59
ATOM     59  O   UNL A   1      32.543  23.509  24.436  1.00  0.00    -0.463 OA
BRANCH  59  60
ATOM     60  C   UNL A   1      33.073  24.699  24.838  1.00  0.00     0.309 C 
ATOM     61  O   UNL A   1      33.926  24.833  25.704  1.00  0.00    -0.252 OA
BRANCH  60  62
ATOM     62  C   UNL A   1      32.502  25.799  23.974  1.00  0.00     0.111 C 
ATOM     63  C   UNL A   1      33.421  26.995  23.734  1.00  0.00     0.016 C 
ATOM     64  C   UNL A   1      31.099  26.139  24.449  1.00  0.00     0.093 C 
ATOM     65  C   UNL A   1      32.748  28.206  23.082  1.00  0.00     0.001 C 
ATOM     66  C   UNL A   1      30.460  27.171  23.531  1.00  0.00     0.014 C 
ATOM     67  C   UNL A   1      31.276  28.442  23.408  1.00  0.00     0.001 C 
BRANCH  64  68
ATOM     68  C   UNL A   1      30.781  26.230  25.962  1.00  0.00     0.228 C 
ATOM     69  O   UNL A   1      29.866  25.519  26.401  1.00  0.00    -0.274 OA
ATOM     70  N   UNL A   1      31.551  26.874  26.886  1.00  0.00    -0.326 N 
ATOM     71  H   UNL A   1      31.585  26.413  27.756  1.00  0.00     0.169 HD
BRANCH  70  72
ATOM     72  C   UNL A   1      32.303  28.056  26.853  1.00  0.00     0.042 A 
ATOM     73  C   UNL A   1      33.689  28.061  26.972  1.00  0.00     0.026 A 
ATOM     74  C   UNL A   1      31.639  29.267  26.628  1.00  0.00     0.041 A 
ATOM     75  C   UNL A   1      34.392  29.270  27.039  1.00  0.00     0.003 A 
ATOM     76  C   UNL A   1      32.333  30.473  26.732  1.00  0.00     0.020 A 
ATOM     77  C   UNL A   1      33.708  30.482  26.957  1.00  0.00     0.016 A 
ATOM     78  Br  UNL A   1      31.392  32.111  26.633  1.00  0.00    -0.051 Br
ENDBRANCH  70  72
ENDBRANCH  64  68
ENDBRANCH  60  62
ENDBRANCH  59  60
ENDBRANCH  58  59
ENDBRANCH  57  58
ENDBRANCH   1  57
TORSDOF 16
ENDMDL
MODEL 2
REMARK VINA RESULT:      -9.9      2.266      6.905
REMARK SMILES O=C(OCCOCCOC(=O)[C@@H]1CCCC[C@@H]1C(=O)Nc1cccc(Br)c1)c1ccc(-c2c3nc(c(-c4ccccc4)c4ccc([nH]4)c(-c4ccccc4)c4nc(c(-c5ccccc5)c5ccc2[nH]5)C=C4)C=C3)cc1
REMARK SMILES IDX 6 1 5 2 4 3 3 4 2 5 1 6 28 7 29 8 75 9 30 10 74 11 31 12
REMARK SMILES IDX 32 13 33 14 68 15 34 16 73 17 67 18 69 19 35 20 72 21 66 22
REMARK SMILES IDX 65 23 36 25 58 26 43 27 57 28 44 29 47 30 56 31 70 32 45 33
REMARK SMILES IDX 46 34 55 36 71 37 48 38 37 39 38 40 42 41 39 42 41 43 40 44
REMARK SMILES IDX 59 45 60 46 64 47 61 48 63 49 62 50 49 51 50 52 54 53 51 54
REMARK SMILES IDX 53 55 52 56 7 57 8 58 9 59 10 60 11 61 12 62 13 63 17 64
REMARK SMILES IDX 14 65 16 66 15 67 18 68 19 69 20 70 21 72 22 73 27 74 23 75
REMARK SMILES IDX 25 76 24 77 26 78
REMARK H PARENT 69 24 47 35 20 71
REMARK Flexibility Score: inf
ROOT
ATOM      1  O   UNL A   1      38.091  22.066  25.005  1.00  0.00    -0.374 OA
ENDROOT
BRANCH   1   2
ATOM      2  C   UNL A   1      37.624  20.751  25.311  1.00  0.00     0.202 C 
BRANCH   2   3
ATOM      3  C   UNL A   1      38.548  19.623  24.845  1.00  0.00     0.261 C 
BRANCH   3   4
ATOM      4  O   UNL A   1      39.428  19.222  25.904  1.00  0.00    -0.460 OA
BRANCH   4   5
ATOM      5  C   UNL A   1      40.725  19.583  26.061  1.00  0.00     0.338 C 
ATOM      6  O   UNL A   1      41.603  18.780  25.750  1.00  0.00    -0.246 OA
BRANCH   5   7
ATOM      7  C   UNL A   1      41.150  20.922  26.570  1.00  0.00     0.060 A 
ATOM      8  C   UNL A   1      41.150  21.303  27.911  1.00  0.00     0.016 A 
ATOM      9  C   UNL A   1      41.660  21.836  25.632  1.00  0.00     0.016 A 
ATOM     10  C   UNL A   1      41.605  22.530  28.327  1.00  0.00     0.010 A 
ATOM     11  C   UNL A   1      42.150  23.080  26.042  1.00  0.00     0.010 A 
ATOM     12  C   UNL A   1      42.121  23.417  27.397  1.00  0.00    -0.014 A 
BRANCH  12  13
ATOM     13  C   UNL A   1      42.476  24.730  27.936  1.00  0.00     0.031 A 
ATOM     14  C   UNL A   1      43.924  25.088  27.982  1.00  0.00     0.074 A 
ATOM     15  C   UNL A   1      41.497  25.638  28.103  1.00  0.00     0.049 A 
ATOM     16  N   UNL A   1      44.484  26.198  28.372  1.00  0.00    -0.248 NA
ATOM     17  C   UNL A   1      44.872  24.069  27.490  1.00  0.00     0.031 C 
ATOM     18  C   UNL A   1      40.067  25.397  27.861  1.00  0.00     0.029 A 
ATOM     19  N   UNL A   1      41.556  26.959  28.442  1.00  0.00    -0.354 N 
ATOM     20  C   UNL A   1      45.846  26.001  28.202  1.00  0.00     0.074 A 
ATOM     21  C   UNL A   1      46.036  24.670  27.675  1.00  0.00     0.031 C 
ATOM     22  C   UNL A   1      39.392  26.543  28.037  1.00  0.00     0.029 A 
ATOM     23  C   UNL A   1      40.325  27.567  28.484  1.00  0.00     0.049 A 
ATOM     24  H   UNL A   1      42.398  27.430  28.637  1.00  0.00     0.167 HD
ATOM     25  C   UNL A   1      46.844  26.868  28.480  1.00  0.00     0.031 A 
ATOM     26  C   UNL A   1      40.000  28.806  28.892  1.00  0.00     0.031 A 
ATOM     27  C   UNL A   1      46.604  28.176  29.018  1.00  0.00     0.049 A 
ATOM     28  C   UNL A   1      41.129  29.689  29.347  1.00  0.00     0.074 A 
ATOM     29  C   UNL A   1      47.516  29.117  29.452  1.00  0.00     0.029 A 
ATOM     30  N   UNL A   1      45.338  28.725  29.189  1.00  0.00    -0.354 N 
ATOM     31  N   UNL A   1      42.423  29.466  29.301  1.00  0.00    -0.248 NA
ATOM     32  C   UNL A   1      40.758  30.985  29.924  1.00  0.00     0.031 C 
ATOM     33  C   UNL A   1      46.798  30.215  29.938  1.00  0.00     0.029 A 
ATOM     34  C   UNL A   1      45.443  29.987  29.741  1.00  0.00     0.049 A 
ATOM     35  H   UNL A   1      44.493  28.281  28.950  1.00  0.00     0.167 HD
ATOM     36  C   UNL A   1      43.023  30.599  29.828  1.00  0.00     0.074 A 
ATOM     37  C   UNL A   1      41.948  31.520  30.152  1.00  0.00     0.031 C 
ATOM     38  C   UNL A   1      44.336  30.860  30.041  1.00  0.00     0.031 A 
BRANCH  25  39
ATOM     39  C   UNL A   1      48.248  26.372  28.298  1.00  0.00    -0.014 A 
ATOM     40  C   UNL A   1      48.945  26.550  27.092  1.00  0.00     0.009 A 
ATOM     41  C   UNL A   1      48.870  25.678  29.346  1.00  0.00     0.009 A 
ATOM     42  C   UNL A   1      50.227  26.017  26.933  1.00  0.00     0.001 A 
ATOM     43  C   UNL A   1      50.160  25.169  29.194  1.00  0.00     0.001 A 
ATOM     44  C   UNL A   1      50.834  25.330  27.985  1.00  0.00     0.000 A 
ENDBRANCH  25  39
BRANCH  26  45
ATOM     45  C   UNL A   1      38.578  29.233  29.003  1.00  0.00    -0.014 A 
ATOM     46  C   UNL A   1      37.920  29.868  27.940  1.00  0.00     0.009 A 
ATOM     47  C   UNL A   1      37.884  29.059  30.214  1.00  0.00     0.009 A 
ATOM     48  C   UNL A   1      36.621  30.360  28.101  1.00  0.00     0.001 A 
ATOM     49  C   UNL A   1      36.573  29.517  30.361  1.00  0.00     0.001 A 
ATOM     50  C   UNL A   1      35.949  30.184  29.311  1.00  0.00     0.000 A 
ENDBRANCH  26  45
BRANCH  38  51
ATOM     51  C   UNL A   1      44.661  32.208  30.612  1.00  0.00    -0.014 A 
ATOM     52  C   UNL A   1      44.785  32.401  31.997  1.00  0.00     0.009 A 
ATOM     53  C   UNL A   1      44.873  33.289  29.744  1.00  0.00     0.009 A 
ATOM     54  C   UNL A   1      45.070  33.669  32.503  1.00  0.00     0.001 A 
ATOM     55  C   UNL A   1      45.198  34.546  30.253  1.00  0.00     0.001 A 
ATOM     56  C   UNL A   1      45.283  34.737  31.631  1.00  0.00     0.000 A 
ENDBRANCH  38  51
ENDBRANCH  12  13
ENDBRANCH   5   7
ENDBRANCH   4   5
ENDBRANCH   3   4
ENDBRANCH   2   3
ENDBRANCH   1   2
BRANCH   1  57
ATOM     57  C   UNL A   1      37.125  23.114  24.954  1.00  0.00     0.202 C 
BRANCH  57  58
ATOM     58  C   UNL A   1      36.151  22.981  26.125  1.00  0.00     0.261 C 
BRANCH  58  59
ATOM     59  O   UNL A   1      34.900  23.563  25.739  1.00  0.00    -0.463 OA
BRANCH  59  60
ATOM     60  C   UNL A   1      33.870  22.673  25.646  1.00  0.00     0.309 C 
ATOM     61  O   UNL A   1      33.639  21.778  26.445  1.00  0.00    -0.252 OA
BRANCH  60  62
ATOM     62  C   UNL A   1      33.021  23.040  24.450  1.00  0.00     0.111 C 
ATOM     63  C   UNL A   1      33.699  23.923  23.404  1.00  0.00     0.016 C 
ATOM     64  C   UNL A   1      31.660  23.520  24.925  1.00  0.00     0.093 C 
ATOM     65  C   UNL A   1      32.761  24.498  22.339  1.00  0.00     0.001 C 
ATOM     66  C   UNL A   1      30.747  23.797  23.739  1.00  0.00     0.014 C 
ATOM     67  C   UNL A   1      31.328  24.803  22.767  1.00  0.00     0.001 C 
BRANCH  64  68
ATOM     68  C   UNL A   1      31.539  24.451  26.157  1.00  0.00     0.228 C 
ATOM     69  O   UNL A   1      31.023  23.986  27.182  1.00  0.00    -0.274 OA
ATOM     70  N   UNL A   1      32.132  25.676  26.273  1.00  0.00    -0.326 N 
ATOM     71  H   UNL A   1      32.453  25.870  27.184  1.00  0.00     0.169 HD
BRANCH  70  72
ATOM     72  C   UNL A   1      32.378  26.713  25.363  1.00  0.00     0.042 A 
ATOM     73  C   UNL A   1      33.659  27.032  24.925  1.00  0.00     0.026 A 
ATOM     74  C   UNL A   1      31.287  27.409  24.830  1.00  0.00     0.041 A 
ATOM     75  C   UNL A   1      33.872  28.141  24.099  1.00  0.00     0.003 A 
ATOM     76  C   UNL A   1      31.501  28.537  24.036  1.00  0.00     0.020 A 
ATOM     77  C   UNL A   1      32.793  28.920  23.683  1.00  0.00     0.016 A 
ATOM     78  Br  UNL A   1      30.031  29.594  23.490  1.00  0.00    -0.051 Br
ENDBRANCH  70  72
ENDBRANCH  64  68
ENDBRANCH  60  62
ENDBRANCH  59  60
ENDBRANCH  58  59
ENDBRANCH  57  58
ENDBRANCH   1  57
TORSDOF 16
ENDMDL
MODEL 3
REMARK VINA RESULT:      -9.9      2.377      7.016
REMARK SMILES O=C(OCCOCCOC(=O)[C@@H]1CCCC[C@@H]1C(=O)Nc1cccc(Br)c1)c1ccc(-c2c3nc(c(-c4ccccc4)c4ccc([nH]4)c(-c4ccccc4)c4nc(c(-c5ccccc5)c5ccc2[nH]5)C=C4)C=C3)cc1
REMARK SMILES IDX 6 1 5 2 4 3 3 4 2 5 1 6 28 7 29 8 75 9 30 10 74 11 31 12
REMARK SMILES IDX 32 13 33 14 68 15 34 16 73 17 67 18 69 19 35 20 72 21 66 22
REMARK SMILES IDX 65 23 36 25 58 26 43 27 57 28 44 29 47 30 56 31 70 32 45 33
REMARK SMILES IDX 46 34 55 36 71 37 48 38 37 39 38 40 42 41 39 42 41 43 40 44
REMARK SMILES IDX 59 45 60 46 64 47 61 48 63 49 62 50 49 51 50 52 54 53 51 54
REMARK SMILES IDX 53 55 52 56 7 57 8 58 9 59 10 60 11 61 12 62 13 63 17 64
REMARK SMILES IDX 14 65 16 66 15 67 18 68 19 69 20 70 21 72 22 73 27 74 23 75
REMARK SMILES IDX 25 76 24 77 26 78
REMARK H PARENT 69 24 47 35 20 71
REMARK Flexibility Score: inf
ROOT
ATOM      1  O   UNL A   1      37.009  21.313  24.514  1.00  0.00    -0.374 OA
ENDROOT
BRANCH   1   2
ATOM      2  C   UNL A   1      38.079  20.914  25.373  1.00  0.00     0.202 C 
BRANCH   2   3
ATOM      3  C   UNL A   1      38.730  19.580  25.000  1.00  0.00     0.261 C 
BRANCH   3   4
ATOM      4  O   UNL A   1      39.789  19.263  25.913  1.00  0.00    -0.460 OA
BRANCH   4   5
ATOM      5  C   UNL A   1      41.053  19.752  25.893  1.00  0.00     0.338 C 
ATOM      6  O   UNL A   1      41.940  19.074  25.378  1.00  0.00    -0.246 OA
BRANCH   5   7
ATOM      7  C   UNL A   1      41.425  21.091  26.441  1.00  0.00     0.060 A 
ATOM      8  C   UNL A   1      41.845  22.178  25.674  1.00  0.00     0.016 A 
ATOM      9  C   UNL A   1      41.265  21.291  27.822  1.00  0.00     0.016 A 
ATOM     10  C   UNL A   1      42.121  23.404  26.226  1.00  0.00     0.010 A 
ATOM     11  C   UNL A   1      41.518  22.540  28.397  1.00  0.00     0.010 A 
ATOM     12  C   UNL A   1      41.944  23.595  27.586  1.00  0.00    -0.014 A 
BRANCH  12  13
ATOM     13  C   UNL A   1      42.368  24.905  28.080  1.00  0.00     0.031 A 
ATOM     14  C   UNL A   1      43.827  25.217  28.044  1.00  0.00     0.074 A 
ATOM     15  C   UNL A   1      41.429  25.849  28.278  1.00  0.00     0.049 A 
ATOM     16  N   UNL A   1      44.442  26.314  28.382  1.00  0.00    -0.248 NA
ATOM     17  C   UNL A   1      44.715  24.159  27.524  1.00  0.00     0.031 C 
ATOM     18  C   UNL A   1      39.982  25.650  28.114  1.00  0.00     0.029 A 
ATOM     19  N   UNL A   1      41.547  27.173  28.586  1.00  0.00    -0.354 N 
ATOM     20  C   UNL A   1      45.786  26.070  28.147  1.00  0.00     0.074 A 
ATOM     21  C   UNL A   1      45.906  24.724  27.638  1.00  0.00     0.031 C 
ATOM     22  C   UNL A   1      39.353  26.821  28.301  1.00  0.00     0.029 A 
ATOM     23  C   UNL A   1      40.340  27.822  28.679  1.00  0.00     0.049 A 
ATOM     24  H   UNL A   1      42.413  27.620  28.729  1.00  0.00     0.167 HD
ATOM     25  C   UNL A   1      46.825  26.908  28.356  1.00  0.00     0.031 A 
ATOM     26  C   UNL A   1      40.077  29.078  29.078  1.00  0.00     0.031 A 
ATOM     27  C   UNL A   1      46.655  28.234  28.879  1.00  0.00     0.049 A 
ATOM     28  C   UNL A   1      41.256  29.932  29.456  1.00  0.00     0.074 A 
ATOM     29  C   UNL A   1      47.617  29.152  29.247  1.00  0.00     0.029 A 
ATOM     30  N   UNL A   1      45.418  28.827  29.103  1.00  0.00    -0.354 N 
ATOM     31  N   UNL A   1      42.537  29.666  29.349  1.00  0.00    -0.248 NA
ATOM     32  C   UNL A   1      40.956  31.250  30.025  1.00  0.00     0.031 C 
ATOM     33  C   UNL A   1      46.961  30.282  29.746  1.00  0.00     0.029 A 
ATOM     34  C   UNL A   1      45.591  30.095  29.624  1.00  0.00     0.049 A 
ATOM     35  H   UNL A   1      44.547  28.407  28.917  1.00  0.00     0.167 HD
ATOM     36  C   UNL A   1      43.199  30.788  29.822  1.00  0.00     0.074 A 
ATOM     37  C   UNL A   1      42.173  31.749  30.182  1.00  0.00     0.031 C 
ATOM     38  C   UNL A   1      44.530  31.009  29.962  1.00  0.00     0.031 A 
BRANCH  25  39
ATOM     39  C   UNL A   1      48.201  26.364  28.112  1.00  0.00    -0.014 A 
ATOM     40  C   UNL A   1      48.826  26.466  26.859  1.00  0.00     0.009 A 
ATOM     41  C   UNL A   1      48.868  25.699  29.152  1.00  0.00     0.009 A 
ATOM     42  C   UNL A   1      50.081  25.888  26.648  1.00  0.00     0.001 A 
ATOM     43  C   UNL A   1      50.132  25.146  28.946  1.00  0.00     0.001 A 
ATOM     44  C   UNL A   1      50.733  25.232  27.692  1.00  0.00     0.000 A 
ENDBRANCH  25  39
BRANCH  26  45
ATOM     45  C   UNL A   1      38.677  29.554  29.253  1.00  0.00    -0.014 A 
ATOM     46  C   UNL A   1      37.968  29.318  30.441  1.00  0.00     0.009 A 
ATOM     47  C   UNL A   1      38.015  30.200  28.194  1.00  0.00     0.009 A 
ATOM     48  C   UNL A   1      36.620  29.674  30.545  1.00  0.00     0.001 A 
ATOM     49  C   UNL A   1      36.680  30.589  28.314  1.00  0.00     0.001 A 
ATOM     50  C   UNL A   1      35.977  30.310  29.482  1.00  0.00     0.000 A 
ENDBRANCH  26  45
BRANCH  38  51
ATOM     51  C   UNL A   1      44.927  32.356  30.489  1.00  0.00    -0.014 A 
ATOM     52  C   UNL A   1      45.133  33.443  29.625  1.00  0.00     0.009 A 
ATOM     53  C   UNL A   1      45.067  32.540  31.872  1.00  0.00     0.009 A 
ATOM     54  C   UNL A   1      45.519  34.681  30.138  1.00  0.00     0.001 A 
ATOM     55  C   UNL A   1      45.414  33.789  32.384  1.00  0.00     0.001 A 
ATOM     56  C   UNL A   1      45.653  34.853  31.516  1.00  0.00     0.000 A 
ENDBRANCH  38  51
ENDBRANCH  12  13
ENDBRANCH   5   7
ENDBRANCH   4   5
ENDBRANCH   3   4
ENDBRANCH   2   3
ENDBRANCH   1   2
BRANCH   1  57
ATOM     57  C   UNL A   1      35.679  21.185  25.014  1.00  0.00     0.202 C 
BRANCH  57  58
ATOM     58  C   UNL A   1      34.807  22.316  24.468  1.00  0.00     0.261 C 
BRANCH  58  59
ATOM     59  O   UNL A   1      34.282  23.056  25.578  1.00  0.00    -0.463 OA
BRANCH  59  60
ATOM     60  C   UNL A   1      33.053  23.605  25.358  1.00  0.00     0.309 C 
ATOM     61  O   UNL A   1      32.068  22.993  24.970  1.00  0.00    -0.252 OA
BRANCH  60  62
ATOM     62  C   UNL A   1      33.095  25.060  25.762  1.00  0.00     0.111 C 
ATOM     63  C   UNL A   1      31.814  25.609  26.388  1.00  0.00     0.016 C 
ATOM     64  C   UNL A   1      33.670  25.885  24.624  1.00  0.00     0.093 C 
ATOM     65  C   UNL A   1      31.777  27.130  26.553  1.00  0.00     0.001 C 
ATOM     66  C   UNL A   1      33.822  27.340  25.042  1.00  0.00     0.014 C 
ATOM     67  C   UNL A   1      32.521  27.961  25.511  1.00  0.00     0.001 C 
BRANCH  64  68
ATOM     68  C   UNL A   1      33.260  25.599  23.158  1.00  0.00     0.228 C 
ATOM     69  O   UNL A   1      34.135  25.186  22.385  1.00  0.00    -0.274 OA
ATOM     70  N   UNL A   1      31.975  25.572  22.697  1.00  0.00    -0.326 N 
ATOM     71  H   UNL A   1      31.820  24.879  22.013  1.00  0.00     0.169 HD
BRANCH  70  72
ATOM     72  C   UNL A   1      30.832  26.325  22.995  1.00  0.00     0.042 A 
ATOM     73  C   UNL A   1      29.783  25.819  23.757  1.00  0.00     0.026 A 
ATOM     74  C   UNL A   1      30.775  27.655  22.564  1.00  0.00     0.041 A 
ATOM     75  C   UNL A   1      28.615  26.568  23.943  1.00  0.00     0.003 A 
ATOM     76  C   UNL A   1      29.596  28.388  22.717  1.00  0.00     0.020 A 
ATOM     77  C   UNL A   1      28.505  27.842  23.389  1.00  0.00     0.016 A 
ATOM     78  Br  UNL A   1      29.455  30.111  21.949  1.00  0.00    -0.051 Br
ENDBRANCH  70  72
ENDBRANCH  64  68
ENDBRANCH  60  62
ENDBRANCH  59  60
ENDBRANCH  58  59
ENDBRANCH  57  58
ENDBRANCH   1  57
TORSDOF 16
ENDMDL
