MODEL 1
REMARK VINA RESULT:      -9.4      0.000      0.000
REMARK SMILES COc1ccc(OC)c(C[NH2+][C@@H](C(=O)OCCOCCOC(=O)c2ccc(-c3c4nc(c(-c5ccccc5)c5ccc([nH]5)c(-c5ccccc5)c5nc(c(-c6ccccc6)c6ccc3[nH]6)C=C5)C=C4)cc2)C(C)C)c1
REMARK SMILES IDX 17 1 16 2 15 3 13 4 14 5 12 6 11 7 10 10 9 11 3 12 4 13
REMARK SMILES IDX 75 14 5 15 6 16 2 17 1 18 7 19 8 20 72 21 73 22 74 23 18 24
REMARK SMILES IDX 19 25 20 26 21 27 22 28 23 29 24 30 25 31 71 32 26 33 70 34
REMARK SMILES IDX 27 35 28 36 29 37 64 38 30 39 69 40 63 41 65 42 31 43 68 44
REMARK SMILES IDX 62 45 61 46 32 48 54 49 39 50 53 51 40 52 43 53 52 54 66 55
REMARK SMILES IDX 41 56 42 57 51 59 67 60 44 61 33 62 34 63 38 64 35 65 37 66
REMARK SMILES IDX 36 67 55 68 56 69 60 70 57 71 59 72 58 73 45 74 46 75 50 76
REMARK SMILES IDX 47 77 49 78 48 79
REMARK H PARENT 11 8 11 9 65 47 43 58
REMARK Flexibility Score: inf
ROOT
ATOM      1  C   UNL A   1      37.938  21.417  25.025  1.00  0.00     0.202 C 
ENDROOT
BRANCH   1   2
ATOM      2  C   UNL A   1      36.890  22.257  24.300  1.00  0.00     0.261 C 
BRANCH   2   3
ATOM      3  O   UNL A   1      35.712  22.339  25.115  1.00  0.00    -0.459 OA
BRANCH   3   4
ATOM      4  C   UNL A   1      34.584  22.724  24.470  1.00  0.00     0.365 C 
ATOM      5  O   UNL A   1      34.539  22.917  23.258  1.00  0.00    -0.245 OA
BRANCH   4   6
ATOM      6  C   UNL A   1      33.360  22.909  25.403  1.00  0.00     0.296 C 
BRANCH   6   7
ATOM      7  N   UNL A   1      32.431  21.728  25.491  1.00  0.00    -0.330 N 
ATOM      8  H   UNL A   1      31.708  21.949  26.176  1.00  0.00     0.347 HD
ATOM      9  H   UNL A   1      32.075  21.584  24.546  1.00  0.00     0.347 HD
BRANCH   7  10
ATOM     10  C   UNL A   1      33.051  20.460  25.882  1.00  0.00     0.302 C 
BRANCH  10  11
ATOM     11  C   UNL A   1      32.981  19.415  24.767  1.00  0.00     0.052 A 
ATOM     12  C   UNL A   1      33.633  17.142  24.027  1.00  0.00     0.119 A 
ATOM     13  C   UNL A   1      33.035  17.371  22.801  1.00  0.00     0.050 A 
ATOM     14  C   UNL A   1      33.607  18.152  24.998  1.00  0.00     0.059 A 
ATOM     15  C   UNL A   1      32.432  18.596  22.542  1.00  0.00     0.051 A 
ATOM     16  C   UNL A   1      32.404  19.624  23.500  1.00  0.00     0.127 A 
BRANCH  12  17
ATOM     17  O   UNL A   1      34.302  15.953  24.093  1.00  0.00    -0.497 OA
ATOM     18  C   UNL A   1      35.082  15.692  25.246  1.00  0.00     0.278 C 
ENDBRANCH  12  17
BRANCH  16  19
ATOM     19  O   UNL A   1      31.886  20.765  22.958  1.00  0.00    -0.496 OA
ATOM     20  C   UNL A   1      31.879  20.953  21.559  1.00  0.00     0.278 C 
ENDBRANCH  16  19
ENDBRANCH  10  11
ENDBRANCH   7  10
ENDBRANCH   6   7
BRANCH   6  21
ATOM     21  C   UNL A   1      32.483  24.151  25.005  1.00  0.00     0.053 C 
ATOM     22  C   UNL A   1      31.181  23.705  24.314  1.00  0.00     0.014 C 
ATOM     23  C   UNL A   1      32.094  25.088  26.156  1.00  0.00     0.014 C 
ENDBRANCH   6  21
ENDBRANCH   4   6
ENDBRANCH   3   4
ENDBRANCH   2   3
ENDBRANCH   1   2
BRANCH   1  24
ATOM     24  O   UNL A   1      37.705  20.009  25.099  1.00  0.00    -0.374 OA
BRANCH  24  25
ATOM     25  C   UNL A   1      38.809  19.162  25.424  1.00  0.00     0.202 C 
BRANCH  25  26
ATOM     26  C   UNL A   1      40.126  19.825  25.848  1.00  0.00     0.261 C 
BRANCH  26  27
ATOM     27  O   UNL A   1      41.245  18.926  25.854  1.00  0.00    -0.460 OA
BRANCH  27  28
ATOM     28  C   UNL A   1      42.463  19.522  25.847  1.00  0.00     0.338 C 
ATOM     29  O   UNL A   1      43.506  19.082  25.388  1.00  0.00    -0.246 OA
BRANCH  28  30
ATOM     30  C   UNL A   1      42.325  20.904  26.351  1.00  0.00     0.060 A 
ATOM     31  C   UNL A   1      42.548  21.984  25.494  1.00  0.00     0.016 A 
ATOM     32  C   UNL A   1      42.004  21.132  27.684  1.00  0.00     0.016 A 
ATOM     33  C   UNL A   1      42.530  23.285  25.999  1.00  0.00     0.010 A 
ATOM     34  C   UNL A   1      41.961  22.427  28.192  1.00  0.00     0.010 A 
ATOM     35  C   UNL A   1      42.291  23.505  27.363  1.00  0.00    -0.014 A 
BRANCH  35  36
ATOM     36  C   UNL A   1      42.549  24.826  27.978  1.00  0.00     0.031 A 
ATOM     37  C   UNL A   1      43.940  25.142  28.463  1.00  0.00     0.074 A 
ATOM     38  C   UNL A   1      41.555  25.716  28.133  1.00  0.00     0.049 A 
ATOM     39  N   UNL A   1      44.398  26.238  29.012  1.00  0.00    -0.248 NA
ATOM     40  C   UNL A   1      44.945  24.073  28.332  1.00  0.00     0.031 C 
ATOM     41  C   UNL A   1      40.162  25.508  27.741  1.00  0.00     0.029 A 
ATOM     42  N   UNL A   1      41.571  26.975  28.676  1.00  0.00    -0.354 N 
ATOM     43  C   UNL A   1      45.738  25.991  29.285  1.00  0.00     0.074 A 
ATOM     44  C   UNL A   1      46.006  24.624  28.903  1.00  0.00     0.031 C 
ATOM     45  C   UNL A   1      39.456  26.609  28.049  1.00  0.00     0.029 A 
ATOM     46  C   UNL A   1      40.343  27.587  28.674  1.00  0.00     0.049 A 
ATOM     47  H   UNL A   1      42.385  27.398  29.033  1.00  0.00     0.167 HD
ATOM     48  C   UNL A   1      46.668  26.834  29.791  1.00  0.00     0.031 A 
ATOM     49  C   UNL A   1      39.981  28.803  29.126  1.00  0.00     0.031 A 
ATOM     50  C   UNL A   1      46.394  28.190  30.184  1.00  0.00     0.049 A 
ATOM     51  C   UNL A   1      41.026  29.714  29.711  1.00  0.00     0.074 A 
ATOM     52  C   UNL A   1      47.276  29.147  30.654  1.00  0.00     0.029 A 
ATOM     53  N   UNL A   1      45.138  28.776  30.165  1.00  0.00    -0.354 N 
ATOM     54  N   UNL A   1      42.310  29.504  29.874  1.00  0.00    -0.248 NA
ATOM     55  C   UNL A   1      40.574  31.041  30.151  1.00  0.00     0.031 C 
ATOM     56  C   UNL A   1      46.542  30.292  30.981  1.00  0.00     0.029 A 
ATOM     57  C   UNL A   1      45.215  30.072  30.645  1.00  0.00     0.049 A 
ATOM     58  H   UNL A   1      44.313  28.336  29.855  1.00  0.00     0.167 HD
ATOM     59  C   UNL A   1      42.824  30.683  30.401  1.00  0.00     0.074 A 
ATOM     60  C   UNL A   1      41.716  31.608  30.515  1.00  0.00     0.031 C 
ATOM     61  C   UNL A   1      44.101  30.978  30.753  1.00  0.00     0.031 A 
BRANCH  48  62
ATOM     62  C   UNL A   1      48.070  26.310  29.955  1.00  0.00    -0.014 A 
ATOM     63  C   UNL A   1      48.978  26.308  28.882  1.00  0.00     0.009 A 
ATOM     64  C   UNL A   1      48.506  25.853  31.209  1.00  0.00     0.009 A 
ATOM     65  C   UNL A   1      50.278  25.826  29.054  1.00  0.00     0.001 A 
ATOM     66  C   UNL A   1      49.815  25.403  31.385  1.00  0.00     0.001 A 
ATOM     67  C   UNL A   1      50.697  25.382  30.307  1.00  0.00     0.000 A 
ENDBRANCH  48  62
BRANCH  49  68
ATOM     68  C   UNL A   1      38.564  29.241  29.016  1.00  0.00    -0.014 A 
ATOM     69  C   UNL A   1      37.705  29.162  30.124  1.00  0.00     0.009 A 
ATOM     70  C   UNL A   1      38.063  29.738  27.803  1.00  0.00     0.009 A 
ATOM     71  C   UNL A   1      36.366  29.541  30.009  1.00  0.00     0.001 A 
ATOM     72  C   UNL A   1      36.731  30.145  27.700  1.00  0.00     0.001 A 
ATOM     73  C   UNL A   1      35.882  30.038  28.800  1.00  0.00     0.000 A 
ENDBRANCH  49  68
BRANCH  61  74
ATOM     74  C   UNL A   1      44.376  32.369  31.256  1.00  0.00    -0.014 A 
ATOM     75  C   UNL A   1      44.333  32.678  32.624  1.00  0.00     0.009 A 
ATOM     76  C   UNL A   1      44.723  33.378  30.342  1.00  0.00     0.009 A 
ATOM     77  C   UNL A   1      44.595  33.979  33.062  1.00  0.00     0.001 A 
ATOM     78  C   UNL A   1      45.017  34.668  30.785  1.00  0.00     0.001 A 
ATOM     79  C   UNL A   1      44.942  34.970  32.143  1.00  0.00     0.000 A 
ENDBRANCH  61  74
ENDBRANCH  35  36
ENDBRANCH  28  30
ENDBRANCH  27  28
ENDBRANCH  26  27
ENDBRANCH  25  26
ENDBRANCH  24  25
ENDBRANCH   1  24
TORSDOF 20
ENDMDL
MODEL 2
REMARK VINA RESULT:      -9.4      1.807      7.060
REMARK SMILES COc1ccc(OC)c(C[NH2+][C@@H](C(=O)OCCOCCOC(=O)c2ccc(-c3c4nc(c(-c5ccccc5)c5ccc([nH]5)c(-c5ccccc5)c5nc(c(-c6ccccc6)c6ccc3[nH]6)C=C5)C=C4)cc2)C(C)C)c1
REMARK SMILES IDX 17 1 16 2 15 3 13 4 14 5 12 6 11 7 10 10 9 11 3 12 4 13
REMARK SMILES IDX 75 14 5 15 6 16 2 17 1 18 7 19 8 20 72 21 73 22 74 23 18 24
REMARK SMILES IDX 19 25 20 26 21 27 22 28 23 29 24 30 25 31 71 32 26 33 70 34
REMARK SMILES IDX 27 35 28 36 29 37 64 38 30 39 69 40 63 41 65 42 31 43 68 44
REMARK SMILES IDX 62 45 61 46 32 48 54 49 39 50 53 51 40 52 43 53 52 54 66 55
REMARK SMILES IDX 41 56 42 57 51 59 67 60 44 61 33 62 34 63 38 64 35 65 37 66
REMARK SMILES IDX 36 67 55 68 56 69 60 70 57 71 59 72 58 73 45 74 46 75 50 76
REMARK SMILES IDX 47 77 49 78 48 79
REMARK H PARENT 11 8 11 9 65 47 43 58
REMARK Flexibility Score: inf
ROOT
ATOM      1  C   UNL A   1      37.678  22.373  25.557  1.00  0.00     0.202 C 
ENDROOT
BRANCH   1   2
ATOM      2  C   UNL A   1      36.270  21.787  25.628  1.00  0.00     0.261 C 
BRANCH   2   3
ATOM      3  O   UNL A   1      35.810  21.514  24.297  1.00  0.00    -0.459 OA
BRANCH   3   4
ATOM      4  C   UNL A   1      35.534  22.605  23.542  1.00  0.00     0.365 C 
ATOM      5  O   UNL A   1      36.356  23.128  22.794  1.00  0.00    -0.245 OA
BRANCH   4   6
ATOM      6  C   UNL A   1      34.088  23.139  23.716  1.00  0.00     0.296 C 
BRANCH   6   7
ATOM      7  N   UNL A   1      33.887  24.091  24.865  1.00  0.00    -0.330 N 
ATOM      8  H   UNL A   1      32.887  24.132  25.066  1.00  0.00     0.347 HD
ATOM      9  H   UNL A   1      34.447  23.722  25.633  1.00  0.00     0.347 HD
BRANCH   7  10
ATOM     10  C   UNL A   1      34.359  25.460  24.646  1.00  0.00     0.302 C 
BRANCH  10  11
ATOM     11  C   UNL A   1      33.208  26.461  24.554  1.00  0.00     0.052 A 
ATOM     12  C   UNL A   1      32.085  28.415  25.584  1.00  0.00     0.119 A 
ATOM     13  C   UNL A   1      31.105  28.365  24.608  1.00  0.00     0.050 A 
ATOM     14  C   UNL A   1      33.123  27.474  25.556  1.00  0.00     0.059 A 
ATOM     15  C   UNL A   1      31.153  27.380  23.629  1.00  0.00     0.051 A 
ATOM     16  C   UNL A   1      32.180  26.423  23.591  1.00  0.00     0.127 A 
BRANCH  12  17
ATOM     17  O   UNL A   1      31.839  29.342  26.556  1.00  0.00    -0.497 OA
ATOM     18  C   UNL A   1      32.947  29.991  27.151  1.00  0.00     0.278 C 
ENDBRANCH  12  17
BRANCH  16  19
ATOM     19  O   UNL A   1      31.925  25.489  22.629  1.00  0.00    -0.496 OA
ATOM     20  C   UNL A   1      32.544  25.579  21.364  1.00  0.00     0.278 C 
ENDBRANCH  16  19
ENDBRANCH  10  11
ENDBRANCH   7  10
ENDBRANCH   6   7
BRANCH   6  21
ATOM     21  C   UNL A   1      33.038  21.983  23.892  1.00  0.00     0.053 C 
ATOM     22  C   UNL A   1      32.039  22.315  25.015  1.00  0.00     0.014 C 
ATOM     23  C   UNL A   1      32.222  21.629  22.641  1.00  0.00     0.014 C 
ENDBRANCH   6  21
ENDBRANCH   4   6
ENDBRANCH   3   4
ENDBRANCH   2   3
ENDBRANCH   1   2
BRANCH   1  24
ATOM     24  O   UNL A   1      38.766  21.485  25.819  1.00  0.00    -0.374 OA
BRANCH  24  25
ATOM     25  C   UNL A   1      38.709  20.170  25.264  1.00  0.00     0.202 C 
BRANCH  25  26
ATOM     26  C   UNL A   1      39.650  19.103  25.839  1.00  0.00     0.261 C 
BRANCH  26  27
ATOM     27  O   UNL A   1      41.003  19.220  25.375  1.00  0.00    -0.460 OA
BRANCH  27  28
ATOM     28  C   UNL A   1      41.932  19.394  26.346  1.00  0.00     0.338 C 
ATOM     29  O   UNL A   1      42.710  18.564  26.793  1.00  0.00    -0.246 OA
BRANCH  28  30
ATOM     30  C   UNL A   1      41.992  20.826  26.703  1.00  0.00     0.060 A 
ATOM     31  C   UNL A   1      42.231  21.782  25.714  1.00  0.00     0.016 A 
ATOM     32  C   UNL A   1      41.841  21.223  28.028  1.00  0.00     0.016 A 
ATOM     33  C   UNL A   1      42.401  23.122  26.070  1.00  0.00     0.010 A 
ATOM     34  C   UNL A   1      41.986  22.559  28.389  1.00  0.00     0.010 A 
ATOM     35  C   UNL A   1      42.334  23.504  27.417  1.00  0.00    -0.014 A 
BRANCH  35  36
ATOM     36  C   UNL A   1      42.791  24.842  27.853  1.00  0.00     0.031 A 
ATOM     37  C   UNL A   1      41.762  25.906  28.132  1.00  0.00     0.074 A 
ATOM     38  C   UNL A   1      44.101  25.115  27.965  1.00  0.00     0.049 A 
ATOM     39  N   UNL A   1      41.931  27.136  28.543  1.00  0.00    -0.248 NA
ATOM     40  C   UNL A   1      40.353  25.542  27.898  1.00  0.00     0.031 C 
ATOM     41  C   UNL A   1      45.189  24.182  27.683  1.00  0.00     0.029 A 
ATOM     42  N   UNL A   1      44.734  26.273  28.339  1.00  0.00    -0.354 N 
ATOM     43  C   UNL A   1      40.657  27.687  28.618  1.00  0.00     0.074 A 
ATOM     44  C   UNL A   1      39.730  26.683  28.152  1.00  0.00     0.031 C 
ATOM     45  C   UNL A   1      46.360  24.802  27.903  1.00  0.00     0.029 A 
ATOM     46  C   UNL A   1      46.103  26.178  28.323  1.00  0.00     0.049 A 
ATOM     47  H   UNL A   1      44.253  27.093  28.593  1.00  0.00     0.167 HD
ATOM     48  C   UNL A   1      40.290  28.914  29.057  1.00  0.00     0.031 A 
ATOM     49  C   UNL A   1      47.039  27.099  28.617  1.00  0.00     0.031 A 
ATOM     50  C   UNL A   1      41.217  29.917  29.506  1.00  0.00     0.049 A 
ATOM     51  C   UNL A   1      46.609  28.467  29.075  1.00  0.00     0.074 A 
ATOM     52  C   UNL A   1      40.947  31.172  30.024  1.00  0.00     0.029 A 
ATOM     53  N   UNL A   1      42.597  29.782  29.478  1.00  0.00    -0.354 N 
ATOM     54  N   UNL A   1      45.398  28.944  29.235  1.00  0.00    -0.248 NA
ATOM     55  C   UNL A   1      47.678  29.415  29.416  1.00  0.00     0.031 C 
ATOM     56  C   UNL A   1      42.166  31.821  30.249  1.00  0.00     0.029 A 
ATOM     57  C   UNL A   1      43.193  30.943  29.940  1.00  0.00     0.049 A 
ATOM     58  H   UNL A   1      43.080  28.980  29.176  1.00  0.00     0.167 HD
ATOM     59  C   UNL A   1      45.559  30.232  29.730  1.00  0.00     0.074 A 
ATOM     60  C   UNL A   1      46.985  30.456  29.857  1.00  0.00     0.031 C 
ATOM     61  C   UNL A   1      44.614  31.149  30.057  1.00  0.00     0.031 A 
BRANCH  48  62
ATOM     62  C   UNL A   1      38.820  29.243  29.064  1.00  0.00    -0.014 A 
ATOM     63  C   UNL A   1      38.026  29.006  30.198  1.00  0.00     0.009 A 
ATOM     64  C   UNL A   1      38.230  29.837  27.937  1.00  0.00     0.009 A 
ATOM     65  C   UNL A   1      36.666  29.325  30.191  1.00  0.00     0.001 A 
ATOM     66  C   UNL A   1      36.878  30.184  27.944  1.00  0.00     0.001 A 
ATOM     67  C   UNL A   1      36.095  29.920  29.067  1.00  0.00     0.000 A 
ENDBRANCH  48  62
BRANCH  49  68
ATOM     68  C   UNL A   1      48.480  26.750  28.514  1.00  0.00    -0.014 A 
ATOM     69  C   UNL A   1      49.179  26.950  27.313  1.00  0.00     0.009 A 
ATOM     70  C   UNL A   1      49.164  26.210  29.614  1.00  0.00     0.009 A 
ATOM     71  C   UNL A   1      50.524  26.587  27.207  1.00  0.00     0.001 A 
ATOM     72  C   UNL A   1      50.517  25.878  29.515  1.00  0.00     0.001 A 
ATOM     73  C   UNL A   1      51.193  26.058  28.310  1.00  0.00     0.000 A 
ENDBRANCH  49  68
BRANCH  61  74
ATOM     74  C   UNL A   1      45.087  32.460  30.623  1.00  0.00    -0.014 A 
ATOM     75  C   UNL A   1      45.338  33.568  29.799  1.00  0.00     0.009 A 
ATOM     76  C   UNL A   1      45.244  32.597  32.012  1.00  0.00     0.009 A 
ATOM     77  C   UNL A   1      45.775  34.774  30.352  1.00  0.00     0.001 A 
ATOM     78  C   UNL A   1      45.648  33.812  32.565  1.00  0.00     0.001 A 
ATOM     79  C   UNL A   1      45.924  34.896  31.734  1.00  0.00     0.000 A 
ENDBRANCH  61  74
ENDBRANCH  35  36
ENDBRANCH  28  30
ENDBRANCH  27  28
ENDBRANCH  26  27
ENDBRANCH  25  26
ENDBRANCH  24  25
ENDBRANCH   1  24
TORSDOF 20
ENDMDL
MODEL 3
REMARK VINA RESULT:      -9.4      4.773     10.214
REMARK SMILES COc1ccc(OC)c(C[NH2+][C@@H](C(=O)OCCOCCOC(=O)c2ccc(-c3c4nc(c(-c5ccccc5)c5ccc([nH]5)c(-c5ccccc5)c5nc(c(-c6ccccc6)c6ccc3[nH]6)C=C5)C=C4)cc2)C(C)C)c1
REMARK SMILES IDX 17 1 16 2 15 3 13 4 14 5 12 6 11 7 10 10 9 11 3 12 4 13
REMARK SMILES IDX 75 14 5 15 6 16 2 17 1 18 7 19 8 20 72 21 73 22 74 23 18 24
REMARK SMILES IDX 19 25 20 26 21 27 22 28 23 29 24 30 25 31 71 32 26 33 70 34
REMARK SMILES IDX 27 35 28 36 29 37 64 38 30 39 69 40 63 41 65 42 31 43 68 44
REMARK SMILES IDX 62 45 61 46 32 48 54 49 39 50 53 51 40 52 43 53 52 54 66 55
REMARK SMILES IDX 41 56 42 57 51 59 67 60 44 61 33 62 34 63 38 64 35 65 37 66
REMARK SMILES IDX 36 67 55 68 56 69 60 70 57 71 59 72 58 73 45 74 46 75 50 76
REMARK SMILES IDX 47 77 49 78 48 79
REMARK H PARENT 11 8 11 9 65 47 43 58
REMARK Flexibility Score: inf
ROOT
ATOM      1  C   UNL A   1      45.923  23.160  24.166  1.00  0.00     0.202 C 
ENDROOT
BRANCH   1   2
ATOM      2  C   UNL A   1      46.269  23.666  25.563  1.00  0.00     0.261 C 
BRANCH   2   3
ATOM      3  O   UNL A   1      47.671  23.965  25.618  1.00  0.00    -0.459 OA
BRANCH   3   4
ATOM      4  C   UNL A   1      48.031  24.907  26.523  1.00  0.00     0.365 C 
ATOM      5  O   UNL A   1      48.314  24.642  27.688  1.00  0.00    -0.245 OA
BRANCH   4   6
ATOM      6  C   UNL A   1      48.040  26.350  25.956  1.00  0.00     0.296 C 
BRANCH   6   7
ATOM      7  N   UNL A   1      46.744  27.103  26.086  1.00  0.00    -0.330 N 
ATOM      8  H   UNL A   1      46.799  27.929  25.489  1.00  0.00     0.347 HD
ATOM      9  H   UNL A   1      46.012  26.446  25.814  1.00  0.00     0.347 HD
BRANCH   7  10
ATOM     10  C   UNL A   1      46.399  27.546  27.439  1.00  0.00     0.302 C 
BRANCH  10  11
ATOM     11  C   UNL A   1      45.218  28.518  27.445  1.00  0.00     0.052 A 
ATOM     12  C   UNL A   1      44.276  30.615  28.371  1.00  0.00     0.119 A 
ATOM     13  C   UNL A   1      43.108  30.402  27.660  1.00  0.00     0.050 A 
ATOM     14  C   UNL A   1      45.317  29.683  28.264  1.00  0.00     0.059 A 
ATOM     15  C   UNL A   1      42.976  29.268  26.867  1.00  0.00     0.051 A 
ATOM     16  C   UNL A   1      44.006  28.319  26.756  1.00  0.00     0.127 A 
BRANCH  12  17
ATOM     17  O   UNL A   1      44.215  31.690  29.210  1.00  0.00    -0.497 OA
ATOM     18  C   UNL A   1      43.901  32.953  28.651  1.00  0.00     0.278 C 
ENDBRANCH  12  17
BRANCH  16  19
ATOM     19  O   UNL A   1      43.580  27.238  26.039  1.00  0.00    -0.496 OA
ATOM     20  C   UNL A   1      42.345  27.273  25.357  1.00  0.00     0.278 C 
ENDBRANCH  16  19
ENDBRANCH  10  11
ENDBRANCH   7  10
ENDBRANCH   6   7
BRANCH   6  21
ATOM     21  C   UNL A   1      48.444  26.397  24.438  1.00  0.00     0.053 C 
ATOM     22  C   UNL A   1      47.629  27.464  23.685  1.00  0.00     0.014 C 
ATOM     23  C   UNL A   1      49.928  26.666  24.151  1.00  0.00     0.014 C 
ENDBRANCH   6  21
ENDBRANCH   4   6
ENDBRANCH   3   4
ENDBRANCH   2   3
ENDBRANCH   1   2
BRANCH   1  24
ATOM     24  O   UNL A   1      45.193  21.935  24.080  1.00  0.00    -0.374 OA
BRANCH  24  25
ATOM     25  C   UNL A   1      45.659  20.820  24.840  1.00  0.00     0.202 C 
BRANCH  25  26
ATOM     26  C   UNL A   1      44.636  19.761  25.270  1.00  0.00     0.261 C 
BRANCH  26  27
ATOM     27  O   UNL A   1      43.318  19.991  24.751  1.00  0.00    -0.460 OA
BRANCH  27  28
ATOM     28  C   UNL A   1      42.318  19.919  25.664  1.00  0.00     0.338 C 
ATOM     29  O   UNL A   1      41.678  18.932  25.993  1.00  0.00    -0.246 OA
BRANCH  28  30
ATOM     30  C   UNL A   1      42.204  21.219  26.356  1.00  0.00     0.060 A 
ATOM     31  C   UNL A   1      42.466  22.403  25.662  1.00  0.00     0.016 A 
ATOM     32  C   UNL A   1      41.865  21.266  27.703  1.00  0.00     0.016 A 
ATOM     33  C   UNL A   1      42.468  23.621  26.346  1.00  0.00     0.010 A 
ATOM     34  C   UNL A   1      41.842  22.478  28.387  1.00  0.00     0.010 A 
ATOM     35  C   UNL A   1      42.211  23.653  27.724  1.00  0.00    -0.014 A 
BRANCH  35  36
ATOM     36  C   UNL A   1      42.489  24.868  28.522  1.00  0.00     0.031 A 
ATOM     37  C   UNL A   1      41.425  25.929  28.624  1.00  0.00     0.074 A 
ATOM     38  C   UNL A   1      43.680  25.038  29.117  1.00  0.00     0.049 A 
ATOM     39  N   UNL A   1      41.441  27.059  29.283  1.00  0.00    -0.248 NA
ATOM     40  C   UNL A   1      40.183  25.696  27.865  1.00  0.00     0.031 C 
ATOM     41  C   UNL A   1      44.801  24.102  29.057  1.00  0.00     0.029 A 
ATOM     42  N   UNL A   1      44.145  26.075  29.885  1.00  0.00    -0.354 N 
ATOM     43  C   UNL A   1      40.218  27.666  29.020  1.00  0.00     0.074 A 
ATOM     44  C   UNL A   1      39.509  26.813  28.095  1.00  0.00     0.031 C 
ATOM     45  C   UNL A   1      45.824  24.603  29.767  1.00  0.00     0.029 A 
ATOM     46  C   UNL A   1      45.436  25.901  30.316  1.00  0.00     0.049 A 
ATOM     47  H   UNL A   1      43.604  26.868  30.106  1.00  0.00     0.167 HD
ATOM     48  C   UNL A   1      39.721  28.820  29.523  1.00  0.00     0.031 A 
ATOM     49  C   UNL A   1      46.213  26.701  31.070  1.00  0.00     0.031 A 
ATOM     50  C   UNL A   1      40.436  29.675  30.432  1.00  0.00     0.049 A 
ATOM     51  C   UNL A   1      45.650  27.994  31.595  1.00  0.00     0.074 A 
ATOM     52  C   UNL A   1      40.003  30.837  31.045  1.00  0.00     0.029 A 
ATOM     53  N   UNL A   1      41.741  29.463  30.848  1.00  0.00    -0.354 N 
ATOM     54  N   UNL A   1      44.457  28.509  31.419  1.00  0.00    -0.248 NA
ATOM     55  C   UNL A   1      46.536  28.805  32.442  1.00  0.00     0.031 C 
ATOM     56  C   UNL A   1      41.069  31.363  31.782  1.00  0.00     0.029 A 
ATOM     57  C   UNL A   1      42.141  30.490  31.685  1.00  0.00     0.049 A 
ATOM     58  H   UNL A   1      42.301  28.696  30.587  1.00  0.00     0.167 HD
ATOM     59  C   UNL A   1      44.436  29.683  32.163  1.00  0.00     0.074 A 
ATOM     60  C   UNL A   1      45.732  29.795  32.803  1.00  0.00     0.031 C 
ATOM     61  C   UNL A   1      43.435  30.586  32.311  1.00  0.00     0.031 A 
BRANCH  48  62
ATOM     62  C   UNL A   1      38.338  29.231  29.091  1.00  0.00    -0.014 A 
ATOM     63  C   UNL A   1      37.245  29.150  29.971  1.00  0.00     0.009 A 
ATOM     64  C   UNL A   1      38.130  29.748  27.803  1.00  0.00     0.009 A 
ATOM     65  C   UNL A   1      35.971  29.544  29.558  1.00  0.00     0.001 A 
ATOM     66  C   UNL A   1      36.862  30.171  27.404  1.00  0.00     0.001 A 
ATOM     67  C   UNL A   1      35.781  30.061  28.277  1.00  0.00     0.000 A 
ENDBRANCH  48  62
BRANCH  49  68
ATOM     68  C   UNL A   1      47.603  26.287  31.400  1.00  0.00    -0.014 A 
ATOM     69  C   UNL A   1      48.660  26.578  30.523  1.00  0.00     0.009 A 
ATOM     70  C   UNL A   1      47.878  25.596  32.589  1.00  0.00     0.009 A 
ATOM     71  C   UNL A   1      49.959  26.157  30.817  1.00  0.00     0.001 A 
ATOM     72  C   UNL A   1      49.183  25.204  32.895  1.00  0.00     0.001 A 
ATOM     73  C   UNL A   1      50.221  25.476  32.005  1.00  0.00     0.000 A 
ENDBRANCH  49  68
BRANCH  61  74
ATOM     74  C   UNL A   1      43.683  31.751  33.230  1.00  0.00    -0.014 A 
ATOM     75  C   UNL A   1      43.420  31.672  34.606  1.00  0.00     0.009 A 
ATOM     76  C   UNL A   1      44.230  32.937  32.710  1.00  0.00     0.009 A 
ATOM     77  C   UNL A   1      43.662  32.770  35.435  1.00  0.00     0.001 A 
ATOM     78  C   UNL A   1      44.502  34.020  33.546  1.00  0.00     0.001 A 
ATOM     79  C   UNL A   1      44.208  33.940  34.905  1.00  0.00     0.000 A 
ENDBRANCH  61  74
ENDBRANCH  35  36
ENDBRANCH  28  30
ENDBRANCH  27  28
ENDBRANCH  26  27
ENDBRANCH  25  26
ENDBRANCH  24  25
ENDBRANCH   1  24
TORSDOF 20
ENDMDL
