MODEL 1
REMARK VINA RESULT:      -9.2      0.000      0.000
REMARK SMILES C[C@H]1[C@H](C)CC[C@@]2(C(=O)OCCOCCOC(=O)c3ccc(-c4c5nc(c(-c6ccccc6)c6ccc([nH]6)c(-c6ccccc6)c6nc(c(-c7ccccc7)c7ccc4[nH]7)C=C6)C=C5)cc3)CC[C@@]3(C)C(=CC[C@@H]4[C@@]5(C)CC[C@H](O)C(C)(C)[C@@H]5CC[C@]43C)[C@H]12
REMARK SMILES IDX 14 1 13 2 12 3 11 4 10 5 8 6 9 7 7 8 1 9 2 10 3 11 89 12
REMARK SMILES IDX 4 13 5 14 71 15 6 16 67 17 69 18 72 19 68 20 70 21 87 22
REMARK SMILES IDX 73 23 74 24 86 25 88 26 75 27 85 28 76 29 77 30 84 31 78 32
REMARK SMILES IDX 81 33 79 34 82 35 83 36 80 37 15 39 16 40 17 41 18 42 19 43
REMARK SMILES IDX 20 44 66 45 21 46 65 47 22 48 23 49 24 50 59 51 25 52 64 53
REMARK SMILES IDX 58 54 60 55 26 56 63 57 57 58 56 59 27 61 49 62 34 63 48 64
REMARK SMILES IDX 35 65 38 66 47 67 61 68 36 69 37 70 46 72 62 73 39 74 28 75
REMARK SMILES IDX 29 76 33 77 30 78 32 79 31 80 50 81 51 82 55 83 52 84 54 85
REMARK SMILES IDX 53 86 40 87 41 88 45 89 42 90 44 91 43 92
REMARK H PARENT 80 38 60 60 38 71
REMARK Flexibility Score: inf
ROOT
ATOM      1  C   UNL A   1      36.142  33.529  29.104  1.00  0.00     0.202 C 
ENDROOT
BRANCH   1   2
ATOM      2  O   UNL A   1      37.165  34.046  29.940  1.00  0.00    -0.374 OA
BRANCH   2   3
ATOM      3  C   UNL A   1      38.490  33.621  29.662  1.00  0.00     0.202 C 
BRANCH   3   4
ATOM      4  C   UNL A   1      39.010  32.299  30.238  1.00  0.00     0.261 C 
BRANCH   4   5
ATOM      5  O   UNL A   1      39.880  32.480  31.378  1.00  0.00    -0.463 OA
BRANCH   5   6
ATOM      6  C   UNL A   1      39.391  32.402  32.640  1.00  0.00     0.312 C 
ATOM      7  O   UNL A   1      38.754  31.435  33.039  1.00  0.00    -0.252 OA
BRANCH   6   8
ATOM      8  C   UNL A   1      39.719  33.642  33.531  1.00  0.00     0.075 C 
ATOM      9  C   UNL A   1      37.647  32.992  36.837  1.00  0.00     0.008 C 
ATOM     10  C   UNL A   1      37.967  33.115  35.342  1.00  0.00    -0.003 C 
ATOM     11  C   UNL A   1      37.023  34.202  34.703  1.00  0.00    -0.011 C 
ATOM     12  C   UNL A   1      39.522  33.365  35.063  1.00  0.00     0.036 C 
ATOM     13  C   UNL A   1      35.527  33.841  34.752  1.00  0.00     0.008 C 
ATOM     14  C   UNL A   1      37.336  34.483  33.236  1.00  0.00     0.005 C 
ATOM     15  C   UNL A   1      40.633  32.306  35.467  1.00  0.00    -0.063 C 
ATOM     16  C   UNL A   1      38.798  34.786  33.041  1.00  0.00     0.020 C 
ATOM     17  C   UNL A   1      41.138  34.183  33.285  1.00  0.00     0.020 C 
ATOM     18  C   UNL A   1      42.139  32.659  35.143  1.00  0.00    -0.006 C 
ATOM     19  C   UNL A   1      40.315  31.043  35.827  1.00  0.00    -0.027 C 
ATOM     20  C   UNL A   1      42.250  33.251  33.709  1.00  0.00     0.013 C 
ATOM     21  C   UNL A   1      42.583  33.743  36.157  1.00  0.00     0.017 C 
ATOM     22  C   UNL A   1      43.139  31.354  35.234  1.00  0.00    -0.020 C 
ATOM     23  C   UNL A   1      41.194  29.843  35.522  1.00  0.00     0.032 C 
ATOM     24  C   UNL A   1      42.350  30.189  34.531  1.00  0.00     0.006 C 
ATOM     25  C   UNL A   1      44.521  31.571  34.568  1.00  0.00     0.008 C 
ATOM     26  C   UNL A   1      43.467  31.006  36.723  1.00  0.00     0.012 C 
ATOM     27  C   UNL A   1      43.152  28.970  33.856  1.00  0.00    -0.025 C 
ATOM     28  C   UNL A   1      45.313  30.267  34.387  1.00  0.00     0.005 C 
ATOM     29  C   UNL A   1      43.104  27.766  34.812  1.00  0.00     0.012 C 
ATOM     30  C   UNL A   1      42.447  28.545  32.520  1.00  0.00     0.010 C 
ATOM     31  C   UNL A   1      44.590  29.392  33.363  1.00  0.00     0.003 C 
ATOM     32  C   UNL A   1      43.164  27.452  31.718  1.00  0.00     0.033 C 
ATOM     33  C   UNL A   1      45.449  28.248  32.686  1.00  0.00    -0.006 C 
ATOM     34  C   UNL A   1      44.644  27.733  31.452  1.00  0.00     0.120 C 
ATOM     35  C   UNL A   1      45.860  27.100  33.633  1.00  0.00     0.014 C 
ATOM     36  C   UNL A   1      46.790  28.815  32.141  1.00  0.00     0.014 C 
BRANCH  34  37
ATOM     37  O   UNL A   1      45.247  26.574  30.877  1.00  0.00    -0.393 OA
ATOM     38  H   UNL A   1      46.137  26.456  31.247  1.00  0.00     0.210 HD
ENDBRANCH  34  37
ENDBRANCH   6   8
ENDBRANCH   5   6
ENDBRANCH   4   5
ENDBRANCH   3   4
ENDBRANCH   2   3
ENDBRANCH   1   2
BRANCH   1  39
ATOM     39  C   UNL A   1      35.296  32.475  29.836  1.00  0.00     0.261 C 
BRANCH  39  40
ATOM     40  O   UNL A   1      35.636  31.120  29.480  1.00  0.00    -0.460 OA
BRANCH  40  41
ATOM     41  C   UNL A   1      36.164  30.386  30.478  1.00  0.00     0.338 C 
ATOM     42  O   UNL A   1      35.902  30.459  31.684  1.00  0.00    -0.246 OA
BRANCH  41  43
ATOM     43  C   UNL A   1      37.071  29.354  29.954  1.00  0.00     0.060 A 
ATOM     44  C   UNL A   1      37.792  28.578  30.873  1.00  0.00     0.016 A 
ATOM     45  C   UNL A   1      37.363  29.298  28.590  1.00  0.00     0.016 A 
ATOM     46  C   UNL A   1      38.888  27.837  30.450  1.00  0.00     0.010 A 
ATOM     47  C   UNL A   1      38.490  28.587  28.168  1.00  0.00     0.010 A 
ATOM     48  C   UNL A   1      39.299  27.935  29.116  1.00  0.00    -0.014 A 
BRANCH  48  49
ATOM     49  C   UNL A   1      40.732  27.693  28.829  1.00  0.00     0.031 A 
ATOM     50  C   UNL A   1      41.124  26.310  28.369  1.00  0.00     0.074 A 
ATOM     51  C   UNL A   1      41.631  28.689  28.867  1.00  0.00     0.049 A 
ATOM     52  N   UNL A   1      42.300  25.841  28.043  1.00  0.00    -0.248 NA
ATOM     53  C   UNL A   1      40.035  25.322  28.254  1.00  0.00     0.031 C 
ATOM     54  C   UNL A   1      41.338  30.081  29.205  1.00  0.00     0.029 A 
ATOM     55  N   UNL A   1      42.974  28.678  28.603  1.00  0.00    -0.354 N 
ATOM     56  C   UNL A   1      42.091  24.509  27.700  1.00  0.00     0.074 A 
ATOM     57  C   UNL A   1      40.686  24.234  27.877  1.00  0.00     0.031 C 
ATOM     58  C   UNL A   1      42.475  30.793  29.128  1.00  0.00     0.029 A 
ATOM     59  C   UNL A   1      43.575  29.899  28.773  1.00  0.00     0.049 A 
ATOM     60  H   UNL A   1      43.462  27.871  28.318  1.00  0.00     0.167 HD
ATOM     61  C   UNL A   1      42.992  23.595  27.269  1.00  0.00     0.031 A 
ATOM     62  C   UNL A   1      44.873  30.243  28.669  1.00  0.00     0.031 A 
ATOM     63  C   UNL A   1      44.391  23.877  27.107  1.00  0.00     0.049 A 
ATOM     64  C   UNL A   1      45.872  29.189  28.272  1.00  0.00     0.074 A 
ATOM     65  C   UNL A   1      45.404  23.029  26.701  1.00  0.00     0.029 A 
ATOM     66  N   UNL A   1      44.971  25.114  27.348  1.00  0.00    -0.354 N 
ATOM     67  N   UNL A   1      45.669  27.927  27.970  1.00  0.00    -0.248 NA
ATOM     68  C   UNL A   1      47.277  29.608  28.189  1.00  0.00     0.031 C 
ATOM     69  C   UNL A   1      46.608  23.740  26.747  1.00  0.00     0.029 A 
ATOM     70  C   UNL A   1      46.333  25.048  27.117  1.00  0.00     0.049 A 
ATOM     71  H   UNL A   1      44.485  25.919  27.641  1.00  0.00     0.167 HD
ATOM     72  C   UNL A   1      46.913  27.412  27.630  1.00  0.00     0.074 A 
ATOM     73  C   UNL A   1      47.861  28.502  27.751  1.00  0.00     0.031 C 
ATOM     74  C   UNL A   1      47.247  26.155  27.247  1.00  0.00     0.031 A 
BRANCH  61  75
ATOM     75  C   UNL A   1      42.492  22.200  27.004  1.00  0.00    -0.014 A 
ATOM     76  C   UNL A   1      42.645  21.587  25.750  1.00  0.00     0.009 A 
ATOM     77  C   UNL A   1      41.857  21.485  28.032  1.00  0.00     0.009 A 
ATOM     78  C   UNL A   1      42.141  20.304  25.522  1.00  0.00     0.001 A 
ATOM     79  C   UNL A   1      41.380  20.192  27.810  1.00  0.00     0.001 A 
ATOM     80  C   UNL A   1      41.513  19.606  26.553  1.00  0.00     0.000 A 
ENDBRANCH  61  75
BRANCH  62  81
ATOM     81  C   UNL A   1      45.300  31.636  28.966  1.00  0.00    -0.014 A 
ATOM     82  C   UNL A   1      45.643  32.026  30.269  1.00  0.00     0.009 A 
ATOM     83  C   UNL A   1      45.363  32.590  27.936  1.00  0.00     0.009 A 
ATOM     84  C   UNL A   1      46.017  33.345  30.539  1.00  0.00     0.001 A 
ATOM     85  C   UNL A   1      45.768  33.900  28.202  1.00  0.00     0.001 A 
ATOM     86  C   UNL A   1      46.085  34.279  29.505  1.00  0.00     0.000 A 
ENDBRANCH  62  81
BRANCH  74  87
ATOM     87  C   UNL A   1      48.684  25.911  26.881  1.00  0.00    -0.014 A 
ATOM     88  C   UNL A   1      49.173  26.201  25.599  1.00  0.00     0.009 A 
ATOM     89  C   UNL A   1      49.567  25.415  27.853  1.00  0.00     0.009 A 
ATOM     90  C   UNL A   1      50.511  25.956  25.285  1.00  0.00     0.001 A 
ATOM     91  C   UNL A   1      50.911  25.203  27.546  1.00  0.00     0.001 A 
ATOM     92  C   UNL A   1      51.379  25.461  26.260  1.00  0.00     0.000 A 
ENDBRANCH  74  87
ENDBRANCH  48  49
ENDBRANCH  41  43
ENDBRANCH  40  41
ENDBRANCH  39  40
ENDBRANCH   1  39
TORSDOF 15
ENDMDL
MODEL 2
REMARK VINA RESULT:      -9.0      1.246      5.765
REMARK SMILES C[C@H]1[C@H](C)CC[C@@]2(C(=O)OCCOCCOC(=O)c3ccc(-c4c5nc(c(-c6ccccc6)c6ccc([nH]6)c(-c6ccccc6)c6nc(c(-c7ccccc7)c7ccc4[nH]7)C=C6)C=C5)cc3)CC[C@@]3(C)C(=CC[C@@H]4[C@@]5(C)CC[C@H](O)C(C)(C)[C@@H]5CC[C@]43C)[C@H]12
REMARK SMILES IDX 14 1 13 2 12 3 11 4 10 5 8 6 9 7 7 8 1 9 2 10 3 11 89 12
REMARK SMILES IDX 4 13 5 14 71 15 6 16 67 17 69 18 72 19 68 20 70 21 87 22
REMARK SMILES IDX 73 23 74 24 86 25 88 26 75 27 85 28 76 29 77 30 84 31 78 32
REMARK SMILES IDX 81 33 79 34 82 35 83 36 80 37 15 39 16 40 17 41 18 42 19 43
REMARK SMILES IDX 20 44 66 45 21 46 65 47 22 48 23 49 24 50 59 51 25 52 64 53
REMARK SMILES IDX 58 54 60 55 26 56 63 57 57 58 56 59 27 61 49 62 34 63 48 64
REMARK SMILES IDX 35 65 38 66 47 67 61 68 36 69 37 70 46 72 62 73 39 74 28 75
REMARK SMILES IDX 29 76 33 77 30 78 32 79 31 80 50 81 51 82 55 83 52 84 54 85
REMARK SMILES IDX 53 86 40 87 41 88 45 89 42 90 44 91 43 92
REMARK H PARENT 80 38 60 60 38 71
REMARK Flexibility Score: inf
ROOT
ATOM      1  C   UNL A   1      40.951  35.070  28.504  1.00  0.00     0.202 C 
ENDROOT
BRANCH   1   2
ATOM      2  O   UNL A   1      40.161  34.664  29.610  1.00  0.00    -0.374 OA
BRANCH   2   3
ATOM      3  C   UNL A   1      38.943  33.999  29.314  1.00  0.00     0.202 C 
BRANCH   3   4
ATOM      4  C   UNL A   1      38.560  32.720  30.068  1.00  0.00     0.261 C 
BRANCH   4   5
ATOM      5  O   UNL A   1      39.474  32.399  31.140  1.00  0.00    -0.463 OA
BRANCH   5   6
ATOM      6  C   UNL A   1      39.050  32.384  32.428  1.00  0.00     0.312 C 
ATOM      7  O   UNL A   1      38.474  31.421  32.919  1.00  0.00    -0.252 OA
BRANCH   6   8
ATOM      8  C   UNL A   1      39.368  33.691  33.222  1.00  0.00     0.075 C 
ATOM      9  C   UNL A   1      37.370  33.241  36.605  1.00  0.00     0.008 C 
ATOM     10  C   UNL A   1      37.661  33.262  35.099  1.00  0.00    -0.003 C 
ATOM     11  C   UNL A   1      36.683  34.282  34.402  1.00  0.00    -0.011 C 
ATOM     12  C   UNL A   1      39.205  33.521  34.773  1.00  0.00     0.036 C 
ATOM     13  C   UNL A   1      35.196  33.896  34.506  1.00  0.00     0.008 C 
ATOM     14  C   UNL A   1      36.963  34.462  32.913  1.00  0.00     0.005 C 
ATOM     15  C   UNL A   1      40.345  32.515  35.230  1.00  0.00    -0.063 C 
ATOM     16  C   UNL A   1      38.416  34.779  32.668  1.00  0.00     0.020 C 
ATOM     17  C   UNL A   1      40.771  34.240  32.910  1.00  0.00     0.020 C 
ATOM     18  C   UNL A   1      41.837  32.874  34.852  1.00  0.00    -0.006 C 
ATOM     19  C   UNL A   1      40.059  31.275  35.686  1.00  0.00    -0.027 C 
ATOM     20  C   UNL A   1      41.910  33.363  33.377  1.00  0.00     0.013 C 
ATOM     21  C   UNL A   1      42.277  34.036  35.777  1.00  0.00     0.017 C 
ATOM     22  C   UNL A   1      42.865  31.597  35.017  1.00  0.00    -0.020 C 
ATOM     23  C   UNL A   1      40.958  30.074  35.450  1.00  0.00     0.032 C 
ATOM     24  C   UNL A   1      42.088  30.370  34.414  1.00  0.00     0.006 C 
ATOM     25  C   UNL A   1      44.230  31.793  34.309  1.00  0.00     0.008 C 
ATOM     26  C   UNL A   1      43.227  31.364  36.520  1.00  0.00     0.012 C 
ATOM     27  C   UNL A   1      42.903  29.121  33.812  1.00  0.00    -0.025 C 
ATOM     28  C   UNL A   1      45.046  30.495  34.207  1.00  0.00     0.005 C 
ATOM     29  C   UNL A   1      42.897  27.989  34.853  1.00  0.00     0.012 C 
ATOM     30  C   UNL A   1      42.183  28.588  32.524  1.00  0.00     0.010 C 
ATOM     31  C   UNL A   1      44.322  29.534  33.263  1.00  0.00     0.003 C 
ATOM     32  C   UNL A   1      42.908  27.454  31.789  1.00  0.00     0.033 C 
ATOM     33  C   UNL A   1      45.193  28.362  32.652  1.00  0.00    -0.006 C 
ATOM     34  C   UNL A   1      44.377  27.745  31.474  1.00  0.00     0.120 C 
ATOM     35  C   UNL A   1      45.644  27.294  33.671  1.00  0.00     0.014 C 
ATOM     36  C   UNL A   1      46.512  28.914  32.042  1.00  0.00     0.014 C 
BRANCH  34  37
ATOM     37  O   UNL A   1      44.993  26.558  30.972  1.00  0.00    -0.393 OA
ATOM     38  H   UNL A   1      45.360  26.048  31.712  1.00  0.00     0.210 HD
ENDBRANCH  34  37
ENDBRANCH   6   8
ENDBRANCH   5   6
ENDBRANCH   4   5
ENDBRANCH   3   4
ENDBRANCH   2   3
ENDBRANCH   1   2
BRANCH   1  39
ATOM     39  C   UNL A   1      41.963  36.156  28.902  1.00  0.00     0.261 C 
BRANCH  39  40
ATOM     40  O   UNL A   1      42.721  35.826  30.083  1.00  0.00    -0.460 OA
BRANCH  40  41
ATOM     41  C   UNL A   1      44.055  35.963  29.958  1.00  0.00     0.338 C 
ATOM     42  O   UNL A   1      44.716  37.002  30.056  1.00  0.00    -0.246 OA
BRANCH  41  43
ATOM     43  C   UNL A   1      44.706  34.656  29.777  1.00  0.00     0.060 A 
ATOM     44  C   UNL A   1      44.932  34.204  28.470  1.00  0.00     0.016 A 
ATOM     45  C   UNL A   1      44.895  33.805  30.868  1.00  0.00     0.016 A 
ATOM     46  C   UNL A   1      45.227  32.868  28.237  1.00  0.00     0.010 A 
ATOM     47  C   UNL A   1      45.150  32.452  30.634  1.00  0.00     0.010 A 
ATOM     48  C   UNL A   1      45.223  31.974  29.313  1.00  0.00    -0.014 A 
BRANCH  48  49
ATOM     49  C   UNL A   1      44.909  30.557  29.017  1.00  0.00     0.031 A 
ATOM     50  C   UNL A   1      43.456  30.150  29.036  1.00  0.00     0.074 A 
ATOM     51  C   UNL A   1      45.865  29.693  28.640  1.00  0.00     0.049 A 
ATOM     52  N   UNL A   1      42.914  28.982  28.802  1.00  0.00    -0.248 NA
ATOM     53  C   UNL A   1      42.479  31.208  29.353  1.00  0.00     0.031 C 
ATOM     54  C   UNL A   1      47.284  30.011  28.498  1.00  0.00     0.029 A 
ATOM     55  N   UNL A   1      45.774  28.372  28.293  1.00  0.00    -0.354 N 
ATOM     56  C   UNL A   1      41.543  29.168  28.957  1.00  0.00     0.074 A 
ATOM     57  C   UNL A   1      41.335  30.547  29.326  1.00  0.00     0.031 C 
ATOM     58  C   UNL A   1      47.936  28.908  28.092  1.00  0.00     0.029 A 
ATOM     59  C   UNL A   1      46.984  27.804  27.984  1.00  0.00     0.049 A 
ATOM     60  H   UNL A   1      44.923  27.877  28.268  1.00  0.00     0.167 HD
ATOM     61  C   UNL A   1      40.545  28.267  28.801  1.00  0.00     0.031 A 
ATOM     62  C   UNL A   1      47.283  26.530  27.667  1.00  0.00     0.031 A 
ATOM     63  C   UNL A   1      40.766  26.894  28.443  1.00  0.00     0.049 A 
ATOM     64  C   UNL A   1      46.165  25.524  27.583  1.00  0.00     0.074 A 
ATOM     65  C   UNL A   1      39.839  25.882  28.278  1.00  0.00     0.029 A 
ATOM     66  N   UNL A   1      42.015  26.342  28.197  1.00  0.00    -0.354 N 
ATOM     67  N   UNL A   1      44.875  25.702  27.752  1.00  0.00    -0.248 NA
ATOM     68  C   UNL A   1      46.542  24.143  27.252  1.00  0.00     0.031 C 
ATOM     69  C   UNL A   1      40.533  24.704  27.983  1.00  0.00     0.029 A 
ATOM     70  C   UNL A   1      41.886  24.998  27.898  1.00  0.00     0.049 A 
ATOM     71  H   UNL A   1      42.867  26.835  28.230  1.00  0.00     0.167 HD
ATOM     72  C   UNL A   1      44.285  24.468  27.516  1.00  0.00     0.074 A 
ATOM     73  C   UNL A   1      45.358  23.553  27.180  1.00  0.00     0.031 C 
ATOM     74  C   UNL A   1      42.976  24.117  27.567  1.00  0.00     0.031 A 
BRANCH  61  75
ATOM     75  C   UNL A   1      39.140  28.734  29.073  1.00  0.00    -0.014 A 
ATOM     76  C   UNL A   1      38.316  29.231  28.050  1.00  0.00     0.009 A 
ATOM     77  C   UNL A   1      38.632  28.673  30.380  1.00  0.00     0.009 A 
ATOM     78  C   UNL A   1      37.028  29.690  28.338  1.00  0.00     0.001 A 
ATOM     79  C   UNL A   1      37.334  29.106  30.660  1.00  0.00     0.001 A 
ATOM     80  C   UNL A   1      36.537  29.623  29.642  1.00  0.00     0.000 A 
ENDBRANCH  61  75
BRANCH  62  81
ATOM     81  C   UNL A   1      48.695  26.132  27.430  1.00  0.00    -0.014 A 
ATOM     82  C   UNL A   1      49.257  26.186  26.145  1.00  0.00     0.009 A 
ATOM     83  C   UNL A   1      49.493  25.691  28.499  1.00  0.00     0.009 A 
ATOM     84  C   UNL A   1      50.578  25.783  25.932  1.00  0.00     0.001 A 
ATOM     85  C   UNL A   1      50.823  25.320  28.289  1.00  0.00     0.001 A 
ATOM     86  C   UNL A   1      51.362  25.357  27.004  1.00  0.00     0.000 A 
ENDBRANCH  62  81
BRANCH  74  87
ATOM     87  C   UNL A   1      42.634  22.701  27.197  1.00  0.00    -0.014 A 
ATOM     88  C   UNL A   1      42.873  22.201  25.909  1.00  0.00     0.009 A 
ATOM     89  C   UNL A   1      42.095  21.847  28.173  1.00  0.00     0.009 A 
ATOM     90  C   UNL A   1      42.536  20.884  25.593  1.00  0.00     0.001 A 
ATOM     91  C   UNL A   1      41.791  20.522  27.863  1.00  0.00     0.001 A 
ATOM     92  C   UNL A   1      41.999  20.045  26.571  1.00  0.00     0.000 A 
ENDBRANCH  74  87
ENDBRANCH  48  49
ENDBRANCH  41  43
ENDBRANCH  40  41
ENDBRANCH  39  40
ENDBRANCH   1  39
TORSDOF 15
ENDMDL
MODEL 3
REMARK VINA RESULT:      -9.0      2.488      8.894
REMARK SMILES C[C@H]1[C@H](C)CC[C@@]2(C(=O)OCCOCCOC(=O)c3ccc(-c4c5nc(c(-c6ccccc6)c6ccc([nH]6)c(-c6ccccc6)c6nc(c(-c7ccccc7)c7ccc4[nH]7)C=C6)C=C5)cc3)CC[C@@]3(C)C(=CC[C@@H]4[C@@]5(C)CC[C@H](O)C(C)(C)[C@@H]5CC[C@]43C)[C@H]12
REMARK SMILES IDX 14 1 13 2 12 3 11 4 10 5 8 6 9 7 7 8 1 9 2 10 3 11 89 12
REMARK SMILES IDX 4 13 5 14 71 15 6 16 67 17 69 18 72 19 68 20 70 21 87 22
REMARK SMILES IDX 73 23 74 24 86 25 88 26 75 27 85 28 76 29 77 30 84 31 78 32
REMARK SMILES IDX 81 33 79 34 82 35 83 36 80 37 15 39 16 40 17 41 18 42 19 43
REMARK SMILES IDX 20 44 66 45 21 46 65 47 22 48 23 49 24 50 59 51 25 52 64 53
REMARK SMILES IDX 58 54 60 55 26 56 63 57 57 58 56 59 27 61 49 62 34 63 48 64
REMARK SMILES IDX 35 65 38 66 47 67 61 68 36 69 37 70 46 72 62 73 39 74 28 75
REMARK SMILES IDX 29 76 33 77 30 78 32 79 31 80 50 81 51 82 55 83 52 84 54 85
REMARK SMILES IDX 53 86 40 87 41 88 45 89 42 90 44 91 43 92
REMARK H PARENT 80 38 60 60 38 71
REMARK Flexibility Score: inf
ROOT
ATOM      1  C   UNL A   1      42.920  25.206  36.830  1.00  0.00     0.202 C 
ENDROOT
BRANCH   1   2
ATOM      2  O   UNL A   1      42.882  25.859  35.572  1.00  0.00    -0.374 OA
BRANCH   2   3
ATOM      3  C   UNL A   1      41.616  26.330  35.137  1.00  0.00     0.202 C 
BRANCH   3   4
ATOM      4  C   UNL A   1      41.441  27.794  34.719  1.00  0.00     0.261 C 
BRANCH   4   5
ATOM      5  O   UNL A   1      40.420  27.980  33.713  1.00  0.00    -0.463 OA
BRANCH   5   6
ATOM      6  C   UNL A   1      40.514  28.986  32.810  1.00  0.00     0.312 C 
ATOM      7  O   UNL A   1      41.591  29.411  32.410  1.00  0.00    -0.252 OA
BRANCH   6   8
ATOM      8  C   UNL A   1      39.137  29.542  32.326  1.00  0.00     0.075 C 
ATOM      9  C   UNL A   1      40.016  33.139  30.937  1.00  0.00     0.008 C 
ATOM     10  C   UNL A   1      39.977  31.935  31.885  1.00  0.00    -0.003 C 
ATOM     11  C   UNL A   1      39.336  32.380  33.253  1.00  0.00    -0.011 C 
ATOM     12  C   UNL A   1      39.277  30.655  31.229  1.00  0.00     0.036 C 
ATOM     13  C   UNL A   1      40.149  33.446  34.011  1.00  0.00     0.008 C 
ATOM     14  C   UNL A   1      39.148  31.226  34.234  1.00  0.00     0.005 C 
ATOM     15  C   UNL A   1      39.867  29.936  29.943  1.00  0.00    -0.063 C 
ATOM     16  C   UNL A   1      38.417  30.078  33.587  1.00  0.00     0.020 C 
ATOM     17  C   UNL A   1      38.203  28.432  31.815  1.00  0.00     0.020 C 
ATOM     18  C   UNL A   1      39.090  28.680  29.381  1.00  0.00    -0.006 C 
ATOM     19  C   UNL A   1      41.112  30.199  29.489  1.00  0.00    -0.027 C 
ATOM     20  C   UNL A   1      38.670  27.746  30.552  1.00  0.00     0.013 C 
ATOM     21  C   UNL A   1      37.808  29.206  28.689  1.00  0.00     0.017 C 
ATOM     22  C   UNL A   1      39.985  27.795  28.319  1.00  0.00    -0.020 C 
ATOM     23  C   UNL A   1      41.994  29.156  28.825  1.00  0.00     0.032 C 
ATOM     24  C   UNL A   1      41.417  27.712  28.964  1.00  0.00     0.006 C 
ATOM     25  C   UNL A   1      39.416  26.379  28.044  1.00  0.00     0.008 C 
ATOM     26  C   UNL A   1      40.028  28.484  26.916  1.00  0.00     0.012 C 
ATOM     27  C   UNL A   1      42.385  26.477  28.614  1.00  0.00    -0.025 C 
ATOM     28  C   UNL A   1      40.409  25.465  27.308  1.00  0.00     0.005 C 
ATOM     29  C   UNL A   1      43.417  26.948  27.574  1.00  0.00     0.012 C 
ATOM     30  C   UNL A   1      43.171  26.037  29.899  1.00  0.00     0.010 C 
ATOM     31  C   UNL A   1      41.586  25.171  28.238  1.00  0.00     0.003 C 
ATOM     32  C   UNL A   1      44.064  24.802  29.731  1.00  0.00     0.033 C 
ATOM     33  C   UNL A   1      42.466  23.905  27.877  1.00  0.00    -0.006 C 
ATOM     34  C   UNL A   1      43.356  23.591  29.120  1.00  0.00     0.120 C 
ATOM     35  C   UNL A   1      43.299  24.044  26.585  1.00  0.00     0.014 C 
ATOM     36  C   UNL A   1      41.568  22.659  27.642  1.00  0.00     0.014 C 
BRANCH  34  37
ATOM     37  O   UNL A   1      44.320  22.578  28.833  1.00  0.00    -0.393 OA
ATOM     38  H   UNL A   1      44.804  22.353  29.644  1.00  0.00     0.210 HD
ENDBRANCH  34  37
ENDBRANCH   6   8
ENDBRANCH   5   6
ENDBRANCH   4   5
ENDBRANCH   3   4
ENDBRANCH   2   3
ENDBRANCH   1   2
BRANCH   1  39
ATOM     39  C   UNL A   1      44.364  24.921  37.273  1.00  0.00     0.261 C 
BRANCH  39  40
ATOM     40  O   UNL A   1      44.846  23.627  36.857  1.00  0.00    -0.460 OA
BRANCH  40  41
ATOM     41  C   UNL A   1      46.153  23.584  36.539  1.00  0.00     0.338 C 
ATOM     42  O   UNL A   1      47.065  23.042  37.175  1.00  0.00    -0.246 OA
BRANCH  41  43
ATOM     43  C   UNL A   1      46.399  24.199  35.226  1.00  0.00     0.060 A 
ATOM     44  C   UNL A   1      47.386  25.190  35.133  1.00  0.00     0.016 A 
ATOM     45  C   UNL A   1      45.531  23.955  34.159  1.00  0.00     0.016 A 
ATOM     46  C   UNL A   1      47.431  26.025  34.024  1.00  0.00     0.010 A 
ATOM     47  C   UNL A   1      45.548  24.820  33.062  1.00  0.00     0.010 A 
ATOM     48  C   UNL A   1      46.439  25.908  33.045  1.00  0.00    -0.014 A 
BRANCH  48  49
ATOM     49  C   UNL A   1      46.116  27.121  32.258  1.00  0.00     0.031 A 
ATOM     50  C   UNL A   1      45.492  28.281  32.995  1.00  0.00     0.074 A 
ATOM     51  C   UNL A   1      46.464  27.229  30.966  1.00  0.00     0.049 A 
ATOM     52  N   UNL A   1      45.126  29.454  32.547  1.00  0.00    -0.248 NA
ATOM     53  C   UNL A   1      45.257  28.094  34.439  1.00  0.00     0.031 C 
ATOM     54  C   UNL A   1      47.157  26.204  30.188  1.00  0.00     0.029 A 
ATOM     55  N   UNL A   1      46.291  28.266  30.089  1.00  0.00    -0.354 N 
ATOM     56  C   UNL A   1      44.609  30.131  33.647  1.00  0.00     0.074 A 
ATOM     57  C   UNL A   1      44.685  29.237  34.778  1.00  0.00     0.031 C 
ATOM     58  C   UNL A   1      47.350  26.665  28.940  1.00  0.00     0.029 A 
ATOM     59  C   UNL A   1      46.762  27.999  28.828  1.00  0.00     0.049 A 
ATOM     60  H   UNL A   1      45.870  29.120  30.338  1.00  0.00     0.167 HD
ATOM     61  C   UNL A   1      44.118  31.391  33.712  1.00  0.00     0.031 A 
ATOM     62  C   UNL A   1      46.704  28.746  27.709  1.00  0.00     0.031 A 
ATOM     63  C   UNL A   1      44.037  32.268  32.577  1.00  0.00     0.049 A 
ATOM     64  C   UNL A   1      46.074  30.112  27.784  1.00  0.00     0.074 A 
ATOM     65  C   UNL A   1      43.539  33.556  32.512  1.00  0.00     0.029 A 
ATOM     66  N   UNL A   1      44.470  31.936  31.302  1.00  0.00    -0.354 N 
ATOM     67  N   UNL A   1      45.569  30.736  28.823  1.00  0.00    -0.248 NA
ATOM     68  C   UNL A   1      46.018  30.883  26.535  1.00  0.00     0.031 C 
ATOM     69  C   UNL A   1      43.623  33.984  31.182  1.00  0.00     0.029 A 
ATOM     70  C   UNL A   1      44.235  32.989  30.436  1.00  0.00     0.049 A 
ATOM     71  H   UNL A   1      44.885  31.079  31.050  1.00  0.00     0.167 HD
ATOM     72  C   UNL A   1      45.167  31.982  28.361  1.00  0.00     0.074 A 
ATOM     73  C   UNL A   1      45.499  32.029  26.951  1.00  0.00     0.031 C 
ATOM     74  C   UNL A   1      44.580  33.001  29.037  1.00  0.00     0.031 A 
BRANCH  61  75
ATOM     75  C   UNL A   1      43.583  31.860  35.038  1.00  0.00    -0.014 A 
ATOM     76  C   UNL A   1      42.394  31.344  35.579  1.00  0.00     0.009 A 
ATOM     77  C   UNL A   1      44.285  32.837  35.761  1.00  0.00     0.009 A 
ATOM     78  C   UNL A   1      41.903  31.823  36.796  1.00  0.00     0.001 A 
ATOM     79  C   UNL A   1      43.808  33.294  36.991  1.00  0.00     0.001 A 
ATOM     80  C   UNL A   1      42.612  32.794  37.502  1.00  0.00     0.000 A 
ENDBRANCH  61  75
BRANCH  62  81
ATOM     81  C   UNL A   1      47.234  28.212  26.428  1.00  0.00    -0.014 A 
ATOM     82  C   UNL A   1      48.612  28.206  26.160  1.00  0.00     0.009 A 
ATOM     83  C   UNL A   1      46.355  27.704  25.457  1.00  0.00     0.009 A 
ATOM     84  C   UNL A   1      49.094  27.726  24.940  1.00  0.00     0.001 A 
ATOM     85  C   UNL A   1      46.842  27.195  24.251  1.00  0.00     0.001 A 
ATOM     86  C   UNL A   1      48.210  27.215  23.990  1.00  0.00     0.000 A 
ENDBRANCH  62  81
BRANCH  74  87
ATOM     87  C   UNL A   1      44.313  34.266  28.270  1.00  0.00    -0.014 A 
ATOM     88  C   UNL A   1      43.103  34.470  27.592  1.00  0.00     0.009 A 
ATOM     89  C   UNL A   1      45.282  35.282  28.260  1.00  0.00     0.009 A 
ATOM     90  C   UNL A   1      42.886  35.651  26.880  1.00  0.00     0.001 A 
ATOM     91  C   UNL A   1      45.049  36.474  27.576  1.00  0.00     0.001 A 
ATOM     92  C   UNL A   1      43.858  36.653  26.876  1.00  0.00     0.000 A 
ENDBRANCH  74  87
ENDBRANCH  48  49
ENDBRANCH  41  43
ENDBRANCH  40  41
ENDBRANCH  39  40
ENDBRANCH   1  39
TORSDOF 15
ENDMDL
