MODEL 1
REMARK VINA RESULT:     -10.5      0.000      0.000
REMARK SMILES CC1(C)CCC[C@H]1NS(=O)(=O)c1ccc(O)c(C(=O)OCCOCCOC(=O)c2ccc(-c3c4nc(c(-c5ccccc5)c5ccc([nH]5)c(-c5ccccc5)c5nc(c(-c6ccccc6)c6ccc3[nH]6)C=C5)C=C4)cc2)c1
REMARK SMILES IDX 22 1 21 2 20 3 18 4 19 5 17 6 12 7 13 8 77 9 14 10 15 11
REMARK SMILES IDX 9 12 10 13 11 14 8 15 7 17 1 18 2 19 3 20 4 21 5 22 6 23
REMARK SMILES IDX 16 24 23 26 24 27 25 28 26 29 27 30 28 31 29 32 30 33 76 34
REMARK SMILES IDX 31 35 75 36 32 37 33 38 34 39 69 40 35 41 74 42 68 43 70 44
REMARK SMILES IDX 36 45 73 46 67 47 66 48 37 50 59 51 44 52 58 53 45 54 48 55
REMARK SMILES IDX 57 56 71 57 46 58 47 59 56 61 72 62 49 63 38 64 39 65 43 66
REMARK SMILES IDX 40 67 42 68 41 69 60 70 61 71 65 72 62 73 64 74 63 75 50 76
REMARK SMILES IDX 51 77 55 78 52 79 54 80 53 81
REMARK H PARENT 8 16 16 25 70 49 48 60
REMARK Flexibility Score: inf
ROOT
ATOM      1  C   UNL A   1      34.299  32.447  27.871  1.00  0.00     0.202 C 
ENDROOT
BRANCH   1   2
ATOM      2  C   UNL A   1      34.307  30.916  27.846  1.00  0.00     0.261 C 
BRANCH   2   3
ATOM      3  O   UNL A   1      33.660  30.468  26.645  1.00  0.00    -0.460 OA
BRANCH   3   4
ATOM      4  C   UNL A   1      33.607  29.131  26.440  1.00  0.00     0.342 C 
ATOM      5  O   UNL A   1      33.901  28.254  27.235  1.00  0.00    -0.246 OA
BRANCH   4   6
ATOM      6  C   UNL A   1      32.884  28.876  25.171  1.00  0.00     0.103 A 
ATOM      7  C   UNL A   1      32.564  27.374  23.299  1.00  0.00     0.083 A 
ATOM      8  C   UNL A   1      31.392  28.056  22.958  1.00  0.00     0.025 A 
ATOM      9  C   UNL A   1      33.315  27.780  24.405  1.00  0.00     0.041 A 
ATOM     10  C   UNL A   1      31.001  29.186  23.677  1.00  0.00     0.048 A 
ATOM     11  C   UNL A   1      31.743  29.592  24.786  1.00  0.00     0.130 A 
BRANCH   7  12
ATOM     12  S   UNL A   1      32.952  25.847  22.477  1.00  0.00     0.240 S 
ATOM     13  O   UNL A   1      33.546  26.204  21.210  1.00  0.00    -0.207 OA
ATOM     14  O   UNL A   1      31.777  25.005  22.544  1.00  0.00    -0.207 OA
BRANCH  12  15
ATOM     15  N   UNL A   1      34.087  25.074  23.451  1.00  0.00    -0.208 NA
ATOM     16  H   UNL A   1      34.868  24.840  22.838  1.00  0.00     0.141 HD
BRANCH  15  17
ATOM     17  C   UNL A   1      33.792  23.850  24.216  1.00  0.00     0.075 C 
ATOM     18  C   UNL A   1      36.154  23.093  23.366  1.00  0.00     0.013 C 
ATOM     19  C   UNL A   1      35.051  22.954  24.422  1.00  0.00    -0.019 C 
ATOM     20  C   UNL A   1      34.619  21.470  24.454  1.00  0.00     0.013 C 
ATOM     21  C   UNL A   1      35.565  23.390  25.804  1.00  0.00     0.008 C 
ATOM     22  C   UNL A   1      34.303  23.595  26.623  1.00  0.00     0.002 C 
ATOM     23  C   UNL A   1      33.294  24.171  25.638  1.00  0.00     0.020 C 
ENDBRANCH  15  17
ENDBRANCH  12  15
ENDBRANCH   7  12
BRANCH  11  24
ATOM     24  O   UNL A   1      31.335  30.687  25.493  1.00  0.00    -0.507 OA
ATOM     25  H   UNL A   1      30.424  30.898  25.546  1.00  0.00     0.293 HD
ENDBRANCH  11  24
ENDBRANCH   4   6
ENDBRANCH   3   4
ENDBRANCH   2   3
ENDBRANCH   1   2
BRANCH   1  26
ATOM     26  O   UNL A   1      33.678  33.009  29.030  1.00  0.00    -0.374 OA
BRANCH  26  27
ATOM     27  C   UNL A   1      34.188  34.267  29.476  1.00  0.00     0.202 C 
BRANCH  27  28
ATOM     28  C   UNL A   1      34.402  34.364  30.991  1.00  0.00     0.261 C 
BRANCH  28  29
ATOM     29  O   UNL A   1      35.761  34.043  31.347  1.00  0.00    -0.460 OA
BRANCH  29  30
ATOM     30  C   UNL A   1      35.915  32.913  32.077  1.00  0.00     0.338 C 
ATOM     31  O   UNL A   1      35.248  32.541  33.026  1.00  0.00    -0.246 OA
BRANCH  30  32
ATOM     32  C   UNL A   1      36.952  32.068  31.453  1.00  0.00     0.060 A 
ATOM     33  C   UNL A   1      37.823  31.368  32.299  1.00  0.00     0.016 A 
ATOM     34  C   UNL A   1      37.106  32.005  30.067  1.00  0.00     0.016 A 
ATOM     35  C   UNL A   1      38.877  30.630  31.761  1.00  0.00     0.010 A 
ATOM     36  C   UNL A   1      38.169  31.275  29.530  1.00  0.00     0.010 A 
ATOM     37  C   UNL A   1      39.075  30.608  30.375  1.00  0.00    -0.014 A 
BRANCH  37  38
ATOM     38  C   UNL A   1      40.303  30.016  29.798  1.00  0.00     0.031 A 
ATOM     39  C   UNL A   1      41.519  30.885  29.641  1.00  0.00     0.074 A 
ATOM     40  C   UNL A   1      40.331  28.734  29.394  1.00  0.00     0.049 A 
ATOM     41  N   UNL A   1      42.648  30.629  29.031  1.00  0.00    -0.248 NA
ATOM     42  C   UNL A   1      41.447  32.225  30.245  1.00  0.00     0.031 C 
ATOM     43  C   UNL A   1      39.241  27.772  29.547  1.00  0.00     0.029 A 
ATOM     44  N   UNL A   1      41.316  28.029  28.749  1.00  0.00    -0.354 N 
ATOM     45  C   UNL A   1      43.413  31.781  29.163  1.00  0.00     0.074 A 
ATOM     46  C   UNL A   1      42.616  32.740  29.895  1.00  0.00     0.031 C 
ATOM     47  C   UNL A   1      39.611  26.606  28.989  1.00  0.00     0.029 A 
ATOM     48  C   UNL A   1      40.942  26.754  28.404  1.00  0.00     0.049 A 
ATOM     49  H   UNL A   1      42.207  28.403  28.553  1.00  0.00     0.167 HD
ATOM     50  C   UNL A   1      44.666  32.019  28.709  1.00  0.00     0.031 A 
ATOM     51  C   UNL A   1      41.586  25.828  27.668  1.00  0.00     0.031 A 
ATOM     52  C   UNL A   1      45.453  31.068  27.972  1.00  0.00     0.049 A 
ATOM     53  C   UNL A   1      42.942  26.146  27.098  1.00  0.00     0.074 A 
ATOM     54  C   UNL A   1      46.737  31.213  27.476  1.00  0.00     0.029 A 
ATOM     55  N   UNL A   1      45.027  29.798  27.622  1.00  0.00    -0.354 N 
ATOM     56  N   UNL A   1      43.658  27.237  27.227  1.00  0.00    -0.248 NA
ATOM     57  C   UNL A   1      43.578  25.105  26.277  1.00  0.00     0.031 C 
ATOM     58  C   UNL A   1      47.069  30.044  26.783  1.00  0.00     0.029 A 
ATOM     59  C   UNL A   1      46.012  29.155  26.894  1.00  0.00     0.049 A 
ATOM     60  H   UNL A   1      44.152  29.410  27.856  1.00  0.00     0.167 HD
ATOM     61  C   UNL A   1      44.838  27.002  26.533  1.00  0.00     0.074 A 
ATOM     62  C   UNL A   1      44.745  25.665  25.985  1.00  0.00     0.031 C 
ATOM     63  C   UNL A   1      45.906  27.819  26.367  1.00  0.00     0.031 A 
BRANCH  50  64
ATOM     64  C   UNL A   1      45.246  33.381  28.963  1.00  0.00    -0.014 A 
ATOM     65  C   UNL A   1      46.068  33.628  30.073  1.00  0.00     0.009 A 
ATOM     66  C   UNL A   1      44.987  34.424  28.061  1.00  0.00     0.009 A 
ATOM     67  C   UNL A   1      46.595  34.903  30.290  1.00  0.00     0.001 A 
ATOM     68  C   UNL A   1      45.535  35.690  28.266  1.00  0.00     0.001 A 
ATOM     69  C   UNL A   1      46.332  35.931  29.385  1.00  0.00     0.000 A 
ENDBRANCH  50  64
BRANCH  51  70
ATOM     70  C   UNL A   1      40.941  24.518  27.393  1.00  0.00    -0.014 A 
ATOM     71  C   UNL A   1      39.813  24.436  26.564  1.00  0.00     0.009 A 
ATOM     72  C   UNL A   1      41.444  23.342  27.974  1.00  0.00     0.009 A 
ATOM     73  C   UNL A   1      39.189  23.207  26.338  1.00  0.00     0.001 A 
ATOM     74  C   UNL A   1      40.833  22.112  27.725  1.00  0.00     0.001 A 
ATOM     75  C   UNL A   1      39.702  22.046  26.914  1.00  0.00     0.000 A 
ENDBRANCH  51  70
BRANCH  63  76
ATOM     76  C   UNL A   1      47.084  27.280  25.607  1.00  0.00    -0.014 A 
ATOM     77  C   UNL A   1      47.231  27.509  24.231  1.00  0.00     0.009 A 
ATOM     78  C   UNL A   1      48.097  26.596  26.299  1.00  0.00     0.009 A 
ATOM     79  C   UNL A   1      48.364  27.046  23.559  1.00  0.00     0.001 A 
ATOM     80  C   UNL A   1      49.238  26.156  25.628  1.00  0.00     0.001 A 
ATOM     81  C   UNL A   1      49.369  26.377  24.258  1.00  0.00     0.000 A 
ENDBRANCH  63  76
ENDBRANCH  37  38
ENDBRANCH  30  32
ENDBRANCH  29  30
ENDBRANCH  28  29
ENDBRANCH  27  28
ENDBRANCH  26  27
ENDBRANCH   1  26
TORSDOF 18
ENDMDL
MODEL 2
REMARK VINA RESULT:     -10.3      3.549      7.252
REMARK SMILES CC1(C)CCC[C@H]1NS(=O)(=O)c1ccc(O)c(C(=O)OCCOCCOC(=O)c2ccc(-c3c4nc(c(-c5ccccc5)c5ccc([nH]5)c(-c5ccccc5)c5nc(c(-c6ccccc6)c6ccc3[nH]6)C=C5)C=C4)cc2)c1
REMARK SMILES IDX 22 1 21 2 20 3 18 4 19 5 17 6 12 7 13 8 77 9 14 10 15 11
REMARK SMILES IDX 9 12 10 13 11 14 8 15 7 17 1 18 2 19 3 20 4 21 5 22 6 23
REMARK SMILES IDX 16 24 23 26 24 27 25 28 26 29 27 30 28 31 29 32 30 33 76 34
REMARK SMILES IDX 31 35 75 36 32 37 33 38 34 39 69 40 35 41 74 42 68 43 70 44
REMARK SMILES IDX 36 45 73 46 67 47 66 48 37 50 59 51 44 52 58 53 45 54 48 55
REMARK SMILES IDX 57 56 71 57 46 58 47 59 56 61 72 62 49 63 38 64 39 65 43 66
REMARK SMILES IDX 40 67 42 68 41 69 60 70 61 71 65 72 62 73 64 74 63 75 50 76
REMARK SMILES IDX 51 77 55 78 52 79 54 80 53 81
REMARK H PARENT 8 16 16 25 70 49 48 60
REMARK Flexibility Score: inf
ROOT
ATOM      1  C   UNL A   1      33.447  29.301  26.982  1.00  0.00     0.202 C 
ENDROOT
BRANCH   1   2
ATOM      2  C   UNL A   1      32.878  29.065  25.580  1.00  0.00     0.261 C 
BRANCH   2   3
ATOM      3  O   UNL A   1      31.540  28.558  25.702  1.00  0.00    -0.460 OA
BRANCH   3   4
ATOM      4  C   UNL A   1      31.360  27.490  26.513  1.00  0.00     0.342 C 
ATOM      5  O   UNL A   1      31.019  27.506  27.684  1.00  0.00    -0.246 OA
BRANCH   4   6
ATOM      6  C   UNL A   1      31.392  26.259  25.688  1.00  0.00     0.103 A 
ATOM      7  C   UNL A   1      31.931  23.899  25.606  1.00  0.00     0.083 A 
ATOM      8  C   UNL A   1      31.208  23.780  24.415  1.00  0.00     0.025 A 
ATOM      9  C   UNL A   1      32.026  25.137  26.248  1.00  0.00     0.041 A 
ATOM     10  C   UNL A   1      30.636  24.907  23.824  1.00  0.00     0.048 A 
ATOM     11  C   UNL A   1      30.723  26.143  24.463  1.00  0.00     0.130 A 
BRANCH   7  12
ATOM     12  S   UNL A   1      32.506  22.431  26.425  1.00  0.00     0.240 S 
ATOM     13  O   UNL A   1      31.937  21.313  25.708  1.00  0.00    -0.207 OA
ATOM     14  O   UNL A   1      32.279  22.604  27.844  1.00  0.00    -0.207 OA
BRANCH  12  15
ATOM     15  N   UNL A   1      34.181  22.434  26.256  1.00  0.00    -0.208 NA
ATOM     16  H   UNL A   1      34.480  23.389  26.453  1.00  0.00     0.141 HD
BRANCH  15  17
ATOM     17  C   UNL A   1      34.867  22.042  25.012  1.00  0.00     0.075 C 
ATOM     18  C   UNL A   1      36.288  24.201  25.455  1.00  0.00     0.013 C 
ATOM     19  C   UNL A   1      36.199  22.821  24.792  1.00  0.00    -0.019 C 
ATOM     20  C   UNL A   1      36.429  23.016  23.275  1.00  0.00     0.013 C 
ATOM     21  C   UNL A   1      37.257  21.870  25.374  1.00  0.00     0.008 C 
ATOM     22  C   UNL A   1      36.790  20.489  24.950  1.00  0.00     0.002 C 
ATOM     23  C   UNL A   1      35.270  20.556  25.024  1.00  0.00     0.020 C 
ENDBRANCH  15  17
ENDBRANCH  12  15
ENDBRANCH   7  12
BRANCH  11  24
ATOM     24  O   UNL A   1      30.139  27.233  23.882  1.00  0.00    -0.507 OA
ATOM     25  H   UNL A   1      30.597  27.714  23.221  1.00  0.00     0.293 HD
ENDBRANCH  11  24
ENDBRANCH   4   6
ENDBRANCH   3   4
ENDBRANCH   2   3
ENDBRANCH   1   2
BRANCH   1  26
ATOM     26  O   UNL A   1      32.996  30.509  27.599  1.00  0.00    -0.374 OA
BRANCH  26  27
ATOM     27  C   UNL A   1      32.536  31.538  26.720  1.00  0.00     0.202 C 
BRANCH  27  28
ATOM     28  C   UNL A   1      31.792  32.682  27.418  1.00  0.00     0.261 C 
BRANCH  28  29
ATOM     29  O   UNL A   1      32.593  33.879  27.456  1.00  0.00    -0.460 OA
BRANCH  29  30
ATOM     30  C   UNL A   1      33.082  34.208  28.675  1.00  0.00     0.338 C 
ATOM     31  O   UNL A   1      32.529  34.849  29.552  1.00  0.00    -0.246 OA
BRANCH  30  32
ATOM     32  C   UNL A   1      34.377  33.530  28.881  1.00  0.00     0.060 A 
ATOM     33  C   UNL A   1      34.539  32.769  30.047  1.00  0.00     0.016 A 
ATOM     34  C   UNL A   1      35.431  33.682  27.980  1.00  0.00     0.016 A 
ATOM     35  C   UNL A   1      35.773  32.185  30.333  1.00  0.00     0.010 A 
ATOM     36  C   UNL A   1      36.669  33.106  28.274  1.00  0.00     0.010 A 
ATOM     37  C   UNL A   1      36.853  32.380  29.465  1.00  0.00    -0.014 A 
BRANCH  37  38
ATOM     38  C   UNL A   1      38.219  31.956  29.853  1.00  0.00     0.031 A 
ATOM     39  C   UNL A   1      38.730  30.631  29.364  1.00  0.00     0.074 A 
ATOM     40  C   UNL A   1      38.982  32.724  30.650  1.00  0.00     0.049 A 
ATOM     41  N   UNL A   1      39.824  29.992  29.692  1.00  0.00    -0.248 NA
ATOM     42  C   UNL A   1      37.891  29.929  28.379  1.00  0.00     0.031 C 
ATOM     43  C   UNL A   1      38.626  34.055  31.141  1.00  0.00     0.029 A 
ATOM     44  N   UNL A   1      40.213  32.477  31.203  1.00  0.00    -0.354 N 
ATOM     45  C   UNL A   1      39.794  28.806  28.969  1.00  0.00     0.074 A 
ATOM     46  C   UNL A   1      38.571  28.807  28.198  1.00  0.00     0.031 C 
ATOM     47  C   UNL A   1      39.611  34.497  31.943  1.00  0.00     0.029 A 
ATOM     48  C   UNL A   1      40.640  33.466  32.054  1.00  0.00     0.049 A 
ATOM     49  H   UNL A   1      40.740  31.667  31.009  1.00  0.00     0.167 HD
ATOM     50  C   UNL A   1      40.705  27.804  28.954  1.00  0.00     0.031 A 
ATOM     51  C   UNL A   1      41.719  33.515  32.859  1.00  0.00     0.031 A 
ATOM     52  C   UNL A   1      41.915  27.800  29.729  1.00  0.00     0.049 A 
ATOM     53  C   UNL A   1      42.672  32.351  32.893  1.00  0.00     0.074 A 
ATOM     54  C   UNL A   1      42.905  26.834  29.775  1.00  0.00     0.029 A 
ATOM     55  N   UNL A   1      42.297  28.809  30.597  1.00  0.00    -0.354 N 
ATOM     56  N   UNL A   1      42.637  31.234  32.207  1.00  0.00    -0.248 NA
ATOM     57  C   UNL A   1      43.812  32.452  33.816  1.00  0.00     0.031 C 
ATOM     58  C   UNL A   1      43.864  27.238  30.710  1.00  0.00     0.029 A 
ATOM     59  C   UNL A   1      43.495  28.479  31.204  1.00  0.00     0.049 A 
ATOM     60  H   UNL A   1      41.790  29.638  30.758  1.00  0.00     0.167 HD
ATOM     61  C   UNL A   1      43.764  30.517  32.589  1.00  0.00     0.074 A 
ATOM     62  C   UNL A   1      44.463  31.323  33.567  1.00  0.00     0.031 C 
ATOM     63  C   UNL A   1      44.183  29.300  32.166  1.00  0.00     0.031 A 
BRANCH  50  64
ATOM     64  C   UNL A   1      40.400  26.608  28.099  1.00  0.00    -0.014 A 
ATOM     65  C   UNL A   1      39.606  25.554  28.575  1.00  0.00     0.009 A 
ATOM     66  C   UNL A   1      40.893  26.550  26.786  1.00  0.00     0.009 A 
ATOM     67  C   UNL A   1      39.337  24.451  27.762  1.00  0.00     0.001 A 
ATOM     68  C   UNL A   1      40.602  25.458  25.967  1.00  0.00     0.001 A 
ATOM     69  C   UNL A   1      39.831  24.405  26.459  1.00  0.00     0.000 A 
ENDBRANCH  50  64
BRANCH  51  70
ATOM     70  C   UNL A   1      41.941  34.696  33.733  1.00  0.00    -0.014 A 
ATOM     71  C   UNL A   1      41.391  34.746  35.022  1.00  0.00     0.009 A 
ATOM     72  C   UNL A   1      42.692  35.790  33.273  1.00  0.00     0.009 A 
ATOM     73  C   UNL A   1      41.572  35.874  35.826  1.00  0.00     0.001 A 
ATOM     74  C   UNL A   1      42.894  36.905  34.088  1.00  0.00     0.001 A 
ATOM     75  C   UNL A   1      42.327  36.950  35.361  1.00  0.00     0.000 A 
ENDBRANCH  51  70
BRANCH  63  76
ATOM     76  C   UNL A   1      45.482  28.783  32.714  1.00  0.00    -0.014 A 
ATOM     77  C   UNL A   1      45.514  27.878  33.786  1.00  0.00     0.009 A 
ATOM     78  C   UNL A   1      46.688  29.152  32.096  1.00  0.00     0.009 A 
ATOM     79  C   UNL A   1      46.731  27.368  34.240  1.00  0.00     0.001 A 
ATOM     80  C   UNL A   1      47.901  28.621  32.536  1.00  0.00     0.001 A 
ATOM     81  C   UNL A   1      47.922  27.733  33.611  1.00  0.00     0.000 A 
ENDBRANCH  63  76
ENDBRANCH  37  38
ENDBRANCH  30  32
ENDBRANCH  29  30
ENDBRANCH  28  29
ENDBRANCH  27  28
ENDBRANCH  26  27
ENDBRANCH   1  26
TORSDOF 18
ENDMDL
MODEL 3
REMARK VINA RESULT:     -10.2      4.377      9.509
REMARK SMILES CC1(C)CCC[C@H]1NS(=O)(=O)c1ccc(O)c(C(=O)OCCOCCOC(=O)c2ccc(-c3c4nc(c(-c5ccccc5)c5ccc([nH]5)c(-c5ccccc5)c5nc(c(-c6ccccc6)c6ccc3[nH]6)C=C5)C=C4)cc2)c1
REMARK SMILES IDX 22 1 21 2 20 3 18 4 19 5 17 6 12 7 13 8 77 9 14 10 15 11
REMARK SMILES IDX 9 12 10 13 11 14 8 15 7 17 1 18 2 19 3 20 4 21 5 22 6 23
REMARK SMILES IDX 16 24 23 26 24 27 25 28 26 29 27 30 28 31 29 32 30 33 76 34
REMARK SMILES IDX 31 35 75 36 32 37 33 38 34 39 69 40 35 41 74 42 68 43 70 44
REMARK SMILES IDX 36 45 73 46 67 47 66 48 37 50 59 51 44 52 58 53 45 54 48 55
REMARK SMILES IDX 57 56 71 57 46 58 47 59 56 61 72 62 49 63 38 64 39 65 43 66
REMARK SMILES IDX 40 67 42 68 41 69 60 70 61 71 65 72 62 73 64 74 63 75 50 76
REMARK SMILES IDX 51 77 55 78 52 79 54 80 53 81
REMARK H PARENT 8 16 16 25 70 49 48 60
REMARK Flexibility Score: inf
ROOT
ATOM      1  C   UNL A   1      39.515  21.977  26.634  1.00  0.00     0.202 C 
ENDROOT
BRANCH   1   2
ATOM      2  C   UNL A   1      38.575  23.075  26.129  1.00  0.00     0.261 C 
BRANCH   2   3
ATOM      3  O   UNL A   1      37.220  22.616  26.247  1.00  0.00    -0.460 OA
BRANCH   3   4
ATOM      4  C   UNL A   1      36.346  23.036  25.303  1.00  0.00     0.342 C 
ATOM      5  O   UNL A   1      36.609  23.628  24.270  1.00  0.00    -0.246 OA
BRANCH   4   6
ATOM      6  C   UNL A   1      35.020  22.438  25.587  1.00  0.00     0.103 A 
ATOM      7  C   UNL A   1      32.664  22.845  25.974  1.00  0.00     0.083 A 
ATOM      8  C   UNL A   1      32.402  21.485  25.777  1.00  0.00     0.025 A 
ATOM      9  C   UNL A   1      33.973  23.327  25.880  1.00  0.00     0.041 A 
ATOM     10  C   UNL A   1      33.449  20.592  25.554  1.00  0.00     0.048 A 
ATOM     11  C   UNL A   1      34.756  21.068  25.453  1.00  0.00     0.130 A 
BRANCH   7  12
ATOM     12  S   UNL A   1      31.306  23.985  26.089  1.00  0.00     0.240 S 
ATOM     13  O   UNL A   1      30.563  23.617  27.272  1.00  0.00    -0.207 OA
ATOM     14  O   UNL A   1      30.670  24.039  24.790  1.00  0.00    -0.207 OA
BRANCH  12  15
ATOM     15  N   UNL A   1      31.997  25.507  26.290  1.00  0.00    -0.208 NA
ATOM     16  H   UNL A   1      31.575  25.896  27.132  1.00  0.00     0.141 HD
BRANCH  15  17
ATOM     17  C   UNL A   1      31.919  26.568  25.270  1.00  0.00     0.075 C 
ATOM     18  C   UNL A   1      31.956  28.169  27.347  1.00  0.00     0.013 C 
ATOM     19  C   UNL A   1      32.233  27.980  25.850  1.00  0.00    -0.019 C 
ATOM     20  C   UNL A   1      31.406  29.039  25.085  1.00  0.00     0.013 C 
ATOM     21  C   UNL A   1      33.731  28.154  25.550  1.00  0.00     0.008 C 
ATOM     22  C   UNL A   1      33.907  27.545  24.171  1.00  0.00     0.002 C 
ATOM     23  C   UNL A   1      32.952  26.359  24.147  1.00  0.00     0.020 C 
ENDBRANCH  15  17
ENDBRANCH  12  15
ENDBRANCH   7  12
BRANCH  11  24
ATOM     24  O   UNL A   1      35.769  20.183  25.213  1.00  0.00    -0.507 OA
ATOM     25  H   UNL A   1      36.661  20.460  25.286  1.00  0.00     0.293 HD
ENDBRANCH  11  24
ENDBRANCH   4   6
ENDBRANCH   3   4
ENDBRANCH   2   3
ENDBRANCH   1   2
BRANCH   1  26
ATOM     26  O   UNL A   1      40.541  21.613  25.707  1.00  0.00    -0.374 OA
BRANCH  26  27
ATOM     27  C   UNL A   1      41.562  20.742  26.199  1.00  0.00     0.202 C 
BRANCH  27  28
ATOM     28  C   UNL A   1      42.977  21.092  25.726  1.00  0.00     0.261 C 
BRANCH  28  29
ATOM     29  O   UNL A   1      43.048  22.451  25.251  1.00  0.00    -0.460 OA
BRANCH  29  30
ATOM     30  C   UNL A   1      43.988  23.223  25.845  1.00  0.00     0.338 C 
ATOM     31  O   UNL A   1      45.193  23.203  25.664  1.00  0.00    -0.246 OA
BRANCH  30  32
ATOM     32  C   UNL A   1      43.324  24.251  26.670  1.00  0.00     0.060 A 
ATOM     33  C   UNL A   1      43.666  25.592  26.447  1.00  0.00     0.016 A 
ATOM     34  C   UNL A   1      42.427  23.907  27.683  1.00  0.00     0.016 A 
ATOM     35  C   UNL A   1      43.138  26.593  27.260  1.00  0.00     0.010 A 
ATOM     36  C   UNL A   1      41.908  24.910  28.505  1.00  0.00     0.010 A 
ATOM     37  C   UNL A   1      42.283  26.253  28.316  1.00  0.00    -0.014 A 
BRANCH  37  38
ATOM     38  C   UNL A   1      41.885  27.266  29.320  1.00  0.00     0.031 A 
ATOM     39  C   UNL A   1      42.657  27.349  30.606  1.00  0.00     0.074 A 
ATOM     40  C   UNL A   1      40.836  28.080  29.106  1.00  0.00     0.049 A 
ATOM     41  N   UNL A   1      42.402  28.048  31.683  1.00  0.00    -0.248 NA
ATOM     42  C   UNL A   1      43.875  26.528  30.693  1.00  0.00     0.031 C 
ATOM     43  C   UNL A   1      40.045  28.139  27.878  1.00  0.00     0.029 A 
ATOM     44  N   UNL A   1      40.246  29.001  29.935  1.00  0.00    -0.354 N 
ATOM     45  C   UNL A   1      43.417  27.737  32.579  1.00  0.00     0.074 A 
ATOM     46  C   UNL A   1      44.281  26.777  31.928  1.00  0.00     0.031 C 
ATOM     47  C   UNL A   1      39.056  29.036  28.044  1.00  0.00     0.029 A 
ATOM     48  C   UNL A   1      39.122  29.578  29.399  1.00  0.00     0.049 A 
ATOM     49  H   UNL A   1      40.596  29.226  30.828  1.00  0.00     0.167 HD
ATOM     50  C   UNL A   1      43.607  28.206  33.834  1.00  0.00     0.031 A 
ATOM     51  C   UNL A   1      38.227  30.418  29.955  1.00  0.00     0.031 A 
ATOM     52  C   UNL A   1      42.742  29.152  34.484  1.00  0.00     0.049 A 
ATOM     53  C   UNL A   1      38.410  30.858  31.383  1.00  0.00     0.074 A 
ATOM     54  C   UNL A   1      42.856  29.695  35.752  1.00  0.00     0.029 A 
ATOM     55  N   UNL A   1      41.600  29.692  33.916  1.00  0.00    -0.354 N 
ATOM     56  N   UNL A   1      39.371  30.558  32.223  1.00  0.00    -0.248 NA
ATOM     57  C   UNL A   1      37.381  31.749  31.940  1.00  0.00     0.031 C 
ATOM     58  C   UNL A   1      41.753  30.528  35.969  1.00  0.00     0.029 A 
ATOM     59  C   UNL A   1      40.984  30.543  34.816  1.00  0.00     0.049 A 
ATOM     60  H   UNL A   1      41.275  29.498  33.007  1.00  0.00     0.167 HD
ATOM     61  C   UNL A   1      39.081  31.249  33.393  1.00  0.00     0.074 A 
ATOM     62  C   UNL A   1      37.856  31.983  33.157  1.00  0.00     0.031 C 
ATOM     63  C   UNL A   1      39.771  31.275  34.559  1.00  0.00     0.031 A 
BRANCH  50  64
ATOM     64  C   UNL A   1      44.779  27.667  34.602  1.00  0.00    -0.014 A 
ATOM     65  C   UNL A   1      44.626  26.630  35.535  1.00  0.00     0.009 A 
ATOM     66  C   UNL A   1      46.062  28.186  34.367  1.00  0.00     0.009 A 
ATOM     67  C   UNL A   1      45.730  26.145  36.239  1.00  0.00     0.001 A 
ATOM     68  C   UNL A   1      47.167  27.682  35.053  1.00  0.00     0.001 A 
ATOM     69  C   UNL A   1      46.999  26.667  35.995  1.00  0.00     0.000 A 
ENDBRANCH  50  64
BRANCH  51  70
ATOM     70  C   UNL A   1      37.049  30.873  29.171  1.00  0.00    -0.014 A 
ATOM     71  C   UNL A   1      36.018  29.980  28.844  1.00  0.00     0.009 A 
ATOM     72  C   UNL A   1      36.959  32.204  28.732  1.00  0.00     0.009 A 
ATOM     73  C   UNL A   1      34.931  30.404  28.076  1.00  0.00     0.001 A 
ATOM     74  C   UNL A   1      35.859  32.632  27.987  1.00  0.00     0.001 A 
ATOM     75  C   UNL A   1      34.850  31.730  27.652  1.00  0.00     0.000 A 
ENDBRANCH  51  70
BRANCH  63  76
ATOM     76  C   UNL A   1      39.252  32.161  35.655  1.00  0.00    -0.014 A 
ATOM     77  C   UNL A   1      39.613  33.514  35.732  1.00  0.00     0.009 A 
ATOM     78  C   UNL A   1      38.329  31.646  36.579  1.00  0.00     0.009 A 
ATOM     79  C   UNL A   1      39.072  34.331  36.726  1.00  0.00     0.001 A 
ATOM     80  C   UNL A   1      37.771  32.471  37.557  1.00  0.00     0.001 A 
ATOM     81  C   UNL A   1      38.147  33.812  37.632  1.00  0.00     0.000 A 
ENDBRANCH  63  76
ENDBRANCH  37  38
ENDBRANCH  30  32
ENDBRANCH  29  30
ENDBRANCH  28  29
ENDBRANCH  27  28
ENDBRANCH  26  27
ENDBRANCH   1  26
TORSDOF 18
ENDMDL
