MODEL 1
REMARK VINA RESULT:     -14.6      0.000      0.000
REMARK SMILES Cc1ccccc1[C@H]1[NH2+][C@@H](C(=O)OCCOCCOC(=O)c2ccc(-c3c4nc(c(-c5ccccc5)c5ccc([nH]5)c(-c5ccccc5)c5nc(c(-c6ccccc6)c6ccc3[nH]6)C=C5)C=C4)cc2)CC2=c3ccccc3=N[C@@H]21
REMARK SMILES IDX 17 1 16 2 15 3 14 4 13 5 11 6 12 7 10 8 8 9 9 10 79 11 71 14
REMARK SMILES IDX 78 15 70 16 72 17 77 18 73 19 76 20 74 21 75 22 7 23 1 24
REMARK SMILES IDX 2 25 3 26 4 27 6 28 5 29 18 30 19 31 20 32 21 33 22 34 23 35
REMARK SMILES IDX 69 36 24 37 68 38 25 39 26 40 27 41 62 42 28 43 67 44 61 45
REMARK SMILES IDX 63 46 29 47 66 48 60 49 59 50 30 52 52 53 37 54 51 55 38 56
REMARK SMILES IDX 41 57 50 58 64 59 39 60 40 61 49 63 65 64 42 65 31 66 32 67
REMARK SMILES IDX 36 68 33 69 35 70 34 71 53 72 54 73 58 74 55 75 57 76 56 77
REMARK SMILES IDX 43 78 44 79 48 80 45 81 47 82 46 83
REMARK H PARENT 9 12 9 13 63 51 41 62
REMARK Flexibility Score: inf
ROOT
ATOM      1  C   UNL A   1      33.245  34.750  28.336  1.00  0.00     0.202 C 
ENDROOT
BRANCH   1   2
ATOM      2  O   UNL A   1      33.777  33.503  28.841  1.00  0.00    -0.374 OA
BRANCH   2   3
ATOM      3  C   UNL A   1      34.341  32.590  27.953  1.00  0.00     0.202 C 
BRANCH   3   4
ATOM      4  C   UNL A   1      33.899  31.141  27.929  1.00  0.00     0.261 C 
BRANCH   4   5
ATOM      5  O   UNL A   1      33.502  30.577  26.703  1.00  0.00    -0.459 OA
BRANCH   5   6
ATOM      6  C   UNL A   1      32.902  29.380  26.735  1.00  0.00     0.365 C 
ATOM      7  O   UNL A   1      33.344  28.509  27.483  1.00  0.00    -0.245 OA
BRANCH   6   8
ATOM      8  C   UNL A   1      31.858  29.053  25.667  1.00  0.00     0.298 C 
ATOM      9  C   UNL A   1      31.456  26.798  24.452  1.00  0.00     0.243 C 
ATOM     10  N   UNL A   1      31.188  27.689  25.654  1.00  0.00    -0.326 N 
ATOM     11  C   UNL A   1      31.302  27.638  23.005  1.00  0.00     0.196 C 
ATOM     12  H   UNL A   1      31.499  27.185  26.485  1.00  0.00     0.347 HD
ATOM     13  H   UNL A   1      30.187  27.886  25.618  1.00  0.00     0.347 HD
ATOM     14  C   UNL A   1      31.379  29.124  23.323  1.00  0.00    -0.024 C 
ATOM     15  N   UNL A   1      29.909  27.503  22.444  1.00  0.00    -0.270 NA
ATOM     16  C   UNL A   1      32.387  29.554  24.317  1.00  0.00     0.111 C 
ATOM     17  C   UNL A   1      30.214  29.748  23.150  1.00  0.00     0.002 A 
ATOM     18  C   UNL A   1      29.380  28.681  22.594  1.00  0.00     0.066 A 
ATOM     19  C   UNL A   1      29.641  30.895  23.800  1.00  0.00     0.010 A 
ATOM     20  C   UNL A   1      27.953  29.024  22.408  1.00  0.00     0.028 A 
ATOM     21  C   UNL A   1      28.303  31.011  23.815  1.00  0.00     0.001 A 
ATOM     22  C   UNL A   1      27.466  30.102  23.051  1.00  0.00     0.002 A 
BRANCH   9  23
ATOM     23  C   UNL A   1      31.987  25.210  24.796  1.00  0.00     0.015 A 
ATOM     24  C   UNL A   1      30.497  23.128  26.849  1.00  0.00     0.045 C 
ATOM     25  C   UNL A   1      31.427  23.605  25.689  1.00  0.00    -0.042 A 
ATOM     26  C   UNL A   1      32.628  22.194  25.786  1.00  0.00     0.004 A 
ATOM     27  C   UNL A   1      34.225  22.310  25.072  1.00  0.00     0.000 A 
ATOM     28  C   UNL A   1      33.733  25.261  24.255  1.00  0.00     0.010 A 
ATOM     29  C   UNL A   1      34.797  23.828  24.378  1.00  0.00     0.001 A 
ENDBRANCH   9  23
ENDBRANCH   6   8
ENDBRANCH   5   6
ENDBRANCH   4   5
ENDBRANCH   3   4
ENDBRANCH   2   3
ENDBRANCH   1   2
BRANCH   1  30
ATOM     30  C   UNL A   1      32.814  36.227  29.040  1.00  0.00     0.261 C 
BRANCH  30  31
ATOM     31  O   UNL A   1      32.772  36.922  30.579  1.00  0.00    -0.460 OA
BRANCH  31  32
ATOM     32  C   UNL A   1      33.243  36.703  32.198  1.00  0.00     0.338 C 
ATOM     33  O   UNL A   1      32.879  37.809  32.662  1.00  0.00    -0.246 OA
BRANCH  32  34
ATOM     34  C   UNL A   1      34.152  34.907  32.974  1.00  0.00     0.060 A 
ATOM     35  C   UNL A   1      34.832  34.533  34.260  1.00  0.00     0.016 A 
ATOM     36  C   UNL A   1      34.335  33.587  32.279  1.00  0.00     0.016 A 
ATOM     37  C   UNL A   1      35.832  33.504  34.475  1.00  0.00     0.010 A 
ATOM     38  C   UNL A   1      35.397  32.688  32.398  1.00  0.00     0.010 A 
ATOM     39  C   UNL A   1      36.286  32.750  33.430  1.00  0.00    -0.014 A 
BRANCH  39  40
ATOM     40  C   UNL A   1      37.620  32.139  33.244  1.00  0.00     0.031 A 
ATOM     41  C   UNL A   1      37.744  30.857  32.484  1.00  0.00     0.074 A 
ATOM     42  C   UNL A   1      38.727  32.902  33.507  1.00  0.00     0.049 A 
ATOM     43  N   UNL A   1      38.714  30.022  32.657  1.00  0.00    -0.248 NA
ATOM     44  C   UNL A   1      36.745  30.317  31.542  1.00  0.00     0.031 C 
ATOM     45  C   UNL A   1      40.066  32.841  32.895  1.00  0.00     0.029 A 
ATOM     46  N   UNL A   1      38.830  34.040  34.322  1.00  0.00    -0.354 N 
ATOM     47  C   UNL A   1      38.644  29.126  31.607  1.00  0.00     0.074 A 
ATOM     48  C   UNL A   1      37.293  29.164  31.155  1.00  0.00     0.031 C 
ATOM     49  C   UNL A   1      40.889  33.732  33.489  1.00  0.00     0.029 A 
ATOM     50  C   UNL A   1      40.185  34.286  34.633  1.00  0.00     0.049 A 
ATOM     51  H   UNL A   1      38.070  34.586  34.630  1.00  0.00     0.167 HD
ATOM     52  C   UNL A   1      39.782  28.661  31.026  1.00  0.00     0.031 A 
ATOM     53  C   UNL A   1      40.638  34.225  35.928  1.00  0.00     0.031 A 
ATOM     54  C   UNL A   1      40.955  29.222  31.695  1.00  0.00     0.049 A 
ATOM     55  C   UNL A   1      41.436  32.981  36.163  1.00  0.00     0.074 A 
ATOM     56  C   UNL A   1      41.902  30.156  31.318  1.00  0.00     0.029 A 
ATOM     57  N   UNL A   1      41.059  29.099  33.074  1.00  0.00    -0.354 N 
ATOM     58  N   UNL A   1      41.491  32.032  35.278  1.00  0.00    -0.248 NA
ATOM     59  C   UNL A   1      42.198  32.674  37.366  1.00  0.00     0.031 C 
ATOM     60  C   UNL A   1      42.562  30.606  32.503  1.00  0.00     0.029 A 
ATOM     61  C   UNL A   1      42.041  29.918  33.590  1.00  0.00     0.049 A 
ATOM     62  H   UNL A   1      40.499  28.499  33.618  1.00  0.00     0.167 HD
ATOM     63  C   UNL A   1      42.229  31.004  35.742  1.00  0.00     0.074 A 
ATOM     64  C   UNL A   1      42.680  31.459  37.048  1.00  0.00     0.031 C 
ATOM     65  C   UNL A   1      42.326  29.856  35.023  1.00  0.00     0.031 A 
BRANCH  52  66
ATOM     66  C   UNL A   1      39.864  27.884  29.724  1.00  0.00    -0.014 A 
ATOM     67  C   UNL A   1      40.478  28.500  28.619  1.00  0.00     0.009 A 
ATOM     68  C   UNL A   1      39.371  26.584  29.490  1.00  0.00     0.009 A 
ATOM     69  C   UNL A   1      40.619  27.856  27.381  1.00  0.00     0.001 A 
ATOM     70  C   UNL A   1      39.527  25.922  28.261  1.00  0.00     0.001 A 
ATOM     71  C   UNL A   1      40.158  26.558  27.206  1.00  0.00     0.000 A 
ENDBRANCH  52  66
BRANCH  53  72
ATOM     72  C   UNL A   1      39.665  34.786  36.905  1.00  0.00    -0.014 A 
ATOM     73  C   UNL A   1      38.843  33.822  37.513  1.00  0.00     0.009 A 
ATOM     74  C   UNL A   1      40.061  35.918  37.629  1.00  0.00     0.009 A 
ATOM     75  C   UNL A   1      38.791  33.773  38.899  1.00  0.00     0.001 A 
ATOM     76  C   UNL A   1      39.922  35.900  39.012  1.00  0.00     0.001 A 
ATOM     77  C   UNL A   1      39.389  34.780  39.641  1.00  0.00     0.000 A 
ENDBRANCH  53  72
BRANCH  65  78
ATOM     78  C   UNL A   1      42.685  28.543  35.647  1.00  0.00    -0.014 A 
ATOM     79  C   UNL A   1      43.995  28.058  35.730  1.00  0.00     0.009 A 
ATOM     80  C   UNL A   1      41.689  27.802  36.312  1.00  0.00     0.009 A 
ATOM     81  C   UNL A   1      44.278  26.832  36.327  1.00  0.00     0.001 A 
ATOM     82  C   UNL A   1      41.981  26.627  36.996  1.00  0.00     0.001 A 
ATOM     83  C   UNL A   1      43.271  26.120  36.965  1.00  0.00     0.000 A 
ENDBRANCH  65  78
ENDBRANCH  39  40
ENDBRANCH  32  34
ENDBRANCH  31  32
ENDBRANCH  30  31
ENDBRANCH   1  30
TORSDOF 15
ENDMDL
MODEL 2
REMARK VINA RESULT:     -14.3      2.846      8.210
REMARK SMILES Cc1ccccc1[C@H]1[NH2+][C@@H](C(=O)OCCOCCOC(=O)c2ccc(-c3c4nc(c(-c5ccccc5)c5ccc([nH]5)c(-c5ccccc5)c5nc(c(-c6ccccc6)c6ccc3[nH]6)C=C5)C=C4)cc2)CC2=c3ccccc3=N[C@@H]21
REMARK SMILES IDX 17 1 16 2 15 3 14 4 13 5 11 6 12 7 10 8 8 9 9 10 79 11 71 14
REMARK SMILES IDX 78 15 70 16 72 17 77 18 73 19 76 20 74 21 75 22 7 23 1 24
REMARK SMILES IDX 2 25 3 26 4 27 6 28 5 29 18 30 19 31 20 32 21 33 22 34 23 35
REMARK SMILES IDX 69 36 24 37 68 38 25 39 26 40 27 41 62 42 28 43 67 44 61 45
REMARK SMILES IDX 63 46 29 47 66 48 60 49 59 50 30 52 52 53 37 54 51 55 38 56
REMARK SMILES IDX 41 57 50 58 64 59 39 60 40 61 49 63 65 64 42 65 31 66 32 67
REMARK SMILES IDX 36 68 33 69 35 70 34 71 53 72 54 73 58 74 55 75 57 76 56 77
REMARK SMILES IDX 43 78 44 79 48 80 45 81 47 82 46 83
REMARK H PARENT 9 12 9 13 63 51 41 62
REMARK Flexibility Score: inf
ROOT
ATOM      1  C   UNL A   1      33.827  26.543  25.484  1.00  0.00     0.202 C 
ENDROOT
BRANCH   1   2
ATOM      2  O   UNL A   1      34.673  25.497  24.950  1.00  0.00    -0.374 OA
BRANCH   2   3
ATOM      3  C   UNL A   1      35.281  24.597  25.823  1.00  0.00     0.202 C 
BRANCH   3   4
ATOM      4  C   UNL A   1      36.753  24.260  25.703  1.00  0.00     0.261 C 
BRANCH   4   5
ATOM      5  O   UNL A   1      37.118  23.012  25.167  1.00  0.00    -0.459 OA
BRANCH   5   6
ATOM      6  C   UNL A   1      36.531  22.629  24.026  1.00  0.00     0.365 C 
ATOM      7  O   UNL A   1      36.813  23.217  22.983  1.00  0.00    -0.245 OA
BRANCH   6   8
ATOM      8  C   UNL A   1      35.352  21.658  24.095  1.00  0.00     0.298 C 
ATOM      9  C   UNL A   1      32.824  22.210  24.252  1.00  0.00     0.243 C 
ATOM     10  N   UNL A   1      34.051  21.992  23.383  1.00  0.00    -0.326 N 
ATOM     11  C   UNL A   1      32.664  21.013  25.420  1.00  0.00     0.196 C 
ATOM     12  H   UNL A   1      34.204  22.847  22.847  1.00  0.00     0.347 HD
ATOM     13  H   UNL A   1      33.836  21.166  22.825  1.00  0.00     0.347 HD
ATOM     14  C   UNL A   1      34.012  20.320  25.558  1.00  0.00    -0.024 C 
ATOM     15  N   UNL A   1      31.778  19.894  24.933  1.00  0.00    -0.270 NA
ATOM     16  C   UNL A   1      35.219  21.175  25.544  1.00  0.00     0.111 C 
ATOM     17  C   UNL A   1      33.998  19.071  25.093  1.00  0.00     0.002 A 
ATOM     18  C   UNL A   1      32.587  18.892  24.748  1.00  0.00     0.066 A 
ATOM     19  C   UNL A   1      35.029  18.263  24.500  1.00  0.00     0.010 A 
ATOM     20  C   UNL A   1      32.257  17.622  24.066  1.00  0.00     0.028 A 
ATOM     21  C   UNL A   1      34.659  17.271  23.674  1.00  0.00     0.001 A 
ATOM     22  C   UNL A   1      33.261  16.912  23.518  1.00  0.00     0.002 A 
BRANCH   9  23
ATOM     23  C   UNL A   1      31.956  23.658  23.979  1.00  0.00     0.015 A 
ATOM     24  C   UNL A   1      32.477  25.725  21.483  1.00  0.00     0.045 C 
ATOM     25  C   UNL A   1      31.720  25.035  22.662  1.00  0.00    -0.042 A 
ATOM     26  C   UNL A   1      30.639  26.480  23.093  1.00  0.00     0.004 A 
ATOM     27  C   UNL A   1      29.840  26.584  24.650  1.00  0.00     0.000 A 
ATOM     28  C   UNL A   1      31.214  23.978  25.619  1.00  0.00     0.010 A 
ATOM     29  C   UNL A   1      30.167  25.398  25.915  1.00  0.00     0.001 A 
ENDBRANCH   9  23
ENDBRANCH   6   8
ENDBRANCH   5   6
ENDBRANCH   4   5
ENDBRANCH   3   4
ENDBRANCH   2   3
ENDBRANCH   1   2
BRANCH   1  30
ATOM     30  C   UNL A   1      33.421  28.109  24.988  1.00  0.00     0.261 C 
BRANCH  30  31
ATOM     31  O   UNL A   1      33.394  29.668  25.639  1.00  0.00    -0.460 OA
BRANCH  31  32
ATOM     32  C   UNL A   1      33.101  30.559  27.057  1.00  0.00     0.338 C 
ATOM     33  O   UNL A   1      31.878  30.316  27.193  1.00  0.00    -0.246 OA
BRANCH  32  34
ATOM     34  C   UNL A   1      34.603  31.668  28.137  1.00  0.00     0.060 A 
ATOM     35  C   UNL A   1      36.015  32.095  27.853  1.00  0.00     0.016 A 
ATOM     36  C   UNL A   1      34.519  32.225  29.531  1.00  0.00     0.016 A 
ATOM     37  C   UNL A   1      37.074  32.368  28.805  1.00  0.00     0.010 A 
ATOM     38  C   UNL A   1      35.538  32.331  30.481  1.00  0.00     0.010 A 
ATOM     39  C   UNL A   1      36.855  32.221  30.146  1.00  0.00    -0.014 A 
BRANCH  39  40
ATOM     40  C   UNL A   1      37.818  31.841  31.202  1.00  0.00     0.031 A 
ATOM     41  C   UNL A   1      38.242  32.858  32.214  1.00  0.00     0.074 A 
ATOM     42  C   UNL A   1      38.064  30.510  31.409  1.00  0.00     0.049 A 
ATOM     43  N   UNL A   1      39.367  32.802  32.845  1.00  0.00    -0.248 NA
ATOM     44  C   UNL A   1      37.516  34.100  32.540  1.00  0.00     0.031 C 
ATOM     45  C   UNL A   1      38.436  29.814  32.653  1.00  0.00     0.029 A 
ATOM     46  N   UNL A   1      37.879  29.439  30.520  1.00  0.00    -0.354 N 
ATOM     47  C   UNL A   1      39.279  33.724  33.872  1.00  0.00     0.074 A 
ATOM     48  C   UNL A   1      38.295  34.669  33.460  1.00  0.00     0.031 C 
ATOM     49  C   UNL A   1      38.649  28.503  32.407  1.00  0.00     0.029 A 
ATOM     50  C   UNL A   1      38.606  28.314  30.968  1.00  0.00     0.049 A 
ATOM     51  H   UNL A   1      37.325  29.468  29.706  1.00  0.00     0.167 HD
ATOM     52  C   UNL A   1      39.820  33.447  35.089  1.00  0.00     0.031 A 
ATOM     53  C   UNL A   1      39.634  27.791  30.221  1.00  0.00     0.031 A 
ATOM     54  C   UNL A   1      40.464  32.135  35.068  1.00  0.00     0.049 A 
ATOM     55  C   UNL A   1      40.963  28.133  30.819  1.00  0.00     0.074 A 
ATOM     56  C   UNL A   1      40.146  30.918  35.641  1.00  0.00     0.029 A 
ATOM     57  N   UNL A   1      41.399  31.866  34.078  1.00  0.00    -0.354 N 
ATOM     58  N   UNL A   1      41.069  28.978  31.799  1.00  0.00    -0.248 NA
ATOM     59  C   UNL A   1      42.250  27.608  30.384  1.00  0.00     0.031 C 
ATOM     60  C   UNL A   1      40.897  29.910  34.959  1.00  0.00     0.029 A 
ATOM     61  C   UNL A   1      41.693  30.522  34.002  1.00  0.00     0.049 A 
ATOM     62  H   UNL A   1      41.804  32.553  33.501  1.00  0.00     0.167 HD
ATOM     63  C   UNL A   1      42.365  29.151  32.126  1.00  0.00     0.074 A 
ATOM     64  C   UNL A   1      43.075  28.250  31.231  1.00  0.00     0.031 C 
ATOM     65  C   UNL A   1      42.716  30.079  33.054  1.00  0.00     0.031 A 
BRANCH  52  66
ATOM     66  C   UNL A   1      39.589  34.237  36.365  1.00  0.00    -0.014 A 
ATOM     67  C   UNL A   1      38.855  33.630  37.399  1.00  0.00     0.009 A 
ATOM     68  C   UNL A   1      40.031  35.549  36.632  1.00  0.00     0.009 A 
ATOM     69  C   UNL A   1      38.607  34.271  38.623  1.00  0.00     0.001 A 
ATOM     70  C   UNL A   1      39.808  36.191  37.861  1.00  0.00     0.001 A 
ATOM     71  C   UNL A   1      39.099  35.547  38.861  1.00  0.00     0.000 A 
ENDBRANCH  52  66
BRANCH  53  72
ATOM     72  C   UNL A   1      39.350  27.807  28.760  1.00  0.00    -0.014 A 
ATOM     73  C   UNL A   1      39.784  28.971  28.104  1.00  0.00     0.009 A 
ATOM     74  C   UNL A   1      39.378  26.579  28.086  1.00  0.00     0.009 A 
ATOM     75  C   UNL A   1      40.614  28.841  26.999  1.00  0.00     0.001 A 
ATOM     76  C   UNL A   1      40.139  26.478  26.928  1.00  0.00     0.001 A 
ATOM     77  C   UNL A   1      40.838  27.585  26.458  1.00  0.00     0.000 A 
ENDBRANCH  53  72
BRANCH  65  78
ATOM     78  C   UNL A   1      44.089  30.674  33.120  1.00  0.00    -0.014 A 
ATOM     79  C   UNL A   1      44.616  31.512  32.131  1.00  0.00     0.009 A 
ATOM     80  C   UNL A   1      44.855  30.508  34.289  1.00  0.00     0.009 A 
ATOM     81  C   UNL A   1      45.898  32.047  32.241  1.00  0.00     0.001 A 
ATOM     82  C   UNL A   1      46.093  31.121  34.447  1.00  0.00     0.001 A 
ATOM     83  C   UNL A   1      46.633  31.856  33.403  1.00  0.00     0.000 A 
ENDBRANCH  65  78
ENDBRANCH  39  40
ENDBRANCH  32  34
ENDBRANCH  31  32
ENDBRANCH  30  31
ENDBRANCH   1  30
TORSDOF 15
ENDMDL
MODEL 3
REMARK VINA RESULT:     -13.9      4.586     11.559
REMARK SMILES Cc1ccccc1[C@H]1[NH2+][C@@H](C(=O)OCCOCCOC(=O)c2ccc(-c3c4nc(c(-c5ccccc5)c5ccc([nH]5)c(-c5ccccc5)c5nc(c(-c6ccccc6)c6ccc3[nH]6)C=C5)C=C4)cc2)CC2=c3ccccc3=N[C@@H]21
REMARK SMILES IDX 17 1 16 2 15 3 14 4 13 5 11 6 12 7 10 8 8 9 9 10 79 11 71 14
REMARK SMILES IDX 78 15 70 16 72 17 77 18 73 19 76 20 74 21 75 22 7 23 1 24
REMARK SMILES IDX 2 25 3 26 4 27 6 28 5 29 18 30 19 31 20 32 21 33 22 34 23 35
REMARK SMILES IDX 69 36 24 37 68 38 25 39 26 40 27 41 62 42 28 43 67 44 61 45
REMARK SMILES IDX 63 46 29 47 66 48 60 49 59 50 30 52 52 53 37 54 51 55 38 56
REMARK SMILES IDX 41 57 50 58 64 59 39 60 40 61 49 63 65 64 42 65 31 66 32 67
REMARK SMILES IDX 36 68 33 69 35 70 34 71 53 72 54 73 58 74 55 75 57 76 56 77
REMARK SMILES IDX 43 78 44 79 48 80 45 81 47 82 46 83
REMARK H PARENT 9 12 9 13 63 51 41 62
REMARK Flexibility Score: inf
ROOT
ATOM      1  C   UNL A   1      34.942  22.154  24.722  1.00  0.00     0.202 C 
ENDROOT
BRANCH   1   2
ATOM      2  O   UNL A   1      36.138  22.127  25.535  1.00  0.00    -0.374 OA
BRANCH   2   3
ATOM      3  C   UNL A   1      37.369  21.880  24.932  1.00  0.00     0.202 C 
BRANCH   3   4
ATOM      4  C   UNL A   1      38.541  21.344  25.729  1.00  0.00     0.261 C 
BRANCH   4   5
ATOM      5  O   UNL A   1      39.695  22.138  25.850  1.00  0.00    -0.459 OA
BRANCH   5   6
ATOM      6  C   UNL A   1      40.492  21.922  26.905  1.00  0.00     0.365 C 
ATOM      7  O   UNL A   1      40.039  22.084  28.038  1.00  0.00    -0.245 OA
BRANCH   6   8
ATOM      8  C   UNL A   1      41.990  21.733  26.669  1.00  0.00     0.298 C 
ATOM      9  C   UNL A   1      43.953  23.148  27.600  1.00  0.00     0.243 C 
ATOM     10  N   UNL A   1      42.975  22.002  27.795  1.00  0.00    -0.326 N 
ATOM     11  C   UNL A   1      44.664  23.111  26.077  1.00  0.00     0.196 C 
ATOM     12  H   UNL A   1      42.434  22.199  28.636  1.00  0.00     0.347 HD
ATOM     13  H   UNL A   1      43.557  21.164  27.842  1.00  0.00     0.347 HD
ATOM     14  C   UNL A   1      43.806  22.221  25.189  1.00  0.00    -0.024 C 
ATOM     15  N   UNL A   1      45.974  22.366  26.107  1.00  0.00    -0.270 NA
ATOM     16  C   UNL A   1      42.338  22.354  25.310  1.00  0.00     0.111 C 
ATOM     17  C   UNL A   1      44.411  21.076  24.872  1.00  0.00     0.002 A 
ATOM     18  C   UNL A   1      45.738  21.262  25.462  1.00  0.00     0.066 A 
ATOM     19  C   UNL A   1      43.887  19.769  24.586  1.00  0.00     0.010 A 
ATOM     20  C   UNL A   1      46.630  20.084  25.397  1.00  0.00     0.028 A 
ATOM     21  C   UNL A   1      44.682  18.707  24.798  1.00  0.00     0.001 A 
ATOM     22  C   UNL A   1      46.083  18.881  25.138  1.00  0.00     0.002 A 
BRANCH   9  23
ATOM     23  C   UNL A   1      44.029  24.296  28.864  1.00  0.00     0.015 A 
ATOM     24  C   UNL A   1      44.624  27.500  28.467  1.00  0.00     0.045 C 
ATOM     25  C   UNL A   1      44.130  26.191  29.161  1.00  0.00    -0.042 A 
ATOM     26  C   UNL A   1      44.315  26.793  30.905  1.00  0.00     0.004 A 
ATOM     27  C   UNL A   1      44.382  25.672  32.251  1.00  0.00     0.000 A 
ATOM     28  C   UNL A   1      44.290  23.238  30.332  1.00  0.00     0.010 A 
ATOM     29  C   UNL A   1      44.435  23.930  31.975  1.00  0.00     0.001 A 
ENDBRANCH   9  23
ENDBRANCH   6   8
ENDBRANCH   5   6
ENDBRANCH   4   5
ENDBRANCH   3   4
ENDBRANCH   2   3
ENDBRANCH   1   2
BRANCH   1  30
ATOM     30  C   UNL A   1      33.352  22.678  24.969  1.00  0.00     0.261 C 
BRANCH  30  31
ATOM     31  O   UNL A   1      32.527  24.137  25.186  1.00  0.00    -0.460 OA
BRANCH  31  32
ATOM     32  C   UNL A   1      32.218  25.388  26.296  1.00  0.00     0.338 C 
ATOM     33  O   UNL A   1      31.331  24.828  26.982  1.00  0.00    -0.246 OA
BRANCH  32  34
ATOM     34  C   UNL A   1      33.242  27.286  26.315  1.00  0.00     0.060 A 
ATOM     35  C   UNL A   1      34.589  27.770  25.856  1.00  0.00     0.016 A 
ATOM     36  C   UNL A   1      32.767  28.589  26.896  1.00  0.00     0.016 A 
ATOM     37  C   UNL A   1      35.355  28.891  26.366  1.00  0.00     0.010 A 
ATOM     38  C   UNL A   1      33.524  29.583  27.521  1.00  0.00     0.010 A 
ATOM     39  C   UNL A   1      34.881  29.640  27.405  1.00  0.00    -0.014 A 
BRANCH  39  40
ATOM     40  C   UNL A   1      35.644  30.359  28.449  1.00  0.00     0.031 A 
ATOM     41  C   UNL A   1      35.234  31.743  28.840  1.00  0.00     0.074 A 
ATOM     42  C   UNL A   1      36.508  29.641  29.232  1.00  0.00     0.049 A 
ATOM     43  N   UNL A   1      36.049  32.606  29.346  1.00  0.00    -0.248 NA
ATOM     44  C   UNL A   1      33.909  32.346  28.600  1.00  0.00     0.031 C 
ATOM     45  C   UNL A   1      36.914  29.879  30.629  1.00  0.00     0.029 A 
ATOM     46  N   UNL A   1      37.116  28.407  28.958  1.00  0.00    -0.354 N 
ATOM     47  C   UNL A   1      35.267  33.638  29.830  1.00  0.00     0.074 A 
ATOM     48  C   UNL A   1      34.047  33.577  29.095  1.00  0.00     0.031 C 
ATOM     49  C   UNL A   1      37.837  28.968  31.007  1.00  0.00     0.029 A 
ATOM     50  C   UNL A   1      38.212  28.209  29.826  1.00  0.00     0.049 A 
ATOM     51  H   UNL A   1      36.822  27.773  28.264  1.00  0.00     0.167 HD
ATOM     52  C   UNL A   1      35.594  34.257  30.996  1.00  0.00     0.031 A 
ATOM     53  C   UNL A   1      39.493  28.112  29.340  1.00  0.00     0.031 A 
ATOM     54  C   UNL A   1      36.823  33.684  31.543  1.00  0.00     0.049 A 
ATOM     55  C   UNL A   1      40.273  29.359  29.618  1.00  0.00     0.074 A 
ATOM     56  C   UNL A   1      37.085  32.880  32.637  1.00  0.00     0.029 A 
ATOM     57  N   UNL A   1      37.946  33.613  30.730  1.00  0.00    -0.354 N 
ATOM     58  N   UNL A   1      39.700  30.427  30.084  1.00  0.00    -0.248 NA
ATOM     59  C   UNL A   1      41.700  29.538  29.390  1.00  0.00     0.031 C 
ATOM     60  C   UNL A   1      38.382  32.308  32.452  1.00  0.00     0.029 A 
ATOM     61  C   UNL A   1      38.917  32.796  31.268  1.00  0.00     0.049 A 
ATOM     62  H   UNL A   1      38.038  34.089  29.874  1.00  0.00     0.167 HD
ATOM     63  C   UNL A   1      40.600  31.424  30.203  1.00  0.00     0.074 A 
ATOM     64  C   UNL A   1      41.852  30.816  29.783  1.00  0.00     0.031 C 
ATOM     65  C   UNL A   1      40.194  32.668  30.567  1.00  0.00     0.031 A 
BRANCH  52  66
ATOM     66  C   UNL A   1      34.710  35.218  31.771  1.00  0.00    -0.014 A 
ATOM     67  C   UNL A   1      33.513  35.650  31.174  1.00  0.00     0.009 A 
ATOM     68  C   UNL A   1      34.968  35.749  33.052  1.00  0.00     0.009 A 
ATOM     69  C   UNL A   1      32.621  36.520  31.819  1.00  0.00     0.001 A 
ATOM     70  C   UNL A   1      34.072  36.603  33.716  1.00  0.00     0.001 A 
ATOM     71  C   UNL A   1      32.893  36.984  33.099  1.00  0.00     0.000 A 
ENDBRANCH  52  66
BRANCH  53  72
ATOM     72  C   UNL A   1      39.568  27.351  28.062  1.00  0.00    -0.014 A 
ATOM     73  C   UNL A   1      40.077  28.094  26.983  1.00  0.00     0.009 A 
ATOM     74  C   UNL A   1      39.829  25.978  28.145  1.00  0.00     0.009 A 
ATOM     75  C   UNL A   1      41.153  27.580  26.273  1.00  0.00     0.001 A 
ATOM     76  C   UNL A   1      40.851  25.451  27.364  1.00  0.00     0.001 A 
ATOM     77  C   UNL A   1      41.575  26.282  26.517  1.00  0.00     0.000 A 
ENDBRANCH  53  72
BRANCH  65  78
ATOM     78  C   UNL A   1      40.989  33.898  30.254  1.00  0.00    -0.014 A 
ATOM     79  C   UNL A   1      42.104  34.307  30.995  1.00  0.00     0.009 A 
ATOM     80  C   UNL A   1      40.704  34.622  29.081  1.00  0.00     0.009 A 
ATOM     81  C   UNL A   1      42.815  35.457  30.660  1.00  0.00     0.001 A 
ATOM     82  C   UNL A   1      41.472  35.711  28.686  1.00  0.00     0.001 A 
ATOM     83  C   UNL A   1      42.503  36.155  29.501  1.00  0.00     0.000 A 
ENDBRANCH  65  78
ENDBRANCH  39  40
ENDBRANCH  32  34
ENDBRANCH  31  32
ENDBRANCH  30  31
ENDBRANCH   1  30
TORSDOF 15
ENDMDL
