MODEL 1
REMARK VINA RESULT:     -10.6      0.000      0.000
REMARK SMILES Cc1cc(C)c2c(c1)C=C(C(=O)OCCOCCOC(=O)c1ccc(-c3c4nc(c(-c5ccccc5)c5ccc([nH]5)c(-c5ccccc5)c5nc(c(-c6ccccc6)c6ccc3[nH]6)C=C5)C=C4)cc1)[C@@H](C(F)(F)F)O2
REMARK SMILES IDX 17 1 16 2 15 3 14 4 13 5 11 6 12 7 10 8 1 9 2 10 3 11 8 12
REMARK SMILES IDX 4 13 7 14 5 15 6 16 9 17 75 18 70 19 71 20 72 21 73 22 74 23
REMARK SMILES IDX 18 24 19 25 20 26 21 27 22 28 23 29 69 30 24 31 68 32 25 33
REMARK SMILES IDX 26 34 27 35 62 36 28 37 67 38 61 39 63 40 29 41 66 42 60 43
REMARK SMILES IDX 59 44 30 46 52 47 37 48 51 49 38 50 41 51 50 52 64 53 39 54
REMARK SMILES IDX 40 55 49 57 65 58 42 59 31 60 32 61 36 62 33 63 35 64 34 65
REMARK SMILES IDX 53 66 54 67 58 68 55 69 57 70 56 71 43 72 44 73 48 74 45 75
REMARK SMILES IDX 47 76 46 77
REMARK H PARENT 63 45 41 56
REMARK Flexibility Score: inf
ROOT
ATOM      1  C   UNL A   1      31.833  30.638  26.840  1.00  0.00     0.202 C 
ENDROOT
BRANCH   1   2
ATOM      2  O   UNL A   1      32.748  30.130  25.868  1.00  0.00    -0.374 OA
BRANCH   2   3
ATOM      3  C   UNL A   1      33.800  29.284  26.329  1.00  0.00     0.202 C 
BRANCH   3   4
ATOM      4  C   UNL A   1      33.900  27.908  25.667  1.00  0.00     0.261 C 
BRANCH   4   5
ATOM      5  O   UNL A   1      33.656  27.989  24.253  1.00  0.00    -0.460 OA
BRANCH   5   6
ATOM      6  C   UNL A   1      32.989  26.931  23.735  1.00  0.00     0.338 C 
ATOM      7  O   UNL A   1      33.422  25.800  23.578  1.00  0.00    -0.246 OA
BRANCH   6   8
ATOM      8  C   UNL A   1      31.584  27.299  23.480  1.00  0.00     0.087 C 
ATOM      9  C   UNL A   1      28.308  31.980  21.201  1.00  0.00     0.044 C 
ATOM     10  C   UNL A   1      28.535  30.639  21.837  1.00  0.00    -0.050 A 
ATOM     11  C   UNL A   1      27.469  29.936  22.411  1.00  0.00     0.010 A 
ATOM     12  C   UNL A   1      29.826  30.114  21.938  1.00  0.00     0.015 A 
ATOM     13  C   UNL A   1      27.676  28.703  23.051  1.00  0.00    -0.008 A 
ATOM     14  C   UNL A   1      30.048  28.895  22.588  1.00  0.00     0.018 A 
ATOM     15  C   UNL A   1      26.516  27.982  23.678  1.00  0.00     0.048 C 
ATOM     16  C   UNL A   1      28.975  28.178  23.121  1.00  0.00     0.130 A 
ATOM     17  C   UNL A   1      31.405  28.416  22.767  1.00  0.00     0.027 C 
ATOM     18  O   UNL A   1      29.125  26.958  23.726  1.00  0.00    -0.475 OA
ATOM     19  C   UNL A   1      30.460  26.465  24.024  1.00  0.00     0.316 C 
BRANCH  19  20
ATOM     20  C   UNL A   1      30.563  26.248  25.541  1.00  0.00     0.430 C 
ATOM     21  F   UNL A   1      29.385  25.815  26.055  1.00  0.00    -0.167 F 
ATOM     22  F   UNL A   1      31.485  25.307  25.853  1.00  0.00    -0.167 F 
ATOM     23  F   UNL A   1      30.900  27.380  26.197  1.00  0.00    -0.167 F 
ENDBRANCH  19  20
ENDBRANCH   6   8
ENDBRANCH   5   6
ENDBRANCH   4   5
ENDBRANCH   3   4
ENDBRANCH   2   3
ENDBRANCH   1   2
BRANCH   1  24
ATOM     24  C   UNL A   1      31.814  32.160  27.035  1.00  0.00     0.261 C 
BRANCH  24  25
ATOM     25  O   UNL A   1      33.143  32.705  27.130  1.00  0.00    -0.460 OA
BRANCH  25  26
ATOM     26  C   UNL A   1      33.305  33.651  28.086  1.00  0.00     0.338 C 
ATOM     27  O   UNL A   1      32.507  34.513  28.421  1.00  0.00    -0.246 OA
BRANCH  26  28
ATOM     28  C   UNL A   1      34.546  33.398  28.837  1.00  0.00     0.060 A 
ATOM     29  C   UNL A   1      35.752  33.793  28.244  1.00  0.00     0.016 A 
ATOM     30  C   UNL A   1      34.542  32.707  30.050  1.00  0.00     0.016 A 
ATOM     31  C   UNL A   1      36.965  33.456  28.841  1.00  0.00     0.010 A 
ATOM     32  C   UNL A   1      35.761  32.357  30.640  1.00  0.00     0.010 A 
ATOM     33  C   UNL A   1      36.976  32.700  30.020  1.00  0.00    -0.014 A 
BRANCH  33  34
ATOM     34  C   UNL A   1      38.257  32.139  30.509  1.00  0.00     0.031 A 
ATOM     35  C   UNL A   1      38.738  30.827  29.952  1.00  0.00     0.074 A 
ATOM     36  C   UNL A   1      39.011  32.814  31.396  1.00  0.00     0.049 A 
ATOM     37  N   UNL A   1      39.829  30.159  30.233  1.00  0.00    -0.248 NA
ATOM     38  C   UNL A   1      37.883  30.188  28.939  1.00  0.00     0.031 C 
ATOM     39  C   UNL A   1      38.686  34.122  31.960  1.00  0.00     0.029 A 
ATOM     40  N   UNL A   1      40.216  32.488  31.967  1.00  0.00    -0.354 N 
ATOM     41  C   UNL A   1      39.792  29.028  29.428  1.00  0.00     0.074 A 
ATOM     42  C   UNL A   1      38.561  29.081  28.672  1.00  0.00     0.031 C 
ATOM     43  C   UNL A   1      39.673  34.493  32.794  1.00  0.00     0.029 A 
ATOM     44  C   UNL A   1      40.680  33.435  32.846  1.00  0.00     0.049 A 
ATOM     45  H   UNL A   1      40.701  31.656  31.765  1.00  0.00     0.167 HD
ATOM     46  C   UNL A   1      40.709  28.038  29.319  1.00  0.00     0.031 A 
ATOM     47  C   UNL A   1      41.788  33.441  33.613  1.00  0.00     0.031 A 
ATOM     48  C   UNL A   1      41.926  27.971  30.083  1.00  0.00     0.049 A 
ATOM     49  C   UNL A   1      42.736  32.274  33.555  1.00  0.00     0.074 A 
ATOM     50  C   UNL A   1      42.912  27.001  30.047  1.00  0.00     0.029 A 
ATOM     51  N   UNL A   1      42.320  28.912  31.020  1.00  0.00    -0.354 N 
ATOM     52  N   UNL A   1      42.691  31.210  32.790  1.00  0.00    -0.248 NA
ATOM     53  C   UNL A   1      43.890  32.310  34.467  1.00  0.00     0.031 C 
ATOM     54  C   UNL A   1      43.880  27.328  31.001  1.00  0.00     0.029 A 
ATOM     55  C   UNL A   1      43.523  28.531  31.590  1.00  0.00     0.049 A 
ATOM     56  H   UNL A   1      41.820  29.728  31.246  1.00  0.00     0.167 HD
ATOM     57  C   UNL A   1      43.818  30.463  33.112  1.00  0.00     0.074 A 
ATOM     58  C   UNL A   1      44.535  31.200  34.131  1.00  0.00     0.031 C 
ATOM     59  C   UNL A   1      44.222  29.273  32.605  1.00  0.00     0.031 A 
BRANCH  46  60
ATOM     60  C   UNL A   1      40.422  26.929  28.349  1.00  0.00    -0.014 A 
ATOM     61  C   UNL A   1      39.623  25.836  28.717  1.00  0.00     0.009 A 
ATOM     62  C   UNL A   1      40.909  27.005  27.035  1.00  0.00     0.009 A 
ATOM     63  C   UNL A   1      39.329  24.833  27.792  1.00  0.00     0.001 A 
ATOM     64  C   UNL A   1      40.596  26.012  26.106  1.00  0.00     0.001 A 
ATOM     65  C   UNL A   1      39.811  24.925  26.486  1.00  0.00     0.000 A 
ENDBRANCH  46  60
BRANCH  47  66
ATOM     66  C   UNL A   1      42.059  34.589  34.516  1.00  0.00    -0.014 A 
ATOM     67  C   UNL A   1      42.797  35.693  34.065  1.00  0.00     0.009 A 
ATOM     68  C   UNL A   1      41.589  34.581  35.839  1.00  0.00     0.009 A 
ATOM     69  C   UNL A   1      43.071  36.760  34.925  1.00  0.00     0.001 A 
ATOM     70  C   UNL A   1      41.843  35.660  36.688  1.00  0.00     0.001 A 
ATOM     71  C   UNL A   1      42.590  36.745  36.232  1.00  0.00     0.000 A 
ENDBRANCH  47  66
BRANCH  59  72
ATOM     72  C   UNL A   1      45.507  28.695  33.126  1.00  0.00    -0.014 A 
ATOM     73  C   UNL A   1      45.523  27.870  34.260  1.00  0.00     0.009 A 
ATOM     74  C   UNL A   1      46.705  28.917  32.426  1.00  0.00     0.009 A 
ATOM     75  C   UNL A   1      46.719  27.293  34.695  1.00  0.00     0.001 A 
ATOM     76  C   UNL A   1      47.892  28.319  32.849  1.00  0.00     0.001 A 
ATOM     77  C   UNL A   1      47.899  27.512  33.985  1.00  0.00     0.000 A 
ENDBRANCH  59  72
ENDBRANCH  33  34
ENDBRANCH  26  28
ENDBRANCH  25  26
ENDBRANCH  24  25
ENDBRANCH   1  24
TORSDOF 15
ENDMDL
MODEL 2
REMARK VINA RESULT:     -10.6      1.457      5.887
REMARK SMILES Cc1cc(C)c2c(c1)C=C(C(=O)OCCOCCOC(=O)c1ccc(-c3c4nc(c(-c5ccccc5)c5ccc([nH]5)c(-c5ccccc5)c5nc(c(-c6ccccc6)c6ccc3[nH]6)C=C5)C=C4)cc1)[C@@H](C(F)(F)F)O2
REMARK SMILES IDX 17 1 16 2 15 3 14 4 13 5 11 6 12 7 10 8 1 9 2 10 3 11 8 12
REMARK SMILES IDX 4 13 7 14 5 15 6 16 9 17 75 18 70 19 71 20 72 21 73 22 74 23
REMARK SMILES IDX 18 24 19 25 20 26 21 27 22 28 23 29 69 30 24 31 68 32 25 33
REMARK SMILES IDX 26 34 27 35 62 36 28 37 67 38 61 39 63 40 29 41 66 42 60 43
REMARK SMILES IDX 59 44 30 46 52 47 37 48 51 49 38 50 41 51 50 52 64 53 39 54
REMARK SMILES IDX 40 55 49 57 65 58 42 59 31 60 32 61 36 62 33 63 35 64 34 65
REMARK SMILES IDX 53 66 54 67 58 68 55 69 57 70 56 71 43 72 44 73 48 74 45 75
REMARK SMILES IDX 47 76 46 77
REMARK H PARENT 63 45 41 56
REMARK Flexibility Score: inf
ROOT
ATOM      1  C   UNL A   1      31.825  31.206  26.847  1.00  0.00     0.202 C 
ENDROOT
BRANCH   1   2
ATOM      2  O   UNL A   1      32.905  30.626  26.112  1.00  0.00    -0.374 OA
BRANCH   2   3
ATOM      3  C   UNL A   1      33.768  29.728  26.807  1.00  0.00     0.202 C 
BRANCH   3   4
ATOM      4  C   UNL A   1      33.994  28.363  26.151  1.00  0.00     0.261 C 
BRANCH   4   5
ATOM      5  O   UNL A   1      33.829  28.436  24.725  1.00  0.00    -0.460 OA
BRANCH   5   6
ATOM      6  C   UNL A   1      33.311  27.321  24.160  1.00  0.00     0.338 C 
ATOM      7  O   UNL A   1      33.863  26.239  24.037  1.00  0.00    -0.246 OA
BRANCH   6   8
ATOM      8  C   UNL A   1      31.899  27.549  23.801  1.00  0.00     0.087 C 
ATOM      9  C   UNL A   1      28.387  31.808  21.088  1.00  0.00     0.044 C 
ATOM     10  C   UNL A   1      28.687  30.525  21.805  1.00  0.00    -0.050 A 
ATOM     11  C   UNL A   1      27.651  29.757  22.349  1.00  0.00     0.010 A 
ATOM     12  C   UNL A   1      30.009  30.122  22.012  1.00  0.00     0.015 A 
ATOM     13  C   UNL A   1      27.920  28.578  23.064  1.00  0.00    -0.008 A 
ATOM     14  C   UNL A   1      30.293  28.959  22.736  1.00  0.00     0.018 A 
ATOM     15  C   UNL A   1      26.789  27.787  23.656  1.00  0.00     0.048 C 
ATOM     16  C   UNL A   1      29.253  28.175  23.240  1.00  0.00     0.130 A 
ATOM     17  C   UNL A   1      31.671  28.612  23.022  1.00  0.00     0.027 C 
ATOM     18  O   UNL A   1      29.467  27.003  23.916  1.00  0.00    -0.475 OA
ATOM     19  C   UNL A   1      30.817  26.645  24.319  1.00  0.00     0.316 C 
BRANCH  19  20
ATOM     20  C   UNL A   1      30.840  26.509  25.848  1.00  0.00     0.430 C 
ATOM     21  F   UNL A   1      30.962  27.720  26.446  1.00  0.00    -0.167 F 
ATOM     22  F   UNL A   1      29.695  25.963  26.322  1.00  0.00    -0.167 F 
ATOM     23  F   UNL A   1      31.864  25.740  26.278  1.00  0.00    -0.167 F 
ENDBRANCH  19  20
ENDBRANCH   6   8
ENDBRANCH   5   6
ENDBRANCH   4   5
ENDBRANCH   3   4
ENDBRANCH   2   3
ENDBRANCH   1   2
BRANCH   1  24
ATOM     24  C   UNL A   1      31.765  32.739  26.882  1.00  0.00     0.261 C 
BRANCH  24  25
ATOM     25  O   UNL A   1      33.076  33.325  26.999  1.00  0.00    -0.460 OA
BRANCH  25  26
ATOM     26  C   UNL A   1      33.238  34.148  28.063  1.00  0.00     0.338 C 
ATOM     27  O   UNL A   1      32.527  35.085  28.393  1.00  0.00    -0.246 OA
BRANCH  26  28
ATOM     28  C   UNL A   1      34.329  33.653  28.919  1.00  0.00     0.060 A 
ATOM     29  C   UNL A   1      35.627  34.098  28.636  1.00  0.00     0.016 A 
ATOM     30  C   UNL A   1      34.104  32.702  29.916  1.00  0.00     0.016 A 
ATOM     31  C   UNL A   1      36.713  33.557  29.321  1.00  0.00     0.010 A 
ATOM     32  C   UNL A   1      35.197  32.150  30.592  1.00  0.00     0.010 A 
ATOM     33  C   UNL A   1      36.507  32.551  30.272  1.00  0.00    -0.014 A 
BRANCH  33  34
ATOM     34  C   UNL A   1      37.674  31.813  30.811  1.00  0.00     0.031 A 
ATOM     35  C   UNL A   1      38.139  32.109  32.211  1.00  0.00     0.074 A 
ATOM     36  C   UNL A   1      38.279  30.855  30.087  1.00  0.00     0.049 A 
ATOM     37  N   UNL A   1      39.131  31.581  32.883  1.00  0.00    -0.248 NA
ATOM     38  C   UNL A   1      37.380  33.128  32.956  1.00  0.00     0.031 C 
ATOM     39  C   UNL A   1      37.882  30.431  28.746  1.00  0.00     0.029 A 
ATOM     40  N   UNL A   1      39.352  30.056  30.392  1.00  0.00    -0.354 N 
ATOM     41  C   UNL A   1      39.110  32.197  34.128  1.00  0.00     0.074 A 
ATOM     42  C   UNL A   1      38.031  33.159  34.110  1.00  0.00     0.031 C 
ATOM     43  C   UNL A   1      38.700  29.443  28.343  1.00  0.00     0.029 A 
ATOM     44  C   UNL A   1      39.694  29.188  29.384  1.00  0.00     0.049 A 
ATOM     45  H   UNL A   1      39.832  30.101  31.250  1.00  0.00     0.167 HD
ATOM     46  C   UNL A   1      39.912  31.973  35.195  1.00  0.00     0.031 A 
ATOM     47  C   UNL A   1      40.701  28.297  29.308  1.00  0.00     0.031 A 
ATOM     48  C   UNL A   1      40.998  31.030  35.210  1.00  0.00     0.049 A 
ATOM     49  C   UNL A   1      41.647  28.146  30.469  1.00  0.00     0.074 A 
ATOM     50  C   UNL A   1      41.872  30.741  36.244  1.00  0.00     0.029 A 
ATOM     51  N   UNL A   1      41.359  30.227  34.141  1.00  0.00    -0.354 N 
ATOM     52  N   UNL A   1      41.618  28.734  31.641  1.00  0.00    -0.248 NA
ATOM     53  C   UNL A   1      42.766  27.206  30.296  1.00  0.00     0.031 C 
ATOM     54  C   UNL A   1      42.794  29.798  35.784  1.00  0.00     0.029 A 
ATOM     55  C   UNL A   1      42.460  29.460  34.481  1.00  0.00     0.049 A 
ATOM     56  H   UNL A   1      40.901  30.205  33.271  1.00  0.00     0.167 HD
ATOM     57  C   UNL A   1      42.697  28.221  32.350  1.00  0.00     0.074 A 
ATOM     58  C   UNL A   1      43.354  27.264  31.483  1.00  0.00     0.031 C 
ATOM     59  C   UNL A   1      43.105  28.515  33.608  1.00  0.00     0.031 A 
BRANCH  46  60
ATOM     60  C   UNL A   1      39.658  32.778  36.436  1.00  0.00    -0.014 A 
ATOM     61  C   UNL A   1      40.319  33.995  36.656  1.00  0.00     0.009 A 
ATOM     62  C   UNL A   1      38.703  32.343  37.369  1.00  0.00     0.009 A 
ATOM     63  C   UNL A   1      40.042  34.754  37.794  1.00  0.00     0.001 A 
ATOM     64  C   UNL A   1      38.412  33.115  38.494  1.00  0.00     0.001 A 
ATOM     65  C   UNL A   1      39.084  34.317  38.709  1.00  0.00     0.000 A 
ENDBRANCH  46  60
BRANCH  47  66
ATOM     66  C   UNL A   1      40.879  27.481  28.079  1.00  0.00    -0.014 A 
ATOM     67  C   UNL A   1      41.655  27.958  27.012  1.00  0.00     0.009 A 
ATOM     68  C   UNL A   1      40.264  26.224  27.963  1.00  0.00     0.009 A 
ATOM     69  C   UNL A   1      41.800  27.198  25.848  1.00  0.00     0.001 A 
ATOM     70  C   UNL A   1      40.431  25.457  26.808  1.00  0.00     0.001 A 
ATOM     71  C   UNL A   1      41.192  25.948  25.750  1.00  0.00     0.000 A 
ENDBRANCH  47  66
BRANCH  59  72
ATOM     72  C   UNL A   1      44.306  27.786  34.139  1.00  0.00    -0.014 A 
ATOM     73  C   UNL A   1      44.172  26.561  34.808  1.00  0.00     0.009 A 
ATOM     74  C   UNL A   1      45.592  28.296  33.899  1.00  0.00     0.009 A 
ATOM     75  C   UNL A   1      45.304  25.869  35.243  1.00  0.00     0.001 A 
ATOM     76  C   UNL A   1      46.722  27.590  34.312  1.00  0.00     0.001 A 
ATOM     77  C   UNL A   1      46.577  26.379  34.988  1.00  0.00     0.000 A 
ENDBRANCH  59  72
ENDBRANCH  33  34
ENDBRANCH  26  28
ENDBRANCH  25  26
ENDBRANCH  24  25
ENDBRANCH   1  24
TORSDOF 15
ENDMDL
MODEL 3
REMARK VINA RESULT:     -10.6      3.457      8.344
REMARK SMILES Cc1cc(C)c2c(c1)C=C(C(=O)OCCOCCOC(=O)c1ccc(-c3c4nc(c(-c5ccccc5)c5ccc([nH]5)c(-c5ccccc5)c5nc(c(-c6ccccc6)c6ccc3[nH]6)C=C5)C=C4)cc1)[C@@H](C(F)(F)F)O2
REMARK SMILES IDX 17 1 16 2 15 3 14 4 13 5 11 6 12 7 10 8 1 9 2 10 3 11 8 12
REMARK SMILES IDX 4 13 7 14 5 15 6 16 9 17 75 18 70 19 71 20 72 21 73 22 74 23
REMARK SMILES IDX 18 24 19 25 20 26 21 27 22 28 23 29 69 30 24 31 68 32 25 33
REMARK SMILES IDX 26 34 27 35 62 36 28 37 67 38 61 39 63 40 29 41 66 42 60 43
REMARK SMILES IDX 59 44 30 46 52 47 37 48 51 49 38 50 41 51 50 52 64 53 39 54
REMARK SMILES IDX 40 55 49 57 65 58 42 59 31 60 32 61 36 62 33 63 35 64 34 65
REMARK SMILES IDX 53 66 54 67 58 68 55 69 57 70 56 71 43 72 44 73 48 74 45 75
REMARK SMILES IDX 47 76 46 77
REMARK H PARENT 63 45 41 56
REMARK Flexibility Score: inf
ROOT
ATOM      1  C   UNL A   1      37.782  21.069  25.074  1.00  0.00     0.202 C 
ENDROOT
BRANCH   1   2
ATOM      2  O   UNL A   1      36.705  21.715  25.755  1.00  0.00    -0.374 OA
BRANCH   2   3
ATOM      3  C   UNL A   1      35.431  21.074  25.736  1.00  0.00     0.202 C 
BRANCH   3   4
ATOM      4  C   UNL A   1      34.353  21.739  24.877  1.00  0.00     0.261 C 
BRANCH   4   5
ATOM      5  O   UNL A   1      34.526  23.165  24.834  1.00  0.00    -0.460 OA
BRANCH   5   6
ATOM      6  C   UNL A   1      34.460  23.703  23.593  1.00  0.00     0.338 C 
ATOM      7  O   UNL A   1      34.970  23.260  22.576  1.00  0.00    -0.246 OA
BRANCH   6   8
ATOM      8  C   UNL A   1      33.565  24.875  23.601  1.00  0.00     0.087 C 
ATOM      9  C   UNL A   1      32.994  30.313  26.419  1.00  0.00     0.044 C 
ATOM     10  C   UNL A   1      32.612  29.196  25.492  1.00  0.00    -0.050 A 
ATOM     11  C   UNL A   1      31.339  29.160  24.911  1.00  0.00     0.010 A 
ATOM     12  C   UNL A   1      33.492  28.135  25.263  1.00  0.00     0.015 A 
ATOM     13  C   UNL A   1      30.952  28.096  24.079  1.00  0.00    -0.008 A 
ATOM     14  C   UNL A   1      33.113  27.061  24.450  1.00  0.00     0.018 A 
ATOM     15  C   UNL A   1      29.571  28.073  23.489  1.00  0.00     0.048 C 
ATOM     16  C   UNL A   1      31.858  27.051  23.839  1.00  0.00     0.130 A 
ATOM     17  C   UNL A   1      34.003  25.925  24.304  1.00  0.00     0.027 C 
ATOM     18  O   UNL A   1      31.449  26.051  22.997  1.00  0.00    -0.475 OA
ATOM     19  C   UNL A   1      32.247  24.842  22.881  1.00  0.00     0.316 C 
BRANCH  19  20
ATOM     20  C   UNL A   1      31.374  23.650  23.298  1.00  0.00     0.430 C 
ATOM     21  F   UNL A   1      31.797  22.503  22.711  1.00  0.00    -0.167 F 
ATOM     22  F   UNL A   1      31.421  23.435  24.634  1.00  0.00    -0.167 F 
ATOM     23  F   UNL A   1      30.077  23.824  22.960  1.00  0.00    -0.167 F 
ENDBRANCH  19  20
ENDBRANCH   6   8
ENDBRANCH   5   6
ENDBRANCH   4   5
ENDBRANCH   3   4
ENDBRANCH   2   3
ENDBRANCH   1   2
BRANCH   1  24
ATOM     24  C   UNL A   1      39.167  21.170  25.726  1.00  0.00     0.261 C 
BRANCH  24  25
ATOM     25  O   UNL A   1      39.684  19.876  26.091  1.00  0.00    -0.460 OA
BRANCH  25  26
ATOM     26  C   UNL A   1      41.034  19.771  26.051  1.00  0.00     0.338 C 
ATOM     27  O   UNL A   1      41.695  18.885  25.530  1.00  0.00    -0.246 OA
BRANCH  26  28
ATOM     28  C   UNL A   1      41.650  20.998  26.582  1.00  0.00     0.060 A 
ATOM     29  C   UNL A   1      41.515  21.248  27.954  1.00  0.00     0.016 A 
ATOM     30  C   UNL A   1      42.264  21.932  25.746  1.00  0.00     0.016 A 
ATOM     31  C   UNL A   1      41.954  22.457  28.488  1.00  0.00     0.010 A 
ATOM     32  C   UNL A   1      42.691  23.152  26.282  1.00  0.00     0.010 A 
ATOM     33  C   UNL A   1      42.505  23.432  27.648  1.00  0.00    -0.014 A 
BRANCH  33  34
ATOM     34  C   UNL A   1      42.739  24.797  28.176  1.00  0.00     0.031 A 
ATOM     35  C   UNL A   1      44.140  25.204  28.545  1.00  0.00     0.074 A 
ATOM     36  C   UNL A   1      41.730  25.680  28.274  1.00  0.00     0.049 A 
ATOM     37  N   UNL A   1      44.571  26.346  29.019  1.00  0.00    -0.248 NA
ATOM     38  C   UNL A   1      45.194  24.197  28.346  1.00  0.00     0.031 C 
ATOM     39  C   UNL A   1      40.344  25.427  27.888  1.00  0.00     0.029 A 
ATOM     40  N   UNL A   1      41.726  26.978  28.721  1.00  0.00    -0.354 N 
ATOM     41  C   UNL A   1      45.944  26.195  29.167  1.00  0.00     0.074 A 
ATOM     42  C   UNL A   1      46.271  24.846  28.765  1.00  0.00     0.031 C 
ATOM     43  C   UNL A   1      39.621  26.539  28.110  1.00  0.00     0.029 A 
ATOM     44  C   UNL A   1      40.487  27.568  28.681  1.00  0.00     0.049 A 
ATOM     45  H   UNL A   1      42.534  27.441  29.039  1.00  0.00     0.167 HD
ATOM     46  C   UNL A   1      46.853  27.104  29.589  1.00  0.00     0.031 A 
ATOM     47  C   UNL A   1      40.095  28.796  29.072  1.00  0.00     0.031 A 
ATOM     48  C   UNL A   1      46.530  28.442  30.008  1.00  0.00     0.049 A 
ATOM     49  C   UNL A   1      41.110  29.751  29.643  1.00  0.00     0.074 A 
ATOM     50  C   UNL A   1      47.384  29.432  30.462  1.00  0.00     0.029 A 
ATOM     51  N   UNL A   1      45.251  28.974  30.026  1.00  0.00    -0.354 N 
ATOM     52  N   UNL A   1      42.405  29.597  29.778  1.00  0.00    -0.248 NA
ATOM     53  C   UNL A   1      40.607  31.051  30.115  1.00  0.00     0.031 C 
ATOM     54  C   UNL A   1      46.615  30.548  30.802  1.00  0.00     0.029 A 
ATOM     55  C   UNL A   1      45.289  30.271  30.509  1.00  0.00     0.049 A 
ATOM     56  H   UNL A   1      44.438  28.500  29.739  1.00  0.00     0.167 HD
ATOM     57  C   UNL A   1      42.873  30.784  30.328  1.00  0.00     0.074 A 
ATOM     58  C   UNL A   1      41.727  31.654  30.490  1.00  0.00     0.031 C 
ATOM     59  C   UNL A   1      44.140  31.123  30.667  1.00  0.00     0.031 A 
BRANCH  46  60
ATOM     60  C   UNL A   1      48.291  26.677  29.640  1.00  0.00    -0.014 A 
ATOM     61  C   UNL A   1      49.166  26.956  28.579  1.00  0.00     0.009 A 
ATOM     62  C   UNL A   1      48.792  26.040  30.786  1.00  0.00     0.009 A 
ATOM     63  C   UNL A   1      50.510  26.590  28.657  1.00  0.00     0.001 A 
ATOM     64  C   UNL A   1      50.141  25.695  30.871  1.00  0.00     0.001 A 
ATOM     65  C   UNL A   1      50.998  25.966  29.806  1.00  0.00     0.000 A 
ENDBRANCH  46  60
BRANCH  47  66
ATOM     66  C   UNL A   1      38.670  29.195  28.949  1.00  0.00    -0.014 A 
ATOM     67  C   UNL A   1      37.793  29.052  30.035  1.00  0.00     0.009 A 
ATOM     68  C   UNL A   1      38.176  29.712  27.741  1.00  0.00     0.009 A 
ATOM     69  C   UNL A   1      36.447  29.405  29.909  1.00  0.00     0.001 A 
ATOM     70  C   UNL A   1      36.836  30.087  27.626  1.00  0.00     0.001 A 
ATOM     71  C   UNL A   1      35.972  29.926  28.707  1.00  0.00     0.000 A 
ENDBRANCH  47  66
BRANCH  59  72
ATOM     72  C   UNL A   1      44.368  32.497  31.229  1.00  0.00    -0.014 A 
ATOM     73  C   UNL A   1      44.596  33.595  30.388  1.00  0.00     0.009 A 
ATOM     74  C   UNL A   1      44.274  32.707  32.615  1.00  0.00     0.009 A 
ATOM     75  C   UNL A   1      44.747  34.876  30.925  1.00  0.00     0.001 A 
ATOM     76  C   UNL A   1      44.399  33.990  33.146  1.00  0.00     0.001 A 
ATOM     77  C   UNL A   1      44.640  35.073  32.302  1.00  0.00     0.000 A 
ENDBRANCH  59  72
ENDBRANCH  33  34
ENDBRANCH  26  28
ENDBRANCH  25  26
ENDBRANCH  24  25
ENDBRANCH   1  24
TORSDOF 15
ENDMDL
