MODEL 1
REMARK VINA RESULT:     -10.3      0.000      0.000
REMARK SMILES CC[C@H](NC(=O)c1nn(C)cc1C(=O)OCCOCCOC(=O)c1ccc(-c2c3nc(c(-c4ccccc4)c4ccc([nH]4)c(-c4ccccc4)c4nc(c(-c5ccccc5)c5ccc2[nH]5)C=C4)C=C3)cc1)c1ccccc1
REMARK SMILES IDX 17 1 16 2 15 3 13 4 14 5 12 6 7 7 8 8 9 9 11 10 10 11 5 12
REMARK SMILES IDX 4 13 6 15 3 16 2 17 1 18 72 19 73 20 77 21 74 22 76 23 75 24
REMARK SMILES IDX 18 25 19 26 20 27 21 28 22 29 23 30 24 31 25 32 71 33 26 34
REMARK SMILES IDX 70 35 27 36 28 37 29 38 64 39 30 40 69 41 63 42 65 43 31 44
REMARK SMILES IDX 68 45 62 46 61 47 32 49 54 50 39 51 53 52 40 53 43 54 52 55
REMARK SMILES IDX 66 56 41 57 42 58 51 60 67 61 44 62 33 63 34 64 38 65 35 66
REMARK SMILES IDX 37 67 36 68 55 69 56 70 60 71 57 72 59 73 58 74 45 75 46 76
REMARK SMILES IDX 50 77 47 78 49 79 48 80
REMARK H PARENT 4 14 65 48 43 59
REMARK Flexibility Score: inf
ROOT
ATOM      1  C   UNL A   1      35.514  22.840  26.274  1.00  0.00     0.202 C 
ENDROOT
BRANCH   1   2
ATOM      2  C   UNL A   1      35.833  23.633  24.996  1.00  0.00     0.261 C 
BRANCH   2   3
ATOM      3  O   UNL A   1      35.009  24.816  24.904  1.00  0.00    -0.460 OA
BRANCH   3   4
ATOM      4  C   UNL A   1      34.106  24.817  23.869  1.00  0.00     0.342 C 
ATOM      5  O   UNL A   1      34.406  24.673  22.697  1.00  0.00    -0.246 OA
BRANCH   4   6
ATOM      6  C   UNL A   1      32.738  24.917  24.336  1.00  0.00     0.111 A 
ATOM      7  C   UNL A   1      31.643  25.574  23.702  1.00  0.00     0.164 A 
ATOM      8  N   UNL A   1      30.515  25.450  24.429  1.00  0.00    -0.167 NA
ATOM      9  N   UNL A   1      30.871  24.692  25.473  1.00  0.00    -0.274 N 
ATOM     10  C   UNL A   1      32.189  24.343  25.470  1.00  0.00     0.125 A 
ATOM     11  C   UNL A   1      29.863  24.319  26.436  1.00  0.00     0.173 C 
BRANCH   7  12
ATOM     12  C   UNL A   1      31.622  26.327  22.451  1.00  0.00     0.273 C 
ATOM     13  N   UNL A   1      31.667  27.701  22.463  1.00  0.00    -0.344 N 
ATOM     14  H   UNL A   1      31.994  28.077  21.613  1.00  0.00     0.164 HD
ATOM     15  O   UNL A   1      31.645  25.764  21.356  1.00  0.00    -0.267 OA
BRANCH  13  16
ATOM     16  C   UNL A   1      31.342  28.729  23.446  1.00  0.00     0.112 C 
BRANCH  16  17
ATOM     17  C   UNL A   1      29.832  29.105  23.455  1.00  0.00     0.026 C 
ATOM     18  C   UNL A   1      29.467  30.584  23.499  1.00  0.00     0.006 C 
ENDBRANCH  16  17
BRANCH  16  19
ATOM     19  C   UNL A   1      32.064  28.673  24.784  1.00  0.00    -0.026 A 
ATOM     20  C   UNL A   1      31.404  28.603  26.014  1.00  0.00     0.006 A 
ATOM     21  C   UNL A   1      33.469  28.693  24.820  1.00  0.00     0.006 A 
ATOM     22  C   UNL A   1      32.094  28.552  27.231  1.00  0.00     0.000 A 
ATOM     23  C   UNL A   1      34.169  28.647  26.031  1.00  0.00     0.000 A 
ATOM     24  C   UNL A   1      33.482  28.575  27.238  1.00  0.00     0.000 A 
ENDBRANCH  16  19
ENDBRANCH  13  16
ENDBRANCH   7  12
ENDBRANCH   4   6
ENDBRANCH   3   4
ENDBRANCH   2   3
ENDBRANCH   1   2
BRANCH   1  25
ATOM     25  O   UNL A   1      35.605  21.412  26.141  1.00  0.00    -0.374 OA
BRANCH  25  26
ATOM     26  C   UNL A   1      36.237  20.993  24.934  1.00  0.00     0.202 C 
BRANCH  26  27
ATOM     27  C   UNL A   1      37.612  20.364  25.174  1.00  0.00     0.261 C 
BRANCH  27  28
ATOM     28  O   UNL A   1      38.564  21.429  25.263  1.00  0.00    -0.460 OA
BRANCH  28  29
ATOM     29  C   UNL A   1      39.568  21.136  26.119  1.00  0.00     0.338 C 
ATOM     30  O   UNL A   1      40.167  20.077  26.195  1.00  0.00    -0.246 OA
BRANCH  29  31
ATOM     31  C   UNL A   1      39.971  22.383  26.803  1.00  0.00     0.060 A 
ATOM     32  C   UNL A   1      39.242  23.536  26.502  1.00  0.00     0.016 A 
ATOM     33  C   UNL A   1      41.002  22.420  27.754  1.00  0.00     0.016 A 
ATOM     34  C   UNL A   1      39.594  24.746  27.083  1.00  0.00     0.010 A 
ATOM     35  C   UNL A   1      41.347  23.632  28.348  1.00  0.00     0.010 A 
ATOM     36  C   UNL A   1      40.679  24.805  27.968  1.00  0.00    -0.014 A 
BRANCH  36  37
ATOM     37  C   UNL A   1      41.240  26.131  28.292  1.00  0.00     0.031 A 
ATOM     38  C   UNL A   1      42.567  26.496  27.688  1.00  0.00     0.074 A 
ATOM     39  C   UNL A   1      40.541  27.019  29.018  1.00  0.00     0.049 A 
ATOM     40  N   UNL A   1      43.191  27.644  27.697  1.00  0.00    -0.248 NA
ATOM     41  C   UNL A   1      43.279  25.427  26.967  1.00  0.00     0.031 C 
ATOM     42  C   UNL A   1      39.234  26.777  29.626  1.00  0.00     0.029 A 
ATOM     43  N   UNL A   1      40.831  28.318  29.341  1.00  0.00    -0.354 N 
ATOM     44  C   UNL A   1      44.357  27.438  26.971  1.00  0.00     0.074 A 
ATOM     45  C   UNL A   1      44.381  26.049  26.575  1.00  0.00     0.031 C 
ATOM     46  C   UNL A   1      38.825  27.903  30.237  1.00  0.00     0.029 A 
ATOM     47  C   UNL A   1      39.845  28.935  30.067  1.00  0.00     0.049 A 
ATOM     48  H   UNL A   1      41.669  28.765  29.078  1.00  0.00     0.167 HD
ATOM     49  C   UNL A   1      45.318  28.333  26.646  1.00  0.00     0.031 A 
ATOM     50  C   UNL A   1      39.775  30.198  30.528  1.00  0.00     0.031 A 
ATOM     51  C   UNL A   1      45.302  29.707  27.053  1.00  0.00     0.049 A 
ATOM     52  C   UNL A   1      40.891  31.157  30.209  1.00  0.00     0.074 A 
ATOM     53  C   UNL A   1      46.222  30.701  26.772  1.00  0.00     0.029 A 
ATOM     54  N   UNL A   1      44.315  30.278  27.840  1.00  0.00    -0.354 N 
ATOM     55  N   UNL A   1      41.964  30.963  29.479  1.00  0.00    -0.248 NA
ATOM     56  C   UNL A   1      40.778  32.511  30.768  1.00  0.00     0.031 C 
ATOM     57  C   UNL A   1      45.813  31.866  27.430  1.00  0.00     0.029 A 
ATOM     58  C   UNL A   1      44.616  31.605  28.081  1.00  0.00     0.049 A 
ATOM     59  H   UNL A   1      43.518  29.808  28.178  1.00  0.00     0.167 HD
ATOM     60  C   UNL A   1      42.641  32.176  29.473  1.00  0.00     0.074 A 
ATOM     61  C   UNL A   1      41.850  33.102  30.258  1.00  0.00     0.031 C 
ATOM     62  C   UNL A   1      43.811  32.500  28.870  1.00  0.00     0.031 A 
BRANCH  49  63
ATOM     63  C   UNL A   1      46.470  27.830  25.828  1.00  0.00    -0.014 A 
ATOM     64  C   UNL A   1      46.461  27.924  24.428  1.00  0.00     0.009 A 
ATOM     65  C   UNL A   1      47.581  27.259  26.467  1.00  0.00     0.009 A 
ATOM     66  C   UNL A   1      47.532  27.431  23.680  1.00  0.00     0.001 A 
ATOM     67  C   UNL A   1      48.660  26.787  25.717  1.00  0.00     0.001 A 
ATOM     68  C   UNL A   1      48.631  26.866  24.325  1.00  0.00     0.000 A 
ENDBRANCH  49  63
BRANCH  50  69
ATOM     69  C   UNL A   1      38.608  30.636  31.335  1.00  0.00    -0.014 A 
ATOM     70  C   UNL A   1      37.468  31.171  30.717  1.00  0.00     0.009 A 
ATOM     71  C   UNL A   1      38.640  30.541  32.735  1.00  0.00     0.009 A 
ATOM     72  C   UNL A   1      36.394  31.625  31.488  1.00  0.00     0.001 A 
ATOM     73  C   UNL A   1      37.556  30.974  33.501  1.00  0.00     0.001 A 
ATOM     74  C   UNL A   1      36.438  31.524  32.877  1.00  0.00     0.000 A 
ENDBRANCH  50  69
BRANCH  62  75
ATOM     75  C   UNL A   1      44.292  33.912  29.026  1.00  0.00    -0.014 A 
ATOM     76  C   UNL A   1      45.169  34.267  30.061  1.00  0.00     0.009 A 
ATOM     77  C   UNL A   1      43.902  34.887  28.093  1.00  0.00     0.009 A 
ATOM     78  C   UNL A   1      45.623  35.582  30.177  1.00  0.00     0.001 A 
ATOM     79  C   UNL A   1      44.378  36.194  28.199  1.00  0.00     0.001 A 
ATOM     80  C   UNL A   1      45.231  36.541  29.246  1.00  0.00     0.000 A 
ENDBRANCH  62  75
ENDBRANCH  36  37
ENDBRANCH  29  31
ENDBRANCH  28  29
ENDBRANCH  27  28
ENDBRANCH  26  27
ENDBRANCH  25  26
ENDBRANCH   1  25
TORSDOF 18
ENDMDL
MODEL 2
REMARK VINA RESULT:     -10.3      2.207      3.072
REMARK SMILES CC[C@H](NC(=O)c1nn(C)cc1C(=O)OCCOCCOC(=O)c1ccc(-c2c3nc(c(-c4ccccc4)c4ccc([nH]4)c(-c4ccccc4)c4nc(c(-c5ccccc5)c5ccc2[nH]5)C=C4)C=C3)cc1)c1ccccc1
REMARK SMILES IDX 17 1 16 2 15 3 13 4 14 5 12 6 7 7 8 8 9 9 11 10 10 11 5 12
REMARK SMILES IDX 4 13 6 15 3 16 2 17 1 18 72 19 73 20 77 21 74 22 76 23 75 24
REMARK SMILES IDX 18 25 19 26 20 27 21 28 22 29 23 30 24 31 25 32 71 33 26 34
REMARK SMILES IDX 70 35 27 36 28 37 29 38 64 39 30 40 69 41 63 42 65 43 31 44
REMARK SMILES IDX 68 45 62 46 61 47 32 49 54 50 39 51 53 52 40 53 43 54 52 55
REMARK SMILES IDX 66 56 41 57 42 58 51 60 67 61 44 62 33 63 34 64 38 65 35 66
REMARK SMILES IDX 37 67 36 68 55 69 56 70 60 71 57 72 59 73 58 74 45 75 46 76
REMARK SMILES IDX 50 77 47 78 49 79 48 80
REMARK H PARENT 4 14 65 48 43 59
REMARK Flexibility Score: inf
ROOT
ATOM      1  C   UNL A   1      37.175  22.525  24.974  1.00  0.00     0.202 C 
ENDROOT
BRANCH   1   2
ATOM      2  C   UNL A   1      36.731  23.679  25.888  1.00  0.00     0.261 C 
BRANCH   2   3
ATOM      3  O   UNL A   1      35.340  24.002  25.672  1.00  0.00    -0.460 OA
BRANCH   3   4
ATOM      4  C   UNL A   1      34.444  23.140  26.257  1.00  0.00     0.342 C 
ATOM      5  O   UNL A   1      34.446  22.847  27.440  1.00  0.00    -0.246 OA
BRANCH   4   6
ATOM      6  C   UNL A   1      33.433  22.685  25.324  1.00  0.00     0.111 A 
ATOM      7  C   UNL A   1      32.035  22.964  25.345  1.00  0.00     0.164 A 
ATOM      8  N   UNL A   1      31.407  22.375  24.308  1.00  0.00    -0.167 NA
ATOM      9  N   UNL A   1      32.387  21.780  23.618  1.00  0.00    -0.274 N 
ATOM     10  C   UNL A   1      33.620  21.932  24.178  1.00  0.00     0.125 A 
ATOM     11  C   UNL A   1      32.054  21.090  22.394  1.00  0.00     0.173 C 
BRANCH   7  12
ATOM     12  C   UNL A   1      31.267  23.744  26.311  1.00  0.00     0.273 C 
ATOM     13  N   UNL A   1      30.821  25.005  25.993  1.00  0.00    -0.344 N 
ATOM     14  H   UNL A   1      30.053  25.286  26.543  1.00  0.00     0.164 HD
ATOM     15  O   UNL A   1      30.930  23.277  27.399  1.00  0.00    -0.267 OA
BRANCH  13  16
ATOM     16  C   UNL A   1      31.223  26.022  25.027  1.00  0.00     0.112 C 
BRANCH  16  17
ATOM     17  C   UNL A   1      30.185  26.222  23.887  1.00  0.00     0.026 C 
ATOM     18  C   UNL A   1      29.688  27.637  23.617  1.00  0.00     0.006 C 
ENDBRANCH  16  17
BRANCH  16  19
ATOM     19  C   UNL A   1      31.932  27.257  25.563  1.00  0.00    -0.026 A 
ATOM     20  C   UNL A   1      31.587  27.882  26.765  1.00  0.00     0.006 A 
ATOM     21  C   UNL A   1      32.992  27.825  24.835  1.00  0.00     0.006 A 
ATOM     22  C   UNL A   1      32.257  29.017  27.236  1.00  0.00     0.000 A 
ATOM     23  C   UNL A   1      33.665  28.963  25.295  1.00  0.00     0.000 A 
ATOM     24  C   UNL A   1      33.299  29.559  26.496  1.00  0.00     0.000 A 
ENDBRANCH  16  19
ENDBRANCH  13  16
ENDBRANCH   7  12
ENDBRANCH   4   6
ENDBRANCH   3   4
ENDBRANCH   2   3
ENDBRANCH   1   2
BRANCH   1  25
ATOM     25  O   UNL A   1      37.943  21.498  25.622  1.00  0.00    -0.374 OA
BRANCH  25  26
ATOM     26  C   UNL A   1      37.820  20.221  25.001  1.00  0.00     0.202 C 
BRANCH  26  27
ATOM     27  C   UNL A   1      38.961  19.270  25.375  1.00  0.00     0.261 C 
BRANCH  27  28
ATOM     28  O   UNL A   1      39.729  19.901  26.403  1.00  0.00    -0.460 OA
BRANCH  28  29
ATOM     29  C   UNL A   1      41.050  19.895  26.119  1.00  0.00     0.338 C 
ATOM     30  O   UNL A   1      41.636  19.082  25.425  1.00  0.00    -0.246 OA
BRANCH  29  31
ATOM     31  C   UNL A   1      41.635  21.162  26.608  1.00  0.00     0.060 A 
ATOM     32  C   UNL A   1      41.731  21.323  27.993  1.00  0.00     0.016 A 
ATOM     33  C   UNL A   1      42.123  22.150  25.740  1.00  0.00     0.016 A 
ATOM     34  C   UNL A   1      42.237  22.504  28.516  1.00  0.00     0.010 A 
ATOM     35  C   UNL A   1      42.643  23.331  26.265  1.00  0.00     0.010 A 
ATOM     36  C   UNL A   1      42.647  23.530  27.654  1.00  0.00    -0.014 A 
BRANCH  36  37
ATOM     37  C   UNL A   1      42.845  24.878  28.221  1.00  0.00     0.031 A 
ATOM     38  C   UNL A   1      44.254  25.321  28.497  1.00  0.00     0.074 A 
ATOM     39  C   UNL A   1      41.808  25.715  28.390  1.00  0.00     0.049 A 
ATOM     40  N   UNL A   1      44.695  26.500  28.849  1.00  0.00    -0.248 NA
ATOM     41  C   UNL A   1      45.308  24.303  28.343  1.00  0.00     0.031 C 
ATOM     42  C   UNL A   1      40.406  25.396  28.128  1.00  0.00     0.029 A 
ATOM     43  N   UNL A   1      41.788  27.022  28.800  1.00  0.00    -0.354 N 
ATOM     44  C   UNL A   1      46.075  26.367  28.941  1.00  0.00     0.074 A 
ATOM     45  C   UNL A   1      46.397  24.988  28.656  1.00  0.00     0.031 C 
ATOM     46  C   UNL A   1      39.660  26.488  28.367  1.00  0.00     0.029 A 
ATOM     47  C   UNL A   1      40.533  27.575  28.806  1.00  0.00     0.049 A 
ATOM     48  H   UNL A   1      42.597  27.517  29.067  1.00  0.00     0.167 HD
ATOM     49  C   UNL A   1      46.997  27.316  29.221  1.00  0.00     0.031 A 
ATOM     50  C   UNL A   1      40.142  28.825  29.120  1.00  0.00     0.031 A 
ATOM     51  C   UNL A   1      46.676  28.681  29.520  1.00  0.00     0.049 A 
ATOM     52  C   UNL A   1      41.184  29.845  29.494  1.00  0.00     0.074 A 
ATOM     53  C   UNL A   1      47.533  29.726  29.811  1.00  0.00     0.029 A 
ATOM     54  N   UNL A   1      45.387  29.186  29.576  1.00  0.00    -0.354 N 
ATOM     55  N   UNL A   1      42.489  29.720  29.528  1.00  0.00    -0.248 NA
ATOM     56  C   UNL A   1      40.696  31.182  29.860  1.00  0.00     0.031 C 
ATOM     57  C   UNL A   1      46.758  30.857  30.088  1.00  0.00     0.029 A 
ATOM     58  C   UNL A   1      45.421  30.523  29.925  1.00  0.00     0.049 A 
ATOM     59  H   UNL A   1      44.568  28.669  29.395  1.00  0.00     0.167 HD
ATOM     60  C   UNL A   1      42.979  30.967  29.897  1.00  0.00     0.074 A 
ATOM     61  C   UNL A   1      41.832  31.837  30.060  1.00  0.00     0.031 C 
ATOM     62  C   UNL A   1      44.262  31.361  30.083  1.00  0.00     0.031 A 
BRANCH  49  63
ATOM     63  C   UNL A   1      48.434  26.888  29.235  1.00  0.00    -0.014 A 
ATOM     64  C   UNL A   1      49.028  26.381  30.401  1.00  0.00     0.009 A 
ATOM     65  C   UNL A   1      49.203  26.988  28.066  1.00  0.00     0.009 A 
ATOM     66  C   UNL A   1      50.374  26.006  30.403  1.00  0.00     0.001 A 
ATOM     67  C   UNL A   1      50.542  26.593  28.066  1.00  0.00     0.001 A 
ATOM     68  C   UNL A   1      51.127  26.110  29.235  1.00  0.00     0.000 A 
ENDBRANCH  49  63
BRANCH  50  69
ATOM     69  C   UNL A   1      38.703  29.187  29.089  1.00  0.00    -0.014 A 
ATOM     70  C   UNL A   1      38.113  29.687  27.918  1.00  0.00     0.009 A 
ATOM     71  C   UNL A   1      37.915  29.056  30.243  1.00  0.00     0.009 A 
ATOM     72  C   UNL A   1      36.769  30.072  27.912  1.00  0.00     0.001 A 
ATOM     73  C   UNL A   1      36.567  29.418  30.227  1.00  0.00     0.001 A 
ATOM     74  C   UNL A   1      35.998  29.935  29.065  1.00  0.00     0.000 A 
ENDBRANCH  50  69
BRANCH  62  75
ATOM     75  C   UNL A   1      44.489  32.793  30.466  1.00  0.00    -0.014 A 
ATOM     76  C   UNL A   1      44.682  33.780  29.489  1.00  0.00     0.009 A 
ATOM     77  C   UNL A   1      44.458  33.165  31.820  1.00  0.00     0.009 A 
ATOM     78  C   UNL A   1      44.870  35.112  29.863  1.00  0.00     0.001 A 
ATOM     79  C   UNL A   1      44.622  34.501  32.188  1.00  0.00     0.001 A 
ATOM     80  C   UNL A   1      44.836  35.471  31.209  1.00  0.00     0.000 A 
ENDBRANCH  62  75
ENDBRANCH  36  37
ENDBRANCH  29  31
ENDBRANCH  28  29
ENDBRANCH  27  28
ENDBRANCH  26  27
ENDBRANCH  25  26
ENDBRANCH   1  25
TORSDOF 18
ENDMDL
MODEL 3
REMARK VINA RESULT:     -10.3      3.725      8.705
REMARK SMILES CC[C@H](NC(=O)c1nn(C)cc1C(=O)OCCOCCOC(=O)c1ccc(-c2c3nc(c(-c4ccccc4)c4ccc([nH]4)c(-c4ccccc4)c4nc(c(-c5ccccc5)c5ccc2[nH]5)C=C4)C=C3)cc1)c1ccccc1
REMARK SMILES IDX 17 1 16 2 15 3 13 4 14 5 12 6 7 7 8 8 9 9 11 10 10 11 5 12
REMARK SMILES IDX 4 13 6 15 3 16 2 17 1 18 72 19 73 20 77 21 74 22 76 23 75 24
REMARK SMILES IDX 18 25 19 26 20 27 21 28 22 29 23 30 24 31 25 32 71 33 26 34
REMARK SMILES IDX 70 35 27 36 28 37 29 38 64 39 30 40 69 41 63 42 65 43 31 44
REMARK SMILES IDX 68 45 62 46 61 47 32 49 54 50 39 51 53 52 40 53 43 54 52 55
REMARK SMILES IDX 66 56 41 57 42 58 51 60 67 61 44 62 33 63 34 64 38 65 35 66
REMARK SMILES IDX 37 67 36 68 55 69 56 70 60 71 57 72 59 73 58 74 45 75 46 76
REMARK SMILES IDX 50 77 47 78 49 79 48 80
REMARK H PARENT 4 14 65 48 43 59
REMARK Flexibility Score: inf
ROOT
ATOM      1  C   UNL A   1      33.067  29.006  26.885  1.00  0.00     0.202 C 
ENDROOT
BRANCH   1   2
ATOM      2  C   UNL A   1      33.963  27.897  26.310  1.00  0.00     0.261 C 
BRANCH   2   3
ATOM      3  O   UNL A   1      33.181  26.933  25.569  1.00  0.00    -0.460 OA
BRANCH   3   4
ATOM      4  C   UNL A   1      33.911  25.976  24.908  1.00  0.00     0.342 C 
ATOM      5  O   UNL A   1      34.717  25.236  25.444  1.00  0.00    -0.246 OA
BRANCH   4   6
ATOM      6  C   UNL A   1      33.548  25.881  23.509  1.00  0.00     0.111 A 
ATOM      7  C   UNL A   1      33.278  26.947  22.600  1.00  0.00     0.164 A 
ATOM      8  N   UNL A   1      32.982  26.476  21.373  1.00  0.00    -0.167 NA
ATOM      9  N   UNL A   1      33.108  25.148  21.485  1.00  0.00    -0.274 N 
ATOM     10  C   UNL A   1      33.446  24.735  22.739  1.00  0.00     0.125 A 
ATOM     11  C   UNL A   1      32.907  24.331  20.312  1.00  0.00     0.173 C 
BRANCH   7  12
ATOM     12  C   UNL A   1      33.271  28.386  22.848  1.00  0.00     0.273 C 
ATOM     13  N   UNL A   1      32.110  29.025  23.212  1.00  0.00    -0.344 N 
ATOM     14  H   UNL A   1      32.275  29.877  23.678  1.00  0.00     0.164 HD
ATOM     15  O   UNL A   1      34.305  29.054  22.818  1.00  0.00    -0.267 OA
BRANCH  13  16
ATOM     16  C   UNL A   1      30.688  28.731  23.065  1.00  0.00     0.112 C 
BRANCH  16  17
ATOM     17  C   UNL A   1      30.188  27.638  24.052  1.00  0.00     0.026 C 
ATOM     18  C   UNL A   1      28.932  26.861  23.677  1.00  0.00     0.006 C 
ENDBRANCH  16  17
BRANCH  16  19
ATOM     19  C   UNL A   1      29.757  29.899  22.772  1.00  0.00    -0.026 A 
ATOM     20  C   UNL A   1      29.288  30.775  23.755  1.00  0.00     0.006 A 
ATOM     21  C   UNL A   1      29.327  30.135  21.455  1.00  0.00     0.006 A 
ATOM     22  C   UNL A   1      28.433  31.843  23.458  1.00  0.00     0.000 A 
ATOM     23  C   UNL A   1      28.467  31.197  21.148  1.00  0.00     0.000 A 
ATOM     24  C   UNL A   1      28.021  32.053  22.149  1.00  0.00     0.000 A 
ENDBRANCH  16  19
ENDBRANCH  13  16
ENDBRANCH   7  12
ENDBRANCH   4   6
ENDBRANCH   3   4
ENDBRANCH   2   3
ENDBRANCH   1   2
BRANCH   1  25
ATOM     25  O   UNL A   1      32.944  30.175  26.061  1.00  0.00    -0.374 OA
BRANCH  25  26
ATOM     26  C   UNL A   1      31.741  30.906  26.288  1.00  0.00     0.202 C 
BRANCH  26  27
ATOM     27  C   UNL A   1      31.994  32.283  26.907  1.00  0.00     0.261 C 
BRANCH  27  28
ATOM     28  O   UNL A   1      32.929  32.111  27.976  1.00  0.00    -0.460 OA
BRANCH  28  29
ATOM     29  C   UNL A   1      33.848  33.101  28.005  1.00  0.00     0.338 C 
ATOM     30  O   UNL A   1      33.622  34.298  27.965  1.00  0.00    -0.246 OA
BRANCH  29  31
ATOM     31  C   UNL A   1      35.164  32.502  28.315  1.00  0.00     0.060 A 
ATOM     32  C   UNL A   1      35.204  31.118  28.496  1.00  0.00     0.016 A 
ATOM     33  C   UNL A   1      36.341  33.264  28.377  1.00  0.00     0.016 A 
ATOM     34  C   UNL A   1      36.402  30.500  28.825  1.00  0.00     0.010 A 
ATOM     35  C   UNL A   1      37.547  32.642  28.695  1.00  0.00     0.010 A 
ATOM     36  C   UNL A   1      37.565  31.267  28.974  1.00  0.00    -0.014 A 
BRANCH  36  37
ATOM     37  C   UNL A   1      38.722  30.652  29.653  1.00  0.00     0.031 A 
ATOM     38  C   UNL A   1      38.897  30.920  31.120  1.00  0.00     0.074 A 
ATOM     39  C   UNL A   1      39.531  29.799  29.001  1.00  0.00     0.049 A 
ATOM     40  N   UNL A   1      39.737  30.381  31.965  1.00  0.00    -0.248 NA
ATOM     41  C   UNL A   1      37.998  31.922  31.720  1.00  0.00     0.031 C 
ATOM     42  C   UNL A   1      39.433  29.448  27.586  1.00  0.00     0.029 A 
ATOM     43  N   UNL A   1      40.583  29.054  29.464  1.00  0.00    -0.354 N 
ATOM     44  C   UNL A   1      39.454  30.965  33.193  1.00  0.00     0.074 A 
ATOM     45  C   UNL A   1      38.402  31.931  32.980  1.00  0.00     0.031 C 
ATOM     46  C   UNL A   1      40.379  28.536  27.298  1.00  0.00     0.029 A 
ATOM     47  C   UNL A   1      41.148  28.251  28.507  1.00  0.00     0.049 A 
ATOM     48  H   UNL A   1      40.902  29.091  30.396  1.00  0.00     0.167 HD
ATOM     49  C   UNL A   1      40.010  30.705  34.398  1.00  0.00     0.031 A 
ATOM     50  C   UNL A   1      42.167  27.376  28.607  1.00  0.00     0.031 A 
ATOM     51  C   UNL A   1      41.066  29.757  34.606  1.00  0.00     0.049 A 
ATOM     52  C   UNL A   1      42.814  27.155  29.948  1.00  0.00     0.074 A 
ATOM     53  C   UNL A   1      41.696  29.412  35.787  1.00  0.00     0.029 A 
ATOM     54  N   UNL A   1      41.653  29.009  33.598  1.00  0.00    -0.354 N 
ATOM     55  N   UNL A   1      42.504  27.677  31.111  1.00  0.00    -0.248 NA
ATOM     56  C   UNL A   1      43.943  26.216  29.989  1.00  0.00     0.031 C 
ATOM     57  C   UNL A   1      42.700  28.485  35.486  1.00  0.00     0.029 A 
ATOM     58  C   UNL A   1      42.661  28.223  34.124  1.00  0.00     0.049 A 
ATOM     59  H   UNL A   1      41.392  29.035  32.649  1.00  0.00     0.167 HD
ATOM     60  C   UNL A   1      43.385  27.111  32.026  1.00  0.00     0.074 A 
ATOM     61  C   UNL A   1      44.229  26.197  31.284  1.00  0.00     0.031 C 
ATOM     62  C   UNL A   1      43.486  27.325  33.360  1.00  0.00     0.031 A 
BRANCH  49  63
ATOM     63  C   UNL A   1      39.491  31.483  35.571  1.00  0.00    -0.014 A 
ATOM     64  C   UNL A   1      40.134  32.651  36.007  1.00  0.00     0.009 A 
ATOM     65  C   UNL A   1      38.342  31.044  36.244  1.00  0.00     0.009 A 
ATOM     66  C   UNL A   1      39.650  33.352  37.114  1.00  0.00     0.001 A 
ATOM     67  C   UNL A   1      37.848  31.758  37.338  1.00  0.00     0.001 A 
ATOM     68  C   UNL A   1      38.506  32.906  37.775  1.00  0.00     0.000 A 
ENDBRANCH  49  63
BRANCH  50  69
ATOM     69  C   UNL A   1      42.638  26.637  27.408  1.00  0.00    -0.014 A 
ATOM     70  C   UNL A   1      42.093  25.388  27.075  1.00  0.00     0.009 A 
ATOM     71  C   UNL A   1      43.654  27.171  26.602  1.00  0.00     0.009 A 
ATOM     72  C   UNL A   1      42.576  24.677  25.973  1.00  0.00     0.001 A 
ATOM     73  C   UNL A   1      44.118  26.470  25.487  1.00  0.00     0.001 A 
ATOM     74  C   UNL A   1      43.586  25.220  25.179  1.00  0.00     0.000 A 
ENDBRANCH  50  69
BRANCH  62  75
ATOM     75  C   UNL A   1      44.534  26.547  34.099  1.00  0.00    -0.014 A 
ATOM     76  C   UNL A   1      44.205  25.378  34.800  1.00  0.00     0.009 A 
ATOM     77  C   UNL A   1      45.874  26.962  34.050  1.00  0.00     0.009 A 
ATOM     78  C   UNL A   1      45.196  24.654  35.465  1.00  0.00     0.001 A 
ATOM     79  C   UNL A   1      46.865  26.223  34.695  1.00  0.00     0.001 A 
ATOM     80  C   UNL A   1      46.524  25.074  35.409  1.00  0.00     0.000 A 
ENDBRANCH  62  75
ENDBRANCH  36  37
ENDBRANCH  29  31
ENDBRANCH  28  29
ENDBRANCH  27  28
ENDBRANCH  26  27
ENDBRANCH  25  26
ENDBRANCH   1  25
TORSDOF 18
ENDMDL
