MODEL 1
REMARK VINA RESULT:     -10.4      0.000      0.000
REMARK SMILES C[C@@H](Nc1cccc(C(=O)OCCOCCOC(=O)c2ccc(-c3c4nc(c(-c5ccccc5)c5ccc([nH]5)c(-c5ccccc5)c5nc(c(-c6ccccc6)c6ccc3[nH]6)C=C5)C=C4)cc2)c1)C1CC[NH+](C)CC1
REMARK SMILES IDX 13 1 12 2 11 3 9 4 10 5 8 6 4 7 5 8 68 9 6 10 7 11 3 12 2 14
REMARK SMILES IDX 1 15 69 16 70 17 75 18 71 19 74 20 72 21 73 22 14 24 15 25
REMARK SMILES IDX 16 26 17 27 18 28 19 29 20 30 21 31 67 32 22 33 66 34 23 35
REMARK SMILES IDX 24 36 25 37 60 38 26 39 65 40 59 41 61 42 27 43 64 44 58 45
REMARK SMILES IDX 57 46 28 48 50 49 35 50 49 51 36 52 39 53 48 54 62 55 37 56
REMARK SMILES IDX 38 57 47 59 63 60 40 61 29 62 30 63 34 64 31 65 33 66 32 67
REMARK SMILES IDX 51 68 52 69 56 70 53 71 55 72 54 73 41 74 42 75 46 76 43 77
REMARK SMILES IDX 45 78 44 79
REMARK H PARENT 3 13 72 23 61 47 39 58
REMARK Flexibility Score: inf
ROOT
ATOM      1  C   UNL A   1      46.251  20.037  24.806  1.00  0.00     0.202 C 
ENDROOT
BRANCH   1   2
ATOM      2  C   UNL A   1      45.007  19.151  24.868  1.00  0.00     0.261 C 
BRANCH   2   3
ATOM      3  O   UNL A   1      43.785  19.891  24.693  1.00  0.00    -0.460 OA
BRANCH   3   4
ATOM      4  C   UNL A   1      42.806  19.558  25.568  1.00  0.00     0.338 C 
ATOM      5  O   UNL A   1      42.482  18.420  25.880  1.00  0.00    -0.246 OA
BRANCH   4   6
ATOM      6  C   UNL A   1      42.109  20.740  26.134  1.00  0.00     0.062 A 
ATOM      7  C   UNL A   1      39.928  21.672  26.543  1.00  0.00     0.035 A 
ATOM      8  C   UNL A   1      40.419  22.138  27.781  1.00  0.00     0.026 A 
ATOM      9  C   UNL A   1      40.848  21.132  25.653  1.00  0.00     0.041 A 
ATOM     10  C   UNL A   1      41.740  21.939  28.181  1.00  0.00     0.003 A 
ATOM     11  C   UNL A   1      42.572  21.181  27.378  1.00  0.00     0.016 A 
BRANCH   7  12
ATOM     12  N   UNL A   1      38.559  21.612  26.389  1.00  0.00    -0.382 N 
ATOM     13  H   UNL A   1      38.140  20.868  26.881  1.00  0.00     0.160 HD
BRANCH  12  14
ATOM     14  C   UNL A   1      37.603  22.432  25.641  1.00  0.00     0.079 C 
ATOM     15  C   UNL A   1      37.883  23.884  26.110  1.00  0.00     0.031 C 
BRANCH  14  16
ATOM     16  C   UNL A   1      36.066  22.166  25.810  1.00  0.00     0.022 C 
ATOM     17  C   UNL A   1      35.301  21.633  24.592  1.00  0.00     0.067 C 
ATOM     18  C   UNL A   1      35.200  23.257  26.449  1.00  0.00     0.067 C 
ATOM     19  C   UNL A   1      34.990  22.732  23.588  1.00  0.00     0.262 C 
ATOM     20  C   UNL A   1      34.606  24.269  25.467  1.00  0.00     0.262 C 
ATOM     21  N   UNL A   1      34.153  23.792  24.159  1.00  0.00    -0.337 N 
ATOM     22  C   UNL A   1      34.140  24.934  23.224  1.00  0.00     0.332 C 
ATOM     23  H   UNL A   1      33.225  23.391  24.298  1.00  0.00     0.347 HD
ENDBRANCH  14  16
ENDBRANCH  12  14
ENDBRANCH   7  12
ENDBRANCH   4   6
ENDBRANCH   3   4
ENDBRANCH   2   3
ENDBRANCH   1   2
BRANCH   1  24
ATOM     24  O   UNL A   1      46.112  21.445  24.654  1.00  0.00    -0.374 OA
BRANCH  24  25
ATOM     25  C   UNL A   1      45.787  22.253  25.775  1.00  0.00     0.202 C 
BRANCH  25  26
ATOM     26  C   UNL A   1      45.967  23.780  25.706  1.00  0.00     0.261 C 
BRANCH  26  27
ATOM     27  O   UNL A   1      45.241  24.450  24.669  1.00  0.00    -0.460 OA
BRANCH  27  28
ATOM     28  C   UNL A   1      43.920  24.158  24.658  1.00  0.00     0.338 C 
ATOM     29  O   UNL A   1      43.375  23.197  24.123  1.00  0.00    -0.246 OA
BRANCH  28  30
ATOM     30  C   UNL A   1      43.175  25.106  25.500  1.00  0.00     0.060 A 
ATOM     31  C   UNL A   1      43.773  26.340  25.781  1.00  0.00     0.016 A 
ATOM     32  C   UNL A   1      41.971  24.742  26.107  1.00  0.00     0.016 A 
ATOM     33  C   UNL A   1      43.201  27.192  26.720  1.00  0.00     0.010 A 
ATOM     34  C   UNL A   1      41.404  25.594  27.060  1.00  0.00     0.010 A 
ATOM     35  C   UNL A   1      42.042  26.801  27.402  1.00  0.00    -0.014 A 
BRANCH  35  36
ATOM     36  C   UNL A   1      41.602  27.571  28.590  1.00  0.00     0.031 A 
ATOM     37  C   UNL A   1      42.364  27.413  29.879  1.00  0.00     0.074 A 
ATOM     38  C   UNL A   1      40.575  28.434  28.512  1.00  0.00     0.049 A 
ATOM     39  N   UNL A   1      42.135  27.951  31.049  1.00  0.00    -0.248 NA
ATOM     40  C   UNL A   1      43.547  26.534  29.842  1.00  0.00     0.031 C 
ATOM     41  C   UNL A   1      39.804  28.729  27.304  1.00  0.00     0.029 A 
ATOM     42  N   UNL A   1      40.007  29.227  29.476  1.00  0.00    -0.354 N 
ATOM     43  C   UNL A   1      43.141  27.480  31.884  1.00  0.00     0.074 A 
ATOM     44  C   UNL A   1      43.964  26.587  31.098  1.00  0.00     0.031 C 
ATOM     45  C   UNL A   1      38.856  29.635  27.604  1.00  0.00     0.029 A 
ATOM     46  C   UNL A   1      38.932  29.954  29.028  1.00  0.00     0.049 A 
ATOM     47  H   UNL A   1      40.338  29.271  30.403  1.00  0.00     0.167 HD
ATOM     48  C   UNL A   1      43.368  27.774  33.186  1.00  0.00     0.031 A 
ATOM     49  C   UNL A   1      38.092  30.766  29.698  1.00  0.00     0.031 A 
ATOM     50  C   UNL A   1      42.543  28.650  33.972  1.00  0.00     0.049 A 
ATOM     51  C   UNL A   1      38.302  30.988  31.174  1.00  0.00     0.074 A 
ATOM     52  C   UNL A   1      42.675  28.991  35.307  1.00  0.00     0.029 A 
ATOM     53  N   UNL A   1      41.434  29.327  33.492  1.00  0.00    -0.354 N 
ATOM     54  N   UNL A   1      39.253  30.530  31.953  1.00  0.00    -0.248 NA
ATOM     55  C   UNL A   1      37.325  31.847  31.860  1.00  0.00     0.031 C 
ATOM     56  C   UNL A   1      41.618  29.841  35.646  1.00  0.00     0.029 A 
ATOM     57  C   UNL A   1      40.864  30.074  34.508  1.00  0.00     0.049 A 
ATOM     58  H   UNL A   1      41.101  29.284  32.566  1.00  0.00     0.167 HD
ATOM     59  C   UNL A   1      39.010  31.078  33.207  1.00  0.00     0.074 A 
ATOM     60  C   UNL A   1      37.830  31.908  33.084  1.00  0.00     0.031 C 
ATOM     61  C   UNL A   1      39.703  30.911  34.360  1.00  0.00     0.031 A 
BRANCH  48  62
ATOM     62  C   UNL A   1      44.548  27.124  33.851  1.00  0.00    -0.014 A 
ATOM     63  C   UNL A   1      45.799  27.757  33.884  1.00  0.00     0.009 A 
ATOM     64  C   UNL A   1      44.391  25.892  34.505  1.00  0.00     0.009 A 
ATOM     65  C   UNL A   1      46.878  27.159  34.541  1.00  0.00     0.001 A 
ATOM     66  C   UNL A   1      45.464  25.308  35.182  1.00  0.00     0.001 A 
ATOM     67  C   UNL A   1      46.706  25.939  35.195  1.00  0.00     0.000 A 
ENDBRANCH  48  62
BRANCH  49  68
ATOM     68  C   UNL A   1      36.947  31.410  29.001  1.00  0.00    -0.014 A 
ATOM     69  C   UNL A   1      37.002  32.761  28.626  1.00  0.00     0.009 A 
ATOM     70  C   UNL A   1      35.768  30.687  28.757  1.00  0.00     0.009 A 
ATOM     71  C   UNL A   1      35.887  33.384  28.060  1.00  0.00     0.001 A 
ATOM     72  C   UNL A   1      34.667  31.304  28.161  1.00  0.00     0.001 A 
ATOM     73  C   UNL A   1      34.722  32.656  27.826  1.00  0.00     0.000 A 
ENDBRANCH  49  68
BRANCH  61  74
ATOM     74  C   UNL A   1      39.245  31.688  35.561  1.00  0.00    -0.014 A 
ATOM     75  C   UNL A   1      39.744  32.970  35.840  1.00  0.00     0.009 A 
ATOM     76  C   UNL A   1      38.260  31.143  36.402  1.00  0.00     0.009 A 
ATOM     77  C   UNL A   1      39.289  33.674  36.956  1.00  0.00     0.001 A 
ATOM     78  C   UNL A   1      37.787  31.862  37.498  1.00  0.00     0.001 A 
ATOM     79  C   UNL A   1      38.308  33.123  37.781  1.00  0.00     0.000 A 
ENDBRANCH  61  74
ENDBRANCH  35  36
ENDBRANCH  28  30
ENDBRANCH  27  28
ENDBRANCH  26  27
ENDBRANCH  25  26
ENDBRANCH  24  25
ENDBRANCH   1  24
TORSDOF 17
ENDMDL
MODEL 2
REMARK VINA RESULT:     -10.0      4.717      9.902
REMARK SMILES C[C@@H](Nc1cccc(C(=O)OCCOCCOC(=O)c2ccc(-c3c4nc(c(-c5ccccc5)c5ccc([nH]5)c(-c5ccccc5)c5nc(c(-c6ccccc6)c6ccc3[nH]6)C=C5)C=C4)cc2)c1)C1CC[NH+](C)CC1
REMARK SMILES IDX 13 1 12 2 11 3 9 4 10 5 8 6 4 7 5 8 68 9 6 10 7 11 3 12 2 14
REMARK SMILES IDX 1 15 69 16 70 17 75 18 71 19 74 20 72 21 73 22 14 24 15 25
REMARK SMILES IDX 16 26 17 27 18 28 19 29 20 30 21 31 67 32 22 33 66 34 23 35
REMARK SMILES IDX 24 36 25 37 60 38 26 39 65 40 59 41 61 42 27 43 64 44 58 45
REMARK SMILES IDX 57 46 28 48 50 49 35 50 49 51 36 52 39 53 48 54 62 55 37 56
REMARK SMILES IDX 38 57 47 59 63 60 40 61 29 62 30 63 34 64 31 65 33 66 32 67
REMARK SMILES IDX 51 68 52 69 56 70 53 71 55 72 54 73 41 74 42 75 46 76 43 77
REMARK SMILES IDX 45 78 44 79
REMARK H PARENT 3 13 72 23 61 47 39 58
REMARK Flexibility Score: inf
ROOT
ATOM      1  C   UNL A   1      35.187  33.624  28.794  1.00  0.00     0.202 C 
ENDROOT
BRANCH   1   2
ATOM      2  C   UNL A   1      35.764  32.376  28.126  1.00  0.00     0.261 C 
BRANCH   2   3
ATOM      3  O   UNL A   1      35.014  31.185  28.427  1.00  0.00    -0.460 OA
BRANCH   3   4
ATOM      4  C   UNL A   1      35.331  30.121  27.650  1.00  0.00     0.338 C 
ATOM      5  O   UNL A   1      36.443  29.623  27.537  1.00  0.00    -0.246 OA
BRANCH   4   6
ATOM      6  C   UNL A   1      34.170  29.593  26.890  1.00  0.00     0.062 A 
ATOM      7  C   UNL A   1      32.935  27.581  26.418  1.00  0.00     0.035 A 
ATOM      8  C   UNL A   1      31.757  28.354  26.486  1.00  0.00     0.026 A 
ATOM      9  C   UNL A   1      34.147  28.261  26.442  1.00  0.00     0.041 A 
ATOM     10  C   UNL A   1      31.779  29.729  26.720  1.00  0.00     0.003 A 
ATOM     11  C   UNL A   1      32.991  30.339  26.985  1.00  0.00     0.016 A 
BRANCH   7  12
ATOM     12  N   UNL A   1      32.801  26.214  26.527  1.00  0.00    -0.382 N 
ATOM     13  H   UNL A   1      32.567  25.913  27.435  1.00  0.00     0.160 HD
BRANCH  12  14
ATOM     14  C   UNL A   1      32.936  25.119  25.562  1.00  0.00     0.079 C 
ATOM     15  C   UNL A   1      34.458  24.820  25.522  1.00  0.00     0.031 C 
BRANCH  14  16
ATOM     16  C   UNL A   1      32.455  25.334  24.084  1.00  0.00     0.022 C 
ATOM     17  C   UNL A   1      31.070  24.797  23.704  1.00  0.00     0.067 C 
ATOM     18  C   UNL A   1      33.412  24.972  22.943  1.00  0.00     0.067 C 
ATOM     19  C   UNL A   1      31.085  23.295  23.470  1.00  0.00     0.262 C 
ATOM     20  C   UNL A   1      33.305  23.530  22.444  1.00  0.00     0.262 C 
ATOM     21  N   UNL A   1      31.982  22.908  22.376  1.00  0.00    -0.337 N 
ATOM     22  C   UNL A   1      32.152  21.442  22.406  1.00  0.00     0.332 C 
ATOM     23  H   UNL A   1      31.549  23.233  21.512  1.00  0.00     0.347 HD
ENDBRANCH  14  16
ENDBRANCH  12  14
ENDBRANCH   7  12
ENDBRANCH   4   6
ENDBRANCH   3   4
ENDBRANCH   2   3
ENDBRANCH   1   2
BRANCH   1  24
ATOM     24  O   UNL A   1      34.241  34.429  28.096  1.00  0.00    -0.374 OA
BRANCH  24  25
ATOM     25  C   UNL A   1      34.048  35.784  28.470  1.00  0.00     0.202 C 
BRANCH  25  26
ATOM     26  C   UNL A   1      32.898  36.168  29.418  1.00  0.00     0.261 C 
BRANCH  26  27
ATOM     27  O   UNL A   1      32.560  35.199  30.417  1.00  0.00    -0.460 OA
BRANCH  27  28
ATOM     28  C   UNL A   1      32.671  35.664  31.681  1.00  0.00     0.338 C 
ATOM     29  O   UNL A   1      31.915  36.442  32.257  1.00  0.00    -0.246 OA
BRANCH  28  30
ATOM     30  C   UNL A   1      33.792  35.014  32.374  1.00  0.00     0.060 A 
ATOM     31  C   UNL A   1      35.043  35.643  32.327  1.00  0.00     0.016 A 
ATOM     32  C   UNL A   1      33.652  33.749  32.949  1.00  0.00     0.016 A 
ATOM     33  C   UNL A   1      36.172  34.983  32.800  1.00  0.00     0.010 A 
ATOM     34  C   UNL A   1      34.790  33.081  33.412  1.00  0.00     0.010 A 
ATOM     35  C   UNL A   1      36.060  33.679  33.298  1.00  0.00    -0.014 A 
BRANCH  35  36
ATOM     36  C   UNL A   1      37.287  32.881  33.530  1.00  0.00     0.031 A 
ATOM     37  C   UNL A   1      38.068  33.105  34.799  1.00  0.00     0.074 A 
ATOM     38  C   UNL A   1      37.674  31.937  32.655  1.00  0.00     0.049 A 
ATOM     39  N   UNL A   1      39.188  32.554  35.190  1.00  0.00    -0.248 NA
ATOM     40  C   UNL A   1      37.507  34.076  35.755  1.00  0.00     0.031 C 
ATOM     41  C   UNL A   1      36.964  31.577  31.428  1.00  0.00     0.029 A 
ATOM     42  N   UNL A   1      38.764  31.105  32.671  1.00  0.00    -0.354 N 
ATOM     43  C   UNL A   1      39.465  33.108  36.435  1.00  0.00     0.074 A 
ATOM     44  C   UNL A   1      38.415  34.062  36.720  1.00  0.00     0.031 C 
ATOM     45  C   UNL A   1      37.644  30.598  30.804  1.00  0.00     0.029 A 
ATOM     46  C   UNL A   1      38.851  30.292  31.568  1.00  0.00     0.049 A 
ATOM     47  H   UNL A   1      39.422  31.091  33.403  1.00  0.00     0.167 HD
ATOM     48  C   UNL A   1      40.494  32.838  37.272  1.00  0.00     0.031 A 
ATOM     49  C   UNL A   1      39.810  29.417  31.207  1.00  0.00     0.031 A 
ATOM     50  C   UNL A   1      41.546  31.901  36.985  1.00  0.00     0.049 A 
ATOM     51  C   UNL A   1      41.002  29.218  32.107  1.00  0.00     0.074 A 
ATOM     52  C   UNL A   1      42.647  31.577  37.757  1.00  0.00     0.029 A 
ATOM     53  N   UNL A   1      41.623  31.135  35.833  1.00  0.00    -0.354 N 
ATOM     54  N   UNL A   1      41.256  29.754  33.277  1.00  0.00    -0.248 NA
ATOM     55  C   UNL A   1      42.038  28.286  31.637  1.00  0.00     0.031 C 
ATOM     56  C   UNL A   1      43.415  30.646  37.052  1.00  0.00     0.029 A 
ATOM     57  C   UNL A   1      42.761  30.349  35.868  1.00  0.00     0.049 A 
ATOM     58  H   UNL A   1      40.966  31.148  35.099  1.00  0.00     0.167 HD
ATOM     59  C   UNL A   1      42.456  29.193  33.698  1.00  0.00     0.074 A 
ATOM     60  C   UNL A   1      42.875  28.271  32.664  1.00  0.00     0.031 C 
ATOM     61  C   UNL A   1      43.150  29.420  34.839  1.00  0.00     0.031 A 
BRANCH  48  62
ATOM     62  C   UNL A   1      40.545  33.584  38.575  1.00  0.00    -0.014 A 
ATOM     63  C   UNL A   1      41.297  34.762  38.705  1.00  0.00     0.009 A 
ATOM     64  C   UNL A   1      39.787  33.138  39.668  1.00  0.00     0.009 A 
ATOM     65  C   UNL A   1      41.304  35.468  39.911  1.00  0.00     0.001 A 
ATOM     66  C   UNL A   1      39.776  33.858  40.864  1.00  0.00     0.001 A 
ATOM     67  C   UNL A   1      40.538  35.018  40.986  1.00  0.00     0.000 A 
ENDBRANCH  48  62
BRANCH  49  68
ATOM     68  C   UNL A   1      39.715  28.680  29.919  1.00  0.00    -0.014 A 
ATOM     69  C   UNL A   1      39.275  27.348  29.884  1.00  0.00     0.009 A 
ATOM     70  C   UNL A   1      40.118  29.292  28.721  1.00  0.00     0.009 A 
ATOM     71  C   UNL A   1      39.281  26.632  28.685  1.00  0.00     0.001 A 
ATOM     72  C   UNL A   1      40.091  28.584  27.518  1.00  0.00     0.001 A 
ATOM     73  C   UNL A   1      39.686  27.250  27.503  1.00  0.00     0.000 A 
ENDBRANCH  49  68
BRANCH  61  74
ATOM     74  C   UNL A   1      44.397  28.613  35.063  1.00  0.00    -0.014 A 
ATOM     75  C   UNL A   1      45.657  29.082  34.657  1.00  0.00     0.009 A 
ATOM     76  C   UNL A   1      44.312  27.382  35.734  1.00  0.00     0.009 A 
ATOM     77  C   UNL A   1      46.801  28.317  34.892  1.00  0.00     0.001 A 
ATOM     78  C   UNL A   1      45.460  26.635  35.992  1.00  0.00     0.001 A 
ATOM     79  C   UNL A   1      46.702  27.098  35.563  1.00  0.00     0.000 A 
ENDBRANCH  61  74
ENDBRANCH  35  36
ENDBRANCH  28  30
ENDBRANCH  27  28
ENDBRANCH  26  27
ENDBRANCH  25  26
ENDBRANCH  24  25
ENDBRANCH   1  24
TORSDOF 17
ENDMDL
MODEL 3
REMARK VINA RESULT:     -10.0      1.813      3.506
REMARK SMILES C[C@@H](Nc1cccc(C(=O)OCCOCCOC(=O)c2ccc(-c3c4nc(c(-c5ccccc5)c5ccc([nH]5)c(-c5ccccc5)c5nc(c(-c6ccccc6)c6ccc3[nH]6)C=C5)C=C4)cc2)c1)C1CC[NH+](C)CC1
REMARK SMILES IDX 13 1 12 2 11 3 9 4 10 5 8 6 4 7 5 8 68 9 6 10 7 11 3 12 2 14
REMARK SMILES IDX 1 15 69 16 70 17 75 18 71 19 74 20 72 21 73 22 14 24 15 25
REMARK SMILES IDX 16 26 17 27 18 28 19 29 20 30 21 31 67 32 22 33 66 34 23 35
REMARK SMILES IDX 24 36 25 37 60 38 26 39 65 40 59 41 61 42 27 43 64 44 58 45
REMARK SMILES IDX 57 46 28 48 50 49 35 50 49 51 36 52 39 53 48 54 62 55 37 56
REMARK SMILES IDX 38 57 47 59 63 60 40 61 29 62 30 63 34 64 31 65 33 66 32 67
REMARK SMILES IDX 51 68 52 69 56 70 53 71 55 72 54 73 41 74 42 75 46 76 43 77
REMARK SMILES IDX 45 78 44 79
REMARK H PARENT 3 13 72 23 61 47 39 58
REMARK Flexibility Score: inf
ROOT
ATOM      1  C   UNL A   1      40.890  20.995  26.208  1.00  0.00     0.202 C 
ENDROOT
BRANCH   1   2
ATOM      2  C   UNL A   1      39.841  22.040  26.586  1.00  0.00     0.261 C 
BRANCH   2   3
ATOM      3  O   UNL A   1      38.607  21.881  25.861  1.00  0.00    -0.460 OA
BRANCH   3   4
ATOM      4  C   UNL A   1      37.825  22.986  25.850  1.00  0.00     0.338 C 
ATOM      5  O   UNL A   1      38.213  24.139  25.991  1.00  0.00    -0.246 OA
BRANCH   4   6
ATOM      6  C   UNL A   1      36.385  22.676  25.666  1.00  0.00     0.062 A 
ATOM      7  C   UNL A   1      34.401  23.376  24.497  1.00  0.00     0.035 A 
ATOM      8  C   UNL A   1      34.087  22.012  24.324  1.00  0.00     0.026 A 
ATOM      9  C   UNL A   1      35.466  23.686  25.334  1.00  0.00     0.041 A 
ATOM     10  C   UNL A   1      34.888  20.991  24.838  1.00  0.00     0.003 A 
ATOM     11  C   UNL A   1      36.077  21.327  25.459  1.00  0.00     0.016 A 
BRANCH   7  12
ATOM     12  N   UNL A   1      33.758  24.281  23.680  1.00  0.00    -0.382 N 
ATOM     13  H   UNL A   1      33.808  24.051  22.723  1.00  0.00     0.160 HD
BRANCH  12  14
ATOM     14  C   UNL A   1      33.015  25.514  23.949  1.00  0.00     0.079 C 
ATOM     15  C   UNL A   1      32.028  25.644  22.758  1.00  0.00     0.031 C 
BRANCH  14  16
ATOM     16  C   UNL A   1      33.795  26.870  24.068  1.00  0.00     0.022 C 
ATOM     17  C   UNL A   1      33.660  27.652  25.381  1.00  0.00     0.067 C 
ATOM     18  C   UNL A   1      33.684  27.882  22.923  1.00  0.00     0.067 C 
ATOM     19  C   UNL A   1      32.345  28.413  25.458  1.00  0.00     0.262 C 
ATOM     20  C   UNL A   1      32.535  28.884  23.055  1.00  0.00     0.262 C 
ATOM     21  N   UNL A   1      32.206  29.401  24.384  1.00  0.00    -0.337 N 
ATOM     22  C   UNL A   1      30.810  29.880  24.367  1.00  0.00     0.332 C 
ATOM     23  H   UNL A   1      32.872  30.148  24.582  1.00  0.00     0.347 HD
ENDBRANCH  14  16
ENDBRANCH  12  14
ENDBRANCH   7  12
ENDBRANCH   4   6
ENDBRANCH   3   4
ENDBRANCH   2   3
ENDBRANCH   1   2
BRANCH   1  24
ATOM     24  O   UNL A   1      42.041  21.382  25.464  1.00  0.00    -0.374 OA
BRANCH  24  25
ATOM     25  C   UNL A   1      43.303  20.801  25.753  1.00  0.00     0.202 C 
BRANCH  25  26
ATOM     26  C   UNL A   1      44.599  21.556  25.408  1.00  0.00     0.261 C 
BRANCH  26  27
ATOM     27  O   UNL A   1      44.903  22.687  26.231  1.00  0.00    -0.460 OA
BRANCH  27  28
ATOM     28  C   UNL A   1      44.800  23.870  25.585  1.00  0.00     0.338 C 
ATOM     29  O   UNL A   1      45.280  24.167  24.495  1.00  0.00    -0.246 OA
BRANCH  28  30
ATOM     30  C   UNL A   1      43.906  24.781  26.314  1.00  0.00     0.060 A 
ATOM     31  C   UNL A   1      44.268  26.131  26.390  1.00  0.00     0.016 A 
ATOM     32  C   UNL A   1      42.802  24.299  27.020  1.00  0.00     0.016 A 
ATOM     33  C   UNL A   1      43.564  26.996  27.221  1.00  0.00     0.010 A 
ATOM     34  C   UNL A   1      42.102  25.166  27.866  1.00  0.00     0.010 A 
ATOM     35  C   UNL A   1      42.510  26.507  28.002  1.00  0.00    -0.014 A 
BRANCH  35  36
ATOM     36  C   UNL A   1      41.954  27.352  29.086  1.00  0.00     0.031 A 
ATOM     37  C   UNL A   1      42.679  27.407  30.405  1.00  0.00     0.074 A 
ATOM     38  C   UNL A   1      40.854  28.097  28.886  1.00  0.00     0.049 A 
ATOM     39  N   UNL A   1      42.355  28.041  31.502  1.00  0.00    -0.248 NA
ATOM     40  C   UNL A   1      43.939  26.649  30.497  1.00  0.00     0.031 C 
ATOM     41  C   UNL A   1      40.105  28.184  27.633  1.00  0.00     0.029 A 
ATOM     42  N   UNL A   1      40.178  28.928  29.742  1.00  0.00    -0.354 N 
ATOM     43  C   UNL A   1      43.369  27.763  32.412  1.00  0.00     0.074 A 
ATOM     44  C   UNL A   1      44.302  26.875  31.751  1.00  0.00     0.031 C 
ATOM     45  C   UNL A   1      39.065  29.021  27.805  1.00  0.00     0.029 A 
ATOM     46  C   UNL A   1      39.057  29.495  29.187  1.00  0.00     0.049 A 
ATOM     47  H   UNL A   1      40.468  29.103  30.667  1.00  0.00     0.167 HD
ATOM     48  C   UNL A   1      43.518  28.214  33.679  1.00  0.00     0.031 A 
ATOM     49  C   UNL A   1      38.119  30.288  29.741  1.00  0.00     0.031 A 
ATOM     50  C   UNL A   1      42.585  29.084  34.342  1.00  0.00     0.049 A 
ATOM     51  C   UNL A   1      38.252  30.685  31.189  1.00  0.00     0.074 A 
ATOM     52  C   UNL A   1      42.633  29.577  35.635  1.00  0.00     0.029 A 
ATOM     53  N   UNL A   1      41.436  29.594  33.761  1.00  0.00    -0.354 N 
ATOM     54  N   UNL A   1      39.211  30.408  32.040  1.00  0.00    -0.248 NA
ATOM     55  C   UNL A   1      37.173  31.512  31.750  1.00  0.00     0.031 C 
ATOM     56  C   UNL A   1      41.489  30.350  35.850  1.00  0.00     0.029 A 
ATOM     57  C   UNL A   1      40.760  30.386  34.672  1.00  0.00     0.049 A 
ATOM     58  H   UNL A   1      41.144  29.420  32.836  1.00  0.00     0.167 HD
ATOM     59  C   UNL A   1      38.870  31.060  33.219  1.00  0.00     0.074 A 
ATOM     60  C   UNL A   1      37.623  31.752  32.973  1.00  0.00     0.031 C 
ATOM     61  C   UNL A   1      39.531  31.085  34.402  1.00  0.00     0.031 A 
BRANCH  48  62
ATOM     62  C   UNL A   1      44.727  27.757  34.444  1.00  0.00    -0.014 A 
ATOM     63  C   UNL A   1      45.912  28.509  34.440  1.00  0.00     0.009 A 
ATOM     64  C   UNL A   1      44.663  26.593  35.226  1.00  0.00     0.009 A 
ATOM     65  C   UNL A   1      47.016  28.093  35.189  1.00  0.00     0.001 A 
ATOM     66  C   UNL A   1      45.759  26.192  35.992  1.00  0.00     0.001 A 
ATOM     67  C   UNL A   1      46.936  26.939  35.968  1.00  0.00     0.000 A 
ENDBRANCH  48  62
BRANCH  49  68
ATOM     68  C   UNL A   1      36.946  30.739  28.947  1.00  0.00    -0.014 A 
ATOM     69  C   UNL A   1      36.790  32.089  28.598  1.00  0.00     0.009 A 
ATOM     70  C   UNL A   1      35.944  29.825  28.581  1.00  0.00     0.009 A 
ATOM     71  C   UNL A   1      35.639  32.521  27.936  1.00  0.00     0.001 A 
ATOM     72  C   UNL A   1      34.809  30.254  27.890  1.00  0.00     0.001 A 
ATOM     73  C   UNL A   1      34.651  31.605  27.581  1.00  0.00     0.000 A 
ENDBRANCH  49  68
BRANCH  61  74
ATOM     74  C   UNL A   1      38.957  31.937  35.498  1.00  0.00    -0.014 A 
ATOM     75  C   UNL A   1      38.214  31.377  36.549  1.00  0.00     0.009 A 
ATOM     76  C   UNL A   1      39.205  33.319  35.499  1.00  0.00     0.009 A 
ATOM     77  C   UNL A   1      37.705  32.192  37.562  1.00  0.00     0.001 A 
ATOM     78  C   UNL A   1      38.720  34.125  36.529  1.00  0.00     0.001 A 
ATOM     79  C   UNL A   1      37.962  33.563  37.554  1.00  0.00     0.000 A 
ENDBRANCH  61  74
ENDBRANCH  35  36
ENDBRANCH  28  30
ENDBRANCH  27  28
ENDBRANCH  26  27
ENDBRANCH  25  26
ENDBRANCH  24  25
ENDBRANCH   1  24
TORSDOF 17
ENDMDL
