MODEL 1
REMARK VINA RESULT:      -9.6      0.000      0.000
REMARK SMILES C=CC[NH2+][C@]1(C(=O)OCCOCCOC(=O)c2ccc(-c3c4nc(c(-c5ccccc5)c5ccc([nH]5)c(-c5ccccc5)c5nc(c(-c6ccccc6)c6ccc3[nH]6)C=C5)C=C4)cc2)CCCCC1(C)C
REMARK SMILES IDX 10 1 9 2 8 3 6 4 7 5 5 6 65 7 69 8 66 9 68 10 70 11 71 12
REMARK SMILES IDX 67 13 4 14 3 17 2 18 1 19 11 20 12 21 13 22 14 23 15 24
REMARK SMILES IDX 16 25 17 26 18 27 64 28 19 29 63 30 20 31 21 32 22 33 57 34
REMARK SMILES IDX 23 35 62 36 56 37 58 38 24 39 61 40 55 41 54 42 25 44 47 45
REMARK SMILES IDX 32 46 46 47 33 48 36 49 45 50 59 51 34 52 35 53 44 55 60 56
REMARK SMILES IDX 37 57 26 58 27 59 31 60 28 61 30 62 29 63 48 64 49 65 53 66
REMARK SMILES IDX 50 67 52 68 51 69 38 70 39 71 43 72 40 73 42 74 41 75
REMARK H PARENT 4 15 4 16 58 43 36 54
REMARK Flexibility Score: inf
ROOT
ATOM      1  C   UNL A   1      34.424  21.429  26.989  1.00  0.00     0.202 C 
ENDROOT
BRANCH   1   2
ATOM      2  C   UNL A   1      33.359  22.496  27.286  1.00  0.00     0.261 C 
BRANCH   2   3
ATOM      3  O   UNL A   1      32.365  22.704  26.269  1.00  0.00    -0.459 OA
BRANCH   3   4
ATOM      4  C   UNL A   1      31.879  23.991  26.239  1.00  0.00     0.368 C 
ATOM      5  O   UNL A   1      31.309  24.496  27.197  1.00  0.00    -0.245 OA
BRANCH   4   6
ATOM      6  C   UNL A   1      32.150  24.700  24.833  1.00  0.00     0.199 C 
ATOM      7  C   UNL A   1      30.787  25.287  24.365  1.00  0.00     0.082 C 
ATOM      8  C   UNL A   1      33.210  25.882  25.050  1.00  0.00     0.031 C 
ATOM      9  C   UNL A   1      30.239  26.351  25.314  1.00  0.00     0.007 C 
ATOM     10  C   UNL A   1      32.607  26.936  26.032  1.00  0.00     0.013 C 
ATOM     11  C   UNL A   1      34.564  25.371  25.609  1.00  0.00     0.018 C 
ATOM     12  C   UNL A   1      33.583  26.658  23.758  1.00  0.00     0.018 C 
ATOM     13  C   UNL A   1      31.243  27.463  25.583  1.00  0.00     0.001 C 
BRANCH   6  14
ATOM     14  N   UNL A   1      32.589  23.598  23.914  1.00  0.00    -0.328 N 
ATOM     15  H   UNL A   1      33.197  24.019  23.211  1.00  0.00     0.347 HD
ATOM     16  H   UNL A   1      33.022  22.914  24.534  1.00  0.00     0.347 HD
BRANCH  14  17
ATOM     17  C   UNL A   1      31.570  22.837  23.201  1.00  0.00     0.289 C 
BRANCH  17  18
ATOM     18  C   UNL A   1      32.166  21.540  22.736  1.00  0.00     0.025 C 
ATOM     19  C   UNL A   1      32.373  20.474  23.522  1.00  0.00     0.010 C 
ENDBRANCH  17  18
ENDBRANCH  14  17
ENDBRANCH   6  14
ENDBRANCH   4   6
ENDBRANCH   3   4
ENDBRANCH   2   3
ENDBRANCH   1   2
BRANCH   1  20
ATOM     20  O   UNL A   1      35.433  21.688  26.025  1.00  0.00    -0.374 OA
BRANCH  20  21
ATOM     21  C   UNL A   1      35.751  20.670  25.082  1.00  0.00     0.202 C 
BRANCH  21  22
ATOM     22  C   UNL A   1      37.222  20.271  24.904  1.00  0.00     0.261 C 
BRANCH  22  23
ATOM     23  O   UNL A   1      38.137  21.370  25.086  1.00  0.00    -0.460 OA
BRANCH  23  24
ATOM     24  C   UNL A   1      39.129  21.133  25.975  1.00  0.00     0.338 C 
ATOM     25  O   UNL A   1      39.715  20.073  26.172  1.00  0.00    -0.246 OA
BRANCH  24  26
ATOM     26  C   UNL A   1      39.579  22.384  26.603  1.00  0.00     0.060 A 
ATOM     27  C   UNL A   1      39.016  23.583  26.145  1.00  0.00     0.016 A 
ATOM     28  C   UNL A   1      40.633  22.398  27.520  1.00  0.00     0.016 A 
ATOM     29  C   UNL A   1      39.539  24.805  26.563  1.00  0.00     0.010 A 
ATOM     30  C   UNL A   1      41.165  23.627  27.928  1.00  0.00     0.010 A 
ATOM     31  C   UNL A   1      40.647  24.832  27.419  1.00  0.00    -0.014 A 
BRANCH  31  32
ATOM     32  C   UNL A   1      41.361  26.113  27.635  1.00  0.00     0.031 A 
ATOM     33  C   UNL A   1      40.726  27.161  28.509  1.00  0.00     0.074 A 
ATOM     34  C   UNL A   1      42.577  26.325  27.105  1.00  0.00     0.049 A 
ATOM     35  N   UNL A   1      41.171  28.349  28.836  1.00  0.00    -0.248 NA
ATOM     36  C   UNL A   1      39.418  26.826  29.093  1.00  0.00     0.031 C 
ATOM     37  C   UNL A   1      43.321  25.371  26.284  1.00  0.00     0.029 A 
ATOM     38  N   UNL A   1      43.401  27.420  27.183  1.00  0.00    -0.354 N 
ATOM     39  C   UNL A   1      40.200  28.899  29.662  1.00  0.00     0.074 A 
ATOM     40  C   UNL A   1      39.130  27.931  29.765  1.00  0.00     0.031 C 
ATOM     41  C   UNL A   1      44.492  25.926  25.928  1.00  0.00     0.029 A 
ATOM     42  C   UNL A   1      44.567  27.280  26.472  1.00  0.00     0.049 A 
ATOM     43  H   UNL A   1      43.176  28.228  27.700  1.00  0.00     0.167 HD
ATOM     44  C   UNL A   1      40.199  30.101  30.287  1.00  0.00     0.031 A 
ATOM     45  C   UNL A   1      45.572  28.153  26.272  1.00  0.00     0.031 A 
ATOM     46  C   UNL A   1      41.252  31.074  30.175  1.00  0.00     0.049 A 
ATOM     47  C   UNL A   1      45.512  29.515  26.911  1.00  0.00     0.074 A 
ATOM     48  C   UNL A   1      41.342  32.321  30.772  1.00  0.00     0.029 A 
ATOM     49  N   UNL A   1      42.394  30.914  29.407  1.00  0.00    -0.354 N 
ATOM     50  N   UNL A   1      44.596  30.017  27.703  1.00  0.00    -0.248 NA
ATOM     51  C   UNL A   1      46.632  30.427  26.631  1.00  0.00     0.031 C 
ATOM     52  C   UNL A   1      42.519  32.932  30.326  1.00  0.00     0.029 A 
ATOM     53  C   UNL A   1      43.184  32.046  29.494  1.00  0.00     0.049 A 
ATOM     54  H   UNL A   1      42.611  30.112  28.879  1.00  0.00     0.167 HD
ATOM     55  C   UNL A   1      45.038  31.291  28.034  1.00  0.00     0.074 A 
ATOM     56  C   UNL A   1      46.310  31.481  27.369  1.00  0.00     0.031 C 
ATOM     57  C   UNL A   1      44.444  32.221  28.822  1.00  0.00     0.031 A 
BRANCH  44  58
ATOM     58  C   UNL A   1      39.000  30.438  31.126  1.00  0.00    -0.014 A 
ATOM     59  C   UNL A   1      37.898  31.114  30.580  1.00  0.00     0.009 A 
ATOM     60  C   UNL A   1      38.963  30.056  32.476  1.00  0.00     0.009 A 
ATOM     61  C   UNL A   1      36.796  31.427  31.378  1.00  0.00     0.001 A 
ATOM     62  C   UNL A   1      37.851  30.350  33.265  1.00  0.00     0.001 A 
ATOM     63  C   UNL A   1      36.772  31.043  32.718  1.00  0.00     0.000 A 
ENDBRANCH  44  58
BRANCH  45  64
ATOM     64  C   UNL A   1      46.719  27.777  25.406  1.00  0.00    -0.014 A 
ATOM     65  C   UNL A   1      47.868  27.189  25.951  1.00  0.00     0.009 A 
ATOM     66  C   UNL A   1      46.668  28.018  24.023  1.00  0.00     0.009 A 
ATOM     67  C   UNL A   1      48.954  26.869  25.132  1.00  0.00     0.001 A 
ATOM     68  C   UNL A   1      47.745  27.675  23.204  1.00  0.00     0.001 A 
ATOM     69  C   UNL A   1      48.891  27.108  23.760  1.00  0.00     0.000 A 
ENDBRANCH  45  64
BRANCH  57  70
ATOM     70  C   UNL A   1      45.177  33.517  29.029  1.00  0.00    -0.014 A 
ATOM     71  C   UNL A   1      46.153  33.647  30.027  1.00  0.00     0.009 A 
ATOM     72  C   UNL A   1      44.915  34.605  28.182  1.00  0.00     0.009 A 
ATOM     73  C   UNL A   1      46.834  34.856  30.193  1.00  0.00     0.001 A 
ATOM     74  C   UNL A   1      45.614  35.804  28.335  1.00  0.00     0.001 A 
ATOM     75  C   UNL A   1      46.568  35.930  29.345  1.00  0.00     0.000 A 
ENDBRANCH  57  70
ENDBRANCH  31  32
ENDBRANCH  24  26
ENDBRANCH  23  24
ENDBRANCH  22  23
ENDBRANCH  21  22
ENDBRANCH  20  21
ENDBRANCH   1  20
TORSDOF 17
ENDMDL
MODEL 2
REMARK VINA RESULT:      -9.4      0.680      6.100
REMARK SMILES C=CC[NH2+][C@]1(C(=O)OCCOCCOC(=O)c2ccc(-c3c4nc(c(-c5ccccc5)c5ccc([nH]5)c(-c5ccccc5)c5nc(c(-c6ccccc6)c6ccc3[nH]6)C=C5)C=C4)cc2)CCCCC1(C)C
REMARK SMILES IDX 10 1 9 2 8 3 6 4 7 5 5 6 65 7 69 8 66 9 68 10 70 11 71 12
REMARK SMILES IDX 67 13 4 14 3 17 2 18 1 19 11 20 12 21 13 22 14 23 15 24
REMARK SMILES IDX 16 25 17 26 18 27 64 28 19 29 63 30 20 31 21 32 22 33 57 34
REMARK SMILES IDX 23 35 62 36 56 37 58 38 24 39 61 40 55 41 54 42 25 44 47 45
REMARK SMILES IDX 32 46 46 47 33 48 36 49 45 50 59 51 34 52 35 53 44 55 60 56
REMARK SMILES IDX 37 57 26 58 27 59 31 60 28 61 30 62 29 63 48 64 49 65 53 66
REMARK SMILES IDX 50 67 52 68 51 69 38 70 39 71 43 72 40 73 42 74 41 75
REMARK H PARENT 4 15 4 16 58 43 36 54
REMARK Flexibility Score: inf
ROOT
ATOM      1  C   UNL A   1      34.172  21.443  27.273  1.00  0.00     0.202 C 
ENDROOT
BRANCH   1   2
ATOM      2  C   UNL A   1      33.148  22.565  27.505  1.00  0.00     0.261 C 
BRANCH   2   3
ATOM      3  O   UNL A   1      32.101  22.684  26.528  1.00  0.00    -0.459 OA
BRANCH   3   4
ATOM      4  C   UNL A   1      31.690  23.981  26.327  1.00  0.00     0.368 C 
ATOM      5  O   UNL A   1      31.090  24.616  27.184  1.00  0.00    -0.245 OA
BRANCH   4   6
ATOM      6  C   UNL A   1      32.089  24.517  24.875  1.00  0.00     0.199 C 
ATOM      7  C   UNL A   1      30.755  24.825  24.136  1.00  0.00     0.082 C 
ATOM      8  C   UNL A   1      32.946  25.861  25.041  1.00  0.00     0.031 C 
ATOM      9  C   UNL A   1      29.935  25.920  24.817  1.00  0.00     0.007 C 
ATOM     10  C   UNL A   1      32.069  26.942  25.748  1.00  0.00     0.013 C 
ATOM     11  C   UNL A   1      34.248  25.639  25.855  1.00  0.00     0.018 C 
ATOM     12  C   UNL A   1      33.419  26.493  23.704  1.00  0.00     0.018 C 
ATOM     13  C   UNL A   1      30.738  27.195  25.038  1.00  0.00     0.001 C 
BRANCH   6  14
ATOM     14  N   UNL A   1      32.801  23.373  24.214  1.00  0.00    -0.328 N 
ATOM     15  H   UNL A   1      33.707  23.279  24.673  1.00  0.00     0.347 HD
ATOM     16  H   UNL A   1      32.159  22.587  24.319  1.00  0.00     0.347 HD
BRANCH  14  17
ATOM     17  C   UNL A   1      33.049  23.441  22.780  1.00  0.00     0.289 C 
BRANCH  17  18
ATOM     18  C   UNL A   1      34.472  23.046  22.511  1.00  0.00     0.025 C 
ATOM     19  C   UNL A   1      35.518  23.418  23.262  1.00  0.00     0.010 C 
ENDBRANCH  17  18
ENDBRANCH  14  17
ENDBRANCH   6  14
ENDBRANCH   4   6
ENDBRANCH   3   4
ENDBRANCH   2   3
ENDBRANCH   1   2
BRANCH   1  20
ATOM     20  O   UNL A   1      35.255  21.650  26.380  1.00  0.00    -0.374 OA
BRANCH  20  21
ATOM     21  C   UNL A   1      35.536  20.650  25.406  1.00  0.00     0.202 C 
BRANCH  21  22
ATOM     22  C   UNL A   1      37.000  20.379  25.035  1.00  0.00     0.261 C 
BRANCH  22  23
ATOM     23  O   UNL A   1      37.850  21.534  25.192  1.00  0.00    -0.460 OA
BRANCH  23  24
ATOM     24  C   UNL A   1      38.972  21.311  25.916  1.00  0.00     0.338 C 
ATOM     25  O   UNL A   1      39.673  20.303  25.912  1.00  0.00    -0.246 OA
BRANCH  24  26
ATOM     26  C   UNL A   1      39.387  22.529  26.626  1.00  0.00     0.060 A 
ATOM     27  C   UNL A   1      38.731  23.726  26.307  1.00  0.00     0.016 A 
ATOM     28  C   UNL A   1      40.491  22.530  27.481  1.00  0.00     0.016 A 
ATOM     29  C   UNL A   1      39.208  24.937  26.801  1.00  0.00     0.010 A 
ATOM     30  C   UNL A   1      40.977  23.750  27.966  1.00  0.00     0.010 A 
ATOM     31  C   UNL A   1      40.362  24.960  27.594  1.00  0.00    -0.014 A 
BRANCH  31  32
ATOM     32  C   UNL A   1      41.014  26.259  27.884  1.00  0.00     0.031 A 
ATOM     33  C   UNL A   1      42.365  26.546  27.285  1.00  0.00     0.074 A 
ATOM     34  C   UNL A   1      40.395  27.193  28.626  1.00  0.00     0.049 A 
ATOM     35  N   UNL A   1      43.114  27.613  27.402  1.00  0.00    -0.248 NA
ATOM     36  C   UNL A   1      42.947  25.491  26.441  1.00  0.00     0.031 C 
ATOM     37  C   UNL A   1      39.066  27.058  29.219  1.00  0.00     0.029 A 
ATOM     38  N   UNL A   1      40.811  28.444  29.006  1.00  0.00    -0.354 N 
ATOM     39  C   UNL A   1      44.252  27.358  26.648  1.00  0.00     0.074 A 
ATOM     40  C   UNL A   1      44.109  26.026  26.100  1.00  0.00     0.031 C 
ATOM     41  C   UNL A   1      38.777  28.184  29.895  1.00  0.00     0.029 A 
ATOM     42  C   UNL A   1      39.909  29.103  29.805  1.00  0.00     0.049 A 
ATOM     43  H   UNL A   1      41.673  28.832  28.731  1.00  0.00     0.167 HD
ATOM     44  C   UNL A   1      45.319  28.162  26.424  1.00  0.00     0.031 A 
ATOM     45  C   UNL A   1      39.996  30.305  30.406  1.00  0.00     0.031 A 
ATOM     46  C   UNL A   1      45.474  29.479  26.979  1.00  0.00     0.049 A 
ATOM     47  C   UNL A   1      41.228  31.146  30.208  1.00  0.00     0.074 A 
ATOM     48  C   UNL A   1      46.521  30.370  26.808  1.00  0.00     0.029 A 
ATOM     49  N   UNL A   1      44.560  30.090  27.822  1.00  0.00    -0.354 N 
ATOM     50  N   UNL A   1      42.289  30.901  29.479  1.00  0.00    -0.248 NA
ATOM     51  C   UNL A   1      41.267  32.437  30.912  1.00  0.00     0.031 C 
ATOM     52  C   UNL A   1      46.259  31.503  27.586  1.00  0.00     0.029 A 
ATOM     53  C   UNL A   1      45.027  31.336  28.199  1.00  0.00     0.049 A 
ATOM     54  H   UNL A   1      43.705  29.696  28.108  1.00  0.00     0.167 HD
ATOM     55  C   UNL A   1      43.111  32.012  29.618  1.00  0.00     0.074 A 
ATOM     56  C   UNL A   1      42.420  32.939  30.490  1.00  0.00     0.031 C 
ATOM     57  C   UNL A   1      44.329  32.245  29.071  1.00  0.00     0.031 A 
BRANCH  44  58
ATOM     58  C   UNL A   1      46.420  27.616  25.560  1.00  0.00    -0.014 A 
ATOM     59  C   UNL A   1      46.579  28.039  24.231  1.00  0.00     0.009 A 
ATOM     60  C   UNL A   1      47.323  26.682  26.089  1.00  0.00     0.009 A 
ATOM     61  C   UNL A   1      47.603  27.513  23.441  1.00  0.00     0.001 A 
ATOM     62  C   UNL A   1      48.360  26.175  25.304  1.00  0.00     0.001 A 
ATOM     63  C   UNL A   1      48.493  26.585  23.978  1.00  0.00     0.000 A 
ENDBRANCH  44  58
BRANCH  45  64
ATOM     64  C   UNL A   1      38.890  30.779  31.276  1.00  0.00    -0.014 A 
ATOM     65  C   UNL A   1      37.849  31.559  30.754  1.00  0.00     0.009 A 
ATOM     66  C   UNL A   1      38.881  30.459  32.644  1.00  0.00     0.009 A 
ATOM     67  C   UNL A   1      36.831  32.028  31.588  1.00  0.00     0.001 A 
ATOM     68  C   UNL A   1      37.849  30.909  33.469  1.00  0.00     0.001 A 
ATOM     69  C   UNL A   1      36.829  31.699  32.943  1.00  0.00     0.000 A 
ENDBRANCH  45  64
BRANCH  57  70
ATOM     70  C   UNL A   1      44.980  33.564  29.377  1.00  0.00    -0.014 A 
ATOM     71  C   UNL A   1      45.850  33.709  30.467  1.00  0.00     0.009 A 
ATOM     72  C   UNL A   1      44.749  34.664  28.535  1.00  0.00     0.009 A 
ATOM     73  C   UNL A   1      46.457  34.941  30.726  1.00  0.00     0.001 A 
ATOM     74  C   UNL A   1      45.376  35.886  28.782  1.00  0.00     0.001 A 
ATOM     75  C   UNL A   1      46.223  36.026  29.881  1.00  0.00     0.000 A 
ENDBRANCH  57  70
ENDBRANCH  31  32
ENDBRANCH  24  26
ENDBRANCH  23  24
ENDBRANCH  22  23
ENDBRANCH  21  22
ENDBRANCH  20  21
ENDBRANCH   1  20
TORSDOF 17
ENDMDL
MODEL 3
REMARK VINA RESULT:      -9.4      3.991      7.225
REMARK SMILES C=CC[NH2+][C@]1(C(=O)OCCOCCOC(=O)c2ccc(-c3c4nc(c(-c5ccccc5)c5ccc([nH]5)c(-c5ccccc5)c5nc(c(-c6ccccc6)c6ccc3[nH]6)C=C5)C=C4)cc2)CCCCC1(C)C
REMARK SMILES IDX 10 1 9 2 8 3 6 4 7 5 5 6 65 7 69 8 66 9 68 10 70 11 71 12
REMARK SMILES IDX 67 13 4 14 3 17 2 18 1 19 11 20 12 21 13 22 14 23 15 24
REMARK SMILES IDX 16 25 17 26 18 27 64 28 19 29 63 30 20 31 21 32 22 33 57 34
REMARK SMILES IDX 23 35 62 36 56 37 58 38 24 39 61 40 55 41 54 42 25 44 47 45
REMARK SMILES IDX 32 46 46 47 33 48 36 49 45 50 59 51 34 52 35 53 44 55 60 56
REMARK SMILES IDX 37 57 26 58 27 59 31 60 28 61 30 62 29 63 48 64 49 65 53 66
REMARK SMILES IDX 50 67 52 68 51 69 38 70 39 71 43 72 40 73 42 74 41 75
REMARK H PARENT 4 15 4 16 58 43 36 54
REMARK Flexibility Score: inf
ROOT
ATOM      1  C   UNL A   1      32.898  29.643  25.558  1.00  0.00     0.202 C 
ENDROOT
BRANCH   1   2
ATOM      2  C   UNL A   1      33.583  28.305  25.872  1.00  0.00     0.261 C 
BRANCH   2   3
ATOM      3  O   UNL A   1      33.497  27.291  24.857  1.00  0.00    -0.459 OA
BRANCH   3   4
ATOM      4  C   UNL A   1      32.810  26.171  25.263  1.00  0.00     0.368 C 
ATOM      5  O   UNL A   1      31.902  26.224  26.083  1.00  0.00    -0.245 OA
BRANCH   4   6
ATOM      6  C   UNL A   1      33.344  24.847  24.546  1.00  0.00     0.199 C 
ATOM      7  C   UNL A   1      32.664  23.648  25.266  1.00  0.00     0.082 C 
ATOM      8  C   UNL A   1      32.901  24.883  23.006  1.00  0.00     0.031 C 
ATOM      9  C   UNL A   1      31.142  23.658  25.132  1.00  0.00     0.007 C 
ATOM     10  C   UNL A   1      31.342  24.901  22.923  1.00  0.00     0.013 C 
ATOM     11  C   UNL A   1      33.472  26.113  22.252  1.00  0.00     0.018 C 
ATOM     12  C   UNL A   1      33.365  23.658  22.173  1.00  0.00     0.018 C 
ATOM     13  C   UNL A   1      30.687  23.745  23.681  1.00  0.00     0.001 C 
BRANCH   6  14
ATOM     14  N   UNL A   1      34.824  24.835  24.793  1.00  0.00    -0.328 N 
ATOM     15  H   UNL A   1      35.277  25.090  23.915  1.00  0.00     0.347 HD
ATOM     16  H   UNL A   1      34.952  25.482  25.571  1.00  0.00     0.347 HD
BRANCH  14  17
ATOM     17  C   UNL A   1      35.444  23.599  25.253  1.00  0.00     0.289 C 
BRANCH  17  18
ATOM     18  C   UNL A   1      36.679  23.340  24.441  1.00  0.00     0.025 C 
ATOM     19  C   UNL A   1      36.682  22.802  23.213  1.00  0.00     0.010 C 
ENDBRANCH  17  18
ENDBRANCH  14  17
ENDBRANCH   6  14
ENDBRANCH   4   6
ENDBRANCH   3   4
ENDBRANCH   2   3
ENDBRANCH   1   2
BRANCH   1  20
ATOM     20  O   UNL A   1      31.954  30.184  26.470  1.00  0.00    -0.374 OA
BRANCH  20  21
ATOM     21  C   UNL A   1      31.341  31.430  26.156  1.00  0.00     0.202 C 
BRANCH  21  22
ATOM     22  C   UNL A   1      31.470  32.583  27.161  1.00  0.00     0.261 C 
BRANCH  22  23
ATOM     23  O   UNL A   1      32.628  33.412  26.932  1.00  0.00    -0.460 OA
BRANCH  23  24
ATOM     24  C   UNL A   1      33.244  33.838  28.059  1.00  0.00     0.338 C 
ATOM     25  O   UNL A   1      32.804  34.616  28.901  1.00  0.00    -0.246 OA
BRANCH  24  26
ATOM     26  C   UNL A   1      34.501  33.107  28.277  1.00  0.00     0.060 A 
ATOM     27  C   UNL A   1      34.416  31.744  28.593  1.00  0.00     0.016 A 
ATOM     28  C   UNL A   1      35.729  33.770  28.314  1.00  0.00     0.016 A 
ATOM     29  C   UNL A   1      35.554  31.049  28.998  1.00  0.00     0.010 A 
ATOM     30  C   UNL A   1      36.868  33.073  28.734  1.00  0.00     0.010 A 
ATOM     31  C   UNL A   1      36.776  31.722  29.116  1.00  0.00    -0.014 A 
BRANCH  31  32
ATOM     32  C   UNL A   1      37.906  31.052  29.803  1.00  0.00     0.031 A 
ATOM     33  C   UNL A   1      38.152  31.346  31.258  1.00  0.00     0.074 A 
ATOM     34  C   UNL A   1      38.673  30.156  29.158  1.00  0.00     0.049 A 
ATOM     35  N   UNL A   1      39.076  30.872  32.055  1.00  0.00    -0.248 NA
ATOM     36  C   UNL A   1      37.231  32.297  31.900  1.00  0.00     0.031 C 
ATOM     37  C   UNL A   1      38.507  29.747  27.764  1.00  0.00     0.029 A 
ATOM     38  N   UNL A   1      39.750  29.430  29.599  1.00  0.00    -0.354 N 
ATOM     39  C   UNL A   1      38.848  31.467  33.289  1.00  0.00     0.074 A 
ATOM     40  C   UNL A   1      37.718  32.356  33.131  1.00  0.00     0.031 C 
ATOM     41  C   UNL A   1      39.455  28.843  27.463  1.00  0.00     0.029 A 
ATOM     42  C   UNL A   1      40.308  28.632  28.630  1.00  0.00     0.049 A 
ATOM     43  H   UNL A   1      40.089  29.475  30.522  1.00  0.00     0.167 HD
ATOM     44  C   UNL A   1      39.515  31.285  34.454  1.00  0.00     0.031 A 
ATOM     45  C   UNL A   1      41.393  27.837  28.678  1.00  0.00     0.031 A 
ATOM     46  C   UNL A   1      40.651  30.417  34.613  1.00  0.00     0.049 A 
ATOM     47  C   UNL A   1      42.167  27.713  29.962  1.00  0.00     0.074 A 
ATOM     48  C   UNL A   1      41.392  30.166  35.755  1.00  0.00     0.029 A 
ATOM     49  N   UNL A   1      41.213  29.664  33.596  1.00  0.00    -0.354 N 
ATOM     50  N   UNL A   1      41.932  28.268  31.127  1.00  0.00    -0.248 NA
ATOM     51  C   UNL A   1      43.355  26.846  29.938  1.00  0.00     0.031 C 
ATOM     52  C   UNL A   1      42.434  29.296  35.415  1.00  0.00     0.029 A 
ATOM     53  C   UNL A   1      42.308  28.966  34.075  1.00  0.00     0.049 A 
ATOM     54  H   UNL A   1      40.883  29.630  32.669  1.00  0.00     0.167 HD
ATOM     55  C   UNL A   1      42.926  27.801  31.978  1.00  0.00     0.074 A 
ATOM     56  C   UNL A   1      43.759  26.907  31.200  1.00  0.00     0.031 C 
ATOM     57  C   UNL A   1      43.129  28.085  33.287  1.00  0.00     0.031 A 
BRANCH  44  58
ATOM     58  C   UNL A   1      39.046  32.073  35.644  1.00  0.00    -0.014 A 
ATOM     59  C   UNL A   1      38.160  31.517  36.580  1.00  0.00     0.009 A 
ATOM     60  C   UNL A   1      39.513  33.382  35.842  1.00  0.00     0.009 A 
ATOM     61  C   UNL A   1      37.728  32.269  37.675  1.00  0.00     0.001 A 
ATOM     62  C   UNL A   1      39.098  34.122  36.950  1.00  0.00     0.001 A 
ATOM     63  C   UNL A   1      38.199  33.568  37.860  1.00  0.00     0.000 A 
ENDBRANCH  44  58
BRANCH  45  64
ATOM     64  C   UNL A   1      41.830  27.107  27.460  1.00  0.00    -0.014 A 
ATOM     65  C   UNL A   1      41.411  25.790  27.223  1.00  0.00     0.009 A 
ATOM     66  C   UNL A   1      42.683  27.727  26.533  1.00  0.00     0.009 A 
ATOM     67  C   UNL A   1      41.856  25.101  26.091  1.00  0.00     0.001 A 
ATOM     68  C   UNL A   1      43.105  27.044  25.392  1.00  0.00     0.001 A 
ATOM     69  C   UNL A   1      42.697  25.729  25.175  1.00  0.00     0.000 A 
ENDBRANCH  45  64
BRANCH  57  70
ATOM     70  C   UNL A   1      44.280  27.401  33.969  1.00  0.00    -0.014 A 
ATOM     71  C   UNL A   1      45.545  28.003  34.036  1.00  0.00     0.009 A 
ATOM     72  C   UNL A   1      44.082  26.158  34.588  1.00  0.00     0.009 A 
ATOM     73  C   UNL A   1      46.599  27.358  34.687  1.00  0.00     0.001 A 
ATOM     74  C   UNL A   1      45.130  25.527  35.260  1.00  0.00     0.001 A 
ATOM     75  C   UNL A   1      46.390  26.124  35.301  1.00  0.00     0.000 A 
ENDBRANCH  57  70
ENDBRANCH  31  32
ENDBRANCH  24  26
ENDBRANCH  23  24
ENDBRANCH  22  23
ENDBRANCH  21  22
ENDBRANCH  20  21
ENDBRANCH   1  20
TORSDOF 17
ENDMDL
