MODEL 1
REMARK VINA RESULT:      -8.8      0.000      0.000
REMARK SMILES CC[C@@H]1CCC[C@@](Cc2ccccn2)(C(=O)OCCOCCOC(=O)c2ccc(-c3c4nc(c(-c5ccccc5)c5ccc([nH]5)c(-c5ccccc5)c5nc(c(-c6ccccc6)c6ccc3[nH]6)C=C5)C=C4)cc2)C1
REMARK SMILES IDX 20 1 19 2 18 3 17 4 15 5 16 6 7 7 3 8 4 9 74 10 5 11 6 12
REMARK SMILES IDX 2 13 1 14 8 15 9 16 10 17 14 18 11 19 13 20 12 21 21 22
REMARK SMILES IDX 22 23 23 24 24 25 25 26 26 27 27 28 73 29 28 30 72 31 29 32
REMARK SMILES IDX 30 33 31 34 66 35 32 36 71 37 65 38 67 39 33 40 70 41 64 42
REMARK SMILES IDX 63 43 34 45 56 46 41 47 55 48 42 49 45 50 54 51 68 52 43 53
REMARK SMILES IDX 44 54 53 56 69 57 46 58 35 59 36 60 40 61 37 62 39 63 38 64
REMARK SMILES IDX 57 65 58 66 62 67 59 68 61 69 60 70 47 71 48 72 52 73 49 74
REMARK SMILES IDX 51 75 50 76
REMARK H PARENT 67 44 45 55
REMARK Flexibility Score: inf
ROOT
ATOM      1  O   UNL A   1      34.672  36.555  32.952  1.00  0.00    -0.374 OA
ENDROOT
BRANCH   1   2
ATOM      2  C   UNL A   1      35.555  35.440  32.855  1.00  0.00     0.202 C 
BRANCH   2   3
ATOM      3  C   UNL A   1      35.542  34.440  34.014  1.00  0.00     0.261 C 
BRANCH   3   4
ATOM      4  O   UNL A   1      36.832  34.168  34.599  1.00  0.00    -0.463 OA
BRANCH   4   5
ATOM      5  C   UNL A   1      36.795  33.572  35.824  1.00  0.00     0.312 C 
ATOM      6  O   UNL A   1      35.866  33.709  36.616  1.00  0.00    -0.252 OA
BRANCH   5   7
ATOM      7  C   UNL A   1      38.070  32.799  36.194  1.00  0.00     0.074 C 
ATOM      8  C   UNL A   1      38.515  34.111  38.368  1.00  0.00    -0.010 C 
ATOM      9  C   UNL A   1      38.454  32.816  39.184  1.00  0.00     0.003 C 
ATOM     10  C   UNL A   1      39.011  33.790  36.945  1.00  0.00     0.022 C 
ATOM     11  C   UNL A   1      37.550  31.780  38.527  1.00  0.00     0.001 C 
ATOM     12  C   UNL A   1      37.881  31.530  37.059  1.00  0.00     0.019 C 
BRANCH   8  13
ATOM     13  C   UNL A   1      39.381  35.157  39.092  1.00  0.00     0.000 C 
ATOM     14  C   UNL A   1      39.393  36.513  38.397  1.00  0.00     0.004 C 
ENDBRANCH   8  13
BRANCH   7  15
ATOM     15  C   UNL A   1      38.734  32.438  34.829  1.00  0.00     0.075 C 
BRANCH  15  16
ATOM     16  C   UNL A   1      39.761  31.329  34.897  1.00  0.00     0.041 A 
ATOM     17  C   UNL A   1      40.863  31.413  35.744  1.00  0.00     0.024 A 
ATOM     18  N   UNL A   1      39.574  30.282  34.057  1.00  0.00    -0.261 NA
ATOM     19  C   UNL A   1      41.823  30.407  35.703  1.00  0.00     0.003 A 
ATOM     20  C   UNL A   1      40.510  29.308  34.055  1.00  0.00     0.111 A 
ATOM     21  C   UNL A   1      41.647  29.331  34.842  1.00  0.00     0.020 A 
ENDBRANCH  15  16
ENDBRANCH   7  15
ENDBRANCH   5   7
ENDBRANCH   4   5
ENDBRANCH   3   4
ENDBRANCH   2   3
ENDBRANCH   1   2
BRANCH   1  22
ATOM     22  C   UNL A   1      33.272  36.277  32.937  1.00  0.00     0.202 C 
BRANCH  22  23
ATOM     23  C   UNL A   1      32.617  36.253  31.553  1.00  0.00     0.261 C 
BRANCH  23  24
ATOM     24  O   UNL A   1      32.816  34.978  30.914  1.00  0.00    -0.460 OA
BRANCH  24  25
ATOM     25  C   UNL A   1      33.324  35.073  29.666  1.00  0.00     0.338 C 
ATOM     26  O   UNL A   1      33.083  35.930  28.832  1.00  0.00    -0.246 OA
BRANCH  25  27
ATOM     27  C   UNL A   1      34.395  34.081  29.481  1.00  0.00     0.060 A 
ATOM     28  C   UNL A   1      34.597  33.153  30.509  1.00  0.00     0.016 A 
ATOM     29  C   UNL A   1      35.298  34.182  28.422  1.00  0.00     0.016 A 
ATOM     30  C   UNL A   1      35.757  32.381  30.526  1.00  0.00     0.010 A 
ATOM     31  C   UNL A   1      36.463  33.405  28.441  1.00  0.00     0.010 A 
ATOM     32  C   UNL A   1      36.726  32.550  29.527  1.00  0.00    -0.014 A 
BRANCH  32  33
ATOM     33  C   UNL A   1      38.083  31.997  29.767  1.00  0.00     0.031 A 
ATOM     34  C   UNL A   1      39.029  32.756  30.661  1.00  0.00     0.074 A 
ATOM     35  C   UNL A   1      38.441  30.793  29.289  1.00  0.00     0.049 A 
ATOM     36  N   UNL A   1      40.194  32.391  31.135  1.00  0.00    -0.248 NA
ATOM     37  C   UNL A   1      38.602  34.100  31.080  1.00  0.00     0.031 C 
ATOM     38  C   UNL A   1      37.620  29.944  28.429  1.00  0.00     0.029 A 
ATOM     39  N   UNL A   1      39.592  30.070  29.484  1.00  0.00    -0.354 N 
ATOM     40  C   UNL A   1      40.629  33.453  31.921  1.00  0.00     0.074 A 
ATOM     41  C   UNL A   1      39.627  34.491  31.822  1.00  0.00     0.031 C 
ATOM     42  C   UNL A   1      38.291  28.806  28.176  1.00  0.00     0.029 A 
ATOM     43  C   UNL A   1      39.587  28.851  28.856  1.00  0.00     0.049 A 
ATOM     44  H   UNL A   1      40.348  30.397  30.022  1.00  0.00     0.167 HD
ATOM     45  C   UNL A   1      41.751  33.554  32.672  1.00  0.00     0.031 A 
ATOM     46  C   UNL A   1      40.513  27.874  28.840  1.00  0.00     0.031 A 
ATOM     47  C   UNL A   1      42.768  32.543  32.761  1.00  0.00     0.049 A 
ATOM     48  C   UNL A   1      41.771  28.020  29.652  1.00  0.00     0.074 A 
ATOM     49  C   UNL A   1      43.942  32.557  33.496  1.00  0.00     0.029 A 
ATOM     50  N   UNL A   1      42.737  31.336  32.081  1.00  0.00    -0.354 N 
ATOM     51  N   UNL A   1      42.145  29.008  30.426  1.00  0.00    -0.248 NA
ATOM     52  C   UNL A   1      42.721  26.899  29.604  1.00  0.00     0.031 C 
ATOM     53  C   UNL A   1      44.639  31.373  33.231  1.00  0.00     0.029 A 
ATOM     54  C   UNL A   1      43.877  30.604  32.365  1.00  0.00     0.049 A 
ATOM     55  H   UNL A   1      42.011  31.042  31.484  1.00  0.00     0.167 HD
ATOM     56  C   UNL A   1      43.361  28.621  30.975  1.00  0.00     0.074 A 
ATOM     57  C   UNL A   1      43.655  27.301  30.456  1.00  0.00     0.031 C 
ATOM     58  C   UNL A   1      44.163  29.296  31.836  1.00  0.00     0.031 A 
BRANCH  45  59
ATOM     59  C   UNL A   1      41.937  34.830  33.443  1.00  0.00    -0.014 A 
ATOM     60  C   UNL A   1      41.248  35.053  34.647  1.00  0.00     0.009 A 
ATOM     61  C   UNL A   1      42.807  35.818  32.962  1.00  0.00     0.009 A 
ATOM     62  C   UNL A   1      41.400  36.260  35.333  1.00  0.00     0.001 A 
ATOM     63  C   UNL A   1      42.974  37.014  33.664  1.00  0.00     0.001 A 
ATOM     64  C   UNL A   1      42.263  37.238  34.842  1.00  0.00     0.000 A 
ENDBRANCH  45  59
BRANCH  46  65
ATOM     65  C   UNL A   1      40.274  26.651  28.033  1.00  0.00    -0.014 A 
ATOM     66  C   UNL A   1      40.812  26.523  26.744  1.00  0.00     0.009 A 
ATOM     67  C   UNL A   1      39.504  25.602  28.559  1.00  0.00     0.009 A 
ATOM     68  C   UNL A   1      40.568  25.373  25.990  1.00  0.00     0.001 A 
ATOM     69  C   UNL A   1      39.279  24.445  27.810  1.00  0.00     0.001 A 
ATOM     70  C   UNL A   1      39.807  24.334  26.525  1.00  0.00     0.000 A 
ENDBRANCH  46  65
BRANCH  58  71
ATOM     71  C   UNL A   1      45.422  28.611  32.286  1.00  0.00    -0.014 A 
ATOM     72  C   UNL A   1      45.434  27.782  33.418  1.00  0.00     0.009 A 
ATOM     73  C   UNL A   1      46.604  28.773  31.547  1.00  0.00     0.009 A 
ATOM     74  C   UNL A   1      46.617  27.158  33.823  1.00  0.00     0.001 A 
ATOM     75  C   UNL A   1      47.779  28.129  31.940  1.00  0.00     0.001 A 
ATOM     76  C   UNL A   1      47.786  27.330  33.083  1.00  0.00     0.000 A 
ENDBRANCH  58  71
ENDBRANCH  32  33
ENDBRANCH  25  27
ENDBRANCH  24  25
ENDBRANCH  23  24
ENDBRANCH  22  23
ENDBRANCH   1  22
TORSDOF 17
ENDMDL
MODEL 2
REMARK VINA RESULT:      -8.2      4.575     10.799
REMARK SMILES CC[C@@H]1CCC[C@@](Cc2ccccn2)(C(=O)OCCOCCOC(=O)c2ccc(-c3c4nc(c(-c5ccccc5)c5ccc([nH]5)c(-c5ccccc5)c5nc(c(-c6ccccc6)c6ccc3[nH]6)C=C5)C=C4)cc2)C1
REMARK SMILES IDX 20 1 19 2 18 3 17 4 15 5 16 6 7 7 3 8 4 9 74 10 5 11 6 12
REMARK SMILES IDX 2 13 1 14 8 15 9 16 10 17 14 18 11 19 13 20 12 21 21 22
REMARK SMILES IDX 22 23 23 24 24 25 25 26 26 27 27 28 73 29 28 30 72 31 29 32
REMARK SMILES IDX 30 33 31 34 66 35 32 36 71 37 65 38 67 39 33 40 70 41 64 42
REMARK SMILES IDX 63 43 34 45 56 46 41 47 55 48 42 49 45 50 54 51 68 52 43 53
REMARK SMILES IDX 44 54 53 56 69 57 46 58 35 59 36 60 40 61 37 62 39 63 38 64
REMARK SMILES IDX 57 65 58 66 62 67 59 68 61 69 60 70 47 71 48 72 52 73 49 74
REMARK SMILES IDX 51 75 50 76
REMARK H PARENT 67 44 45 55
REMARK Flexibility Score: inf
ROOT
ATOM      1  O   UNL A   1      32.165  28.697  25.530  1.00  0.00    -0.374 OA
ENDROOT
BRANCH   1   2
ATOM      2  C   UNL A   1      32.215  27.555  26.381  1.00  0.00     0.202 C 
BRANCH   2   3
ATOM      3  C   UNL A   1      31.198  26.443  26.111  1.00  0.00     0.261 C 
BRANCH   3   4
ATOM      4  O   UNL A   1      31.602  25.475  25.121  1.00  0.00    -0.463 OA
BRANCH   4   5
ATOM      5  C   UNL A   1      32.022  24.279  25.622  1.00  0.00     0.312 C 
ATOM      6  O   UNL A   1      31.425  23.667  26.503  1.00  0.00    -0.252 OA
BRANCH   5   7
ATOM      7  C   UNL A   1      33.378  23.803  25.080  1.00  0.00     0.074 C 
ATOM      8  C   UNL A   1      32.379  22.287  23.250  1.00  0.00    -0.010 C 
ATOM      9  C   UNL A   1      33.125  23.072  22.166  1.00  0.00     0.003 C 
ATOM     10  C   UNL A   1      33.184  22.345  24.562  1.00  0.00     0.022 C 
ATOM     11  C   UNL A   1      33.360  24.519  22.582  1.00  0.00     0.001 C 
ATOM     12  C   UNL A   1      34.011  24.657  23.956  1.00  0.00     0.019 C 
BRANCH   8  13
ATOM     13  C   UNL A   1      32.099  20.852  22.771  1.00  0.00     0.000 C 
ATOM     14  C   UNL A   1      32.555  19.787  23.761  1.00  0.00     0.004 C 
ENDBRANCH   8  13
BRANCH   7  15
ATOM     15  C   UNL A   1      34.317  23.756  26.326  1.00  0.00     0.075 C 
BRANCH  15  16
ATOM     16  C   UNL A   1      35.667  23.120  26.079  1.00  0.00     0.041 A 
ATOM     17  C   UNL A   1      36.841  23.866  26.143  1.00  0.00     0.024 A 
ATOM     18  N   UNL A   1      35.663  21.807  25.745  1.00  0.00    -0.261 NA
ATOM     19  C   UNL A   1      38.048  23.253  25.820  1.00  0.00     0.003 A 
ATOM     20  C   UNL A   1      36.851  21.231  25.460  1.00  0.00     0.111 A 
ATOM     21  C   UNL A   1      38.057  21.909  25.472  1.00  0.00     0.020 A 
ENDBRANCH  15  16
ENDBRANCH   7  15
ENDBRANCH   5   7
ENDBRANCH   4   5
ENDBRANCH   3   4
ENDBRANCH   2   3
ENDBRANCH   1   2
BRANCH   1  22
ATOM     22  C   UNL A   1      32.269  29.977  26.153  1.00  0.00     0.202 C 
BRANCH  22  23
ATOM     23  C   UNL A   1      33.144  30.033  27.408  1.00  0.00     0.261 C 
BRANCH  23  24
ATOM     24  O   UNL A   1      34.163  31.041  27.278  1.00  0.00    -0.460 OA
BRANCH  24  25
ATOM     25  C   UNL A   1      34.850  31.265  28.420  1.00  0.00     0.338 C 
ATOM     26  O   UNL A   1      34.541  32.008  29.335  1.00  0.00    -0.246 OA
BRANCH  25  27
ATOM     27  C   UNL A   1      35.977  30.325  28.521  1.00  0.00     0.060 A 
ATOM     28  C   UNL A   1      36.247  29.776  29.780  1.00  0.00     0.016 A 
ATOM     29  C   UNL A   1      36.861  30.140  27.457  1.00  0.00     0.016 A 
ATOM     30  C   UNL A   1      37.452  29.113  30.002  1.00  0.00     0.010 A 
ATOM     31  C   UNL A   1      38.072  29.473  27.682  1.00  0.00     0.010 A 
ATOM     32  C   UNL A   1      38.398  29.015  28.971  1.00  0.00    -0.014 A 
BRANCH  32  33
ATOM     33  C   UNL A   1      39.789  28.638  29.331  1.00  0.00     0.031 A 
ATOM     34  C   UNL A   1      40.310  27.291  28.903  1.00  0.00     0.074 A 
ATOM     35  C   UNL A   1      40.614  29.509  29.937  1.00  0.00     0.049 A 
ATOM     36  N   UNL A   1      41.529  26.814  28.966  1.00  0.00    -0.248 NA
ATOM     37  C   UNL A   1      39.330  26.361  28.320  1.00  0.00     0.031 C 
ATOM     38  C   UNL A   1      40.248  30.849  30.388  1.00  0.00     0.029 A 
ATOM     39  N   UNL A   1      41.945  29.393  30.254  1.00  0.00    -0.354 N 
ATOM     40  C   UNL A   1      41.463  25.540  28.417  1.00  0.00     0.074 A 
ATOM     41  C   UNL A   1      40.080  25.298  28.069  1.00  0.00     0.031 C 
ATOM     42  C   UNL A   1      41.335  31.438  30.918  1.00  0.00     0.029 A 
ATOM     43  C   UNL A   1      42.469  30.515  30.843  1.00  0.00     0.049 A 
ATOM     44  H   UNL A   1      42.472  28.581  30.076  1.00  0.00     0.167 HD
ATOM     45  C   UNL A   1      42.461  24.650  28.203  1.00  0.00     0.031 A 
ATOM     46  C   UNL A   1      43.721  30.777  31.263  1.00  0.00     0.031 A 
ATOM     47  C   UNL A   1      43.835  24.863  28.566  1.00  0.00     0.049 A 
ATOM     48  C   UNL A   1      44.810  29.762  31.049  1.00  0.00     0.074 A 
ATOM     49  C   UNL A   1      44.918  24.018  28.389  1.00  0.00     0.029 A 
ATOM     50  N   UNL A   1      44.315  26.003  29.191  1.00  0.00    -0.354 N 
ATOM     51  N   UNL A   1      44.742  28.581  30.486  1.00  0.00    -0.248 NA
ATOM     52  C   UNL A   1      46.157  30.132  31.510  1.00  0.00     0.031 C 
ATOM     53  C   UNL A   1      46.047  24.633  28.942  1.00  0.00     0.029 A 
ATOM     54  C   UNL A   1      45.674  25.878  29.423  1.00  0.00     0.049 A 
ATOM     55  H   UNL A   1      43.770  26.786  29.434  1.00  0.00     0.167 HD
ATOM     56  C   UNL A   1      46.036  28.076  30.504  1.00  0.00     0.074 A 
ATOM     57  C   UNL A   1      46.872  29.086  31.121  1.00  0.00     0.031 C 
ATOM     58  C   UNL A   1      46.493  26.884  30.045  1.00  0.00     0.031 A 
BRANCH  45  59
ATOM     59  C   UNL A   1      42.082  23.347  27.558  1.00  0.00    -0.014 A 
ATOM     60  C   UNL A   1      41.389  22.360  28.278  1.00  0.00     0.009 A 
ATOM     61  C   UNL A   1      42.423  23.103  26.221  1.00  0.00     0.009 A 
ATOM     62  C   UNL A   1      41.078  21.137  27.678  1.00  0.00     0.001 A 
ATOM     63  C   UNL A   1      42.090  21.888  25.618  1.00  0.00     0.001 A 
ATOM     64  C   UNL A   1      41.428  20.904  26.349  1.00  0.00     0.000 A 
ENDBRANCH  45  59
BRANCH  46  65
ATOM     65  C   UNL A   1      44.018  32.076  31.916  1.00  0.00    -0.014 A 
ATOM     66  C   UNL A   1      43.803  32.255  33.290  1.00  0.00     0.009 A 
ATOM     67  C   UNL A   1      44.523  33.144  31.159  1.00  0.00     0.009 A 
ATOM     68  C   UNL A   1      44.074  33.487  33.891  1.00  0.00     0.001 A 
ATOM     69  C   UNL A   1      44.812  34.368  31.766  1.00  0.00     0.001 A 
ATOM     70  C   UNL A   1      44.582  34.540  33.130  1.00  0.00     0.000 A 
ENDBRANCH  46  65
BRANCH  58  71
ATOM     71  C   UNL A   1      47.966  26.616  30.176  1.00  0.00    -0.014 A 
ATOM     72  C   UNL A   1      48.483  25.914  31.275  1.00  0.00     0.009 A 
ATOM     73  C   UNL A   1      48.843  27.048  29.169  1.00  0.00     0.009 A 
ATOM     74  C   UNL A   1      49.856  25.680  31.381  1.00  0.00     0.001 A 
ATOM     75  C   UNL A   1      50.213  26.792  29.266  1.00  0.00     0.001 A 
ATOM     76  C   UNL A   1      50.719  26.118  30.376  1.00  0.00     0.000 A 
ENDBRANCH  58  71
ENDBRANCH  32  33
ENDBRANCH  25  27
ENDBRANCH  24  25
ENDBRANCH  23  24
ENDBRANCH  22  23
ENDBRANCH   1  22
TORSDOF 17
ENDMDL
MODEL 3
REMARK VINA RESULT:      -8.0      6.222     12.334
REMARK SMILES CC[C@@H]1CCC[C@@](Cc2ccccn2)(C(=O)OCCOCCOC(=O)c2ccc(-c3c4nc(c(-c5ccccc5)c5ccc([nH]5)c(-c5ccccc5)c5nc(c(-c6ccccc6)c6ccc3[nH]6)C=C5)C=C4)cc2)C1
REMARK SMILES IDX 20 1 19 2 18 3 17 4 15 5 16 6 7 7 3 8 4 9 74 10 5 11 6 12
REMARK SMILES IDX 2 13 1 14 8 15 9 16 10 17 14 18 11 19 13 20 12 21 21 22
REMARK SMILES IDX 22 23 23 24 24 25 25 26 26 27 27 28 73 29 28 30 72 31 29 32
REMARK SMILES IDX 30 33 31 34 66 35 32 36 71 37 65 38 67 39 33 40 70 41 64 42
REMARK SMILES IDX 63 43 34 45 56 46 41 47 55 48 42 49 45 50 54 51 68 52 43 53
REMARK SMILES IDX 44 54 53 56 69 57 46 58 35 59 36 60 40 61 37 62 39 63 38 64
REMARK SMILES IDX 57 65 58 66 62 67 59 68 61 69 60 70 47 71 48 72 52 73 49 74
REMARK SMILES IDX 51 75 50 76
REMARK H PARENT 67 44 45 55
REMARK Flexibility Score: inf
ROOT
ATOM      1  O   UNL A   1      38.545  22.433  26.153  1.00  0.00    -0.374 OA
ENDROOT
BRANCH   1   2
ATOM      2  C   UNL A   1      37.619  23.510  26.275  1.00  0.00     0.202 C 
BRANCH   2   3
ATOM      3  C   UNL A   1      36.640  23.718  25.116  1.00  0.00     0.261 C 
BRANCH   3   4
ATOM      4  O   UNL A   1      35.270  23.372  25.406  1.00  0.00    -0.463 OA
BRANCH   4   5
ATOM      5  C   UNL A   1      34.561  22.891  24.346  1.00  0.00     0.312 C 
ATOM      6  O   UNL A   1      34.839  23.139  23.176  1.00  0.00    -0.252 OA
BRANCH   5   7
ATOM      7  C   UNL A   1      33.301  22.100  24.730  1.00  0.00     0.074 C 
ATOM      8  C   UNL A   1      31.703  24.116  24.574  1.00  0.00    -0.010 C 
ATOM      9  C   UNL A   1      30.863  23.392  23.517  1.00  0.00     0.003 C 
ATOM     10  C   UNL A   1      32.358  23.075  25.500  1.00  0.00     0.022 C 
ATOM     11  C   UNL A   1      31.703  22.414  22.706  1.00  0.00     0.001 C 
ATOM     12  C   UNL A   1      32.513  21.450  23.568  1.00  0.00     0.019 C 
BRANCH   8  13
ATOM     13  C   UNL A   1      30.840  25.144  25.328  1.00  0.00     0.000 C 
ATOM     14  C   UNL A   1      30.223  26.197  24.416  1.00  0.00     0.004 C 
ENDBRANCH   8  13
BRANCH   7  15
ATOM     15  C   UNL A   1      33.798  21.011  25.732  1.00  0.00     0.075 C 
BRANCH  15  16
ATOM     16  C   UNL A   1      33.660  19.587  25.240  1.00  0.00     0.041 A 
ATOM     17  C   UNL A   1      34.700  18.950  24.567  1.00  0.00     0.024 A 
ATOM     18  N   UNL A   1      32.461  18.992  25.445  1.00  0.00    -0.261 NA
ATOM     19  C   UNL A   1      34.490  17.672  24.057  1.00  0.00     0.003 A 
ATOM     20  C   UNL A   1      32.293  17.742  24.960  1.00  0.00     0.111 A 
ATOM     21  C   UNL A   1      33.264  17.052  24.256  1.00  0.00     0.020 A 
ENDBRANCH  15  16
ENDBRANCH   7  15
ENDBRANCH   5   7
ENDBRANCH   4   5
ENDBRANCH   3   4
ENDBRANCH   2   3
ENDBRANCH   1   2
BRANCH   1  22
ATOM     22  C   UNL A   1      38.196  21.375  25.261  1.00  0.00     0.202 C 
BRANCH  22  23
ATOM     23  C   UNL A   1      39.050  20.109  25.369  1.00  0.00     0.261 C 
BRANCH  23  24
ATOM     24  O   UNL A   1      39.970  20.204  26.473  1.00  0.00    -0.460 OA
BRANCH  24  25
ATOM     25  C   UNL A   1      41.266  20.088  26.107  1.00  0.00     0.338 C 
ATOM     26  O   UNL A   1      41.747  19.274  25.337  1.00  0.00    -0.246 OA
BRANCH  25  27
ATOM     27  C   UNL A   1      42.038  21.228  26.625  1.00  0.00     0.060 A 
ATOM     28  C   UNL A   1      42.138  21.360  28.015  1.00  0.00     0.016 A 
ATOM     29  C   UNL A   1      42.485  22.243  25.777  1.00  0.00     0.016 A 
ATOM     30  C   UNL A   1      42.604  22.553  28.565  1.00  0.00     0.010 A 
ATOM     31  C   UNL A   1      42.954  23.440  26.332  1.00  0.00     0.010 A 
ATOM     32  C   UNL A   1      42.953  23.622  27.727  1.00  0.00    -0.014 A 
BRANCH  32  33
ATOM     33  C   UNL A   1      43.091  24.970  28.333  1.00  0.00     0.031 A 
ATOM     34  C   UNL A   1      44.467  25.464  28.700  1.00  0.00     0.074 A 
ATOM     35  C   UNL A   1      42.034  25.789  28.464  1.00  0.00     0.049 A 
ATOM     36  N   UNL A   1      44.843  26.656  29.092  1.00  0.00    -0.248 NA
ATOM     37  C   UNL A   1      45.563  24.487  28.607  1.00  0.00     0.031 C 
ATOM     38  C   UNL A   1      40.653  25.449  28.132  1.00  0.00     0.029 A 
ATOM     39  N   UNL A   1      41.971  27.091  28.895  1.00  0.00    -0.354 N 
ATOM     40  C   UNL A   1      46.219  26.574  29.274  1.00  0.00     0.074 A 
ATOM     41  C   UNL A   1      46.604  25.208  28.997  1.00  0.00     0.031 C 
ATOM     42  C   UNL A   1      39.875  26.522  28.363  1.00  0.00     0.029 A 
ATOM     43  C   UNL A   1      40.706  27.620  28.860  1.00  0.00     0.049 A 
ATOM     44  H   UNL A   1      42.759  27.596  29.201  1.00  0.00     0.167 HD
ATOM     45  C   UNL A   1      47.092  27.548  29.625  1.00  0.00     0.031 A 
ATOM     46  C   UNL A   1      40.266  28.852  29.178  1.00  0.00     0.031 A 
ATOM     47  C   UNL A   1      46.724  28.904  29.929  1.00  0.00     0.049 A 
ATOM     48  C   UNL A   1      41.247  29.912  29.601  1.00  0.00     0.074 A 
ATOM     49  C   UNL A   1      47.540  29.961  30.295  1.00  0.00     0.029 A 
ATOM     50  N   UNL A   1      45.425  29.387  29.912  1.00  0.00    -0.354 N 
ATOM     51  N   UNL A   1      42.549  29.833  29.722  1.00  0.00    -0.248 NA
ATOM     52  C   UNL A   1      40.694  31.240  29.905  1.00  0.00     0.031 C 
ATOM     53  C   UNL A   1      46.729  31.076  30.536  1.00  0.00     0.029 A 
ATOM     54  C   UNL A   1      45.414  30.723  30.277  1.00  0.00     0.049 A 
ATOM     55  H   UNL A   1      44.628  28.860  29.675  1.00  0.00     0.167 HD
ATOM     56  C   UNL A   1      42.974  31.102  30.096  1.00  0.00     0.074 A 
ATOM     57  C   UNL A   1      41.791  31.936  30.166  1.00  0.00     0.031 C 
ATOM     58  C   UNL A   1      44.232  31.539  30.352  1.00  0.00     0.031 A 
BRANCH  45  59
ATOM     59  C   UNL A   1      48.540  27.160  29.716  1.00  0.00    -0.014 A 
ATOM     60  C   UNL A   1      49.415  27.373  28.638  1.00  0.00     0.009 A 
ATOM     61  C   UNL A   1      49.035  26.574  30.890  1.00  0.00     0.009 A 
ATOM     62  C   UNL A   1      50.749  26.970  28.722  1.00  0.00     0.001 A 
ATOM     63  C   UNL A   1      50.376  26.194  30.979  1.00  0.00     0.001 A 
ATOM     64  C   UNL A   1      51.229  26.382  29.892  1.00  0.00     0.000 A 
ENDBRANCH  45  59
BRANCH  46  65
ATOM     65  C   UNL A   1      38.817  29.158  29.090  1.00  0.00    -0.014 A 
ATOM     66  C   UNL A   1      38.240  29.559  27.876  1.00  0.00     0.009 A 
ATOM     67  C   UNL A   1      38.004  29.046  30.228  1.00  0.00     0.009 A 
ATOM     68  C   UNL A   1      36.877  29.858  27.809  1.00  0.00     0.001 A 
ATOM     69  C   UNL A   1      36.638  29.325  30.152  1.00  0.00     0.001 A 
ATOM     70  C   UNL A   1      36.077  29.736  28.944  1.00  0.00     0.000 A 
ENDBRANCH  46  65
BRANCH  58  71
ATOM     71  C   UNL A   1      44.395  32.989  30.713  1.00  0.00    -0.014 A 
ATOM     72  C   UNL A   1      44.583  33.968  29.726  1.00  0.00     0.009 A 
ATOM     73  C   UNL A   1      44.328  33.382  32.059  1.00  0.00     0.009 A 
ATOM     74  C   UNL A   1      44.739  35.310  30.083  1.00  0.00     0.001 A 
ATOM     75  C   UNL A   1      44.461  34.727  32.411  1.00  0.00     0.001 A 
ATOM     76  C   UNL A   1      44.675  35.688  31.424  1.00  0.00     0.000 A 
ENDBRANCH  58  71
ENDBRANCH  32  33
ENDBRANCH  25  27
ENDBRANCH  24  25
ENDBRANCH  23  24
ENDBRANCH  22  23
ENDBRANCH   1  22
TORSDOF 17
ENDMDL
