MODEL 1
REMARK VINA RESULT:      -9.0      0.000      0.000
REMARK SMILES O=C(Cc1ccc(NC(=O)c2ccc(N3C(=O)c4ccccc4C3=O)cc2)cc1)OCCOCCOC(=O)c1ccc(-c2c3nc(c(-c4ccccc4)c4ccc([nH]4)c(-c4ccccc4)c4nc(c(-c5ccccc5)c5ccc2[nH]5)C=C4)C=C3)cc1
REMARK SMILES IDX 32 1 31 2 30 3 2 4 1 5 3 6 4 7 5 8 29 9 6 10 28 11 7 12 8 13
REMARK SMILES IDX 9 14 10 16 11 17 12 18 27 19 13 20 26 21 14 22 15 23 16 24
REMARK SMILES IDX 24 25 17 26 18 27 23 28 25 29 19 30 22 31 20 32 21 33 33 34
REMARK SMILES IDX 34 35 35 36 36 37 37 38 38 39 39 40 40 41 86 42 41 43 85 44
REMARK SMILES IDX 42 45 43 46 44 47 79 48 45 49 84 50 78 51 80 52 46 53 83 54
REMARK SMILES IDX 77 55 76 56 47 58 69 59 54 60 68 61 55 62 58 63 67 64 81 65
REMARK SMILES IDX 56 66 57 67 66 69 82 70 59 71 48 72 49 73 53 74 50 75 52 76
REMARK SMILES IDX 51 77 70 78 71 79 75 80 72 81 74 82 73 83 60 84 61 85 65 86
REMARK SMILES IDX 62 87 64 88 63 89
REMARK H PARENT 8 15 80 57 58 68
REMARK Flexibility Score: inf
ROOT
ATOM      1  C   UNL A   1      36.722  33.548  31.611  1.00  0.00     0.202 C 
ENDROOT
BRANCH   1   2
ATOM      2  C   UNL A   1      36.749  32.729  30.320  1.00  0.00     0.261 C 
BRANCH   2   3
ATOM      3  O   UNL A   1      35.869  31.598  30.280  1.00  0.00    -0.463 OA
BRANCH   3   4
ATOM      4  C   UNL A   1      36.185  30.320  30.598  1.00  0.00     0.310 C 
ATOM      5  O   UNL A   1      36.235  30.002  31.788  1.00  0.00    -0.252 OA
BRANCH   4   6
ATOM      6  C   UNL A   1      36.601  29.327  29.536  1.00  0.00     0.158 C 
BRANCH   6   7
ATOM      7  C   UNL A   1      38.063  28.997  29.463  1.00  0.00    -0.037 A 
ATOM      8  C   UNL A   1      38.578  27.958  30.245  1.00  0.00     0.006 A 
ATOM      9  C   UNL A   1      38.939  29.763  28.688  1.00  0.00     0.006 A 
ATOM     10  C   UNL A   1      39.950  27.725  30.281  1.00  0.00     0.026 A 
ATOM     11  C   UNL A   1      40.307  29.471  28.676  1.00  0.00     0.026 A 
ATOM     12  C   UNL A   1      40.817  28.415  29.435  1.00  0.00     0.041 A 
BRANCH  12  13
ATOM     13  N   UNL A   1      42.184  28.108  29.284  1.00  0.00    -0.322 N 
ATOM     14  C   UNL A   1      42.829  27.023  28.721  1.00  0.00     0.255 C 
ATOM     15  H   UNL A   1      42.792  28.793  29.645  1.00  0.00     0.170 HD
ATOM     16  O   UNL A   1      44.047  26.905  28.831  1.00  0.00    -0.269 OA
BRANCH  14  17
ATOM     17  C   UNL A   1      42.084  26.003  27.953  1.00  0.00     0.040 A 
ATOM     18  C   UNL A   1      42.130  24.677  28.375  1.00  0.00     0.016 A 
ATOM     19  C   UNL A   1      41.269  26.358  26.879  1.00  0.00     0.016 A 
ATOM     20  C   UNL A   1      41.251  23.738  27.815  1.00  0.00     0.028 A 
ATOM     21  C   UNL A   1      40.379  25.419  26.345  1.00  0.00     0.028 A 
ATOM     22  C   UNL A   1      40.314  24.099  26.830  1.00  0.00     0.052 A 
BRANCH  22  23
ATOM     23  N   UNL A   1      39.321  23.182  26.359  1.00  0.00    -0.242 N 
ATOM     24  C   UNL A   1      39.558  21.863  26.026  1.00  0.00     0.266 C 
ATOM     25  C   UNL A   1      37.993  23.498  26.119  1.00  0.00     0.266 C 
ATOM     26  O   UNL A   1      40.574  21.186  26.020  1.00  0.00    -0.268 OA
ATOM     27  C   UNL A   1      38.291  21.285  25.601  1.00  0.00     0.053 A 
ATOM     28  C   UNL A   1      37.340  22.278  25.648  1.00  0.00     0.053 A 
ATOM     29  O   UNL A   1      37.373  24.536  26.218  1.00  0.00    -0.268 OA
ATOM     30  C   UNL A   1      37.991  19.994  25.207  1.00  0.00     0.015 A 
ATOM     31  C   UNL A   1      36.025  22.041  25.290  1.00  0.00     0.015 A 
ATOM     32  C   UNL A   1      36.667  19.725  24.853  1.00  0.00     0.001 A 
ATOM     33  C   UNL A   1      35.692  20.742  24.889  1.00  0.00     0.001 A 
ENDBRANCH  22  23
ENDBRANCH  14  17
ENDBRANCH  12  13
ENDBRANCH   6   7
ENDBRANCH   4   6
ENDBRANCH   3   4
ENDBRANCH   2   3
ENDBRANCH   1   2
BRANCH   1  34
ATOM     34  O   UNL A   1      35.476  33.763  32.262  1.00  0.00    -0.374 OA
BRANCH  34  35
ATOM     35  C   UNL A   1      35.493  34.467  33.509  1.00  0.00     0.202 C 
BRANCH  35  36
ATOM     36  C   UNL A   1      35.823  33.670  34.775  1.00  0.00     0.261 C 
BRANCH  36  37
ATOM     37  O   UNL A   1      37.210  33.779  35.127  1.00  0.00    -0.460 OA
BRANCH  37  38
ATOM     38  C   UNL A   1      37.795  32.610  35.480  1.00  0.00     0.338 C 
ATOM     39  O   UNL A   1      37.419  31.824  36.332  1.00  0.00    -0.246 OA
BRANCH  38  40
ATOM     40  C   UNL A   1      38.871  32.289  34.522  1.00  0.00     0.060 A 
ATOM     41  C   UNL A   1      38.602  31.297  33.570  1.00  0.00     0.016 A 
ATOM     42  C   UNL A   1      40.125  32.898  34.586  1.00  0.00     0.016 A 
ATOM     43  C   UNL A   1      39.620  30.832  32.746  1.00  0.00     0.010 A 
ATOM     44  C   UNL A   1      41.150  32.429  33.761  1.00  0.00     0.010 A 
ATOM     45  C   UNL A   1      40.913  31.351  32.888  1.00  0.00    -0.014 A 
BRANCH  45  46
ATOM     46  C   UNL A   1      42.045  30.599  32.306  1.00  0.00     0.031 A 
ATOM     47  C   UNL A   1      42.697  31.146  31.064  1.00  0.00     0.074 A 
ATOM     48  C   UNL A   1      42.525  29.497  32.906  1.00  0.00     0.049 A 
ATOM     49  N   UNL A   1      43.720  30.686  30.392  1.00  0.00    -0.248 NA
ATOM     50  C   UNL A   1      42.115  32.379  30.504  1.00  0.00     0.031 C 
ATOM     51  C   UNL A   1      42.006  28.911  34.139  1.00  0.00     0.029 A 
ATOM     52  N   UNL A   1      43.570  28.684  32.555  1.00  0.00    -0.354 N 
ATOM     53  C   UNL A   1      43.891  31.562  29.325  1.00  0.00     0.074 A 
ATOM     54  C   UNL A   1      42.851  32.560  29.419  1.00  0.00     0.031 C 
ATOM     55  C   UNL A   1      42.744  27.831  34.450  1.00  0.00     0.029 A 
ATOM     56  C   UNL A   1      43.763  27.637  33.421  1.00  0.00     0.049 A 
ATOM     57  H   UNL A   1      44.128  28.834  31.758  1.00  0.00     0.167 HD
ATOM     58  C   UNL A   1      44.836  31.541  28.355  1.00  0.00     0.031 A 
ATOM     59  C   UNL A   1      44.660  26.635  33.378  1.00  0.00     0.031 A 
ATOM     60  C   UNL A   1      45.866  30.541  28.265  1.00  0.00     0.049 A 
ATOM     61  C   UNL A   1      45.658  26.595  32.252  1.00  0.00     0.074 A 
ATOM     62  C   UNL A   1      46.887  30.436  27.339  1.00  0.00     0.029 A 
ATOM     63  N   UNL A   1      45.997  29.468  29.133  1.00  0.00    -0.354 N 
ATOM     64  N   UNL A   1      45.831  27.443  31.266  1.00  0.00    -0.248 NA
ATOM     65  C   UNL A   1      46.596  25.464  32.244  1.00  0.00     0.031 C 
ATOM     66  C   UNL A   1      47.600  29.263  27.609  1.00  0.00     0.029 A 
ATOM     67  C   UNL A   1      47.064  28.676  28.747  1.00  0.00     0.049 A 
ATOM     68  H   UNL A   1      45.417  29.294  29.909  1.00  0.00     0.167 HD
ATOM     69  C   UNL A   1      46.918  26.969  30.543  1.00  0.00     0.074 A 
ATOM     70  C   UNL A   1      47.371  25.767  31.212  1.00  0.00     0.031 C 
ATOM     71  C   UNL A   1      47.495  27.483  29.428  1.00  0.00     0.031 A 
BRANCH  58  72
ATOM     72  C   UNL A   1      44.763  32.603  27.293  1.00  0.00    -0.014 A 
ATOM     73  C   UNL A   1      45.314  33.880  27.487  1.00  0.00     0.009 A 
ATOM     74  C   UNL A   1      44.137  32.315  26.071  1.00  0.00     0.009 A 
ATOM     75  C   UNL A   1      45.205  34.857  26.494  1.00  0.00     0.001 A 
ATOM     76  C   UNL A   1      44.057  33.283  25.068  1.00  0.00     0.001 A 
ATOM     77  C   UNL A   1      44.581  34.556  25.284  1.00  0.00     0.000 A 
ENDBRANCH  58  72
BRANCH  59  78
ATOM     78  C   UNL A   1      44.661  25.587  34.433  1.00  0.00    -0.014 A 
ATOM     79  C   UNL A   1      45.491  25.706  35.558  1.00  0.00     0.009 A 
ATOM     80  C   UNL A   1      43.841  24.455  34.312  1.00  0.00     0.009 A 
ATOM     81  C   UNL A   1      45.520  24.700  36.526  1.00  0.00     0.001 A 
ATOM     82  C   UNL A   1      43.850  23.465  35.298  1.00  0.00     0.001 A 
ATOM     83  C   UNL A   1      44.697  23.583  36.398  1.00  0.00     0.000 A 
ENDBRANCH  59  78
BRANCH  71  84
ATOM     84  C   UNL A   1      48.710  26.772  28.895  1.00  0.00    -0.014 A 
ATOM     85  C   UNL A   1      48.615  25.832  27.858  1.00  0.00     0.009 A 
ATOM     86  C   UNL A   1      49.974  27.073  29.427  1.00  0.00     0.009 A 
ATOM     87  C   UNL A   1      49.757  25.174  27.396  1.00  0.00     0.001 A 
ATOM     88  C   UNL A   1      51.117  26.440  28.940  1.00  0.00     0.001 A 
ATOM     89  C   UNL A   1      51.007  25.482  27.934  1.00  0.00     0.000 A 
ENDBRANCH  71  84
ENDBRANCH  45  46
ENDBRANCH  38  40
ENDBRANCH  37  38
ENDBRANCH  36  37
ENDBRANCH  35  36
ENDBRANCH  34  35
ENDBRANCH   1  34
TORSDOF 18
ENDMDL
MODEL 2
REMARK VINA RESULT:      -9.0      3.712      6.226
REMARK SMILES O=C(Cc1ccc(NC(=O)c2ccc(N3C(=O)c4ccccc4C3=O)cc2)cc1)OCCOCCOC(=O)c1ccc(-c2c3nc(c(-c4ccccc4)c4ccc([nH]4)c(-c4ccccc4)c4nc(c(-c5ccccc5)c5ccc2[nH]5)C=C4)C=C3)cc1
REMARK SMILES IDX 32 1 31 2 30 3 2 4 1 5 3 6 4 7 5 8 29 9 6 10 28 11 7 12 8 13
REMARK SMILES IDX 9 14 10 16 11 17 12 18 27 19 13 20 26 21 14 22 15 23 16 24
REMARK SMILES IDX 24 25 17 26 18 27 23 28 25 29 19 30 22 31 20 32 21 33 33 34
REMARK SMILES IDX 34 35 35 36 36 37 37 38 38 39 39 40 40 41 86 42 41 43 85 44
REMARK SMILES IDX 42 45 43 46 44 47 79 48 45 49 84 50 78 51 80 52 46 53 83 54
REMARK SMILES IDX 77 55 76 56 47 58 69 59 54 60 68 61 55 62 58 63 67 64 81 65
REMARK SMILES IDX 56 66 57 67 66 69 82 70 59 71 48 72 49 73 53 74 50 75 52 76
REMARK SMILES IDX 51 77 70 78 71 79 75 80 72 81 74 82 73 83 60 84 61 85 65 86
REMARK SMILES IDX 62 87 64 88 63 89
REMARK H PARENT 8 15 80 57 58 68
REMARK Flexibility Score: inf
ROOT
ATOM      1  C   UNL A   1      35.228  34.303  28.937  1.00  0.00     0.202 C 
ENDROOT
BRANCH   1   2
ATOM      2  C   UNL A   1      34.178  33.359  28.350  1.00  0.00     0.261 C 
BRANCH   2   3
ATOM      3  O   UNL A   1      34.298  31.981  28.727  1.00  0.00    -0.463 OA
BRANCH   3   4
ATOM      4  C   UNL A   1      35.101  31.055  28.151  1.00  0.00     0.310 C 
ATOM      5  O   UNL A   1      36.174  31.422  27.668  1.00  0.00    -0.252 OA
BRANCH   4   6
ATOM      6  C   UNL A   1      34.648  29.623  27.975  1.00  0.00     0.158 C 
BRANCH   6   7
ATOM      7  C   UNL A   1      33.764  29.340  26.795  1.00  0.00    -0.037 A 
ATOM      8  C   UNL A   1      32.376  29.313  26.961  1.00  0.00     0.006 A 
ATOM      9  C   UNL A   1      34.306  29.020  25.547  1.00  0.00     0.006 A 
ATOM     10  C   UNL A   1      31.554  28.929  25.906  1.00  0.00     0.026 A 
ATOM     11  C   UNL A   1      33.466  28.707  24.474  1.00  0.00     0.026 A 
ATOM     12  C   UNL A   1      32.077  28.708  24.632  1.00  0.00     0.041 A 
BRANCH  12  13
ATOM     13  N   UNL A   1      31.292  28.497  23.481  1.00  0.00    -0.322 N 
ATOM     14  C   UNL A   1      31.029  27.361  22.740  1.00  0.00     0.255 C 
ATOM     15  H   UNL A   1      30.849  29.309  23.143  1.00  0.00     0.170 HD
ATOM     16  O   UNL A   1      30.419  27.447  21.676  1.00  0.00    -0.269 OA
BRANCH  14  17
ATOM     17  C   UNL A   1      31.441  26.024  23.216  1.00  0.00     0.040 A 
ATOM     18  C   UNL A   1      30.510  25.233  23.885  1.00  0.00     0.016 A 
ATOM     19  C   UNL A   1      32.703  25.510  22.926  1.00  0.00     0.016 A 
ATOM     20  C   UNL A   1      30.797  23.882  24.134  1.00  0.00     0.028 A 
ATOM     21  C   UNL A   1      32.968  24.154  23.156  1.00  0.00     0.028 A 
ATOM     22  C   UNL A   1      32.007  23.296  23.722  1.00  0.00     0.052 A 
BRANCH  22  23
ATOM     23  N   UNL A   1      32.246  21.890  23.844  1.00  0.00    -0.242 N 
ATOM     24  C   UNL A   1      32.664  21.256  24.997  1.00  0.00     0.266 C 
ATOM     25  C   UNL A   1      32.145  20.971  22.811  1.00  0.00     0.266 C 
ATOM     26  O   UNL A   1      32.937  21.673  26.111  1.00  0.00    -0.268 OA
ATOM     27  C   UNL A   1      32.782  19.836  24.697  1.00  0.00     0.053 A 
ATOM     28  C   UNL A   1      32.476  19.661  23.368  1.00  0.00     0.053 A 
ATOM     29  O   UNL A   1      31.868  21.095  21.636  1.00  0.00    -0.268 OA
ATOM     30  C   UNL A   1      33.126  18.780  25.520  1.00  0.00     0.015 A 
ATOM     31  C   UNL A   1      32.508  18.412  22.774  1.00  0.00     0.015 A 
ATOM     32  C   UNL A   1      33.153  17.506  24.949  1.00  0.00     0.001 A 
ATOM     33  C   UNL A   1      32.850  17.324  23.585  1.00  0.00     0.001 A 
ENDBRANCH  22  23
ENDBRANCH  14  17
ENDBRANCH  12  13
ENDBRANCH   6   7
ENDBRANCH   4   6
ENDBRANCH   3   4
ENDBRANCH   2   3
ENDBRANCH   1   2
BRANCH   1  34
ATOM     34  O   UNL A   1      35.195  34.583  30.331  1.00  0.00    -0.374 OA
BRANCH  34  35
ATOM     35  C   UNL A   1      34.303  33.808  31.141  1.00  0.00     0.202 C 
BRANCH  35  36
ATOM     36  C   UNL A   1      34.913  32.761  32.077  1.00  0.00     0.261 C 
BRANCH  36  37
ATOM     37  O   UNL A   1      36.129  32.214  31.543  1.00  0.00    -0.460 OA
BRANCH  37  38
ATOM     38  C   UNL A   1      36.782  31.373  32.379  1.00  0.00     0.338 C 
ATOM     39  O   UNL A   1      36.548  31.175  33.559  1.00  0.00    -0.246 OA
BRANCH  38  40
ATOM     40  C   UNL A   1      37.716  30.534  31.603  1.00  0.00     0.060 A 
ATOM     41  C   UNL A   1      38.866  30.080  32.265  1.00  0.00     0.016 A 
ATOM     42  C   UNL A   1      37.507  30.244  30.254  1.00  0.00     0.016 A 
ATOM     43  C   UNL A   1      39.863  29.426  31.553  1.00  0.00     0.010 A 
ATOM     44  C   UNL A   1      38.510  29.589  29.537  1.00  0.00     0.010 A 
ATOM     45  C   UNL A   1      39.716  29.240  30.173  1.00  0.00    -0.014 A 
BRANCH  45  46
ATOM     46  C   UNL A   1      40.914  28.910  29.371  1.00  0.00     0.031 A 
ATOM     47  C   UNL A   1      41.922  29.999  29.119  1.00  0.00     0.074 A 
ATOM     48  C   UNL A   1      41.132  27.657  28.938  1.00  0.00     0.049 A 
ATOM     49  N   UNL A   1      43.059  29.945  28.476  1.00  0.00    -0.248 NA
ATOM     50  C   UNL A   1      41.603  31.330  29.666  1.00  0.00     0.031 C 
ATOM     51  C   UNL A   1      40.251  26.515  29.171  1.00  0.00     0.029 A 
ATOM     52  N   UNL A   1      42.177  27.141  28.219  1.00  0.00    -0.354 N 
ATOM     53  C   UNL A   1      43.580  31.234  28.527  1.00  0.00     0.074 A 
ATOM     54  C   UNL A   1      42.623  32.054  29.234  1.00  0.00     0.031 C 
ATOM     55  C   UNL A   1      40.799  25.423  28.611  1.00  0.00     0.029 A 
ATOM     56  C   UNL A   1      42.051  25.800  27.956  1.00  0.00     0.049 A 
ATOM     57  H   UNL A   1      42.944  27.679  27.918  1.00  0.00     0.167 HD
ATOM     58  C   UNL A   1      44.754  31.693  28.035  1.00  0.00     0.031 A 
ATOM     59  C   UNL A   1      42.855  24.976  27.259  1.00  0.00     0.031 A 
ATOM     60  C   UNL A   1      45.700  30.872  27.328  1.00  0.00     0.049 A 
ATOM     61  C   UNL A   1      44.123  25.525  26.664  1.00  0.00     0.074 A 
ATOM     62  C   UNL A   1      46.930  31.226  26.806  1.00  0.00     0.029 A 
ATOM     63  N   UNL A   1      45.512  29.529  27.038  1.00  0.00    -0.354 N 
ATOM     64  N   UNL A   1      44.621  26.737  26.743  1.00  0.00    -0.248 NA
ATOM     65  C   UNL A   1      44.949  24.585  25.892  1.00  0.00     0.031 C 
ATOM     66  C   UNL A   1      47.459  30.113  26.145  1.00  0.00     0.029 A 
ATOM     67  C   UNL A   1      46.589  29.046  26.317  1.00  0.00     0.049 A 
ATOM     68  H   UNL A   1      44.727  28.997  27.305  1.00  0.00     0.167 HD
ATOM     69  C   UNL A   1      45.833  26.695  26.065  1.00  0.00     0.074 A 
ATOM     70  C   UNL A   1      46.000  25.336  25.594  1.00  0.00     0.031 C 
ATOM     71  C   UNL A   1      46.732  27.689  25.856  1.00  0.00     0.031 A 
BRANCH  58  72
ATOM     72  C   UNL A   1      45.052  33.157  28.205  1.00  0.00    -0.014 A 
ATOM     73  C   UNL A   1      45.772  33.641  29.309  1.00  0.00     0.009 A 
ATOM     74  C   UNL A   1      44.609  34.069  27.234  1.00  0.00     0.009 A 
ATOM     75  C   UNL A   1      46.008  35.010  29.456  1.00  0.00     0.001 A 
ATOM     76  C   UNL A   1      44.874  35.433  27.367  1.00  0.00     0.001 A 
ATOM     77  C   UNL A   1      45.563  35.904  28.483  1.00  0.00     0.000 A 
ENDBRANCH  58  72
BRANCH  59  78
ATOM     78  C   UNL A   1      42.491  23.544  27.088  1.00  0.00    -0.014 A 
ATOM     79  C   UNL A   1      42.520  22.663  28.179  1.00  0.00     0.009 A 
ATOM     80  C   UNL A   1      42.127  23.049  25.827  1.00  0.00     0.009 A 
ATOM     81  C   UNL A   1      42.219  21.311  28.006  1.00  0.00     0.001 A 
ATOM     82  C   UNL A   1      41.795  21.702  25.662  1.00  0.00     0.001 A 
ATOM     83  C   UNL A   1      41.852  20.833  26.750  1.00  0.00     0.000 A 
ENDBRANCH  59  78
BRANCH  71  84
ATOM     84  C   UNL A   1      47.997  27.327  25.127  1.00  0.00    -0.014 A 
ATOM     85  C   UNL A   1      49.122  26.836  25.806  1.00  0.00     0.009 A 
ATOM     86  C   UNL A   1      48.048  27.455  23.729  1.00  0.00     0.009 A 
ATOM     87  C   UNL A   1      50.289  26.525  25.105  1.00  0.00     0.001 A 
ATOM     88  C   UNL A   1      49.203  27.110  23.028  1.00  0.00     0.001 A 
ATOM     89  C   UNL A   1      50.327  26.657  23.716  1.00  0.00     0.000 A 
ENDBRANCH  71  84
ENDBRANCH  45  46
ENDBRANCH  38  40
ENDBRANCH  37  38
ENDBRANCH  36  37
ENDBRANCH  35  36
ENDBRANCH  34  35
ENDBRANCH   1  34
TORSDOF 18
ENDMDL
MODEL 3
REMARK VINA RESULT:      -9.0      3.039      7.276
REMARK SMILES O=C(Cc1ccc(NC(=O)c2ccc(N3C(=O)c4ccccc4C3=O)cc2)cc1)OCCOCCOC(=O)c1ccc(-c2c3nc(c(-c4ccccc4)c4ccc([nH]4)c(-c4ccccc4)c4nc(c(-c5ccccc5)c5ccc2[nH]5)C=C4)C=C3)cc1
REMARK SMILES IDX 32 1 31 2 30 3 2 4 1 5 3 6 4 7 5 8 29 9 6 10 28 11 7 12 8 13
REMARK SMILES IDX 9 14 10 16 11 17 12 18 27 19 13 20 26 21 14 22 15 23 16 24
REMARK SMILES IDX 24 25 17 26 18 27 23 28 25 29 19 30 22 31 20 32 21 33 33 34
REMARK SMILES IDX 34 35 35 36 36 37 37 38 38 39 39 40 40 41 86 42 41 43 85 44
REMARK SMILES IDX 42 45 43 46 44 47 79 48 45 49 84 50 78 51 80 52 46 53 83 54
REMARK SMILES IDX 77 55 76 56 47 58 69 59 54 60 68 61 55 62 58 63 67 64 81 65
REMARK SMILES IDX 56 66 57 67 66 69 82 70 59 71 48 72 49 73 53 74 50 75 52 76
REMARK SMILES IDX 51 77 70 78 71 79 75 80 72 81 74 82 73 83 60 84 61 85 65 86
REMARK SMILES IDX 62 87 64 88 63 89
REMARK H PARENT 8 15 80 57 58 68
REMARK Flexibility Score: inf
ROOT
ATOM      1  C   UNL A   1      35.644  33.685  29.766  1.00  0.00     0.202 C 
ENDROOT
BRANCH   1   2
ATOM      2  C   UNL A   1      36.524  32.754  30.602  1.00  0.00     0.261 C 
BRANCH   2   3
ATOM      3  O   UNL A   1      37.938  32.959  30.483  1.00  0.00    -0.463 OA
BRANCH   3   4
ATOM      4  C   UNL A   1      38.585  34.148  30.512  1.00  0.00     0.310 C 
ATOM      5  O   UNL A   1      38.677  34.744  31.587  1.00  0.00    -0.252 OA
BRANCH   4   6
ATOM      6  C   UNL A   1      39.071  34.809  29.242  1.00  0.00     0.158 C 
BRANCH   6   7
ATOM      7  C   UNL A   1      40.554  35.002  29.112  1.00  0.00    -0.037 A 
ATOM      8  C   UNL A   1      41.094  35.411  27.889  1.00  0.00     0.006 A 
ATOM      9  C   UNL A   1      41.417  34.702  30.170  1.00  0.00     0.006 A 
ATOM     10  C   UNL A   1      42.475  35.471  27.720  1.00  0.00     0.026 A 
ATOM     11  C   UNL A   1      42.800  34.838  30.011  1.00  0.00     0.026 A 
ATOM     12  C   UNL A   1      43.338  35.273  28.796  1.00  0.00     0.041 A 
BRANCH  12  13
ATOM     13  N   UNL A   1      44.729  35.497  28.746  1.00  0.00    -0.322 N 
ATOM     14  C   UNL A   1      45.798  34.631  28.625  1.00  0.00     0.255 C 
ATOM     15  H   UNL A   1      44.985  36.446  28.806  1.00  0.00     0.170 HD
ATOM     16  O   UNL A   1      46.947  35.050  28.748  1.00  0.00    -0.269 OA
BRANCH  14  17
ATOM     17  C   UNL A   1      45.594  33.200  28.317  1.00  0.00     0.040 A 
ATOM     18  C   UNL A   1      44.809  32.854  27.220  1.00  0.00     0.016 A 
ATOM     19  C   UNL A   1      46.243  32.203  29.044  1.00  0.00     0.016 A 
ATOM     20  C   UNL A   1      44.794  31.526  26.767  1.00  0.00     0.028 A 
ATOM     21  C   UNL A   1      46.242  30.887  28.568  1.00  0.00     0.028 A 
ATOM     22  C   UNL A   1      45.556  30.523  27.394  1.00  0.00     0.052 A 
BRANCH  22  23
ATOM     23  N   UNL A   1      45.658  29.202  26.852  1.00  0.00    -0.242 N 
ATOM     24  C   UNL A   1      46.842  28.570  26.527  1.00  0.00     0.266 C 
ATOM     25  C   UNL A   1      44.584  28.388  26.527  1.00  0.00     0.266 C 
ATOM     26  O   UNL A   1      48.007  28.928  26.585  1.00  0.00    -0.268 OA
ATOM     27  C   UNL A   1      46.506  27.248  26.016  1.00  0.00     0.053 A 
ATOM     28  C   UNL A   1      45.135  27.138  26.006  1.00  0.00     0.053 A 
ATOM     29  O   UNL A   1      43.385  28.559  26.592  1.00  0.00    -0.268 OA
ATOM     30  C   UNL A   1      47.332  26.222  25.595  1.00  0.00     0.015 A 
ATOM     31  C   UNL A   1      44.502  25.992  25.561  1.00  0.00     0.015 A 
ATOM     32  C   UNL A   1      46.718  25.049  25.153  1.00  0.00     0.001 A 
ATOM     33  C   UNL A   1      45.314  24.936  25.131  1.00  0.00     0.001 A 
ENDBRANCH  22  23
ENDBRANCH  14  17
ENDBRANCH  12  13
ENDBRANCH   6   7
ENDBRANCH   4   6
ENDBRANCH   3   4
ENDBRANCH   2   3
ENDBRANCH   1   2
BRANCH   1  34
ATOM     34  O   UNL A   1      35.362  33.333  28.417  1.00  0.00    -0.374 OA
BRANCH  34  35
ATOM     35  C   UNL A   1      33.995  33.077  28.072  1.00  0.00     0.202 C 
BRANCH  35  36
ATOM     36  C   UNL A   1      33.582  31.623  27.821  1.00  0.00     0.261 C 
BRANCH  36  37
ATOM     37  O   UNL A   1      34.616  30.882  27.157  1.00  0.00    -0.460 OA
BRANCH  37  38
ATOM     38  C   UNL A   1      34.867  29.664  27.691  1.00  0.00     0.338 C 
ATOM     39  O   UNL A   1      34.219  28.643  27.540  1.00  0.00    -0.246 OA
BRANCH  38  40
ATOM     40  C   UNL A   1      36.195  29.673  28.337  1.00  0.00     0.060 A 
ATOM     41  C   UNL A   1      37.269  30.161  27.580  1.00  0.00     0.016 A 
ATOM     42  C   UNL A   1      36.397  29.169  29.622  1.00  0.00     0.016 A 
ATOM     43  C   UNL A   1      38.566  30.048  28.063  1.00  0.00     0.010 A 
ATOM     44  C   UNL A   1      37.701  29.052  30.108  1.00  0.00     0.010 A 
ATOM     45  C   UNL A   1      38.789  29.430  29.300  1.00  0.00    -0.014 A 
BRANCH  45  46
ATOM     46  C   UNL A   1      40.155  28.966  29.623  1.00  0.00     0.031 A 
ATOM     47  C   UNL A   1      40.589  27.620  29.108  1.00  0.00     0.074 A 
ATOM     48  C   UNL A   1      41.011  29.751  30.299  1.00  0.00     0.049 A 
ATOM     49  N   UNL A   1      41.741  27.014  29.233  1.00  0.00    -0.248 NA
ATOM     50  C   UNL A   1      39.585  26.851  28.350  1.00  0.00     0.031 C 
ATOM     51  C   UNL A   1      40.715  31.093  30.797  1.00  0.00     0.029 A 
ATOM     52  N   UNL A   1      42.311  29.529  30.668  1.00  0.00    -0.354 N 
ATOM     53  C   UNL A   1      41.594  25.792  28.586  1.00  0.00     0.074 A 
ATOM     54  C   UNL A   1      40.235  25.727  28.098  1.00  0.00     0.031 C 
ATOM     55  C   UNL A   1      41.812  31.582  31.402  1.00  0.00     0.029 A 
ATOM     56  C   UNL A   1      42.870  30.574  31.359  1.00  0.00     0.049 A 
ATOM     57  H   UNL A   1      42.797  28.699  30.460  1.00  0.00     0.167 HD
ATOM     58  C   UNL A   1      42.512  24.812  28.407  1.00  0.00     0.031 A 
ATOM     59  C   UNL A   1      44.096  30.696  31.899  1.00  0.00     0.031 A 
ATOM     60  C   UNL A   1      43.861  24.882  28.899  1.00  0.00     0.049 A 
ATOM     61  C   UNL A   1      45.078  29.565  31.746  1.00  0.00     0.074 A 
ATOM     62  C   UNL A   1      44.880  23.959  28.757  1.00  0.00     0.029 A 
ATOM     63  N   UNL A   1      44.374  25.937  29.639  1.00  0.00    -0.354 N 
ATOM     64  N   UNL A   1      44.939  28.427  31.106  1.00  0.00    -0.248 NA
ATOM     65  C   UNL A   1      46.392  29.744  32.377  1.00  0.00     0.031 C 
ATOM     66  C   UNL A   1      45.992  24.427  29.464  1.00  0.00     0.029 A 
ATOM     67  C   UNL A   1      45.687  25.675  29.987  1.00  0.00     0.049 A 
ATOM     68  H   UNL A   1      43.877  26.752  29.881  1.00  0.00     0.167 HD
ATOM     69  C   UNL A   1      46.158  27.772  31.228  1.00  0.00     0.074 A 
ATOM     70  C   UNL A   1      47.027  28.647  31.990  1.00  0.00     0.031 C 
ATOM     71  C   UNL A   1      46.531  26.559  30.748  1.00  0.00     0.031 A 
BRANCH  58  72
ATOM     72  C   UNL A   1      42.065  23.567  27.691  1.00  0.00    -0.014 A 
ATOM     73  C   UNL A   1      41.573  22.451  28.388  1.00  0.00     0.009 A 
ATOM     74  C   UNL A   1      42.131  23.515  26.290  1.00  0.00     0.009 A 
ATOM     75  C   UNL A   1      41.194  21.297  27.698  1.00  0.00     0.001 A 
ATOM     76  C   UNL A   1      41.721  22.372  25.602  1.00  0.00     0.001 A 
ATOM     77  C   UNL A   1      41.264  21.260  26.306  1.00  0.00     0.000 A 
ENDBRANCH  58  72
BRANCH  59  78
ATOM     78  C   UNL A   1      44.471  31.934  32.633  1.00  0.00    -0.014 A 
ATOM     79  C   UNL A   1      45.090  33.001  31.965  1.00  0.00     0.009 A 
ATOM     80  C   UNL A   1      44.224  32.048  34.010  1.00  0.00     0.009 A 
ATOM     81  C   UNL A   1      45.478  34.146  32.665  1.00  0.00     0.001 A 
ATOM     82  C   UNL A   1      44.585  33.206  34.701  1.00  0.00     0.001 A 
ATOM     83  C   UNL A   1      45.221  34.249  34.031  1.00  0.00     0.000 A 
ENDBRANCH  59  78
BRANCH  71  84
ATOM     84  C   UNL A   1      47.953  26.133  30.993  1.00  0.00    -0.014 A 
ATOM     85  C   UNL A   1      48.946  26.293  30.015  1.00  0.00     0.009 A 
ATOM     86  C   UNL A   1      48.305  25.586  32.238  1.00  0.00     0.009 A 
ATOM     87  C   UNL A   1      50.254  25.872  30.263  1.00  0.00     0.001 A 
ATOM     88  C   UNL A   1      49.619  25.198  32.494  1.00  0.00     0.001 A 
ATOM     89  C   UNL A   1      50.591  25.329  31.504  1.00  0.00     0.000 A 
ENDBRANCH  71  84
ENDBRANCH  45  46
ENDBRANCH  38  40
ENDBRANCH  37  38
ENDBRANCH  36  37
ENDBRANCH  35  36
ENDBRANCH  34  35
ENDBRANCH   1  34
TORSDOF 18
ENDMDL
