MODEL 1
REMARK VINA RESULT:     -10.8      0.000      0.000
REMARK SMILES CC(C)[C@H](C(=O)OCCOCCOC(=O)c1ccc(-c2c3nc(c(-c4ccccc4)c4ccc([nH]4)c(-c4ccccc4)c4nc(c(-c5ccccc5)c5ccc2[nH]5)C=C4)C=C3)cc1)n1ccc2c(cnc3c(-c4ccc(Cl)cc4)cnn32)c1=O
REMARK SMILES IDX 10 1 9 2 8 3 7 4 5 5 6 6 4 7 2 8 1 9 3 10 64 11 65 12 83 13
REMARK SMILES IDX 66 14 68 15 84 16 67 17 69 18 82 19 70 20 71 21 81 22 72 23
REMARK SMILES IDX 80 24 73 25 74 26 79 27 75 28 78 29 76 30 77 31 11 32 12 33
REMARK SMILES IDX 13 34 14 35 15 36 16 37 17 38 63 39 18 40 62 41 19 42 20 43
REMARK SMILES IDX 21 44 56 45 22 46 61 47 55 48 57 49 23 50 60 51 54 52 53 53
REMARK SMILES IDX 24 55 46 56 31 57 45 58 32 59 35 60 44 61 58 62 33 63 34 64
REMARK SMILES IDX 43 66 59 67 36 68 25 69 26 70 30 71 27 72 29 73 28 74 47 75
REMARK SMILES IDX 48 76 52 77 49 78 51 79 50 80 37 81 38 82 42 83 39 84 41 85
REMARK SMILES IDX 40 86
REMARK H PARENT 57 54 35 65
REMARK Flexibility Score: inf
ROOT
ATOM      1  O   UNL A   1      33.440  31.554  27.772  1.00  0.00    -0.374 OA
ENDROOT
BRANCH   1   2
ATOM      2  C   UNL A   1      34.043  30.449  27.099  1.00  0.00     0.202 C 
BRANCH   2   3
ATOM      3  C   UNL A   1      33.099  29.495  26.354  1.00  0.00     0.261 C 
BRANCH   3   4
ATOM      4  O   UNL A   1      33.734  28.825  25.239  1.00  0.00    -0.462 OA
BRANCH   4   5
ATOM      5  C   UNL A   1      33.034  28.865  24.073  1.00  0.00     0.329 C 
ATOM      6  O   UNL A   1      33.526  29.199  22.998  1.00  0.00    -0.250 OA
BRANCH   5   7
ATOM      7  C   UNL A   1      31.609  28.283  24.158  1.00  0.00     0.202 C 
BRANCH   7   8
ATOM      8  C   UNL A   1      30.577  29.196  23.416  1.00  0.00     0.017 C 
ATOM      9  C   UNL A   1      29.253  28.550  23.004  1.00  0.00     0.010 C 
ATOM     10  C   UNL A   1      30.283  30.446  24.251  1.00  0.00     0.010 C 
ENDBRANCH   7   8
BRANCH   7  11
ATOM     11  N   UNL A   1      31.406  26.826  23.989  1.00  0.00    -0.300 N 
ATOM     12  C   UNL A   1      31.654  26.175  22.786  1.00  0.00     0.092 A 
ATOM     13  C   UNL A   1      30.939  26.120  25.108  1.00  0.00     0.262 A 
ATOM     14  C   UNL A   1      31.413  24.866  22.628  1.00  0.00     0.047 A 
ATOM     15  C   UNL A   1      30.900  24.650  24.972  1.00  0.00     0.084 A 
ATOM     16  O   UNL A   1      30.633  26.631  26.182  1.00  0.00    -0.269 OA
ATOM     17  C   UNL A   1      31.096  24.048  23.783  1.00  0.00     0.083 A 
ATOM     18  C   UNL A   1      30.853  23.764  26.164  1.00  0.00     0.129 A 
ATOM     19  N   UNL A   1      31.357  22.663  23.779  1.00  0.00    -0.214 N 
ATOM     20  N   UNL A   1      31.284  22.538  26.194  1.00  0.00    -0.236 NA
ATOM     21  C   UNL A   1      31.775  22.080  24.997  1.00  0.00     0.163 A 
ATOM     22  N   UNL A   1      31.710  21.837  22.751  1.00  0.00    -0.174 NA
ATOM     23  C   UNL A   1      33.052  21.654  24.594  1.00  0.00     0.047 A 
ATOM     24  C   UNL A   1      32.798  21.233  23.254  1.00  0.00     0.146 A 
BRANCH  23  25
ATOM     25  C   UNL A   1      34.189  22.523  24.988  1.00  0.00    -0.013 A 
ATOM     26  C   UNL A   1      34.975  23.167  24.027  1.00  0.00     0.010 A 
ATOM     27  C   UNL A   1      34.663  22.448  26.316  1.00  0.00     0.010 A 
ATOM     28  C   UNL A   1      36.233  23.677  24.377  1.00  0.00     0.021 A 
ATOM     29  C   UNL A   1      35.920  22.945  26.659  1.00  0.00     0.021 A 
ATOM     30  C   UNL A   1      36.706  23.546  25.684  1.00  0.00     0.041 A 
ATOM     31  Cl  UNL A   1      38.290  24.081  26.087  1.00  0.00    -0.084 Cl
ENDBRANCH  23  25
ENDBRANCH   7  11
ENDBRANCH   5   7
ENDBRANCH   4   5
ENDBRANCH   3   4
ENDBRANCH   2   3
ENDBRANCH   1   2
BRANCH   1  32
ATOM     32  C   UNL A   1      34.256  32.697  28.010  1.00  0.00     0.202 C 
BRANCH  32  33
ATOM     33  C   UNL A   1      34.556  33.007  29.478  1.00  0.00     0.261 C 
BRANCH  33  34
ATOM     34  O   UNL A   1      35.005  31.828  30.171  1.00  0.00    -0.460 OA
BRANCH  34  35
ATOM     35  C   UNL A   1      36.162  31.990  30.849  1.00  0.00     0.338 C 
ATOM     36  O   UNL A   1      36.353  32.691  31.836  1.00  0.00    -0.246 OA
BRANCH  35  37
ATOM     37  C   UNL A   1      37.192  31.066  30.344  1.00  0.00     0.060 A 
ATOM     38  C   UNL A   1      37.970  30.400  31.298  1.00  0.00     0.016 A 
ATOM     39  C   UNL A   1      37.463  30.926  28.981  1.00  0.00     0.016 A 
ATOM     40  C   UNL A   1      39.077  29.655  30.899  1.00  0.00     0.010 A 
ATOM     41  C   UNL A   1      38.579  30.183  28.581  1.00  0.00     0.010 A 
ATOM     42  C   UNL A   1      39.417  29.589  29.542  1.00  0.00    -0.014 A 
BRANCH  42  43
ATOM     43  C   UNL A   1      40.750  29.064  29.163  1.00  0.00     0.031 A 
ATOM     44  C   UNL A   1      41.941  29.983  29.244  1.00  0.00     0.074 A 
ATOM     45  C   UNL A   1      40.914  27.777  28.812  1.00  0.00     0.049 A 
ATOM     46  N   UNL A   1      43.195  29.742  28.959  1.00  0.00    -0.248 NA
ATOM     47  C   UNL A   1      41.683  31.354  29.716  1.00  0.00     0.031 C 
ATOM     48  C   UNL A   1      39.855  26.769  28.760  1.00  0.00     0.029 A 
ATOM     49  N   UNL A   1      42.047  27.096  28.441  1.00  0.00    -0.354 N 
ATOM     50  C   UNL A   1      43.872  30.928  29.213  1.00  0.00     0.074 A 
ATOM     51  C   UNL A   1      42.889  31.896  29.649  1.00  0.00     0.031 C 
ATOM     52  C   UNL A   1      40.389  25.597  28.374  1.00  0.00     0.029 A 
ATOM     53  C   UNL A   1      41.818  25.779  28.126  1.00  0.00     0.049 A 
ATOM     54  H   UNL A   1      42.938  27.513  28.404  1.00  0.00     0.167 HD
ATOM     55  C   UNL A   1      45.196  31.191  29.103  1.00  0.00     0.031 A 
ATOM     56  C   UNL A   1      42.666  24.836  27.674  1.00  0.00     0.031 A 
ATOM     57  C   UNL A   1      46.177  30.237  28.661  1.00  0.00     0.049 A 
ATOM     58  C   UNL A   1      44.119  25.176  27.475  1.00  0.00     0.074 A 
ATOM     59  C   UNL A   1      47.542  30.410  28.509  1.00  0.00     0.029 A 
ATOM     60  N   UNL A   1      45.895  28.929  28.301  1.00  0.00    -0.354 N 
ATOM     61  N   UNL A   1      44.746  26.302  27.720  1.00  0.00    -0.248 NA
ATOM     62  C   UNL A   1      44.982  24.112  26.940  1.00  0.00     0.031 C 
ATOM     63  C   UNL A   1      48.080  29.218  28.013  1.00  0.00     0.029 A 
ATOM     64  C   UNL A   1      47.057  28.289  27.907  1.00  0.00     0.049 A 
ATOM     65  H   UNL A   1      45.002  28.517  28.322  1.00  0.00     0.167 HD
ATOM     66  C   UNL A   1      46.078  26.071  27.399  1.00  0.00     0.074 A 
ATOM     67  C   UNL A   1      46.171  24.697  26.952  1.00  0.00     0.031 C 
ATOM     68  C   UNL A   1      47.132  26.919  27.472  1.00  0.00     0.031 A 
BRANCH  55  69
ATOM     69  C   UNL A   1      45.657  32.581  29.438  1.00  0.00    -0.014 A 
ATOM     70  C   UNL A   1      46.071  32.915  30.736  1.00  0.00     0.009 A 
ATOM     71  C   UNL A   1      45.709  33.558  28.432  1.00  0.00     0.009 A 
ATOM     72  C   UNL A   1      46.505  34.210  31.026  1.00  0.00     0.001 A 
ATOM     73  C   UNL A   1      46.166  34.845  28.719  1.00  0.00     0.001 A 
ATOM     74  C   UNL A   1      46.556  35.172  30.017  1.00  0.00     0.000 A 
ENDBRANCH  55  69
BRANCH  56  75
ATOM     75  C   UNL A   1      42.164  23.475  27.354  1.00  0.00    -0.014 A 
ATOM     76  C   UNL A   1      41.834  23.123  26.036  1.00  0.00     0.009 A 
ATOM     77  C   UNL A   1      41.980  22.529  28.375  1.00  0.00     0.009 A 
ATOM     78  C   UNL A   1      41.306  21.861  25.752  1.00  0.00     0.001 A 
ATOM     79  C   UNL A   1      41.479  21.259  28.084  1.00  0.00     0.001 A 
ATOM     80  C   UNL A   1      41.133  20.930  26.774  1.00  0.00     0.000 A 
ENDBRANCH  56  75
BRANCH  68  81
ATOM     81  C   UNL A   1      48.482  26.377  27.101  1.00  0.00    -0.014 A 
ATOM     82  C   UNL A   1      49.286  25.716  28.043  1.00  0.00     0.009 A 
ATOM     83  C   UNL A   1      48.935  26.489  25.777  1.00  0.00     0.009 A 
ATOM     84  C   UNL A   1      50.531  25.204  27.670  1.00  0.00     0.001 A 
ATOM     85  C   UNL A   1      50.168  25.953  25.402  1.00  0.00     0.001 A 
ATOM     86  C   UNL A   1      50.968  25.319  26.351  1.00  0.00     0.000 A 
ENDBRANCH  68  81
ENDBRANCH  42  43
ENDBRANCH  35  37
ENDBRANCH  34  35
ENDBRANCH  33  34
ENDBRANCH  32  33
ENDBRANCH   1  32
TORSDOF 17
ENDMDL
MODEL 2
REMARK VINA RESULT:     -10.8      4.341      9.322
REMARK SMILES CC(C)[C@H](C(=O)OCCOCCOC(=O)c1ccc(-c2c3nc(c(-c4ccccc4)c4ccc([nH]4)c(-c4ccccc4)c4nc(c(-c5ccccc5)c5ccc2[nH]5)C=C4)C=C3)cc1)n1ccc2c(cnc3c(-c4ccc(Cl)cc4)cnn32)c1=O
REMARK SMILES IDX 10 1 9 2 8 3 7 4 5 5 6 6 4 7 2 8 1 9 3 10 64 11 65 12 83 13
REMARK SMILES IDX 66 14 68 15 84 16 67 17 69 18 82 19 70 20 71 21 81 22 72 23
REMARK SMILES IDX 80 24 73 25 74 26 79 27 75 28 78 29 76 30 77 31 11 32 12 33
REMARK SMILES IDX 13 34 14 35 15 36 16 37 17 38 63 39 18 40 62 41 19 42 20 43
REMARK SMILES IDX 21 44 56 45 22 46 61 47 55 48 57 49 23 50 60 51 54 52 53 53
REMARK SMILES IDX 24 55 46 56 31 57 45 58 32 59 35 60 44 61 58 62 33 63 34 64
REMARK SMILES IDX 43 66 59 67 36 68 25 69 26 70 30 71 27 72 29 73 28 74 47 75
REMARK SMILES IDX 48 76 52 77 49 78 51 79 50 80 37 81 38 82 42 83 39 84 41 85
REMARK SMILES IDX 40 86
REMARK H PARENT 57 54 35 65
REMARK Flexibility Score: inf
ROOT
ATOM      1  O   UNL A   1      39.603  21.393  26.899  1.00  0.00    -0.374 OA
ENDROOT
BRANCH   1   2
ATOM      2  C   UNL A   1      39.118  22.268  25.881  1.00  0.00     0.202 C 
BRANCH   2   3
ATOM      3  C   UNL A   1      37.688  22.799  26.051  1.00  0.00     0.261 C 
BRANCH   3   4
ATOM      4  O   UNL A   1      36.686  21.925  25.478  1.00  0.00    -0.462 OA
BRANCH   4   5
ATOM      5  C   UNL A   1      35.399  22.289  25.726  1.00  0.00     0.329 C 
ATOM      6  O   UNL A   1      35.079  23.116  26.578  1.00  0.00    -0.250 OA
BRANCH   5   7
ATOM      7  C   UNL A   1      34.366  21.720  24.733  1.00  0.00     0.202 C 
BRANCH   7   8
ATOM      8  C   UNL A   1      33.977  20.249  25.098  1.00  0.00     0.017 C 
ATOM      9  C   UNL A   1      32.653  19.725  24.538  1.00  0.00     0.010 C 
ATOM     10  C   UNL A   1      35.101  19.290  24.697  1.00  0.00     0.010 C 
ENDBRANCH   7   8
BRANCH   7  11
ATOM     11  N   UNL A   1      33.251  22.577  24.271  1.00  0.00    -0.300 N 
ATOM     12  C   UNL A   1      32.076  22.727  25.000  1.00  0.00     0.092 A 
ATOM     13  C   UNL A   1      33.428  23.237  23.046  1.00  0.00     0.262 A 
ATOM     14  C   UNL A   1      31.051  23.462  24.545  1.00  0.00     0.047 A 
ATOM     15  C   UNL A   1      32.381  24.213  22.682  1.00  0.00     0.084 A 
ATOM     16  O   UNL A   1      34.404  23.104  22.312  1.00  0.00    -0.269 OA
ATOM     17  C   UNL A   1      31.230  24.302  23.377  1.00  0.00     0.083 A 
ATOM     18  C   UNL A   1      32.629  25.275  21.673  1.00  0.00     0.129 A 
ATOM     19  N   UNL A   1      30.427  25.443  23.180  1.00  0.00    -0.214 N 
ATOM     20  N   UNL A   1      32.006  26.415  21.627  1.00  0.00    -0.236 NA
ATOM     21  C   UNL A   1      31.039  26.572  22.587  1.00  0.00     0.163 A 
ATOM     22  N   UNL A   1      29.296  25.846  23.831  1.00  0.00    -0.174 NA
ATOM     23  C   UNL A   1      30.900  27.468  23.660  1.00  0.00     0.047 A 
ATOM     24  C   UNL A   1      29.613  27.107  24.164  1.00  0.00     0.146 A 
BRANCH  23  25
ATOM     25  C   UNL A   1      32.098  27.664  24.512  1.00  0.00    -0.013 A 
ATOM     26  C   UNL A   1      32.208  27.045  25.761  1.00  0.00     0.010 A 
ATOM     27  C   UNL A   1      32.982  28.719  24.196  1.00  0.00     0.010 A 
ATOM     28  C   UNL A   1      33.146  27.507  26.694  1.00  0.00     0.021 A 
ATOM     29  C   UNL A   1      33.907  29.185  25.130  1.00  0.00     0.021 A 
ATOM     30  C   UNL A   1      33.976  28.585  26.381  1.00  0.00     0.041 A 
ATOM     31  Cl  UNL A   1      35.055  29.216  27.562  1.00  0.00    -0.084 Cl
ENDBRANCH  23  25
ENDBRANCH   7  11
ENDBRANCH   5   7
ENDBRANCH   4   5
ENDBRANCH   3   4
ENDBRANCH   2   3
ENDBRANCH   1   2
BRANCH   1  32
ATOM     32  C   UNL A   1      41.015  21.296  27.056  1.00  0.00     0.202 C 
BRANCH  32  33
ATOM     33  C   UNL A   1      41.852  22.177  26.127  1.00  0.00     0.261 C 
BRANCH  33  34
ATOM     34  O   UNL A   1      42.422  23.286  26.847  1.00  0.00    -0.460 OA
BRANCH  34  35
ATOM     35  C   UNL A   1      42.422  24.451  26.163  1.00  0.00     0.338 C 
ATOM     36  O   UNL A   1      42.718  24.621  24.987  1.00  0.00    -0.246 OA
BRANCH  35  37
ATOM     37  C   UNL A   1      41.848  25.531  26.983  1.00  0.00     0.060 A 
ATOM     38  C   UNL A   1      42.492  26.774  26.936  1.00  0.00     0.016 A 
ATOM     39  C   UNL A   1      40.776  25.317  27.851  1.00  0.00     0.016 A 
ATOM     40  C   UNL A   1      42.120  27.785  27.817  1.00  0.00     0.010 A 
ATOM     41  C   UNL A   1      40.407  26.332  28.742  1.00  0.00     0.010 A 
ATOM     42  C   UNL A   1      41.112  27.550  28.761  1.00  0.00    -0.014 A 
BRANCH  42  43
ATOM     43  C   UNL A   1      40.940  28.505  29.880  1.00  0.00     0.031 A 
ATOM     44  C   UNL A   1      39.822  29.513  29.807  1.00  0.00     0.074 A 
ATOM     45  C   UNL A   1      41.720  28.441  30.972  1.00  0.00     0.049 A 
ATOM     46  N   UNL A   1      39.488  30.443  30.664  1.00  0.00    -0.248 NA
ATOM     47  C   UNL A   1      38.965  29.459  28.611  1.00  0.00     0.031 C 
ATOM     48  C   UNL A   1      42.791  27.470  31.195  1.00  0.00     0.029 A 
ATOM     49  N   UNL A   1      41.720  29.212  32.108  1.00  0.00    -0.354 N 
ATOM     50  C   UNL A   1      38.387  31.085  30.111  1.00  0.00     0.074 A 
ATOM     51  C   UNL A   1      38.125  30.459  28.834  1.00  0.00     0.031 C 
ATOM     52  C   UNL A   1      43.349  27.706  32.396  1.00  0.00     0.029 A 
ATOM     53  C   UNL A   1      42.694  28.860  33.011  1.00  0.00     0.049 A 
ATOM     54  H   UNL A   1      41.084  29.947  32.261  1.00  0.00     0.167 HD
ATOM     55  C   UNL A   1      37.651  32.101  30.622  1.00  0.00     0.031 A 
ATOM     56  C   UNL A   1      43.026  29.418  34.191  1.00  0.00     0.031 A 
ATOM     57  C   UNL A   1      37.911  32.734  31.885  1.00  0.00     0.049 A 
ATOM     58  C   UNL A   1      42.248  30.603  34.696  1.00  0.00     0.074 A 
ATOM     59  C   UNL A   1      37.227  33.777  32.486  1.00  0.00     0.029 A 
ATOM     60  N   UNL A   1      38.940  32.382  32.744  1.00  0.00    -0.354 N 
ATOM     61  N   UNL A   1      41.209  31.200  34.163  1.00  0.00    -0.248 NA
ATOM     62  C   UNL A   1      42.689  31.190  35.971  1.00  0.00     0.031 C 
ATOM     63  C   UNL A   1      37.870  34.085  33.689  1.00  0.00     0.029 A 
ATOM     64  C   UNL A   1      38.922  33.200  33.860  1.00  0.00     0.049 A 
ATOM     65  H   UNL A   1      39.588  31.658  32.584  1.00  0.00     0.167 HD
ATOM     66  C   UNL A   1      40.855  32.208  35.051  1.00  0.00     0.074 A 
ATOM     67  C   UNL A   1      41.782  32.138  36.160  1.00  0.00     0.031 C 
ATOM     68  C   UNL A   1      39.848  33.111  34.958  1.00  0.00     0.031 A 
BRANCH  55  69
ATOM     69  C   UNL A   1      36.508  32.612  29.792  1.00  0.00    -0.014 A 
ATOM     70  C   UNL A   1      35.238  32.020  29.863  1.00  0.00     0.009 A 
ATOM     71  C   UNL A   1      36.697  33.723  28.956  1.00  0.00     0.009 A 
ATOM     72  C   UNL A   1      34.185  32.516  29.091  1.00  0.00     0.001 A 
ATOM     73  C   UNL A   1      35.636  34.231  28.204  1.00  0.00     0.001 A 
ATOM     74  C   UNL A   1      34.384  33.623  28.266  1.00  0.00     0.000 A 
ENDBRANCH  55  69
BRANCH  56  75
ATOM     75  C   UNL A   1      44.167  28.878  34.975  1.00  0.00    -0.014 A 
ATOM     76  C   UNL A   1      45.482  29.276  34.694  1.00  0.00     0.009 A 
ATOM     77  C   UNL A   1      43.945  27.934  35.990  1.00  0.00     0.009 A 
ATOM     78  C   UNL A   1      46.554  28.720  35.396  1.00  0.00     0.001 A 
ATOM     79  C   UNL A   1      45.016  27.401  36.709  1.00  0.00     0.001 A 
ATOM     80  C   UNL A   1      46.321  27.787  36.404  1.00  0.00     0.000 A 
ENDBRANCH  56  75
BRANCH  68  81
ATOM     81  C   UNL A   1      39.669  34.066  36.103  1.00  0.00    -0.014 A 
ATOM     82  C   UNL A   1      38.909  33.718  37.231  1.00  0.00     0.009 A 
ATOM     83  C   UNL A   1      40.310  35.315  36.072  1.00  0.00     0.009 A 
ATOM     84  C   UNL A   1      38.772  34.616  38.291  1.00  0.00     0.001 A 
ATOM     85  C   UNL A   1      40.191  36.199  37.144  1.00  0.00     0.001 A 
ATOM     86  C   UNL A   1      39.416  35.852  38.249  1.00  0.00     0.000 A 
ENDBRANCH  68  81
ENDBRANCH  42  43
ENDBRANCH  35  37
ENDBRANCH  34  35
ENDBRANCH  33  34
ENDBRANCH  32  33
ENDBRANCH   1  32
TORSDOF 17
ENDMDL
MODEL 3
REMARK VINA RESULT:     -10.8      3.682      6.854
REMARK SMILES CC(C)[C@H](C(=O)OCCOCCOC(=O)c1ccc(-c2c3nc(c(-c4ccccc4)c4ccc([nH]4)c(-c4ccccc4)c4nc(c(-c5ccccc5)c5ccc2[nH]5)C=C4)C=C3)cc1)n1ccc2c(cnc3c(-c4ccc(Cl)cc4)cnn32)c1=O
REMARK SMILES IDX 10 1 9 2 8 3 7 4 5 5 6 6 4 7 2 8 1 9 3 10 64 11 65 12 83 13
REMARK SMILES IDX 66 14 68 15 84 16 67 17 69 18 82 19 70 20 71 21 81 22 72 23
REMARK SMILES IDX 80 24 73 25 74 26 79 27 75 28 78 29 76 30 77 31 11 32 12 33
REMARK SMILES IDX 13 34 14 35 15 36 16 37 17 38 63 39 18 40 62 41 19 42 20 43
REMARK SMILES IDX 21 44 56 45 22 46 61 47 55 48 57 49 23 50 60 51 54 52 53 53
REMARK SMILES IDX 24 55 46 56 31 57 45 58 32 59 35 60 44 61 58 62 33 63 34 64
REMARK SMILES IDX 43 66 59 67 36 68 25 69 26 70 30 71 27 72 29 73 28 74 47 75
REMARK SMILES IDX 48 76 52 77 49 78 51 79 50 80 37 81 38 82 42 83 39 84 41 85
REMARK SMILES IDX 40 86
REMARK H PARENT 57 54 35 65
REMARK Flexibility Score: inf
ROOT
ATOM      1  O   UNL A   1      32.820  30.965  26.909  1.00  0.00    -0.374 OA
ENDROOT
BRANCH   1   2
ATOM      2  C   UNL A   1      32.489  29.581  27.027  1.00  0.00     0.202 C 
BRANCH   2   3
ATOM      3  C   UNL A   1      33.083  28.638  25.972  1.00  0.00     0.261 C 
BRANCH   3   4
ATOM      4  O   UNL A   1      33.345  29.294  24.708  1.00  0.00    -0.462 OA
BRANCH   4   5
ATOM      5  C   UNL A   1      32.815  28.673  23.619  1.00  0.00     0.329 C 
ATOM      6  O   UNL A   1      33.429  28.506  22.568  1.00  0.00    -0.250 OA
BRANCH   5   7
ATOM      7  C   UNL A   1      31.436  28.025  23.856  1.00  0.00     0.202 C 
BRANCH   7   8
ATOM      8  C   UNL A   1      30.290  28.879  23.220  1.00  0.00     0.017 C 
ATOM      9  C   UNL A   1      28.915  28.216  23.105  1.00  0.00     0.010 C 
ATOM     10  C   UNL A   1      30.141  30.206  23.971  1.00  0.00     0.010 C 
ENDBRANCH   7   8
BRANCH   7  11
ATOM     11  N   UNL A   1      31.288  26.558  23.717  1.00  0.00    -0.300 N 
ATOM     12  C   UNL A   1      31.608  25.885  22.544  1.00  0.00     0.092 A 
ATOM     13  C   UNL A   1      30.797  25.865  24.835  1.00  0.00     0.262 A 
ATOM     14  C   UNL A   1      31.417  24.565  22.412  1.00  0.00     0.047 A 
ATOM     15  C   UNL A   1      30.811  24.391  24.737  1.00  0.00     0.084 A 
ATOM     16  O   UNL A   1      30.428  26.393  25.881  1.00  0.00    -0.269 OA
ATOM     17  C   UNL A   1      31.077  23.766  23.574  1.00  0.00     0.083 A 
ATOM     18  C   UNL A   1      30.742  23.535  25.949  1.00  0.00     0.129 A 
ATOM     19  N   UNL A   1      31.383  22.391  23.618  1.00  0.00    -0.214 N 
ATOM     20  N   UNL A   1      31.211  22.325  26.030  1.00  0.00    -0.236 NA
ATOM     21  C   UNL A   1      31.768  21.854  24.868  1.00  0.00     0.163 A 
ATOM     22  N   UNL A   1      31.806  21.552  22.628  1.00  0.00    -0.174 NA
ATOM     23  C   UNL A   1      33.074  21.461  24.530  1.00  0.00     0.047 A 
ATOM     24  C   UNL A   1      32.891  20.998  23.192  1.00  0.00     0.146 A 
BRANCH  23  25
ATOM     25  C   UNL A   1      34.164  22.377  24.947  1.00  0.00    -0.013 A 
ATOM     26  C   UNL A   1      34.959  23.034  24.004  1.00  0.00     0.010 A 
ATOM     27  C   UNL A   1      34.594  22.340  26.292  1.00  0.00     0.010 A 
ATOM     28  C   UNL A   1      36.184  23.596  24.387  1.00  0.00     0.021 A 
ATOM     29  C   UNL A   1      35.820  22.889  26.669  1.00  0.00     0.021 A 
ATOM     30  C   UNL A   1      36.616  23.503  25.711  1.00  0.00     0.041 A 
ATOM     31  Cl  UNL A   1      38.165  24.102  26.160  1.00  0.00    -0.084 Cl
ENDBRANCH  23  25
ENDBRANCH   7  11
ENDBRANCH   5   7
ENDBRANCH   4   5
ENDBRANCH   3   4
ENDBRANCH   2   3
ENDBRANCH   1   2
BRANCH   1  32
ATOM     32  C   UNL A   1      31.739  31.890  26.846  1.00  0.00     0.202 C 
BRANCH  32  33
ATOM     33  C   UNL A   1      32.126  33.369  26.846  1.00  0.00     0.261 C 
BRANCH  33  34
ATOM     34  O   UNL A   1      32.217  33.876  28.191  1.00  0.00    -0.460 OA
BRANCH  34  35
ATOM     35  C   UNL A   1      33.327  34.608  28.434  1.00  0.00     0.338 C 
ATOM     36  O   UNL A   1      33.405  35.826  28.537  1.00  0.00    -0.246 OA
BRANCH  35  37
ATOM     37  C   UNL A   1      34.470  33.729  28.734  1.00  0.00     0.060 A 
ATOM     38  C   UNL A   1      34.213  32.599  29.520  1.00  0.00     0.016 A 
ATOM     39  C   UNL A   1      35.774  34.047  28.348  1.00  0.00     0.016 A 
ATOM     40  C   UNL A   1      35.269  31.826  29.994  1.00  0.00     0.010 A 
ATOM     41  C   UNL A   1      36.836  33.273  28.830  1.00  0.00     0.010 A 
ATOM     42  C   UNL A   1      36.588  32.191  29.696  1.00  0.00    -0.014 A 
BRANCH  42  43
ATOM     43  C   UNL A   1      37.696  31.557  30.449  1.00  0.00     0.031 A 
ATOM     44  C   UNL A   1      38.587  30.574  29.736  1.00  0.00     0.074 A 
ATOM     45  C   UNL A   1      37.948  31.894  31.725  1.00  0.00     0.049 A 
ATOM     46  N   UNL A   1      39.609  29.898  30.194  1.00  0.00    -0.248 NA
ATOM     47  C   UNL A   1      38.288  30.325  28.315  1.00  0.00     0.031 C 
ATOM     48  C   UNL A   1      37.203  32.880  32.507  1.00  0.00     0.029 A 
ATOM     49  N   UNL A   1      38.916  31.441  32.587  1.00  0.00    -0.354 N 
ATOM     50  C   UNL A   1      40.072  29.145  29.122  1.00  0.00     0.074 A 
ATOM     51  C   UNL A   1      39.205  29.423  27.999  1.00  0.00     0.031 C 
ATOM     52  C   UNL A   1      37.741  32.956  33.737  1.00  0.00     0.029 A 
ATOM     53  C   UNL A   1      38.846  32.005  33.837  1.00  0.00     0.049 A 
ATOM     54  H   UNL A   1      39.595  30.775  32.333  1.00  0.00     0.167 HD
ATOM     55  C   UNL A   1      41.130  28.300  29.072  1.00  0.00     0.031 A 
ATOM     56  C   UNL A   1      39.584  31.767  34.938  1.00  0.00     0.031 A 
ATOM     57  C   UNL A   1      41.990  28.012  30.187  1.00  0.00     0.049 A 
ATOM     58  C   UNL A   1      40.699  30.758  34.882  1.00  0.00     0.074 A 
ATOM     59  C   UNL A   1      43.083  27.164  30.237  1.00  0.00     0.029 A 
ATOM     60  N   UNL A   1      41.852  28.564  31.450  1.00  0.00    -0.354 N 
ATOM     61  N   UNL A   1      41.126  30.053  33.862  1.00  0.00    -0.248 NA
ATOM     62  C   UNL A   1      41.437  30.515  36.131  1.00  0.00     0.031 C 
ATOM     63  C   UNL A   1      43.580  27.170  31.544  1.00  0.00     0.029 A 
ATOM     64  C   UNL A   1      42.827  28.061  32.293  1.00  0.00     0.049 A 
ATOM     65  H   UNL A   1      41.162  29.217  31.709  1.00  0.00     0.167 HD
ATOM     66  C   UNL A   1      42.199  29.310  34.338  1.00  0.00     0.074 A 
ATOM     67  C   UNL A   1      42.365  29.655  35.734  1.00  0.00     0.031 C 
ATOM     68  C   UNL A   1      42.981  28.421  33.677  1.00  0.00     0.031 A 
BRANCH  55  69
ATOM     69  C   UNL A   1      41.397  27.603  27.769  1.00  0.00    -0.014 A 
ATOM     70  C   UNL A   1      40.893  26.317  27.516  1.00  0.00     0.009 A 
ATOM     71  C   UNL A   1      42.132  28.255  26.768  1.00  0.00     0.009 A 
ATOM     72  C   UNL A   1      41.143  25.689  26.295  1.00  0.00     0.001 A 
ATOM     73  C   UNL A   1      42.360  27.634  25.538  1.00  0.00     0.001 A 
ATOM     74  C   UNL A   1      41.873  26.349  25.306  1.00  0.00     0.000 A 
ENDBRANCH  55  69
BRANCH  56  75
ATOM     75  C   UNL A   1      39.281  32.480  36.206  1.00  0.00    -0.014 A 
ATOM     76  C   UNL A   1      38.301  31.996  37.086  1.00  0.00     0.009 A 
ATOM     77  C   UNL A   1      39.951  33.672  36.526  1.00  0.00     0.009 A 
ATOM     78  C   UNL A   1      37.979  32.704  38.246  1.00  0.00     0.001 A 
ATOM     79  C   UNL A   1      39.647  34.362  37.700  1.00  0.00     0.001 A 
ATOM     80  C   UNL A   1      38.655  33.883  38.554  1.00  0.00     0.000 A 
ENDBRANCH  56  75
BRANCH  68  81
ATOM     81  C   UNL A   1      44.112  27.795  34.441  1.00  0.00    -0.014 A 
ATOM     82  C   UNL A   1      43.950  26.575  35.114  1.00  0.00     0.009 A 
ATOM     83  C   UNL A   1      45.372  28.415  34.447  1.00  0.00     0.009 A 
ATOM     84  C   UNL A   1      45.022  26.003  35.803  1.00  0.00     0.001 A 
ATOM     85  C   UNL A   1      46.447  27.828  35.115  1.00  0.00     0.001 A 
ATOM     86  C   UNL A   1      46.269  26.627  35.799  1.00  0.00     0.000 A 
ENDBRANCH  68  81
ENDBRANCH  42  43
ENDBRANCH  35  37
ENDBRANCH  34  35
ENDBRANCH  33  34
ENDBRANCH  32  33
ENDBRANCH   1  32
TORSDOF 17
ENDMDL
