MODEL 1
REMARK VINA RESULT:     -11.4      0.000      0.000
REMARK SMILES CCc1ccnc(C(=O)c2[nH]c3ccc(OC(F)(F)F)cc3c2CC(=O)OCCOCCOC(=O)c2ccc(-c3c4nc(c(-c5ccccc5)c5ccc([nH]5)c(-c5ccccc5)c5nc(c(-c6ccccc6)c6ccc3[nH]6)C=C5)C=C4)cc2)c1
REMARK SMILES IDX 29 1 28 2 27 3 25 4 26 5 24 6 23 7 10 8 11 9 12 10 22 12
REMARK SMILES IDX 13 13 21 14 14 15 15 16 8 17 9 18 7 19 3 20 4 21 84 22 5 23
REMARK SMILES IDX 6 24 2 25 1 26 16 27 17 28 18 29 19 30 20 31 30 32 31 33
REMARK SMILES IDX 32 34 33 35 34 36 35 37 36 38 37 39 83 40 38 41 82 42 39 43
REMARK SMILES IDX 40 44 41 45 76 46 42 47 81 48 75 49 77 50 43 51 80 52 74 53
REMARK SMILES IDX 73 54 44 56 66 57 51 58 65 59 52 60 55 61 64 62 78 63 53 64
REMARK SMILES IDX 54 65 63 67 79 68 56 69 45 70 46 71 50 72 47 73 49 74 48 75
REMARK SMILES IDX 67 76 68 77 72 78 69 79 71 80 70 81 57 82 58 83 62 84 59 85
REMARK SMILES IDX 61 86 60 87
REMARK H PARENT 11 11 77 55 55 66
REMARK Flexibility Score: inf
ROOT
ATOM      1  C   UNL A   1      32.529  27.744  26.300  1.00  0.00     0.202 C 
ENDROOT
BRANCH   1   2
ATOM      2  C   UNL A   1      33.759  28.111  25.463  1.00  0.00     0.261 C 
BRANCH   2   3
ATOM      3  O   UNL A   1      33.911  27.235  24.323  1.00  0.00    -0.463 OA
BRANCH   3   4
ATOM      4  C   UNL A   1      33.515  27.766  23.135  1.00  0.00     0.310 C 
ATOM      5  O   UNL A   1      33.911  28.849  22.707  1.00  0.00    -0.252 OA
BRANCH   4   6
ATOM      6  C   UNL A   1      32.488  26.961  22.370  1.00  0.00     0.161 C 
BRANCH   6   7
ATOM      7  C   UNL A   1      31.156  26.672  23.013  1.00  0.00     0.000 A 
ATOM      8  C   UNL A   1      30.691  25.442  23.489  1.00  0.00     0.093 A 
ATOM      9  N   UNL A   1      29.429  25.671  24.001  1.00  0.00    -0.352 N 
ATOM     10  C   UNL A   1      28.966  26.904  23.611  1.00  0.00     0.046 A 
ATOM     11  H   UNL A   1      28.931  25.038  24.567  1.00  0.00     0.167 HD
ATOM     12  C   UNL A   1      30.036  27.568  23.020  1.00  0.00     0.008 A 
ATOM     13  C   UNL A   1      27.692  27.472  23.722  1.00  0.00     0.030 A 
ATOM     14  C   UNL A   1      29.816  28.863  22.507  1.00  0.00     0.057 A 
ATOM     15  C   UNL A   1      27.490  28.741  23.157  1.00  0.00     0.049 A 
ATOM     16  C   UNL A   1      28.533  29.428  22.539  1.00  0.00     0.130 A 
BRANCH   8  17
ATOM     17  C   UNL A   1      31.384  24.156  23.470  1.00  0.00     0.227 C 
ATOM     18  O   UNL A   1      30.928  23.183  22.874  1.00  0.00    -0.285 OA
BRANCH  17  19
ATOM     19  C   UNL A   1      32.664  23.970  24.224  1.00  0.00     0.113 A 
ATOM     20  C   UNL A   1      35.031  23.544  24.301  1.00  0.00    -0.044 A 
ATOM     21  C   UNL A   1      34.985  23.887  25.658  1.00  0.00     0.024 A 
ATOM     22  C   UNL A   1      33.840  23.606  23.570  1.00  0.00     0.036 A 
ATOM     23  C   UNL A   1      33.771  24.236  26.229  1.00  0.00     0.112 A 
ATOM     24  N   UNL A   1      32.608  24.268  25.548  1.00  0.00    -0.253 NA
BRANCH  20  25
ATOM     25  C   UNL A   1      36.372  23.201  23.695  1.00  0.00     0.032 C 
ATOM     26  C   UNL A   1      37.015  21.901  24.163  1.00  0.00     0.009 C 
ENDBRANCH  20  25
ENDBRANCH  17  19
ENDBRANCH   8  17
BRANCH  16  27
ATOM     27  O   UNL A   1      28.448  30.645  21.923  1.00  0.00    -0.406 OA
BRANCH  27  28
ATOM     28  C   UNL A   1      28.166  31.773  22.733  1.00  0.00     0.573 C 
ATOM     29  F   UNL A   1      27.100  31.556  23.534  1.00  0.00    -0.132 F 
ATOM     30  F   UNL A   1      29.236  32.104  23.486  1.00  0.00    -0.132 F 
ATOM     31  F   UNL A   1      27.877  32.821  21.930  1.00  0.00    -0.132 F 
ENDBRANCH  27  28
ENDBRANCH  16  27
ENDBRANCH   6   7
ENDBRANCH   4   6
ENDBRANCH   3   4
ENDBRANCH   2   3
ENDBRANCH   1   2
BRANCH   1  32
ATOM     32  O   UNL A   1      31.591  28.800  26.531  1.00  0.00    -0.374 OA
BRANCH  32  33
ATOM     33  C   UNL A   1      31.669  29.916  25.645  1.00  0.00     0.202 C 
BRANCH  33  34
ATOM     34  C   UNL A   1      31.866  31.275  26.323  1.00  0.00     0.261 C 
BRANCH  34  35
ATOM     35  O   UNL A   1      32.687  31.179  27.498  1.00  0.00    -0.460 OA
BRANCH  35  36
ATOM     36  C   UNL A   1      33.503  32.241  27.686  1.00  0.00     0.338 C 
ATOM     37  O   UNL A   1      33.184  33.421  27.760  1.00  0.00    -0.246 OA
BRANCH  36  38
ATOM     38  C   UNL A   1      34.883  31.799  27.946  1.00  0.00     0.060 A 
ATOM     39  C   UNL A   1      35.070  30.434  28.184  1.00  0.00     0.016 A 
ATOM     40  C   UNL A   1      35.951  32.695  28.054  1.00  0.00     0.016 A 
ATOM     41  C   UNL A   1      36.307  29.968  28.613  1.00  0.00     0.010 A 
ATOM     42  C   UNL A   1      37.197  32.223  28.487  1.00  0.00     0.010 A 
ATOM     43  C   UNL A   1      37.363  30.866  28.816  1.00  0.00    -0.014 A 
BRANCH  43  44
ATOM     44  C   UNL A   1      38.572  30.373  29.519  1.00  0.00     0.031 A 
ATOM     45  C   UNL A   1      38.744  30.686  30.981  1.00  0.00     0.074 A 
ATOM     46  C   UNL A   1      39.439  29.561  28.892  1.00  0.00     0.049 A 
ATOM     47  N   UNL A   1      39.626  30.222  31.830  1.00  0.00    -0.248 NA
ATOM     48  C   UNL A   1      37.791  31.643  31.567  1.00  0.00     0.031 C 
ATOM     49  C   UNL A   1      39.361  29.166  27.487  1.00  0.00     0.029 A 
ATOM     50  N   UNL A   1      40.541  28.899  29.370  1.00  0.00    -0.354 N 
ATOM     51  C   UNL A   1      39.328  30.820  33.048  1.00  0.00     0.074 A 
ATOM     52  C   UNL A   1      38.212  31.711  32.822  1.00  0.00     0.031 C 
ATOM     53  C   UNL A   1      40.360  28.308  27.220  1.00  0.00     0.029 A 
ATOM     54  C   UNL A   1      41.152  28.104  28.431  1.00  0.00     0.049 A 
ATOM     55  H   UNL A   1      40.863  28.984  30.296  1.00  0.00     0.167 HD
ATOM     56  C   UNL A   1      39.919  30.632  34.252  1.00  0.00     0.031 A 
ATOM     57  C   UNL A   1      42.220  27.293  28.542  1.00  0.00     0.031 A 
ATOM     58  C   UNL A   1      41.041  29.760  34.473  1.00  0.00     0.049 A 
ATOM     59  C   UNL A   1      42.886  27.133  29.881  1.00  0.00     0.074 A 
ATOM     60  C   UNL A   1      41.711  29.495  35.655  1.00  0.00     0.029 A 
ATOM     61  N   UNL A   1      41.661  29.012  33.484  1.00  0.00    -0.354 N 
ATOM     62  N   UNL A   1      42.568  27.671  31.033  1.00  0.00    -0.248 NA
ATOM     63  C   UNL A   1      44.049  26.234  29.936  1.00  0.00     0.031 C 
ATOM     64  C   UNL A   1      42.769  28.622  35.371  1.00  0.00     0.029 A 
ATOM     65  C   UNL A   1      42.722  28.303  34.023  1.00  0.00     0.049 A 
ATOM     66  H   UNL A   1      41.388  28.988  32.539  1.00  0.00     0.167 HD
ATOM     67  C   UNL A   1      43.473  27.160  31.954  1.00  0.00     0.074 A 
ATOM     68  C   UNL A   1      44.341  26.254  31.229  1.00  0.00     0.031 C 
ATOM     69  C   UNL A   1      43.579  27.416  33.281  1.00  0.00     0.031 A 
BRANCH  56  70
ATOM     70  C   UNL A   1      39.375  31.413  35.416  1.00  0.00    -0.014 A 
ATOM     71  C   UNL A   1      39.908  32.664  35.764  1.00  0.00     0.009 A 
ATOM     72  C   UNL A   1      38.304  30.900  36.163  1.00  0.00     0.009 A 
ATOM     73  C   UNL A   1      39.401  33.370  36.859  1.00  0.00     0.001 A 
ATOM     74  C   UNL A   1      37.783  31.619  37.240  1.00  0.00     0.001 A 
ATOM     75  C   UNL A   1      38.337  32.848  37.593  1.00  0.00     0.000 A 
ENDBRANCH  56  70
BRANCH  57  76
ATOM     76  C   UNL A   1      42.715  26.552  27.352  1.00  0.00    -0.014 A 
ATOM     77  C   UNL A   1      42.240  25.266  27.055  1.00  0.00     0.009 A 
ATOM     78  C   UNL A   1      43.676  27.132  26.509  1.00  0.00     0.009 A 
ATOM     79  C   UNL A   1      42.732  24.568  25.950  1.00  0.00     0.001 A 
ATOM     80  C   UNL A   1      44.148  26.442  25.390  1.00  0.00     0.001 A 
ATOM     81  C   UNL A   1      43.682  25.157  25.116  1.00  0.00     0.000 A 
ENDBRANCH  57  76
BRANCH  69  82
ATOM     82  C   UNL A   1      44.658  26.686  34.031  1.00  0.00    -0.014 A 
ATOM     83  C   UNL A   1      45.935  27.244  34.194  1.00  0.00     0.009 A 
ATOM     84  C   UNL A   1      44.383  25.432  34.600  1.00  0.00     0.009 A 
ATOM     85  C   UNL A   1      46.929  26.542  34.878  1.00  0.00     0.001 A 
ATOM     86  C   UNL A   1      45.372  24.746  35.306  1.00  0.00     0.001 A 
ATOM     87  C   UNL A   1      46.646  25.295  35.434  1.00  0.00     0.000 A 
ENDBRANCH  69  82
ENDBRANCH  43  44
ENDBRANCH  36  38
ENDBRANCH  35  36
ENDBRANCH  34  35
ENDBRANCH  33  34
ENDBRANCH  32  33
ENDBRANCH   1  32
TORSDOF 20
ENDMDL
MODEL 2
REMARK VINA RESULT:     -10.2      4.530      8.529
REMARK SMILES CCc1ccnc(C(=O)c2[nH]c3ccc(OC(F)(F)F)cc3c2CC(=O)OCCOCCOC(=O)c2ccc(-c3c4nc(c(-c5ccccc5)c5ccc([nH]5)c(-c5ccccc5)c5nc(c(-c6ccccc6)c6ccc3[nH]6)C=C5)C=C4)cc2)c1
REMARK SMILES IDX 29 1 28 2 27 3 25 4 26 5 24 6 23 7 10 8 11 9 12 10 22 12
REMARK SMILES IDX 13 13 21 14 14 15 15 16 8 17 9 18 7 19 3 20 4 21 84 22 5 23
REMARK SMILES IDX 6 24 2 25 1 26 16 27 17 28 18 29 19 30 20 31 30 32 31 33
REMARK SMILES IDX 32 34 33 35 34 36 35 37 36 38 37 39 83 40 38 41 82 42 39 43
REMARK SMILES IDX 40 44 41 45 76 46 42 47 81 48 75 49 77 50 43 51 80 52 74 53
REMARK SMILES IDX 73 54 44 56 66 57 51 58 65 59 52 60 55 61 64 62 78 63 53 64
REMARK SMILES IDX 54 65 63 67 79 68 56 69 45 70 46 71 50 72 47 73 49 74 48 75
REMARK SMILES IDX 67 76 68 77 72 78 69 79 71 80 70 81 57 82 58 83 62 84 59 85
REMARK SMILES IDX 61 86 60 87
REMARK H PARENT 11 11 77 55 55 66
REMARK Flexibility Score: inf
ROOT
ATOM      1  C   UNL A   1      34.338  21.463  27.258  1.00  0.00     0.202 C 
ENDROOT
BRANCH   1   2
ATOM      2  C   UNL A   1      33.632  22.599  28.006  1.00  0.00     0.261 C 
BRANCH   2   3
ATOM      3  O   UNL A   1      32.199  22.412  28.030  1.00  0.00    -0.463 OA
BRANCH   3   4
ATOM      4  C   UNL A   1      31.494  23.287  27.263  1.00  0.00     0.310 C 
ATOM      5  O   UNL A   1      30.266  23.367  27.273  1.00  0.00    -0.252 OA
BRANCH   4   6
ATOM      6  C   UNL A   1      32.316  24.143  26.325  1.00  0.00     0.161 C 
BRANCH   6   7
ATOM      7  C   UNL A   1      32.287  23.845  24.847  1.00  0.00     0.000 A 
ATOM      8  C   UNL A   1      31.994  24.733  23.807  1.00  0.00     0.093 A 
ATOM      9  N   UNL A   1      32.104  24.014  22.634  1.00  0.00    -0.352 N 
ATOM     10  C   UNL A   1      32.161  22.667  22.897  1.00  0.00     0.046 A 
ATOM     11  H   UNL A   1      32.136  24.411  21.734  1.00  0.00     0.167 HD
ATOM     12  C   UNL A   1      32.311  22.531  24.273  1.00  0.00     0.008 A 
ATOM     13  C   UNL A   1      32.079  21.568  22.034  1.00  0.00     0.030 A 
ATOM     14  C   UNL A   1      32.374  21.229  24.812  1.00  0.00     0.057 A 
ATOM     15  C   UNL A   1      32.093  20.286  22.603  1.00  0.00     0.049 A 
ATOM     16  C   UNL A   1      32.222  20.111  23.980  1.00  0.00     0.130 A 
BRANCH   8  17
ATOM     17  C   UNL A   1      31.647  26.149  23.911  1.00  0.00     0.227 C 
ATOM     18  O   UNL A   1      31.117  26.756  22.983  1.00  0.00    -0.285 OA
BRANCH  17  19
ATOM     19  C   UNL A   1      31.974  26.923  25.150  1.00  0.00     0.113 A 
ATOM     20  C   UNL A   1      33.437  28.336  26.437  1.00  0.00    -0.044 A 
ATOM     21  C   UNL A   1      32.378  28.503  27.339  1.00  0.00     0.024 A 
ATOM     22  C   UNL A   1      33.215  27.539  25.309  1.00  0.00     0.036 A 
ATOM     23  C   UNL A   1      31.176  27.854  27.102  1.00  0.00     0.112 A 
ATOM     24  N   UNL A   1      30.957  27.055  26.039  1.00  0.00    -0.253 NA
BRANCH  20  25
ATOM     25  C   UNL A   1      34.725  29.082  26.699  1.00  0.00     0.032 C 
ATOM     26  C   UNL A   1      34.607  30.386  27.476  1.00  0.00     0.009 C 
ENDBRANCH  20  25
ENDBRANCH  17  19
ENDBRANCH   8  17
BRANCH  16  27
ATOM     27  O   UNL A   1      32.209  18.919  24.649  1.00  0.00    -0.406 OA
BRANCH  27  28
ATOM     28  C   UNL A   1      33.332  18.070  24.500  1.00  0.00     0.573 C 
ATOM     29  F   UNL A   1      34.478  18.776  24.384  1.00  0.00    -0.132 F 
ATOM     30  F   UNL A   1      33.432  17.216  25.541  1.00  0.00    -0.132 F 
ATOM     31  F   UNL A   1      33.177  17.340  23.373  1.00  0.00    -0.132 F 
ENDBRANCH  27  28
ENDBRANCH  16  27
ENDBRANCH   6   7
ENDBRANCH   4   6
ENDBRANCH   3   4
ENDBRANCH   2   3
ENDBRANCH   1   2
BRANCH   1  32
ATOM     32  O   UNL A   1      35.633  21.772  26.730  1.00  0.00    -0.374 OA
BRANCH  32  33
ATOM     33  C   UNL A   1      35.732  21.835  25.307  1.00  0.00     0.202 C 
BRANCH  33  34
ATOM     34  C   UNL A   1      36.664  22.923  24.765  1.00  0.00     0.261 C 
BRANCH  34  35
ATOM     35  O   UNL A   1      37.302  23.663  25.820  1.00  0.00    -0.460 OA
BRANCH  35  36
ATOM     36  C   UNL A   1      38.552  23.236  26.110  1.00  0.00     0.338 C 
ATOM     37  O   UNL A   1      39.066  22.170  25.796  1.00  0.00    -0.246 OA
BRANCH  36  38
ATOM     38  C   UNL A   1      39.328  24.302  26.763  1.00  0.00     0.060 A 
ATOM     39  C   UNL A   1      39.166  24.439  28.146  1.00  0.00     0.016 A 
ATOM     40  C   UNL A   1      40.113  25.208  26.044  1.00  0.00     0.016 A 
ATOM     41  C   UNL A   1      39.721  25.530  28.805  1.00  0.00     0.010 A 
ATOM     42  C   UNL A   1      40.672  26.307  26.710  1.00  0.00     0.010 A 
ATOM     43  C   UNL A   1      40.434  26.496  28.083  1.00  0.00    -0.014 A 
BRANCH  43  44
ATOM     44  C   UNL A   1      40.777  27.765  28.770  1.00  0.00     0.031 A 
ATOM     45  C   UNL A   1      42.209  28.022  29.155  1.00  0.00     0.074 A 
ATOM     46  C   UNL A   1      39.847  28.719  28.938  1.00  0.00     0.049 A 
ATOM     47  N   UNL A   1      42.761  29.120  29.607  1.00  0.00    -0.248 NA
ATOM     48  C   UNL A   1      43.144  26.895  29.005  1.00  0.00     0.031 C 
ATOM     49  C   UNL A   1      38.435  28.595  28.579  1.00  0.00     0.029 A 
ATOM     50  N   UNL A   1      39.961  29.995  29.429  1.00  0.00    -0.354 N 
ATOM     51  C   UNL A   1      44.106  28.819  29.783  1.00  0.00     0.074 A 
ATOM     52  C   UNL A   1      44.281  27.428  29.430  1.00  0.00     0.031 C 
ATOM     53  C   UNL A   1      37.816  29.759  28.840  1.00  0.00     0.029 A 
ATOM     54  C   UNL A   1      38.785  30.703  29.392  1.00  0.00     0.049 A 
ATOM     55  H   UNL A   1      40.805  30.368  29.773  1.00  0.00     0.167 HD
ATOM     56  C   UNL A   1      45.111  29.633  30.186  1.00  0.00     0.031 A 
ATOM     57  C   UNL A   1      38.524  31.975  29.751  1.00  0.00     0.031 A 
ATOM     58  C   UNL A   1      44.935  31.013  30.554  1.00  0.00     0.049 A 
ATOM     59  C   UNL A   1      39.650  32.847  30.235  1.00  0.00     0.074 A 
ATOM     60  C   UNL A   1      45.888  31.925  30.972  1.00  0.00     0.029 A 
ATOM     61  N   UNL A   1      43.717  31.677  30.552  1.00  0.00    -0.354 N 
ATOM     62  N   UNL A   1      40.924  32.563  30.357  1.00  0.00    -0.248 NA
ATOM     63  C   UNL A   1      39.300  34.224  30.613  1.00  0.00     0.031 C 
ATOM     64  C   UNL A   1      45.238  33.129  31.269  1.00  0.00     0.029 A 
ATOM     65  C   UNL A   1      43.890  32.981  30.983  1.00  0.00     0.049 A 
ATOM     66  H   UNL A   1      42.858  31.279  30.283  1.00  0.00     0.167 HD
ATOM     67  C   UNL A   1      41.532  33.730  30.801  1.00  0.00     0.074 A 
ATOM     68  C   UNL A   1      40.489  34.730  30.909  1.00  0.00     0.031 C 
ATOM     69  C   UNL A   1      42.836  33.956  31.094  1.00  0.00     0.031 A 
BRANCH  56  70
ATOM     70  C   UNL A   1      46.487  29.036  30.276  1.00  0.00    -0.014 A 
ATOM     71  C   UNL A   1      47.364  29.060  29.179  1.00  0.00     0.009 A 
ATOM     72  C   UNL A   1      46.921  28.457  31.478  1.00  0.00     0.009 A 
ATOM     73  C   UNL A   1      48.635  28.487  29.276  1.00  0.00     0.001 A 
ATOM     74  C   UNL A   1      48.201  27.907  31.579  1.00  0.00     0.001 A 
ATOM     75  C   UNL A   1      49.052  27.914  30.476  1.00  0.00     0.000 A 
ENDBRANCH  56  70
BRANCH  57  76
ATOM     76  C   UNL A   1      37.140  32.505  29.645  1.00  0.00    -0.014 A 
ATOM     77  C   UNL A   1      36.741  33.261  28.532  1.00  0.00     0.009 A 
ATOM     78  C   UNL A   1      36.211  32.263  30.668  1.00  0.00     0.009 A 
ATOM     79  C   UNL A   1      35.446  33.779  28.456  1.00  0.00     0.001 A 
ATOM     80  C   UNL A   1      34.909  32.760  30.578  1.00  0.00     0.001 A 
ATOM     81  C   UNL A   1      34.530  33.524  29.476  1.00  0.00     0.000 A 
ENDBRANCH  57  76
BRANCH  69  82
ATOM     82  C   UNL A   1      43.204  35.344  31.536  1.00  0.00    -0.014 A 
ATOM     83  C   UNL A   1      43.640  36.310  30.615  1.00  0.00     0.009 A 
ATOM     84  C   UNL A   1      43.094  35.695  32.891  1.00  0.00     0.009 A 
ATOM     85  C   UNL A   1      43.996  37.588  31.049  1.00  0.00     0.001 A 
ATOM     86  C   UNL A   1      43.425  36.982  33.317  1.00  0.00     0.001 A 
ATOM     87  C   UNL A   1      43.886  37.923  32.398  1.00  0.00     0.000 A 
ENDBRANCH  69  82
ENDBRANCH  43  44
ENDBRANCH  36  38
ENDBRANCH  35  36
ENDBRANCH  34  35
ENDBRANCH  33  34
ENDBRANCH  32  33
ENDBRANCH   1  32
TORSDOF 20
ENDMDL
MODEL 3
REMARK VINA RESULT:     -10.2      4.247      7.525
REMARK SMILES CCc1ccnc(C(=O)c2[nH]c3ccc(OC(F)(F)F)cc3c2CC(=O)OCCOCCOC(=O)c2ccc(-c3c4nc(c(-c5ccccc5)c5ccc([nH]5)c(-c5ccccc5)c5nc(c(-c6ccccc6)c6ccc3[nH]6)C=C5)C=C4)cc2)c1
REMARK SMILES IDX 29 1 28 2 27 3 25 4 26 5 24 6 23 7 10 8 11 9 12 10 22 12
REMARK SMILES IDX 13 13 21 14 14 15 15 16 8 17 9 18 7 19 3 20 4 21 84 22 5 23
REMARK SMILES IDX 6 24 2 25 1 26 16 27 17 28 18 29 19 30 20 31 30 32 31 33
REMARK SMILES IDX 32 34 33 35 34 36 35 37 36 38 37 39 83 40 38 41 82 42 39 43
REMARK SMILES IDX 40 44 41 45 76 46 42 47 81 48 75 49 77 50 43 51 80 52 74 53
REMARK SMILES IDX 73 54 44 56 66 57 51 58 65 59 52 60 55 61 64 62 78 63 53 64
REMARK SMILES IDX 54 65 63 67 79 68 56 69 45 70 46 71 50 72 47 73 49 74 48 75
REMARK SMILES IDX 67 76 68 77 72 78 69 79 71 80 70 81 57 82 58 83 62 84 59 85
REMARK SMILES IDX 61 86 60 87
REMARK H PARENT 11 11 77 55 55 66
REMARK Flexibility Score: inf
ROOT
ATOM      1  C   UNL A   1      37.205  21.338  24.213  1.00  0.00     0.202 C 
ENDROOT
BRANCH   1   2
ATOM      2  C   UNL A   1      37.102  22.775  24.733  1.00  0.00     0.261 C 
BRANCH   2   3
ATOM      3  O   UNL A   1      36.685  22.815  26.117  1.00  0.00    -0.463 OA
BRANCH   3   4
ATOM      4  C   UNL A   1      35.413  23.250  26.320  1.00  0.00     0.310 C 
ATOM      5  O   UNL A   1      34.748  22.970  27.316  1.00  0.00    -0.252 OA
BRANCH   4   6
ATOM      6  C   UNL A   1      34.816  24.073  25.199  1.00  0.00     0.161 C 
BRANCH   6   7
ATOM      7  C   UNL A   1      33.337  24.360  25.209  1.00  0.00     0.000 A 
ATOM      8  C   UNL A   1      32.334  23.684  24.507  1.00  0.00     0.093 A 
ATOM      9  N   UNL A   1      31.142  24.294  24.840  1.00  0.00    -0.352 N 
ATOM     10  C   UNL A   1      31.371  25.489  25.477  1.00  0.00     0.046 A 
ATOM     11  H   UNL A   1      30.250  23.924  24.647  1.00  0.00     0.167 HD
ATOM     12  C   UNL A   1      32.734  25.543  25.753  1.00  0.00     0.008 A 
ATOM     13  C   UNL A   1      30.490  26.522  25.815  1.00  0.00     0.030 A 
ATOM     14  C   UNL A   1      33.240  26.694  26.393  1.00  0.00     0.057 A 
ATOM     15  C   UNL A   1      31.030  27.676  26.405  1.00  0.00     0.049 A 
ATOM     16  C   UNL A   1      32.393  27.774  26.678  1.00  0.00     0.130 A 
BRANCH   8  17
ATOM     17  C   UNL A   1      32.489  22.548  23.601  1.00  0.00     0.227 C 
ATOM     18  O   UNL A   1      32.531  22.693  22.381  1.00  0.00    -0.285 OA
BRANCH  17  19
ATOM     19  C   UNL A   1      32.553  21.151  24.136  1.00  0.00     0.113 A 
ATOM     20  C   UNL A   1      32.716  18.771  23.820  1.00  0.00    -0.044 A 
ATOM     21  C   UNL A   1      32.911  18.664  25.203  1.00  0.00     0.024 A 
ATOM     22  C   UNL A   1      32.551  20.050  23.279  1.00  0.00     0.036 A 
ATOM     23  C   UNL A   1      32.899  19.812  25.980  1.00  0.00     0.112 A 
ATOM     24  N   UNL A   1      32.707  21.049  25.480  1.00  0.00    -0.253 NA
BRANCH  20  25
ATOM     25  C   UNL A   1      32.768  17.509  22.990  1.00  0.00     0.032 C 
ATOM     26  C   UNL A   1      34.025  16.659  23.127  1.00  0.00     0.009 C 
ENDBRANCH  20  25
ENDBRANCH  17  19
ENDBRANCH   8  17
BRANCH  16  27
ATOM     27  O   UNL A   1      33.036  28.856  27.210  1.00  0.00    -0.406 OA
BRANCH  27  28
ATOM     28  C   UNL A   1      33.037  30.056  26.456  1.00  0.00     0.573 C 
ATOM     29  F   UNL A   1      31.845  30.689  26.527  1.00  0.00    -0.132 F 
ATOM     30  F   UNL A   1      34.014  30.887  26.876  1.00  0.00    -0.132 F 
ATOM     31  F   UNL A   1      33.271  29.753  25.160  1.00  0.00    -0.132 F 
ENDBRANCH  27  28
ENDBRANCH  16  27
ENDBRANCH   6   7
ENDBRANCH   4   6
ENDBRANCH   3   4
ENDBRANCH   2   3
ENDBRANCH   1   2
BRANCH   1  32
ATOM     32  O   UNL A   1      37.748  20.379  25.126  1.00  0.00    -0.374 OA
BRANCH  32  33
ATOM     33  C   UNL A   1      39.139  20.508  25.421  1.00  0.00     0.202 C 
BRANCH  33  34
ATOM     34  C   UNL A   1      39.843  19.210  25.827  1.00  0.00     0.261 C 
BRANCH  34  35
ATOM     35  O   UNL A   1      41.207  19.170  25.374  1.00  0.00    -0.460 OA
BRANCH  35  36
ATOM     36  C   UNL A   1      42.115  19.418  26.345  1.00  0.00     0.338 C 
ATOM     37  O   UNL A   1      42.950  18.646  26.799  1.00  0.00    -0.246 OA
BRANCH  36  38
ATOM     38  C   UNL A   1      42.091  20.838  26.730  1.00  0.00     0.060 A 
ATOM     39  C   UNL A   1      42.431  21.763  25.738  1.00  0.00     0.016 A 
ATOM     40  C   UNL A   1      41.843  21.257  28.041  1.00  0.00     0.016 A 
ATOM     41  C   UNL A   1      42.607  23.102  26.069  1.00  0.00     0.010 A 
ATOM     42  C   UNL A   1      42.020  22.606  28.372  1.00  0.00     0.010 A 
ATOM     43  C   UNL A   1      42.452  23.522  27.397  1.00  0.00    -0.014 A 
BRANCH  43  44
ATOM     44  C   UNL A   1      42.903  24.890  27.751  1.00  0.00     0.031 A 
ATOM     45  C   UNL A   1      41.871  25.946  28.043  1.00  0.00     0.074 A 
ATOM     46  C   UNL A   1      44.209  25.150  27.926  1.00  0.00     0.049 A 
ATOM     47  N   UNL A   1      42.033  27.150  28.531  1.00  0.00    -0.248 NA
ATOM     48  C   UNL A   1      40.471  25.597  27.753  1.00  0.00     0.031 C 
ATOM     49  C   UNL A   1      45.297  24.200  27.700  1.00  0.00     0.029 A 
ATOM     50  N   UNL A   1      44.838  26.288  28.362  1.00  0.00    -0.354 N 
ATOM     51  C   UNL A   1      40.758  27.695  28.617  1.00  0.00     0.074 A 
ATOM     52  C   UNL A   1      39.838  26.710  28.093  1.00  0.00     0.031 C 
ATOM     53  C   UNL A   1      46.461  24.787  28.024  1.00  0.00     0.029 A 
ATOM     54  C   UNL A   1      46.201  26.155  28.468  1.00  0.00     0.049 A 
ATOM     55  H   UNL A   1      44.359  27.120  28.579  1.00  0.00     0.167 HD
ATOM     56  C   UNL A   1      40.384  28.902  29.104  1.00  0.00     0.031 A 
ATOM     57  C   UNL A   1      47.130  27.033  28.889  1.00  0.00     0.031 A 
ATOM     58  C   UNL A   1      41.300  29.890  29.607  1.00  0.00     0.049 A 
ATOM     59  C   UNL A   1      46.693  28.384  29.386  1.00  0.00     0.074 A 
ATOM     60  C   UNL A   1      41.023  31.143  30.127  1.00  0.00     0.029 A 
ATOM     61  N   UNL A   1      42.677  29.734  29.649  1.00  0.00    -0.354 N 
ATOM     62  N   UNL A   1      45.481  28.871  29.502  1.00  0.00    -0.248 NA
ATOM     63  C   UNL A   1      47.755  29.298  29.831  1.00  0.00     0.031 C 
ATOM     64  C   UNL A   1      42.239  31.764  30.439  1.00  0.00     0.029 A 
ATOM     65  C   UNL A   1      43.267  30.876  30.164  1.00  0.00     0.049 A 
ATOM     66  H   UNL A   1      43.164  28.930  29.356  1.00  0.00     0.167 HD
ATOM     67  C   UNL A   1      45.632  30.137  30.053  1.00  0.00     0.074 A 
ATOM     68  C   UNL A   1      47.051  30.333  30.267  1.00  0.00     0.031 C 
ATOM     69  C   UNL A   1      44.682  31.055  30.357  1.00  0.00     0.031 A 
BRANCH  56  70
ATOM     70  C   UNL A   1      38.916  29.228  29.084  1.00  0.00    -0.014 A 
ATOM     71  C   UNL A   1      38.293  29.705  27.919  1.00  0.00     0.009 A 
ATOM     72  C   UNL A   1      38.142  29.039  30.239  1.00  0.00     0.009 A 
ATOM     73  C   UNL A   1      36.931  30.018  27.923  1.00  0.00     0.001 A 
ATOM     74  C   UNL A   1      36.776  29.329  30.232  1.00  0.00     0.001 A 
ATOM     75  C   UNL A   1      36.174  29.826  29.078  1.00  0.00     0.000 A 
ENDBRANCH  56  70
BRANCH  57  76
ATOM     76  C   UNL A   1      48.567  26.654  28.878  1.00  0.00    -0.014 A 
ATOM     77  C   UNL A   1      49.154  26.021  29.984  1.00  0.00     0.009 A 
ATOM     78  C   UNL A   1      49.362  26.934  27.756  1.00  0.00     0.009 A 
ATOM     79  C   UNL A   1      50.512  25.694  29.974  1.00  0.00     0.001 A 
ATOM     80  C   UNL A   1      50.713  26.583  27.738  1.00  0.00     0.001 A 
ATOM     81  C   UNL A   1      51.289  25.971  28.850  1.00  0.00     0.000 A 
ENDBRANCH  57  76
BRANCH  69  82
ATOM     82  C   UNL A   1      45.152  32.343  30.973  1.00  0.00    -0.014 A 
ATOM     83  C   UNL A   1      45.286  32.479  32.363  1.00  0.00     0.009 A 
ATOM     84  C   UNL A   1      45.486  33.428  30.146  1.00  0.00     0.009 A 
ATOM     85  C   UNL A   1      45.706  33.690  32.916  1.00  0.00     0.001 A 
ATOM     86  C   UNL A   1      45.931  34.628  30.701  1.00  0.00     0.001 A 
ATOM     87  C   UNL A   1      46.029  34.762  32.085  1.00  0.00     0.000 A 
ENDBRANCH  69  82
ENDBRANCH  43  44
ENDBRANCH  36  38
ENDBRANCH  35  36
ENDBRANCH  34  35
ENDBRANCH  33  34
ENDBRANCH  32  33
ENDBRANCH   1  32
TORSDOF 20
ENDMDL
