MODEL 1
REMARK VINA RESULT:      -9.0      0.000      0.000
REMARK SMILES CC[C@H](C(=O)OCCOCCOC(=O)c1ccc(-c2c3nc(c(-c4ccccc4)c4ccc([nH]4)c(-c4ccccc4)c4nc(c(-c5ccccc5)c5ccc2[nH]5)C=C4)C=C3)cc1)N(C)C(=O)[C@H]1CC[C@@H](C[NH3+])CC1
REMARK SMILES IDX 7 1 6 2 4 3 5 4 3 5 2 6 1 7 63 8 64 9 65 10 66 11 67 12
REMARK SMILES IDX 74 13 68 14 73 15 69 16 70 17 71 18 72 19 8 23 9 24 10 25
REMARK SMILES IDX 11 26 12 27 13 28 14 29 15 30 16 31 62 32 17 33 61 34 18 35
REMARK SMILES IDX 19 36 20 37 55 38 21 39 60 40 54 41 56 42 22 43 59 44 53 45
REMARK SMILES IDX 52 46 23 48 45 49 30 50 44 51 31 52 34 53 43 54 57 55 32 56
REMARK SMILES IDX 33 57 42 59 58 60 35 61 24 62 25 63 29 64 26 65 28 66 27 67
REMARK SMILES IDX 46 68 47 69 51 70 48 71 50 72 49 73 36 74 37 75 41 76 38 77
REMARK SMILES IDX 40 78 39 79
REMARK H PARENT 72 20 72 21 72 22 56 47 34 58
REMARK Flexibility Score: inf
ROOT
ATOM      1  C   UNL A   1      35.304  23.878  24.871  1.00  0.00     0.261 C 
ENDROOT
BRANCH   1   2
ATOM      2  O   UNL A   1      34.948  23.667  26.248  1.00  0.00    -0.462 OA
BRANCH   2   3
ATOM      3  C   UNL A   1      33.966  22.736  26.455  1.00  0.00     0.328 C 
ATOM      4  O   UNL A   1      33.949  21.966  27.409  1.00  0.00    -0.250 OA
BRANCH   3   5
ATOM      5  C   UNL A   1      32.802  22.935  25.443  1.00  0.00     0.194 C 
BRANCH   5   6
ATOM      6  C   UNL A   1      32.249  21.711  24.691  1.00  0.00     0.034 C 
ATOM      7  C   UNL A   1      32.335  21.756  23.176  1.00  0.00     0.007 C 
ENDBRANCH   5   6
BRANCH   5   8
ATOM      8  N   UNL A   1      31.736  23.728  26.105  1.00  0.00    -0.332 N 
ATOM      9  C   UNL A   1      30.693  23.008  26.819  1.00  0.00     0.147 C 
BRANCH   8  10
ATOM     10  C   UNL A   1      31.719  25.099  25.846  1.00  0.00     0.226 C 
ATOM     11  O   UNL A   1      31.271  25.893  26.679  1.00  0.00    -0.275 OA
BRANCH  10  12
ATOM     12  C   UNL A   1      32.362  25.615  24.555  1.00  0.00     0.078 C 
ATOM     13  C   UNL A   1      31.348  25.501  23.403  1.00  0.00     0.014 C 
ATOM     14  C   UNL A   1      32.819  27.071  24.750  1.00  0.00     0.014 C 
ATOM     15  C   UNL A   1      31.834  26.168  22.122  1.00  0.00     0.010 C 
ATOM     16  C   UNL A   1      33.282  27.719  23.446  1.00  0.00     0.010 C 
ATOM     17  C   UNL A   1      32.226  27.640  22.332  1.00  0.00     0.044 C 
BRANCH  17  18
ATOM     18  C   UNL A   1      30.980  28.514  22.594  1.00  0.00     0.262 C 
BRANCH  18  19
ATOM     19  N   UNL A   1      31.102  29.840  21.992  1.00  0.00    -0.357 N 
ATOM     20  H   UNL A   1      32.086  30.104  21.948  1.00  0.00     0.344 HD
ATOM     21  H   UNL A   1      30.592  30.519  22.558  1.00  0.00     0.344 HD
ATOM     22  H   UNL A   1      30.713  29.823  21.050  1.00  0.00     0.344 HD
ENDBRANCH  18  19
ENDBRANCH  17  18
ENDBRANCH  10  12
ENDBRANCH   8  10
ENDBRANCH   5   8
ENDBRANCH   3   5
ENDBRANCH   2   3
ENDBRANCH   1   2
BRANCH   1  23
ATOM     23  C   UNL A   1      36.699  23.330  24.555  1.00  0.00     0.202 C 
BRANCH  23  24
ATOM     24  O   UNL A   1      36.863  21.914  24.619  1.00  0.00    -0.374 OA
BRANCH  24  25
ATOM     25  C   UNL A   1      37.646  21.380  25.684  1.00  0.00     0.202 C 
BRANCH  25  26
ATOM     26  C   UNL A   1      39.122  21.099  25.383  1.00  0.00     0.261 C 
BRANCH  26  27
ATOM     27  O   UNL A   1      39.628  19.986  26.144  1.00  0.00    -0.460 OA
BRANCH  27  28
ATOM     28  C   UNL A   1      40.974  19.841  26.100  1.00  0.00     0.338 C 
ATOM     29  O   UNL A   1      41.606  18.932  25.580  1.00  0.00    -0.246 OA
BRANCH  28  30
ATOM     30  C   UNL A   1      41.638  21.042  26.632  1.00  0.00     0.060 A 
ATOM     31  C   UNL A   1      41.506  21.295  28.004  1.00  0.00     0.016 A 
ATOM     32  C   UNL A   1      42.280  21.959  25.798  1.00  0.00     0.016 A 
ATOM     33  C   UNL A   1      41.961  22.498  28.537  1.00  0.00     0.010 A 
ATOM     34  C   UNL A   1      42.728  23.173  26.334  1.00  0.00     0.010 A 
ATOM     35  C   UNL A   1      42.532  23.462  27.698  1.00  0.00    -0.014 A 
BRANCH  35  36
ATOM     36  C   UNL A   1      42.768  24.826  28.227  1.00  0.00     0.031 A 
ATOM     37  C   UNL A   1      44.171  25.237  28.587  1.00  0.00     0.074 A 
ATOM     38  C   UNL A   1      41.760  25.708  28.330  1.00  0.00     0.049 A 
ATOM     39  N   UNL A   1      44.609  26.389  29.025  1.00  0.00    -0.248 NA
ATOM     40  C   UNL A   1      45.217  24.214  28.425  1.00  0.00     0.031 C 
ATOM     41  C   UNL A   1      40.367  25.448  27.973  1.00  0.00     0.029 A 
ATOM     42  N   UNL A   1      41.762  27.012  28.759  1.00  0.00    -0.354 N 
ATOM     43  C   UNL A   1      45.980  26.231  29.192  1.00  0.00     0.074 A 
ATOM     44  C   UNL A   1      46.295  24.866  28.836  1.00  0.00     0.031 C 
ATOM     45  C   UNL A   1      39.646  26.560  28.197  1.00  0.00     0.029 A 
ATOM     46  C   UNL A   1      40.523  27.601  28.733  1.00  0.00     0.049 A 
ATOM     47  H   UNL A   1      42.575  27.479  29.057  1.00  0.00     0.167 HD
ATOM     48  C   UNL A   1      46.896  27.143  29.595  1.00  0.00     0.031 A 
ATOM     49  C   UNL A   1      40.139  28.837  29.103  1.00  0.00     0.031 A 
ATOM     50  C   UNL A   1      46.587  28.498  29.966  1.00  0.00     0.049 A 
ATOM     51  C   UNL A   1      41.166  29.809  29.616  1.00  0.00     0.074 A 
ATOM     52  C   UNL A   1      47.449  29.498  30.383  1.00  0.00     0.029 A 
ATOM     53  N   UNL A   1      45.312  29.039  29.970  1.00  0.00    -0.354 N 
ATOM     54  N   UNL A   1      42.461  29.654  29.746  1.00  0.00    -0.248 NA
ATOM     55  C   UNL A   1      40.674  31.134  30.024  1.00  0.00     0.031 C 
ATOM     56  C   UNL A   1      46.687  30.633  30.684  1.00  0.00     0.029 A 
ATOM     57  C   UNL A   1      45.359  30.353  30.406  1.00  0.00     0.049 A 
ATOM     58  H   UNL A   1      44.494  28.562  29.704  1.00  0.00     0.167 HD
ATOM     59  C   UNL A   1      42.942  30.866  30.225  1.00  0.00     0.074 A 
ATOM     60  C   UNL A   1      41.801  31.750  30.350  1.00  0.00     0.031 C 
ATOM     61  C   UNL A   1      44.215  31.217  30.531  1.00  0.00     0.031 A 
BRANCH  48  62
ATOM     62  C   UNL A   1      48.324  26.685  29.686  1.00  0.00    -0.014 A 
ATOM     63  C   UNL A   1      48.813  26.057  30.842  1.00  0.00     0.009 A 
ATOM     64  C   UNL A   1      49.185  26.864  28.592  1.00  0.00     0.009 A 
ATOM     65  C   UNL A   1      50.146  25.647  30.913  1.00  0.00     0.001 A 
ATOM     66  C   UNL A   1      50.510  26.433  28.658  1.00  0.00     0.001 A 
ATOM     67  C   UNL A   1      50.993  25.833  29.820  1.00  0.00     0.000 A 
ENDBRANCH  48  62
BRANCH  49  68
ATOM     68  C   UNL A   1      38.709  29.227  29.013  1.00  0.00    -0.014 A 
ATOM     69  C   UNL A   1      37.850  29.053  30.108  1.00  0.00     0.009 A 
ATOM     70  C   UNL A   1      38.194  29.761  27.822  1.00  0.00     0.009 A 
ATOM     71  C   UNL A   1      36.497  29.386  30.004  1.00  0.00     0.001 A 
ATOM     72  C   UNL A   1      36.847  30.116  27.728  1.00  0.00     0.001 A 
ATOM     73  C   UNL A   1      35.998  29.920  28.817  1.00  0.00     0.000 A 
ENDBRANCH  49  68
BRANCH  61  74
ATOM     74  C   UNL A   1      44.442  32.626  31.001  1.00  0.00    -0.014 A 
ATOM     75  C   UNL A   1      44.415  32.951  32.367  1.00  0.00     0.009 A 
ATOM     76  C   UNL A   1      44.716  33.635  30.066  1.00  0.00     0.009 A 
ATOM     77  C   UNL A   1      44.622  34.267  32.783  1.00  0.00     0.001 A 
ATOM     78  C   UNL A   1      44.948  34.946  30.487  1.00  0.00     0.001 A 
ATOM     79  C   UNL A   1      44.891  35.263  31.843  1.00  0.00     0.000 A 
ENDBRANCH  61  74
ENDBRANCH  35  36
ENDBRANCH  28  30
ENDBRANCH  27  28
ENDBRANCH  26  27
ENDBRANCH  25  26
ENDBRANCH  24  25
ENDBRANCH  23  24
ENDBRANCH   1  23
TORSDOF 20
ENDMDL
MODEL 2
REMARK VINA RESULT:      -8.8      0.580      6.010
REMARK SMILES CC[C@H](C(=O)OCCOCCOC(=O)c1ccc(-c2c3nc(c(-c4ccccc4)c4ccc([nH]4)c(-c4ccccc4)c4nc(c(-c5ccccc5)c5ccc2[nH]5)C=C4)C=C3)cc1)N(C)C(=O)[C@H]1CC[C@@H](C[NH3+])CC1
REMARK SMILES IDX 7 1 6 2 4 3 5 4 3 5 2 6 1 7 63 8 64 9 65 10 66 11 67 12
REMARK SMILES IDX 74 13 68 14 73 15 69 16 70 17 71 18 72 19 8 23 9 24 10 25
REMARK SMILES IDX 11 26 12 27 13 28 14 29 15 30 16 31 62 32 17 33 61 34 18 35
REMARK SMILES IDX 19 36 20 37 55 38 21 39 60 40 54 41 56 42 22 43 59 44 53 45
REMARK SMILES IDX 52 46 23 48 45 49 30 50 44 51 31 52 34 53 43 54 57 55 32 56
REMARK SMILES IDX 33 57 42 59 58 60 35 61 24 62 25 63 29 64 26 65 28 66 27 67
REMARK SMILES IDX 46 68 47 69 51 70 48 71 50 72 49 73 36 74 37 75 41 76 38 77
REMARK SMILES IDX 40 78 39 79
REMARK H PARENT 72 20 72 21 72 22 56 47 34 58
REMARK Flexibility Score: inf
ROOT
ATOM      1  C   UNL A   1      35.429  23.517  24.258  1.00  0.00     0.261 C 
ENDROOT
BRANCH   1   2
ATOM      2  O   UNL A   1      35.158  23.529  25.670  1.00  0.00    -0.462 OA
BRANCH   2   3
ATOM      3  C   UNL A   1      34.136  22.712  26.070  1.00  0.00     0.328 C 
ATOM      4  O   UNL A   1      34.155  22.055  27.105  1.00  0.00    -0.250 OA
BRANCH   3   5
ATOM      5  C   UNL A   1      32.897  22.896  25.148  1.00  0.00     0.194 C 
BRANCH   5   6
ATOM      6  C   UNL A   1      32.292  21.661  24.455  1.00  0.00     0.034 C 
ATOM      7  C   UNL A   1      32.161  21.733  22.945  1.00  0.00     0.007 C 
ENDBRANCH   5   6
BRANCH   5   8
ATOM      8  N   UNL A   1      31.881  23.695  25.879  1.00  0.00    -0.332 N 
ATOM      9  C   UNL A   1      30.796  22.982  26.535  1.00  0.00     0.147 C 
BRANCH   8  10
ATOM     10  C   UNL A   1      31.951  25.080  25.738  1.00  0.00     0.226 C 
ATOM     11  O   UNL A   1      31.611  25.826  26.661  1.00  0.00    -0.275 OA
BRANCH  10  12
ATOM     12  C   UNL A   1      32.554  25.663  24.456  1.00  0.00     0.078 C 
ATOM     13  C   UNL A   1      31.469  25.718  23.365  1.00  0.00     0.014 C 
ATOM     14  C   UNL A   1      33.124  27.063  24.742  1.00  0.00     0.014 C 
ATOM     15  C   UNL A   1      31.928  26.461  22.116  1.00  0.00     0.010 C 
ATOM     16  C   UNL A   1      33.558  27.790  23.470  1.00  0.00     0.010 C 
ATOM     17  C   UNL A   1      32.436  27.879  22.423  1.00  0.00     0.044 C 
BRANCH  17  18
ATOM     18  C   UNL A   1      31.274  28.808  22.834  1.00  0.00     0.262 C 
BRANCH  18  19
ATOM     19  N   UNL A   1      31.101  29.921  21.903  1.00  0.00    -0.357 N 
ATOM     20  H   UNL A   1      30.189  30.351  22.053  1.00  0.00     0.344 HD
ATOM     21  H   UNL A   1      31.161  29.575  20.945  1.00  0.00     0.344 HD
ATOM     22  H   UNL A   1      31.833  30.613  22.061  1.00  0.00     0.344 HD
ENDBRANCH  18  19
ENDBRANCH  17  18
ENDBRANCH  10  12
ENDBRANCH   8  10
ENDBRANCH   5   8
ENDBRANCH   3   5
ENDBRANCH   2   3
ENDBRANCH   1   2
BRANCH   1  23
ATOM     23  C   UNL A   1      36.705  22.735  23.932  1.00  0.00     0.202 C 
BRANCH  23  24
ATOM     24  O   UNL A   1      36.854  21.460  24.555  1.00  0.00    -0.374 OA
BRANCH  24  25
ATOM     25  C   UNL A   1      37.590  21.396  25.775  1.00  0.00     0.202 C 
BRANCH  25  26
ATOM     26  C   UNL A   1      39.116  21.307  25.658  1.00  0.00     0.261 C 
BRANCH  26  27
ATOM     27  O   UNL A   1      39.662  20.259  26.481  1.00  0.00    -0.460 OA
BRANCH  27  28
ATOM     28  C   UNL A   1      40.980  20.019  26.283  1.00  0.00     0.338 C 
ATOM     29  O   UNL A   1      41.483  19.057  25.720  1.00  0.00    -0.246 OA
BRANCH  28  30
ATOM     30  C   UNL A   1      41.782  21.183  26.698  1.00  0.00     0.060 A 
ATOM     31  C   UNL A   1      41.792  21.504  28.061  1.00  0.00     0.016 A 
ATOM     32  C   UNL A   1      42.417  22.007  25.768  1.00  0.00     0.016 A 
ATOM     33  C   UNL A   1      42.387  22.685  28.494  1.00  0.00     0.010 A 
ATOM     34  C   UNL A   1      43.006  23.201  26.204  1.00  0.00     0.010 A 
ATOM     35  C   UNL A   1      42.955  23.562  27.563  1.00  0.00    -0.014 A 
BRANCH  35  36
ATOM     36  C   UNL A   1      43.344  24.924  28.002  1.00  0.00     0.031 A 
ATOM     37  C   UNL A   1      42.268  25.949  28.240  1.00  0.00     0.074 A 
ATOM     38  C   UNL A   1      44.630  25.228  28.244  1.00  0.00     0.049 A 
ATOM     39  N   UNL A   1      42.378  27.182  28.665  1.00  0.00    -0.248 NA
ATOM     40  C   UNL A   1      40.884  25.525  27.969  1.00  0.00     0.031 C 
ATOM     41  C   UNL A   1      45.760  24.312  28.094  1.00  0.00     0.029 A 
ATOM     42  N   UNL A   1      45.198  26.398  28.679  1.00  0.00    -0.354 N 
ATOM     43  C   UNL A   1      41.082  27.680  28.712  1.00  0.00     0.074 A 
ATOM     44  C   UNL A   1      40.206  26.629  28.246  1.00  0.00     0.031 C 
ATOM     45  C   UNL A   1      46.889  24.957  28.434  1.00  0.00     0.029 A 
ATOM     46  C   UNL A   1      46.563  26.334  28.803  1.00  0.00     0.049 A 
ATOM     47  H   UNL A   1      44.676  27.207  28.882  1.00  0.00     0.167 HD
ATOM     48  C   UNL A   1      40.657  28.901  29.116  1.00  0.00     0.031 A 
ATOM     49  C   UNL A   1      47.449  27.280  29.168  1.00  0.00     0.031 A 
ATOM     50  C   UNL A   1      41.524  29.957  29.566  1.00  0.00     0.049 A 
ATOM     51  C   UNL A   1      46.958  28.650  29.545  1.00  0.00     0.074 A 
ATOM     52  C   UNL A   1      41.186  31.227  30.001  1.00  0.00     0.029 A 
ATOM     53  N   UNL A   1      42.905  29.864  29.631  1.00  0.00    -0.354 N 
ATOM     54  N   UNL A   1      45.729  29.101  29.607  1.00  0.00    -0.248 NA
ATOM     55  C   UNL A   1      47.981  29.641  29.911  1.00  0.00     0.031 C 
ATOM     56  C   UNL A   1      42.368  31.920  30.286  1.00  0.00     0.029 A 
ATOM     57  C   UNL A   1      43.437  31.063  30.076  1.00  0.00     0.049 A 
ATOM     58  H   UNL A   1      43.431  29.067  29.396  1.00  0.00     0.167 HD
ATOM     59  C   UNL A   1      45.828  30.415  30.043  1.00  0.00     0.074 A 
ATOM     60  C   UNL A   1      47.237  30.686  30.243  1.00  0.00     0.031 C 
ATOM     61  C   UNL A   1      44.841  31.319  30.263  1.00  0.00     0.031 A 
BRANCH  48  62
ATOM     62  C   UNL A   1      39.179  29.166  29.057  1.00  0.00    -0.014 A 
ATOM     63  C   UNL A   1      38.575  29.647  27.884  1.00  0.00     0.009 A 
ATOM     64  C   UNL A   1      38.379  28.909  30.180  1.00  0.00     0.009 A 
ATOM     65  C   UNL A   1      37.202  29.898  27.851  1.00  0.00     0.001 A 
ATOM     66  C   UNL A   1      37.003  29.139  30.135  1.00  0.00     0.001 A 
ATOM     67  C   UNL A   1      36.417  29.641  28.974  1.00  0.00     0.000 A 
ENDBRANCH  48  62
BRANCH  49  68
ATOM     68  C   UNL A   1      48.902  26.967  29.187  1.00  0.00    -0.014 A 
ATOM     69  C   UNL A   1      49.697  27.195  28.054  1.00  0.00     0.009 A 
ATOM     70  C   UNL A   1      49.494  26.422  30.336  1.00  0.00     0.009 A 
ATOM     71  C   UNL A   1      51.053  26.863  28.066  1.00  0.00     0.001 A 
ATOM     72  C   UNL A   1      50.855  26.114  30.354  1.00  0.00     0.001 A 
ATOM     73  C   UNL A   1      51.632  26.327  29.216  1.00  0.00     0.000 A 
ENDBRANCH  49  68
BRANCH  61  74
ATOM     74  C   UNL A   1      45.251  32.671  30.772  1.00  0.00    -0.014 A 
ATOM     75  C   UNL A   1      45.525  33.728  29.891  1.00  0.00     0.009 A 
ATOM     76  C   UNL A   1      45.336  32.897  32.154  1.00  0.00     0.009 A 
ATOM     77  C   UNL A   1      45.911  34.976  30.384  1.00  0.00     0.001 A 
ATOM     78  C   UNL A   1      45.696  34.152  32.646  1.00  0.00     0.001 A 
ATOM     79  C   UNL A   1      45.994  35.188  31.761  1.00  0.00     0.000 A 
ENDBRANCH  61  74
ENDBRANCH  35  36
ENDBRANCH  28  30
ENDBRANCH  27  28
ENDBRANCH  26  27
ENDBRANCH  25  26
ENDBRANCH  24  25
ENDBRANCH  23  24
ENDBRANCH   1  23
TORSDOF 20
ENDMDL
MODEL 3
REMARK VINA RESULT:      -8.6      4.004      7.903
REMARK SMILES CC[C@H](C(=O)OCCOCCOC(=O)c1ccc(-c2c3nc(c(-c4ccccc4)c4ccc([nH]4)c(-c4ccccc4)c4nc(c(-c5ccccc5)c5ccc2[nH]5)C=C4)C=C3)cc1)N(C)C(=O)[C@H]1CC[C@@H](C[NH3+])CC1
REMARK SMILES IDX 7 1 6 2 4 3 5 4 3 5 2 6 1 7 63 8 64 9 65 10 66 11 67 12
REMARK SMILES IDX 74 13 68 14 73 15 69 16 70 17 71 18 72 19 8 23 9 24 10 25
REMARK SMILES IDX 11 26 12 27 13 28 14 29 15 30 16 31 62 32 17 33 61 34 18 35
REMARK SMILES IDX 19 36 20 37 55 38 21 39 60 40 54 41 56 42 22 43 59 44 53 45
REMARK SMILES IDX 52 46 23 48 45 49 30 50 44 51 31 52 34 53 43 54 57 55 32 56
REMARK SMILES IDX 33 57 42 59 58 60 35 61 24 62 25 63 29 64 26 65 28 66 27 67
REMARK SMILES IDX 46 68 47 69 51 70 48 71 50 72 49 73 36 74 37 75 41 76 38 77
REMARK SMILES IDX 40 78 39 79
REMARK H PARENT 72 20 72 21 72 22 56 47 34 58
REMARK Flexibility Score: inf
ROOT
ATOM      1  C   UNL A   1      36.671  22.816  24.290  1.00  0.00     0.261 C 
ENDROOT
BRANCH   1   2
ATOM      2  O   UNL A   1      35.860  23.527  25.241  1.00  0.00    -0.462 OA
BRANCH   2   3
ATOM      3  C   UNL A   1      34.764  22.842  25.693  1.00  0.00     0.328 C 
ATOM      4  O   UNL A   1      34.701  22.311  26.795  1.00  0.00    -0.250 OA
BRANCH   3   5
ATOM      5  C   UNL A   1      33.571  23.012  24.710  1.00  0.00     0.194 C 
BRANCH   5   6
ATOM      6  C   UNL A   1      33.103  21.797  23.887  1.00  0.00     0.034 C 
ATOM      7  C   UNL A   1      32.523  22.096  22.516  1.00  0.00     0.007 C 
ENDBRANCH   5   6
BRANCH   5   8
ATOM      8  N   UNL A   1      32.457  23.675  25.434  1.00  0.00    -0.332 N 
ATOM      9  C   UNL A   1      31.345  22.849  25.877  1.00  0.00     0.147 C 
BRANCH   8  10
ATOM     10  C   UNL A   1      32.481  25.068  25.482  1.00  0.00     0.226 C 
ATOM     11  O   UNL A   1      32.081  25.671  26.483  1.00  0.00    -0.275 OA
BRANCH  10  12
ATOM     12  C   UNL A   1      33.108  25.838  24.316  1.00  0.00     0.078 C 
ATOM     13  C   UNL A   1      32.125  25.851  23.131  1.00  0.00     0.014 C 
ATOM     14  C   UNL A   1      33.452  27.269  24.766  1.00  0.00     0.014 C 
ATOM     15  C   UNL A   1      32.585  26.757  21.994  1.00  0.00     0.010 C 
ATOM     16  C   UNL A   1      33.891  28.158  23.603  1.00  0.00     0.010 C 
ATOM     17  C   UNL A   1      32.864  28.195  22.460  1.00  0.00     0.044 C 
BRANCH  17  18
ATOM     18  C   UNL A   1      31.553  28.924  22.826  1.00  0.00     0.262 C 
BRANCH  18  19
ATOM     19  N   UNL A   1      31.034  29.717  21.713  1.00  0.00    -0.357 N 
ATOM     20  H   UNL A   1      30.524  29.109  21.072  1.00  0.00     0.344 HD
ATOM     21  H   UNL A   1      31.810  30.159  21.219  1.00  0.00     0.344 HD
ATOM     22  H   UNL A   1      30.406  30.436  22.071  1.00  0.00     0.344 HD
ENDBRANCH  18  19
ENDBRANCH  17  18
ENDBRANCH  10  12
ENDBRANCH   8  10
ENDBRANCH   5   8
ENDBRANCH   3   5
ENDBRANCH   2   3
ENDBRANCH   1   2
BRANCH   1  23
ATOM     23  C   UNL A   1      37.595  21.805  24.976  1.00  0.00     0.202 C 
BRANCH  23  24
ATOM     24  O   UNL A   1      38.539  22.327  25.910  1.00  0.00    -0.374 OA
BRANCH  24  25
ATOM     25  C   UNL A   1      39.650  21.506  26.265  1.00  0.00     0.202 C 
BRANCH  25  26
ATOM     26  C   UNL A   1      40.641  22.086  27.280  1.00  0.00     0.261 C 
BRANCH  26  27
ATOM     27  O   UNL A   1      41.317  23.252  26.772  1.00  0.00    -0.460 OA
BRANCH  27  28
ATOM     28  C   UNL A   1      42.641  23.079  26.548  1.00  0.00     0.338 C 
ATOM     29  O   UNL A   1      43.209  22.051  26.207  1.00  0.00    -0.246 OA
BRANCH  28  30
ATOM     30  C   UNL A   1      43.345  24.372  26.602  1.00  0.00     0.060 A 
ATOM     31  C   UNL A   1      43.597  25.018  25.385  1.00  0.00     0.016 A 
ATOM     32  C   UNL A   1      43.846  24.887  27.799  1.00  0.00     0.016 A 
ATOM     33  C   UNL A   1      44.404  26.152  25.353  1.00  0.00     0.010 A 
ATOM     34  C   UNL A   1      44.667  26.021  27.763  1.00  0.00     0.010 A 
ATOM     35  C   UNL A   1      44.981  26.632  26.535  1.00  0.00    -0.014 A 
BRANCH  35  36
ATOM     36  C   UNL A   1      46.038  27.667  26.450  1.00  0.00     0.031 A 
ATOM     37  C   UNL A   1      45.647  29.118  26.541  1.00  0.00     0.074 A 
ATOM     38  C   UNL A   1      47.333  27.323  26.353  1.00  0.00     0.049 A 
ATOM     39  N   UNL A   1      46.408  30.183  26.531  1.00  0.00    -0.248 NA
ATOM     40  C   UNL A   1      44.208  29.405  26.664  1.00  0.00     0.031 C 
ATOM     41  C   UNL A   1      47.844  25.955  26.301  1.00  0.00     0.029 A 
ATOM     42  N   UNL A   1      48.457  28.108  26.292  1.00  0.00    -0.354 N 
ATOM     43  C   UNL A   1      45.542  31.264  26.648  1.00  0.00     0.074 A 
ATOM     44  C   UNL A   1      44.200  30.729  26.697  1.00  0.00     0.031 C 
ATOM     45  C   UNL A   1      49.185  25.995  26.216  1.00  0.00     0.029 A 
ATOM     46  C   UNL A   1      49.622  27.390  26.187  1.00  0.00     0.049 A 
ATOM     47  H   UNL A   1      48.430  29.091  26.320  1.00  0.00     0.167 HD
ATOM     48  C   UNL A   1      45.838  32.584  26.718  1.00  0.00     0.031 A 
ATOM     49  C   UNL A   1      50.896  27.811  26.075  1.00  0.00     0.031 A 
ATOM     50  C   UNL A   1      47.170  33.123  26.653  1.00  0.00     0.049 A 
ATOM     51  C   UNL A   1      51.193  29.286  26.084  1.00  0.00     0.074 A 
ATOM     52  C   UNL A   1      47.570  34.447  26.721  1.00  0.00     0.029 A 
ATOM     53  N   UNL A   1      48.318  32.364  26.499  1.00  0.00    -0.354 N 
ATOM     54  N   UNL A   1      50.368  30.295  26.218  1.00  0.00    -0.248 NA
ATOM     55  C   UNL A   1      52.603  29.676  25.934  1.00  0.00     0.031 C 
ATOM     56  C   UNL A   1      48.960  34.491  26.561  1.00  0.00     0.029 A 
ATOM     57  C   UNL A   1      49.427  33.191  26.445  1.00  0.00     0.049 A 
ATOM     58  H   UNL A   1      48.344  31.382  26.436  1.00  0.00     0.167 HD
ATOM     59  C   UNL A   1      51.159  31.437  26.195  1.00  0.00     0.074 A 
ATOM     60  C   UNL A   1      52.530  30.995  26.048  1.00  0.00     0.031 C 
ATOM     61  C   UNL A   1      50.784  32.737  26.292  1.00  0.00     0.031 A 
BRANCH  48  62
ATOM     62  C   UNL A   1      44.685  33.539  26.839  1.00  0.00    -0.014 A 
ATOM     63  C   UNL A   1      44.206  33.941  28.096  1.00  0.00     0.009 A 
ATOM     64  C   UNL A   1      44.085  34.060  25.683  1.00  0.00     0.009 A 
ATOM     65  C   UNL A   1      43.125  34.821  28.190  1.00  0.00     0.001 A 
ATOM     66  C   UNL A   1      43.021  34.956  25.780  1.00  0.00     0.001 A 
ATOM     67  C   UNL A   1      42.536  35.330  27.033  1.00  0.00     0.000 A 
ENDBRANCH  48  62
BRANCH  49  68
ATOM     68  C   UNL A   1      51.995  26.822  25.934  1.00  0.00    -0.014 A 
ATOM     69  C   UNL A   1      52.308  26.274  24.681  1.00  0.00     0.009 A 
ATOM     70  C   UNL A   1      52.724  26.408  27.059  1.00  0.00     0.009 A 
ATOM     71  C   UNL A   1      53.316  25.314  24.563  1.00  0.00     0.001 A 
ATOM     72  C   UNL A   1      53.747  25.467  26.934  1.00  0.00     0.001 A 
ATOM     73  C   UNL A   1      54.037  24.915  25.687  1.00  0.00     0.000 A 
ENDBRANCH  49  68
BRANCH  61  74
ATOM     74  C   UNL A   1      51.877  33.768  26.271  1.00  0.00    -0.014 A 
ATOM     75  C   UNL A   1      52.371  34.280  25.061  1.00  0.00     0.009 A 
ATOM     76  C   UNL A   1      52.398  34.253  27.480  1.00  0.00     0.009 A 
ATOM     77  C   UNL A   1      53.391  35.234  25.063  1.00  0.00     0.001 A 
ATOM     78  C   UNL A   1      53.399  35.224  27.480  1.00  0.00     0.001 A 
ATOM     79  C   UNL A   1      53.902  35.706  26.272  1.00  0.00     0.000 A 
ENDBRANCH  61  74
ENDBRANCH  35  36
ENDBRANCH  28  30
ENDBRANCH  27  28
ENDBRANCH  26  27
ENDBRANCH  25  26
ENDBRANCH  24  25
ENDBRANCH  23  24
ENDBRANCH   1  23
TORSDOF 20
ENDMDL
