MODEL 1
REMARK VINA RESULT:     -10.5      0.000      0.000
REMARK SMILES COC(=O)c1ccc(Cl)c(-c2ccc(C(=O)OCCOCCOC(=O)c3ccc(-c4c5nc(c(-c6ccccc6)c6ccc([nH]6)c(-c6ccccc6)c6nc(c(-c7ccccc7)c7ccc4[nH]7)C=C6)C=C5)cc3)c(F)c2)c1
REMARK SMILES IDX 19 1 18 2 17 3 15 4 16 5 14 6 11 7 12 8 76 9 13 10 74 11
REMARK SMILES IDX 75 12 10 13 5 14 6 15 77 16 7 17 8 18 9 19 3 20 4 21 2 22
REMARK SMILES IDX 1 23 20 24 21 25 22 26 23 27 24 28 25 29 26 30 27 31 73 32
REMARK SMILES IDX 28 33 72 34 29 35 30 36 31 37 66 38 32 39 71 40 65 41 67 42
REMARK SMILES IDX 33 43 70 44 64 45 63 46 34 48 56 49 41 50 55 51 42 52 45 53
REMARK SMILES IDX 54 54 68 55 43 56 44 57 53 59 69 60 46 61 35 62 36 63 40 64
REMARK SMILES IDX 37 65 39 66 38 67 57 68 58 69 62 70 59 71 61 72 60 73 47 74
REMARK SMILES IDX 48 75 52 76 49 77 51 78 50 79
REMARK H PARENT 67 47 45 58
REMARK Flexibility Score: inf
ROOT
ATOM      1  C   UNL A   1      35.650  22.161  25.868  1.00  0.00     0.202 C 
ENDROOT
BRANCH   1   2
ATOM      2  C   UNL A   1      34.591  21.057  25.897  1.00  0.00     0.261 C 
BRANCH   2   3
ATOM      3  O   UNL A   1      33.327  21.578  26.335  1.00  0.00    -0.460 OA
BRANCH   3   4
ATOM      4  C   UNL A   1      32.337  21.529  25.415  1.00  0.00     0.341 C 
ATOM      5  O   UNL A   1      31.795  20.526  24.974  1.00  0.00    -0.246 OA
BRANCH   4   6
ATOM      6  C   UNL A   1      31.834  22.880  25.114  1.00  0.00     0.095 A 
ATOM      7  C   UNL A   1      31.117  25.536  24.518  1.00  0.00    -0.014 A 
ATOM      8  C   UNL A   1      31.941  24.806  23.648  1.00  0.00     0.010 A 
ATOM      9  C   UNL A   1      30.605  24.889  25.657  1.00  0.00     0.049 A 
ATOM     10  C   UNL A   1      32.299  23.491  23.943  1.00  0.00     0.019 A 
ATOM     11  C   UNL A   1      30.964  23.571  25.950  1.00  0.00     0.138 A 
ATOM     12  F   UNL A   1      30.497  23.021  27.079  1.00  0.00    -0.206 F 
BRANCH   7  13
ATOM     13  C   UNL A   1      30.934  26.983  24.320  1.00  0.00     0.001 A 
ATOM     14  C   UNL A   1      29.506  28.754  23.403  1.00  0.00     0.060 A 
ATOM     15  C   UNL A   1      30.340  29.727  23.960  1.00  0.00     0.017 A 
ATOM     16  C   UNL A   1      29.802  27.399  23.593  1.00  0.00     0.026 A 
ATOM     17  C   UNL A   1      31.469  29.336  24.686  1.00  0.00     0.022 A 
ATOM     18  C   UNL A   1      31.769  27.976  24.862  1.00  0.00     0.048 A 
ATOM     19  Cl  UNL A   1      33.197  27.584  25.755  1.00  0.00    -0.084 Cl
BRANCH  14  20
ATOM     20  C   UNL A   1      28.291  29.088  22.624  1.00  0.00     0.337 C 
ATOM     21  O   UNL A   1      27.160  28.820  23.001  1.00  0.00    -0.246 OA
BRANCH  20  22
ATOM     22  O   UNL A   1      28.633  29.640  21.437  1.00  0.00    -0.465 OA
ATOM     23  C   UNL A   1      28.204  30.995  21.292  1.00  0.00     0.282 C 
ENDBRANCH  20  22
ENDBRANCH  14  20
ENDBRANCH   7  13
ENDBRANCH   4   6
ENDBRANCH   3   4
ENDBRANCH   2   3
ENDBRANCH   1   2
BRANCH   1  24
ATOM     24  O   UNL A   1      36.917  21.797  25.319  1.00  0.00    -0.374 OA
BRANCH  24  25
ATOM     25  C   UNL A   1      37.082  20.439  24.905  1.00  0.00     0.202 C 
BRANCH  25  26
ATOM     26  C   UNL A   1      38.509  19.879  24.968  1.00  0.00     0.261 C 
BRANCH  26  27
ATOM     27  O   UNL A   1      39.220  20.340  26.132  1.00  0.00    -0.460 OA
BRANCH  27  28
ATOM     28  C   UNL A   1      40.551  20.092  26.121  1.00  0.00     0.338 C 
ATOM     29  O   UNL A   1      41.121  19.119  25.648  1.00  0.00    -0.246 OA
BRANCH  28  30
ATOM     30  C   UNL A   1      41.286  21.267  26.623  1.00  0.00     0.060 A 
ATOM     31  C   UNL A   1      41.258  21.507  28.003  1.00  0.00     0.016 A 
ATOM     32  C   UNL A   1      41.930  22.159  25.762  1.00  0.00     0.016 A 
ATOM     33  C   UNL A   1      41.832  22.665  28.523  1.00  0.00     0.010 A 
ATOM     34  C   UNL A   1      42.496  23.326  26.285  1.00  0.00     0.010 A 
ATOM     35  C   UNL A   1      42.421  23.601  27.662  1.00  0.00    -0.014 A 
BRANCH  35  36
ATOM     36  C   UNL A   1      42.825  24.926  28.188  1.00  0.00     0.031 A 
ATOM     37  C   UNL A   1      41.775  25.991  28.368  1.00  0.00     0.074 A 
ATOM     38  C   UNL A   1      44.100  25.171  28.538  1.00  0.00     0.049 A 
ATOM     39  N   UNL A   1      41.910  27.226  28.783  1.00  0.00    -0.248 NA
ATOM     40  C   UNL A   1      40.391  25.610  28.042  1.00  0.00     0.031 C 
ATOM     41  C   UNL A   1      45.199  24.210  28.467  1.00  0.00     0.029 A 
ATOM     42  N   UNL A   1      44.683  26.314  29.027  1.00  0.00    -0.354 N 
ATOM     43  C   UNL A   1      40.629  27.767  28.771  1.00  0.00     0.074 A 
ATOM     44  C   UNL A   1      39.739  26.740  28.276  1.00  0.00     0.031 C 
ATOM     45  C   UNL A   1      46.327  24.805  28.895  1.00  0.00     0.029 A 
ATOM     46  C   UNL A   1      46.036  26.196  29.236  1.00  0.00     0.049 A 
ATOM     47  H   UNL A   1      44.179  27.140  29.211  1.00  0.00     0.167 HD
ATOM     48  C   UNL A   1      40.229  29.004  29.150  1.00  0.00     0.031 A 
ATOM     49  C   UNL A   1      46.937  27.112  29.636  1.00  0.00     0.031 A 
ATOM     50  C   UNL A   1      41.113  30.035  29.621  1.00  0.00     0.049 A 
ATOM     51  C   UNL A   1      46.479  28.514  29.945  1.00  0.00     0.074 A 
ATOM     52  C   UNL A   1      40.803  31.327  30.011  1.00  0.00     0.029 A 
ATOM     53  N   UNL A   1      42.484  29.891  29.767  1.00  0.00    -0.354 N 
ATOM     54  N   UNL A   1      45.266  29.011  29.935  1.00  0.00    -0.248 NA
ATOM     55  C   UNL A   1      47.520  29.480  30.328  1.00  0.00     0.031 C 
ATOM     56  C   UNL A   1      41.993  31.978  30.349  1.00  0.00     0.029 A 
ATOM     57  C   UNL A   1      43.035  31.075  30.222  1.00  0.00     0.049 A 
ATOM     58  H   UNL A   1      42.989  29.068  29.574  1.00  0.00     0.167 HD
ATOM     59  C   UNL A   1      45.395  30.333  30.343  1.00  0.00     0.074 A 
ATOM     60  C   UNL A   1      46.801  30.557  30.605  1.00  0.00     0.031 C 
ATOM     61  C   UNL A   1      44.435  31.279  30.490  1.00  0.00     0.031 A 
BRANCH  48  62
ATOM     62  C   UNL A   1      38.763  29.316  29.047  1.00  0.00    -0.014 A 
ATOM     63  C   UNL A   1      38.199  29.754  27.838  1.00  0.00     0.009 A 
ATOM     64  C   UNL A   1      37.927  29.130  30.160  1.00  0.00     0.009 A 
ATOM     65  C   UNL A   1      36.832  30.025  27.753  1.00  0.00     0.001 A 
ATOM     66  C   UNL A   1      36.557  29.378  30.064  1.00  0.00     0.001 A 
ATOM     67  C   UNL A   1      36.012  29.831  28.863  1.00  0.00     0.000 A 
ENDBRANCH  48  62
BRANCH  49  68
ATOM     68  C   UNL A   1      48.376  26.756  29.747  1.00  0.00    -0.014 A 
ATOM     69  C   UNL A   1      49.255  26.987  28.677  1.00  0.00     0.009 A 
ATOM     70  C   UNL A   1      48.868  26.136  30.906  1.00  0.00     0.009 A 
ATOM     71  C   UNL A   1      50.586  26.569  28.752  1.00  0.00     0.001 A 
ATOM     72  C   UNL A   1      50.206  25.747  30.990  1.00  0.00     0.001 A 
ATOM     73  C   UNL A   1      51.061  25.953  29.908  1.00  0.00     0.000 A 
ENDBRANCH  49  68
BRANCH  61  74
ATOM     74  C   UNL A   1      44.865  32.625  31.003  1.00  0.00    -0.014 A 
ATOM     75  C   UNL A   1      44.739  32.966  32.358  1.00  0.00     0.009 A 
ATOM     76  C   UNL A   1      45.439  33.551  30.117  1.00  0.00     0.009 A 
ATOM     77  C   UNL A   1      45.150  34.222  32.810  1.00  0.00     0.001 A 
ATOM     78  C   UNL A   1      45.875  34.794  30.577  1.00  0.00     0.001 A 
ATOM     79  C   UNL A   1      45.722  35.132  31.920  1.00  0.00     0.000 A 
ENDBRANCH  61  74
ENDBRANCH  35  36
ENDBRANCH  28  30
ENDBRANCH  27  28
ENDBRANCH  26  27
ENDBRANCH  25  26
ENDBRANCH  24  25
ENDBRANCH   1  24
TORSDOF 17
ENDMDL
MODEL 2
REMARK VINA RESULT:     -10.5      6.157     10.243
REMARK SMILES COC(=O)c1ccc(Cl)c(-c2ccc(C(=O)OCCOCCOC(=O)c3ccc(-c4c5nc(c(-c6ccccc6)c6ccc([nH]6)c(-c6ccccc6)c6nc(c(-c7ccccc7)c7ccc4[nH]7)C=C6)C=C5)cc3)c(F)c2)c1
REMARK SMILES IDX 19 1 18 2 17 3 15 4 16 5 14 6 11 7 12 8 76 9 13 10 74 11
REMARK SMILES IDX 75 12 10 13 5 14 6 15 77 16 7 17 8 18 9 19 3 20 4 21 2 22
REMARK SMILES IDX 1 23 20 24 21 25 22 26 23 27 24 28 25 29 26 30 27 31 73 32
REMARK SMILES IDX 28 33 72 34 29 35 30 36 31 37 66 38 32 39 71 40 65 41 67 42
REMARK SMILES IDX 33 43 70 44 64 45 63 46 34 48 56 49 41 50 55 51 42 52 45 53
REMARK SMILES IDX 54 54 68 55 43 56 44 57 53 59 69 60 46 61 35 62 36 63 40 64
REMARK SMILES IDX 37 65 39 66 38 67 57 68 58 69 62 70 59 71 61 72 60 73 47 74
REMARK SMILES IDX 48 75 52 76 49 77 51 78 50 79
REMARK H PARENT 67 47 45 58
REMARK Flexibility Score: inf
ROOT
ATOM      1  C   UNL A   1      34.401  34.478  31.016  1.00  0.00     0.202 C 
ENDROOT
BRANCH   1   2
ATOM      2  C   UNL A   1      33.552  34.692  29.760  1.00  0.00     0.261 C 
BRANCH   2   3
ATOM      3  O   UNL A   1      33.777  33.638  28.811  1.00  0.00    -0.460 OA
BRANCH   3   4
ATOM      4  C   UNL A   1      34.811  33.842  27.963  1.00  0.00     0.341 C 
ATOM      5  O   UNL A   1      34.954  34.782  27.195  1.00  0.00    -0.246 OA
BRANCH   4   6
ATOM      6  C   UNL A   1      35.882  32.858  28.195  1.00  0.00     0.095 A 
ATOM      7  C   UNL A   1      37.754  30.832  28.754  1.00  0.00    -0.014 A 
ATOM      8  C   UNL A   1      36.584  30.545  28.034  1.00  0.00     0.010 A 
ATOM      9  C   UNL A   1      37.999  32.165  29.131  1.00  0.00     0.049 A 
ATOM     10  C   UNL A   1      35.654  31.548  27.758  1.00  0.00     0.019 A 
ATOM     11  C   UNL A   1      37.067  33.167  28.853  1.00  0.00     0.138 A 
ATOM     12  F   UNL A   1      37.321  34.409  29.286  1.00  0.00    -0.206 F 
BRANCH   7  13
ATOM     13  C   UNL A   1      38.608  29.736  29.238  1.00  0.00     0.001 A 
ATOM     14  C   UNL A   1      40.765  28.586  29.033  1.00  0.00     0.060 A 
ATOM     15  C   UNL A   1      40.447  27.774  30.125  1.00  0.00     0.017 A 
ATOM     16  C   UNL A   1      39.854  29.559  28.606  1.00  0.00     0.026 A 
ATOM     17  C   UNL A   1      39.215  27.934  30.768  1.00  0.00     0.022 A 
ATOM     18  C   UNL A   1      38.300  28.902  30.327  1.00  0.00     0.048 A 
ATOM     19  Cl  UNL A   1      36.793  29.014  31.168  1.00  0.00    -0.084 Cl
BRANCH  14  20
ATOM     20  C   UNL A   1      42.049  28.481  28.301  1.00  0.00     0.337 C 
ATOM     21  O   UNL A   1      42.993  27.813  28.697  1.00  0.00    -0.246 OA
BRANCH  20  22
ATOM     22  O   UNL A   1      42.033  29.281  27.210  1.00  0.00    -0.465 OA
ATOM     23  C   UNL A   1      42.926  28.859  26.178  1.00  0.00     0.282 C 
ENDBRANCH  20  22
ENDBRANCH  14  20
ENDBRANCH   7  13
ENDBRANCH   4   6
ENDBRANCH   3   4
ENDBRANCH   2   3
ENDBRANCH   1   2
BRANCH   1  24
ATOM     24  O   UNL A   1      34.107  35.333  32.121  1.00  0.00    -0.374 OA
BRANCH  24  25
ATOM     25  C   UNL A   1      35.134  35.514  33.097  1.00  0.00     0.202 C 
BRANCH  25  26
ATOM     26  C   UNL A   1      36.496  34.888  32.774  1.00  0.00     0.261 C 
BRANCH  26  27
ATOM     27  O   UNL A   1      37.349  34.821  33.931  1.00  0.00    -0.460 OA
BRANCH  27  28
ATOM     28  C   UNL A   1      37.259  33.670  34.640  1.00  0.00     0.338 C 
ATOM     29  O   UNL A   1      36.379  33.348  35.424  1.00  0.00    -0.246 OA
BRANCH  28  30
ATOM     30  C   UNL A   1      38.312  32.731  34.209  1.00  0.00     0.060 A 
ATOM     31  C   UNL A   1      39.609  32.950  34.690  1.00  0.00     0.016 A 
ATOM     32  C   UNL A   1      38.056  31.702  33.300  1.00  0.00     0.016 A 
ATOM     33  C   UNL A   1      40.667  32.170  34.226  1.00  0.00     0.010 A 
ATOM     34  C   UNL A   1      39.121  30.928  32.828  1.00  0.00     0.010 A 
ATOM     35  C   UNL A   1      40.435  31.180  33.263  1.00  0.00    -0.014 A 
BRANCH  35  36
ATOM     36  C   UNL A   1      41.585  30.511  32.609  1.00  0.00     0.031 A 
ATOM     37  C   UNL A   1      42.190  31.135  31.380  1.00  0.00     0.074 A 
ATOM     38  C   UNL A   1      42.111  29.384  33.121  1.00  0.00     0.049 A 
ATOM     39  N   UNL A   1      43.177  30.707  30.633  1.00  0.00    -0.248 NA
ATOM     40  C   UNL A   1      41.608  32.413  30.938  1.00  0.00     0.031 C 
ATOM     41  C   UNL A   1      41.656  28.711  34.336  1.00  0.00     0.029 A 
ATOM     42  N   UNL A   1      43.152  28.608  32.675  1.00  0.00    -0.354 N 
ATOM     43  C   UNL A   1      43.336  31.665  29.638  1.00  0.00     0.074 A 
ATOM     44  C   UNL A   1      42.323  32.675  29.854  1.00  0.00     0.031 C 
ATOM     45  C   UNL A   1      42.413  27.618  34.538  1.00  0.00     0.029 A 
ATOM     46  C   UNL A   1      43.381  27.496  33.450  1.00  0.00     0.049 A 
ATOM     47  H   UNL A   1      43.684  28.827  31.876  1.00  0.00     0.167 HD
ATOM     48  C   UNL A   1      44.250  31.705  28.640  1.00  0.00     0.031 A 
ATOM     49  C   UNL A   1      44.257  26.488  33.286  1.00  0.00     0.031 A 
ATOM     50  C   UNL A   1      45.244  30.693  28.407  1.00  0.00     0.049 A 
ATOM     51  C   UNL A   1      45.190  26.503  32.103  1.00  0.00     0.074 A 
ATOM     52  C   UNL A   1      46.203  30.637  27.410  1.00  0.00     0.029 A 
ATOM     53  N   UNL A   1      45.407  29.557  29.183  1.00  0.00    -0.354 N 
ATOM     54  N   UNL A   1      45.334  27.415  31.172  1.00  0.00    -0.248 NA
ATOM     55  C   UNL A   1      46.087  25.348  31.953  1.00  0.00     0.031 C 
ATOM     56  C   UNL A   1      46.916  29.443  27.556  1.00  0.00     0.029 A 
ATOM     57  C   UNL A   1      46.437  28.784  28.677  1.00  0.00     0.049 A 
ATOM     58  H   UNL A   1      44.869  29.332  29.977  1.00  0.00     0.167 HD
ATOM     59  C   UNL A   1      46.358  26.961  30.351  1.00  0.00     0.074 A 
ATOM     60  C   UNL A   1      46.809  25.700  30.899  1.00  0.00     0.031 C 
ATOM     61  C   UNL A   1      46.882  27.537  29.241  1.00  0.00     0.031 A 
BRANCH  48  62
ATOM     62  C   UNL A   1      44.201  32.882  27.706  1.00  0.00    -0.014 A 
ATOM     63  C   UNL A   1      44.566  34.166  28.141  1.00  0.00     0.009 A 
ATOM     64  C   UNL A   1      43.825  32.698  26.366  1.00  0.00     0.009 A 
ATOM     65  C   UNL A   1      44.530  35.247  27.258  1.00  0.00     0.001 A 
ATOM     66  C   UNL A   1      43.816  33.777  25.480  1.00  0.00     0.001 A 
ATOM     67  C   UNL A   1      44.162  35.051  25.929  1.00  0.00     0.000 A 
ENDBRANCH  48  62
BRANCH  49  68
ATOM     68  C   UNL A   1      44.290  25.353  34.246  1.00  0.00    -0.014 A 
ATOM     69  C   UNL A   1      45.125  25.392  35.373  1.00  0.00     0.009 A 
ATOM     70  C   UNL A   1      43.522  24.201  34.011  1.00  0.00     0.009 A 
ATOM     71  C   UNL A   1      45.219  24.287  36.222  1.00  0.00     0.001 A 
ATOM     72  C   UNL A   1      43.595  23.110  34.879  1.00  0.00     0.001 A 
ATOM     73  C   UNL A   1      44.453  23.149  35.977  1.00  0.00     0.000 A 
ENDBRANCH  49  68
BRANCH  61  74
ATOM     74  C   UNL A   1      48.033  26.835  28.577  1.00  0.00    -0.014 A 
ATOM     75  C   UNL A   1      47.824  25.855  27.594  1.00  0.00     0.009 A 
ATOM     76  C   UNL A   1      49.348  27.190  28.917  1.00  0.00     0.009 A 
ATOM     77  C   UNL A   1      48.911  25.220  26.990  1.00  0.00     0.001 A 
ATOM     78  C   UNL A   1      50.432  26.574  28.290  1.00  0.00     0.001 A 
ATOM     79  C   UNL A   1      50.213  25.583  27.335  1.00  0.00     0.000 A 
ENDBRANCH  61  74
ENDBRANCH  35  36
ENDBRANCH  28  30
ENDBRANCH  27  28
ENDBRANCH  26  27
ENDBRANCH  25  26
ENDBRANCH  24  25
ENDBRANCH   1  24
TORSDOF 17
ENDMDL
MODEL 3
REMARK VINA RESULT:     -10.3      4.015      8.128
REMARK SMILES COC(=O)c1ccc(Cl)c(-c2ccc(C(=O)OCCOCCOC(=O)c3ccc(-c4c5nc(c(-c6ccccc6)c6ccc([nH]6)c(-c6ccccc6)c6nc(c(-c7ccccc7)c7ccc4[nH]7)C=C6)C=C5)cc3)c(F)c2)c1
REMARK SMILES IDX 19 1 18 2 17 3 15 4 16 5 14 6 11 7 12 8 76 9 13 10 74 11
REMARK SMILES IDX 75 12 10 13 5 14 6 15 77 16 7 17 8 18 9 19 3 20 4 21 2 22
REMARK SMILES IDX 1 23 20 24 21 25 22 26 23 27 24 28 25 29 26 30 27 31 73 32
REMARK SMILES IDX 28 33 72 34 29 35 30 36 31 37 66 38 32 39 71 40 65 41 67 42
REMARK SMILES IDX 33 43 70 44 64 45 63 46 34 48 56 49 41 50 55 51 42 52 45 53
REMARK SMILES IDX 54 54 68 55 43 56 44 57 53 59 69 60 46 61 35 62 36 63 40 64
REMARK SMILES IDX 37 65 39 66 38 67 57 68 58 69 62 70 59 71 61 72 60 73 47 74
REMARK SMILES IDX 48 75 52 76 49 77 51 78 50 79
REMARK H PARENT 67 47 45 58
REMARK Flexibility Score: inf
ROOT
ATOM      1  C   UNL A   1      42.478  21.340  27.593  1.00  0.00     0.202 C 
ENDROOT
BRANCH   1   2
ATOM      2  C   UNL A   1      41.237  22.128  28.019  1.00  0.00     0.261 C 
BRANCH   2   3
ATOM      3  O   UNL A   1      40.045  21.518  27.499  1.00  0.00    -0.460 OA
BRANCH   3   4
ATOM      4  C   UNL A   1      39.875  21.640  26.163  1.00  0.00     0.341 C 
ATOM      5  O   UNL A   1      40.712  21.434  25.296  1.00  0.00    -0.246 OA
BRANCH   4   6
ATOM      6  C   UNL A   1      38.461  21.892  25.835  1.00  0.00     0.095 A 
ATOM      7  C   UNL A   1      35.816  22.306  24.969  1.00  0.00    -0.014 A 
ATOM      8  C   UNL A   1      36.446  21.066  24.775  1.00  0.00     0.010 A 
ATOM      9  C   UNL A   1      36.513  23.310  25.664  1.00  0.00     0.049 A 
ATOM     10  C   UNL A   1      37.758  20.861  25.201  1.00  0.00     0.019 A 
ATOM     11  C   UNL A   1      37.826  23.101  26.092  1.00  0.00     0.138 A 
ATOM     12  F   UNL A   1      38.466  24.112  26.696  1.00  0.00    -0.206 F 
BRANCH   7  13
ATOM     13  C   UNL A   1      34.528  22.587  24.316  1.00  0.00     0.001 A 
ATOM     14  C   UNL A   1      33.338  23.925  22.638  1.00  0.00     0.060 A 
ATOM     15  C   UNL A   1      32.177  23.178  22.853  1.00  0.00     0.017 A 
ATOM     16  C   UNL A   1      34.499  23.621  23.360  1.00  0.00     0.026 A 
ATOM     17  C   UNL A   1      32.184  22.146  23.797  1.00  0.00     0.022 A 
ATOM     18  C   UNL A   1      33.346  21.855  24.527  1.00  0.00     0.048 A 
ATOM     19  Cl  UNL A   1      33.257  20.577  25.689  1.00  0.00    -0.084 Cl
BRANCH  14  20
ATOM     20  C   UNL A   1      33.412  25.031  21.655  1.00  0.00     0.337 C 
ATOM     21  O   UNL A   1      32.916  24.970  20.540  1.00  0.00    -0.246 OA
BRANCH  20  22
ATOM     22  O   UNL A   1      34.162  26.045  22.146  1.00  0.00    -0.465 OA
ATOM     23  C   UNL A   1      33.389  27.125  22.673  1.00  0.00     0.282 C 
ENDBRANCH  20  22
ENDBRANCH  14  20
ENDBRANCH   7  13
ENDBRANCH   4   6
ENDBRANCH   3   4
ENDBRANCH   2   3
ENDBRANCH   1   2
BRANCH   1  24
ATOM     24  O   UNL A   1      43.526  22.102  26.994  1.00  0.00    -0.374 OA
BRANCH  24  25
ATOM     25  C   UNL A   1      44.163  21.544  25.843  1.00  0.00     0.202 C 
BRANCH  25  26
ATOM     26  C   UNL A   1      44.028  22.341  24.539  1.00  0.00     0.261 C 
BRANCH  26  27
ATOM     27  O   UNL A   1      43.279  23.557  24.724  1.00  0.00    -0.460 OA
BRANCH  27  28
ATOM     28  C   UNL A   1      44.023  24.641  25.048  1.00  0.00     0.338 C 
ATOM     29  O   UNL A   1      45.100  24.971  24.574  1.00  0.00    -0.246 OA
BRANCH  28  30
ATOM     30  C   UNL A   1      43.269  25.512  25.968  1.00  0.00     0.060 A 
ATOM     31  C   UNL A   1      43.778  26.795  26.207  1.00  0.00     0.016 A 
ATOM     32  C   UNL A   1      42.130  25.064  26.642  1.00  0.00     0.016 A 
ATOM     33  C   UNL A   1      43.178  27.620  27.156  1.00  0.00     0.010 A 
ATOM     34  C   UNL A   1      41.535  25.890  27.601  1.00  0.00     0.010 A 
ATOM     35  C   UNL A   1      42.076  27.156  27.887  1.00  0.00    -0.014 A 
BRANCH  35  36
ATOM     36  C   UNL A   1      41.583  27.941  29.045  1.00  0.00     0.031 A 
ATOM     37  C   UNL A   1      42.304  27.827  30.362  1.00  0.00     0.074 A 
ATOM     38  C   UNL A   1      40.534  28.772  28.920  1.00  0.00     0.049 A 
ATOM     39  N   UNL A   1      42.029  28.397  31.509  1.00  0.00    -0.248 NA
ATOM     40  C   UNL A   1      43.494  26.962  30.387  1.00  0.00     0.031 C 
ATOM     41  C   UNL A   1      39.786  29.015  27.688  1.00  0.00     0.029 A 
ATOM     42  N   UNL A   1      39.917  29.569  29.852  1.00  0.00    -0.354 N 
ATOM     43  C   UNL A   1      43.014  27.962  32.389  1.00  0.00     0.074 A 
ATOM     44  C   UNL A   1      43.869  27.055  31.655  1.00  0.00     0.031 C 
ATOM     45  C   UNL A   1      38.806  29.901  27.941  1.00  0.00     0.029 A 
ATOM     46  C   UNL A   1      38.837  30.259  29.358  1.00  0.00     0.049 A 
ATOM     47  H   UNL A   1      40.219  29.639  30.787  1.00  0.00     0.167 HD
ATOM     48  C   UNL A   1      43.196  28.296  33.688  1.00  0.00     0.031 A 
ATOM     49  C   UNL A   1      37.963  31.070  29.983  1.00  0.00     0.031 A 
ATOM     50  C   UNL A   1      42.336  29.179  34.428  1.00  0.00     0.049 A 
ATOM     51  C   UNL A   1      38.126  31.338  31.456  1.00  0.00     0.074 A 
ATOM     52  C   UNL A   1      42.429  29.564  35.755  1.00  0.00     0.029 A 
ATOM     53  N   UNL A   1      41.222  29.815  33.904  1.00  0.00    -0.354 N 
ATOM     54  N   UNL A   1      39.063  30.925  32.275  1.00  0.00    -0.248 NA
ATOM     55  C   UNL A   1      37.109  32.191  32.090  1.00  0.00     0.031 C 
ATOM     56  C   UNL A   1      41.344  30.397  36.044  1.00  0.00     0.029 A 
ATOM     57  C   UNL A   1      40.608  30.574  34.884  1.00  0.00     0.049 A 
ATOM     58  H   UNL A   1      40.913  29.738  32.972  1.00  0.00     0.167 HD
ATOM     59  C   UNL A   1      38.768  31.496  33.508  1.00  0.00     0.074 A 
ATOM     60  C   UNL A   1      37.573  32.293  33.326  1.00  0.00     0.031 C 
ATOM     61  C   UNL A   1      39.427  31.372  34.686  1.00  0.00     0.031 A 
BRANCH  48  62
ATOM     62  C   UNL A   1      44.368  27.682  34.401  1.00  0.00    -0.014 A 
ATOM     63  C   UNL A   1      45.605  28.343  34.461  1.00  0.00     0.009 A 
ATOM     64  C   UNL A   1      44.222  26.448  35.054  1.00  0.00     0.009 A 
ATOM     65  C   UNL A   1      46.680  27.767  35.140  1.00  0.00     0.001 A 
ATOM     66  C   UNL A   1      45.293  25.888  35.753  1.00  0.00     0.001 A 
ATOM     67  C   UNL A   1      46.522  26.545  35.790  1.00  0.00     0.000 A 
ENDBRANCH  48  62
BRANCH  49  68
ATOM     68  C   UNL A   1      36.830  31.677  29.236  1.00  0.00    -0.014 A 
ATOM     69  C   UNL A   1      36.915  32.991  28.749  1.00  0.00     0.009 A 
ATOM     70  C   UNL A   1      35.636  30.962  29.051  1.00  0.00     0.009 A 
ATOM     71  C   UNL A   1      35.815  33.587  28.127  1.00  0.00     0.001 A 
ATOM     72  C   UNL A   1      34.549  31.550  28.402  1.00  0.00     0.001 A 
ATOM     73  C   UNL A   1      34.635  32.867  27.952  1.00  0.00     0.000 A 
ENDBRANCH  49  68
BRANCH  61  74
ATOM     74  C   UNL A   1      38.902  32.156  35.855  1.00  0.00    -0.014 A 
ATOM     75  C   UNL A   1      38.039  31.575  36.798  1.00  0.00     0.009 A 
ATOM     76  C   UNL A   1      39.310  33.487  36.034  1.00  0.00     0.009 A 
ATOM     77  C   UNL A   1      37.569  32.325  37.878  1.00  0.00     0.001 A 
ATOM     78  C   UNL A   1      38.861  34.225  37.131  1.00  0.00     0.001 A 
ATOM     79  C   UNL A   1      37.984  33.646  38.046  1.00  0.00     0.000 A 
ENDBRANCH  61  74
ENDBRANCH  35  36
ENDBRANCH  28  30
ENDBRANCH  27  28
ENDBRANCH  26  27
ENDBRANCH  25  26
ENDBRANCH  24  25
ENDBRANCH   1  24
TORSDOF 17
ENDMDL
