MODEL 1
REMARK VINA RESULT:     -10.7      0.000      0.000
REMARK SMILES COc1cc(/C=C2\SC(=S)N(CC(=O)OCCOCCOC(=O)c3ccc(-c4c5nc(c(-c6ccccc6)c6ccc([nH]6)c(-c6ccccc6)c6nc(c(-c7ccccc7)c7ccc4[nH]7)C=C6)C=C5)cc3)C2=O)cc2c1OCO2
REMARK SMILES IDX 17 1 16 2 15 3 13 4 14 5 12 6 11 7 6 8 7 9 8 10 72 11 9 12
REMARK SMILES IDX 73 13 10 14 5 15 3 16 4 17 76 18 75 19 77 20 74 21 79 22
REMARK SMILES IDX 78 23 2 24 1 25 18 26 19 27 20 28 21 29 22 30 23 31 24 32
REMARK SMILES IDX 25 33 71 34 26 35 70 36 27 37 28 38 29 39 64 40 30 41 69 42
REMARK SMILES IDX 63 43 65 44 31 45 68 46 62 47 61 48 32 50 54 51 39 52 53 53
REMARK SMILES IDX 40 54 43 55 52 56 66 57 41 58 42 59 51 61 67 62 44 63 33 64
REMARK SMILES IDX 34 65 38 66 35 67 37 68 36 69 55 70 56 71 60 72 57 73 59 74
REMARK SMILES IDX 58 75 45 76 46 77 50 78 47 79 49 80 48 81
REMARK H PARENT 65 49 43 60
REMARK Flexibility Score: inf
ROOT
ATOM      1  C   UNL A   1      33.253  35.384  30.231  1.00  0.00     0.202 C 
ENDROOT
BRANCH   1   2
ATOM      2  C   UNL A   1      33.852  35.418  28.822  1.00  0.00     0.261 C 
BRANCH   2   3
ATOM      3  O   UNL A   1      33.554  34.219  28.079  1.00  0.00    -0.462 OA
BRANCH   3   4
ATOM      4  C   UNL A   1      34.566  33.311  28.014  1.00  0.00     0.326 C 
ATOM      5  O   UNL A   1      35.685  33.542  27.569  1.00  0.00    -0.250 OA
BRANCH   4   6
ATOM      6  C   UNL A   1      34.210  31.958  28.616  1.00  0.00     0.250 C 
BRANCH   6   7
ATOM      7  N   UNL A   1      33.985  30.848  27.688  1.00  0.00    -0.282 N 
ATOM      8  C   UNL A   1      31.590  29.103  25.613  1.00  0.00     0.029 C 
ATOM      9  C   UNL A   1      32.703  29.479  26.260  1.00  0.00     0.081 C 
ATOM     10  S   UNL A   1      34.179  28.617  26.411  1.00  0.00    -0.054 SA
ATOM     11  C   UNL A   1      32.767  30.741  27.042  1.00  0.00     0.266 C 
ATOM     12  C   UNL A   1      34.889  29.830  27.469  1.00  0.00     0.148 C 
ATOM     13  O   UNL A   1      31.834  31.527  27.129  1.00  0.00    -0.268 OA
ATOM     14  S   UNL A   1      36.431  29.682  28.086  1.00  0.00    -0.052 S 
BRANCH   8  15
ATOM     15  C   UNL A   1      31.385  27.790  24.997  1.00  0.00    -0.017 A 
ATOM     16  C   UNL A   1      31.276  26.349  23.017  1.00  0.00     0.165 A 
ATOM     17  C   UNL A   1      31.481  27.610  23.604  1.00  0.00     0.058 A 
ATOM     18  C   UNL A   1      31.004  25.286  23.862  1.00  0.00     0.207 A 
ATOM     19  C   UNL A   1      30.910  25.469  25.226  1.00  0.00     0.170 A 
ATOM     20  O   UNL A   1      30.811  23.978  23.529  1.00  0.00    -0.450 OA
ATOM     21  C   UNL A   1      31.081  26.701  25.819  1.00  0.00     0.059 A 
ATOM     22  O   UNL A   1      30.641  24.319  25.901  1.00  0.00    -0.453 OA
ATOM     23  C   UNL A   1      30.653  23.367  24.824  1.00  0.00     0.468 C 
BRANCH  16  24
ATOM     24  O   UNL A   1      31.394  26.324  21.656  1.00  0.00    -0.493 OA
ATOM     25  C   UNL A   1      32.652  25.914  21.133  1.00  0.00     0.278 C 
ENDBRANCH  16  24
ENDBRANCH   8  15
ENDBRANCH   6   7
ENDBRANCH   4   6
ENDBRANCH   3   4
ENDBRANCH   2   3
ENDBRANCH   1   2
BRANCH   1  26
ATOM     26  O   UNL A   1      33.489  34.201  30.993  1.00  0.00    -0.374 OA
BRANCH  26  27
ATOM     27  C   UNL A   1      34.592  34.216  31.901  1.00  0.00     0.202 C 
BRANCH  27  28
ATOM     28  C   UNL A   1      34.366  33.534  33.257  1.00  0.00     0.261 C 
BRANCH  28  29
ATOM     29  O   UNL A   1      35.343  32.508  33.526  1.00  0.00    -0.460 OA
BRANCH  29  30
ATOM     30  C   UNL A   1      36.626  32.943  33.501  1.00  0.00     0.338 C 
ATOM     31  O   UNL A   1      37.140  33.781  34.232  1.00  0.00    -0.246 OA
BRANCH  30  32
ATOM     32  C   UNL A   1      37.434  32.143  32.563  1.00  0.00     0.060 A 
ATOM     33  C   UNL A   1      38.426  31.322  33.115  1.00  0.00     0.016 A 
ATOM     34  C   UNL A   1      37.308  32.272  31.178  1.00  0.00     0.016 A 
ATOM     35  C   UNL A   1      39.338  30.672  32.285  1.00  0.00     0.010 A 
ATOM     36  C   UNL A   1      38.230  31.623  30.346  1.00  0.00     0.010 A 
ATOM     37  C   UNL A   1      39.272  30.855  30.897  1.00  0.00    -0.014 A 
BRANCH  37  38
ATOM     38  C   UNL A   1      40.388  30.363  30.053  1.00  0.00     0.031 A 
ATOM     39  C   UNL A   1      41.550  31.273  29.766  1.00  0.00     0.074 A 
ATOM     40  C   UNL A   1      40.392  29.101  29.587  1.00  0.00     0.049 A 
ATOM     41  N   UNL A   1      42.639  31.037  29.077  1.00  0.00    -0.248 NA
ATOM     42  C   UNL A   1      41.476  32.629  30.332  1.00  0.00     0.031 C 
ATOM     43  C   UNL A   1      39.344  28.110  29.821  1.00  0.00     0.029 A 
ATOM     44  N   UNL A   1      41.317  28.443  28.815  1.00  0.00    -0.354 N 
ATOM     45  C   UNL A   1      43.377  32.214  29.124  1.00  0.00     0.074 A 
ATOM     46  C   UNL A   1      42.598  33.171  29.880  1.00  0.00     0.031 C 
ATOM     47  C   UNL A   1      39.680  26.968  29.196  1.00  0.00     0.029 A 
ATOM     48  C   UNL A   1      40.952  27.157  28.501  1.00  0.00     0.049 A 
ATOM     49  H   UNL A   1      42.161  28.852  28.517  1.00  0.00     0.167 HD
ATOM     50  C   UNL A   1      44.594  32.475  28.592  1.00  0.00     0.031 A 
ATOM     51  C   UNL A   1      41.565  26.242  27.726  1.00  0.00     0.031 A 
ATOM     52  C   UNL A   1      45.362  31.534  27.822  1.00  0.00     0.049 A 
ATOM     53  C   UNL A   1      42.887  26.573  27.091  1.00  0.00     0.074 A 
ATOM     54  C   UNL A   1      46.616  31.698  27.258  1.00  0.00     0.029 A 
ATOM     55  N   UNL A   1      44.942  30.253  27.497  1.00  0.00    -0.354 N 
ATOM     56  N   UNL A   1      43.593  27.676  27.177  1.00  0.00    -0.248 NA
ATOM     57  C   UNL A   1      43.504  25.528  26.260  1.00  0.00     0.031 C 
ATOM     58  C   UNL A   1      46.930  30.535  26.545  1.00  0.00     0.029 A 
ATOM     59  C   UNL A   1      45.896  29.627  26.713  1.00  0.00     0.049 A 
ATOM     60  H   UNL A   1      44.091  29.850  27.782  1.00  0.00     0.167 HD
ATOM     61  C   UNL A   1      44.741  27.452  26.429  1.00  0.00     0.074 A 
ATOM     62  C   UNL A   1      44.647  26.101  25.911  1.00  0.00     0.031 C 
ATOM     63  C   UNL A   1      45.782  28.288  26.193  1.00  0.00     0.031 A 
BRANCH  50  64
ATOM     64  C   UNL A   1      45.148  33.857  28.796  1.00  0.00    -0.014 A 
ATOM     65  C   UNL A   1      45.962  34.162  29.899  1.00  0.00     0.009 A 
ATOM     66  C   UNL A   1      44.858  34.869  27.867  1.00  0.00     0.009 A 
ATOM     67  C   UNL A   1      46.438  35.462  30.089  1.00  0.00     0.001 A 
ATOM     68  C   UNL A   1      45.358  36.160  28.044  1.00  0.00     0.001 A 
ATOM     69  C   UNL A   1      46.138  36.458  29.161  1.00  0.00     0.000 A 
ENDBRANCH  50  64
BRANCH  51  70
ATOM     70  C   UNL A   1      40.916  24.927  27.490  1.00  0.00    -0.014 A 
ATOM     71  C   UNL A   1      41.397  23.763  28.107  1.00  0.00     0.009 A 
ATOM     72  C   UNL A   1      39.796  24.836  26.647  1.00  0.00     0.009 A 
ATOM     73  C   UNL A   1      40.780  22.533  27.870  1.00  0.00     0.001 A 
ATOM     74  C   UNL A   1      39.166  23.609  26.434  1.00  0.00     0.001 A 
ATOM     75  C   UNL A   1      39.662  22.457  27.040  1.00  0.00     0.000 A 
ENDBRANCH  51  70
BRANCH  63  76
ATOM     76  C   UNL A   1      46.910  27.762  25.352  1.00  0.00    -0.014 A 
ATOM     77  C   UNL A   1      47.969  27.039  25.924  1.00  0.00     0.009 A 
ATOM     78  C   UNL A   1      46.892  27.956  23.961  1.00  0.00     0.009 A 
ATOM     79  C   UNL A   1      49.004  26.550  25.123  1.00  0.00     0.001 A 
ATOM     80  C   UNL A   1      47.914  27.443  23.161  1.00  0.00     0.001 A 
ATOM     81  C   UNL A   1      48.973  26.747  23.743  1.00  0.00     0.000 A 
ENDBRANCH  63  76
ENDBRANCH  37  38
ENDBRANCH  30  32
ENDBRANCH  29  30
ENDBRANCH  28  29
ENDBRANCH  27  28
ENDBRANCH  26  27
ENDBRANCH   1  26
TORSDOF 17
ENDMDL
MODEL 2
REMARK VINA RESULT:     -10.2      5.107     10.870
REMARK SMILES COc1cc(/C=C2\SC(=S)N(CC(=O)OCCOCCOC(=O)c3ccc(-c4c5nc(c(-c6ccccc6)c6ccc([nH]6)c(-c6ccccc6)c6nc(c(-c7ccccc7)c7ccc4[nH]7)C=C6)C=C5)cc3)C2=O)cc2c1OCO2
REMARK SMILES IDX 17 1 16 2 15 3 13 4 14 5 12 6 11 7 6 8 7 9 8 10 72 11 9 12
REMARK SMILES IDX 73 13 10 14 5 15 3 16 4 17 76 18 75 19 77 20 74 21 79 22
REMARK SMILES IDX 78 23 2 24 1 25 18 26 19 27 20 28 21 29 22 30 23 31 24 32
REMARK SMILES IDX 25 33 71 34 26 35 70 36 27 37 28 38 29 39 64 40 30 41 69 42
REMARK SMILES IDX 63 43 65 44 31 45 68 46 62 47 61 48 32 50 54 51 39 52 53 53
REMARK SMILES IDX 40 54 43 55 52 56 66 57 41 58 42 59 51 61 67 62 44 63 33 64
REMARK SMILES IDX 34 65 38 66 35 67 37 68 36 69 55 70 56 71 60 72 57 73 59 74
REMARK SMILES IDX 58 75 45 76 46 77 50 78 47 79 49 80 48 81
REMARK H PARENT 65 49 43 60
REMARK Flexibility Score: inf
ROOT
ATOM      1  C   UNL A   1      44.019  18.985  25.342  1.00  0.00     0.202 C 
ENDROOT
BRANCH   1   2
ATOM      2  C   UNL A   1      42.725  18.836  26.148  1.00  0.00     0.261 C 
BRANCH   2   3
ATOM      3  O   UNL A   1      41.683  19.705  25.662  1.00  0.00    -0.462 OA
BRANCH   3   4
ATOM      4  C   UNL A   1      41.014  20.402  26.622  1.00  0.00     0.326 C 
ATOM      5  O   UNL A   1      40.702  19.956  27.720  1.00  0.00    -0.250 OA
BRANCH   4   6
ATOM      6  C   UNL A   1      40.730  21.849  26.238  1.00  0.00     0.250 C 
BRANCH   6   7
ATOM      7  N   UNL A   1      39.326  22.246  26.107  1.00  0.00    -0.282 N 
ATOM      8  C   UNL A   1      36.102  21.457  24.670  1.00  0.00     0.029 C 
ATOM      9  C   UNL A   1      37.110  22.046  25.329  1.00  0.00     0.081 C 
ATOM     10  S   UNL A   1      37.142  23.612  26.030  1.00  0.00    -0.054 SA
ATOM     11  C   UNL A   1      38.438  21.395  25.475  1.00  0.00     0.266 C 
ATOM     12  C   UNL A   1      38.831  23.469  26.503  1.00  0.00     0.148 C 
ATOM     13  O   UNL A   1      38.695  20.284  25.032  1.00  0.00    -0.268 OA
ATOM     14  S   UNL A   1      39.640  24.692  27.296  1.00  0.00    -0.052 S 
BRANCH   8  15
ATOM     15  C   UNL A   1      34.842  22.113  24.313  1.00  0.00    -0.017 A 
ATOM     16  C   UNL A   1      32.452  22.506  24.690  1.00  0.00     0.165 A 
ATOM     17  C   UNL A   1      33.660  21.879  25.043  1.00  0.00     0.058 A 
ATOM     18  C   UNL A   1      32.473  23.382  23.617  1.00  0.00     0.207 A 
ATOM     19  C   UNL A   1      33.633  23.604  22.906  1.00  0.00     0.170 A 
ATOM     20  O   UNL A   1      31.444  24.127  23.122  1.00  0.00    -0.450 OA
ATOM     21  C   UNL A   1      34.822  22.981  23.217  1.00  0.00     0.059 A 
ATOM     22  O   UNL A   1      33.472  24.494  21.889  1.00  0.00    -0.453 OA
ATOM     23  C   UNL A   1      32.100  24.875  22.080  1.00  0.00     0.468 C 
BRANCH  16  24
ATOM     24  O   UNL A   1      31.386  22.182  25.481  1.00  0.00    -0.493 OA
ATOM     25  C   UNL A   1      31.221  22.944  26.672  1.00  0.00     0.278 C 
ENDBRANCH  16  24
ENDBRANCH   8  15
ENDBRANCH   6   7
ENDBRANCH   4   6
ENDBRANCH   3   4
ENDBRANCH   2   3
ENDBRANCH   1   2
BRANCH   1  26
ATOM     26  O   UNL A   1      44.083  20.091  24.443  1.00  0.00    -0.374 OA
BRANCH  26  27
ATOM     27  C   UNL A   1      45.193  20.981  24.576  1.00  0.00     0.202 C 
BRANCH  27  28
ATOM     28  C   UNL A   1      45.173  21.914  25.793  1.00  0.00     0.261 C 
BRANCH  28  29
ATOM     29  O   UNL A   1      44.379  23.096  25.567  1.00  0.00    -0.460 OA
BRANCH  29  30
ATOM     30  C   UNL A   1      44.982  24.251  25.940  1.00  0.00     0.338 C 
ATOM     31  O   UNL A   1      46.039  24.705  25.520  1.00  0.00    -0.246 OA
BRANCH  30  32
ATOM     32  C   UNL A   1      44.109  25.036  26.832  1.00  0.00     0.060 A 
ATOM     33  C   UNL A   1      44.212  26.431  26.759  1.00  0.00     0.016 A 
ATOM     34  C   UNL A   1      43.295  24.432  27.793  1.00  0.00     0.016 A 
ATOM     35  C   UNL A   1      43.548  27.230  27.688  1.00  0.00     0.010 A 
ATOM     36  C   UNL A   1      42.634  25.238  28.730  1.00  0.00     0.010 A 
ATOM     37  C   UNL A   1      42.791  26.636  28.706  1.00  0.00    -0.014 A 
BRANCH  37  38
ATOM     38  C   UNL A   1      42.299  27.480  29.822  1.00  0.00     0.031 A 
ATOM     39  C   UNL A   1      41.013  28.242  29.654  1.00  0.00     0.074 A 
ATOM     40  C   UNL A   1      42.961  27.529  30.991  1.00  0.00     0.049 A 
ATOM     41  N   UNL A   1      40.389  29.015  30.508  1.00  0.00    -0.248 NA
ATOM     42  C   UNL A   1      40.341  28.116  28.352  1.00  0.00     0.031 C 
ATOM     43  C   UNL A   1      44.199  26.813  31.293  1.00  0.00     0.029 A 
ATOM     44  N   UNL A   1      42.678  28.220  32.143  1.00  0.00    -0.354 N 
ATOM     45  C   UNL A   1      39.254  29.468  29.846  1.00  0.00     0.074 A 
ATOM     46  C   UNL A   1      39.293  28.912  28.511  1.00  0.00     0.031 C 
ATOM     47  C   UNL A   1      44.576  27.109  32.548  1.00  0.00     0.029 A 
ATOM     48  C   UNL A   1      43.621  28.052  33.127  1.00  0.00     0.049 A 
ATOM     49  H   UNL A   1      41.877  28.780  32.254  1.00  0.00     0.167 HD
ATOM     50  C   UNL A   1      38.266  30.271  30.308  1.00  0.00     0.031 A 
ATOM     51  C   UNL A   1      43.712  28.608  34.351  1.00  0.00     0.031 A 
ATOM     52  C   UNL A   1      38.234  30.844  31.626  1.00  0.00     0.049 A 
ATOM     53  C   UNL A   1      42.637  29.548  34.821  1.00  0.00     0.074 A 
ATOM     54  C   UNL A   1      37.265  31.654  32.194  1.00  0.00     0.029 A 
ATOM     55  N   UNL A   1      39.225  30.677  32.581  1.00  0.00    -0.354 N 
ATOM     56  N   UNL A   1      41.548  29.937  34.200  1.00  0.00    -0.248 NA
ATOM     57  C   UNL A   1      42.796  30.118  36.167  1.00  0.00     0.031 C 
ATOM     58  C   UNL A   1      37.697  32.021  33.473  1.00  0.00     0.029 A 
ATOM     59  C   UNL A   1      38.908  31.394  33.723  1.00  0.00     0.049 A 
ATOM     60  H   UNL A   1      40.035  30.130  32.465  1.00  0.00     0.167 HD
ATOM     61  C   UNL A   1      40.886  30.779  35.083  1.00  0.00     0.074 A 
ATOM     62  C   UNL A   1      41.686  30.832  36.291  1.00  0.00     0.031 C 
ATOM     63  C   UNL A   1      39.720  31.448  34.911  1.00  0.00     0.031 A 
BRANCH  50  64
ATOM     64  C   UNL A   1      37.155  30.607  29.352  1.00  0.00    -0.014 A 
ATOM     65  C   UNL A   1      37.019  31.897  28.814  1.00  0.00     0.009 A 
ATOM     66  C   UNL A   1      36.236  29.615  28.976  1.00  0.00     0.009 A 
ATOM     67  C   UNL A   1      35.958  32.197  27.955  1.00  0.00     0.001 A 
ATOM     68  C   UNL A   1      35.194  29.910  28.095  1.00  0.00     0.001 A 
ATOM     69  C   UNL A   1      35.050  31.203  27.594  1.00  0.00     0.000 A 
ENDBRANCH  50  64
BRANCH  51  70
ATOM     70  C   UNL A   1      44.886  28.306  35.208  1.00  0.00    -0.014 A 
ATOM     71  C   UNL A   1      46.046  29.092  35.147  1.00  0.00     0.009 A 
ATOM     72  C   UNL A   1      44.844  27.224  36.104  1.00  0.00     0.009 A 
ATOM     73  C   UNL A   1      47.145  28.792  35.956  1.00  0.00     0.001 A 
ATOM     74  C   UNL A   1      45.935  26.944  36.928  1.00  0.00     0.001 A 
ATOM     75  C   UNL A   1      47.087  27.723  36.849  1.00  0.00     0.000 A 
ENDBRANCH  51  70
BRANCH  63  76
ATOM     76  C   UNL A   1      39.229  32.282  36.061  1.00  0.00    -0.014 A 
ATOM     77  C   UNL A   1      39.673  33.600  36.246  1.00  0.00     0.009 A 
ATOM     78  C   UNL A   1      38.277  31.754  36.949  1.00  0.00     0.009 A 
ATOM     79  C   UNL A   1      39.198  34.362  37.316  1.00  0.00     0.001 A 
ATOM     80  C   UNL A   1      37.784  32.527  38.001  1.00  0.00     0.001 A 
ATOM     81  C   UNL A   1      38.250  33.827  38.189  1.00  0.00     0.000 A 
ENDBRANCH  63  76
ENDBRANCH  37  38
ENDBRANCH  30  32
ENDBRANCH  29  30
ENDBRANCH  28  29
ENDBRANCH  27  28
ENDBRANCH  26  27
ENDBRANCH   1  26
TORSDOF 17
ENDMDL
MODEL 3
REMARK VINA RESULT:     -10.2      4.956     10.530
REMARK SMILES COc1cc(/C=C2\SC(=S)N(CC(=O)OCCOCCOC(=O)c3ccc(-c4c5nc(c(-c6ccccc6)c6ccc([nH]6)c(-c6ccccc6)c6nc(c(-c7ccccc7)c7ccc4[nH]7)C=C6)C=C5)cc3)C2=O)cc2c1OCO2
REMARK SMILES IDX 17 1 16 2 15 3 13 4 14 5 12 6 11 7 6 8 7 9 8 10 72 11 9 12
REMARK SMILES IDX 73 13 10 14 5 15 3 16 4 17 76 18 75 19 77 20 74 21 79 22
REMARK SMILES IDX 78 23 2 24 1 25 18 26 19 27 20 28 21 29 22 30 23 31 24 32
REMARK SMILES IDX 25 33 71 34 26 35 70 36 27 37 28 38 29 39 64 40 30 41 69 42
REMARK SMILES IDX 63 43 65 44 31 45 68 46 62 47 61 48 32 50 54 51 39 52 53 53
REMARK SMILES IDX 40 54 43 55 52 56 66 57 41 58 42 59 51 61 67 62 44 63 33 64
REMARK SMILES IDX 34 65 38 66 35 67 37 68 36 69 55 70 56 71 60 72 57 73 59 74
REMARK SMILES IDX 58 75 45 76 46 77 50 78 47 79 49 80 48 81
REMARK H PARENT 65 49 43 60
REMARK Flexibility Score: inf
ROOT
ATOM      1  C   UNL A   1      43.941  19.392  25.500  1.00  0.00     0.202 C 
ENDROOT
BRANCH   1   2
ATOM      2  C   UNL A   1      42.683  18.894  26.217  1.00  0.00     0.261 C 
BRANCH   2   3
ATOM      3  O   UNL A   1      41.489  19.528  25.717  1.00  0.00    -0.462 OA
BRANCH   3   4
ATOM      4  C   UNL A   1      40.862  20.358  26.594  1.00  0.00     0.326 C 
ATOM      5  O   UNL A   1      40.639  20.094  27.770  1.00  0.00    -0.250 OA
BRANCH   4   6
ATOM      6  C   UNL A   1      40.501  21.714  25.998  1.00  0.00     0.250 C 
BRANCH   6   7
ATOM      7  N   UNL A   1      39.084  22.083  25.978  1.00  0.00    -0.282 N 
ATOM      8  C   UNL A   1      35.800  21.328  24.661  1.00  0.00     0.029 C 
ATOM      9  C   UNL A   1      36.832  21.888  25.310  1.00  0.00     0.081 C 
ATOM     10  S   UNL A   1      36.870  23.393  26.133  1.00  0.00    -0.054 SA
ATOM     11  C   UNL A   1      38.180  21.263  25.328  1.00  0.00     0.266 C 
ATOM     12  C   UNL A   1      38.585  23.258  26.499  1.00  0.00     0.148 C 
ATOM     13  O   UNL A   1      38.435  20.198  24.783  1.00  0.00    -0.268 OA
ATOM     14  S   UNL A   1      39.412  24.433  27.343  1.00  0.00    -0.052 S 
BRANCH   8  15
ATOM     15  C   UNL A   1      34.508  21.977  24.429  1.00  0.00    -0.017 A 
ATOM     16  C   UNL A   1      32.129  22.257  24.950  1.00  0.00     0.165 A 
ATOM     17  C   UNL A   1      33.369  21.636  25.183  1.00  0.00     0.058 A 
ATOM     18  C   UNL A   1      32.076  23.236  23.972  1.00  0.00     0.207 A 
ATOM     19  C   UNL A   1      33.195  23.564  23.236  1.00  0.00     0.170 A 
ATOM     20  O   UNL A   1      31.006  23.995  23.602  1.00  0.00    -0.450 OA
ATOM     21  C   UNL A   1      34.413  22.950  23.429  1.00  0.00     0.059 A 
ATOM     22  O   UNL A   1      32.963  24.546  22.323  1.00  0.00    -0.453 OA
ATOM     23  C   UNL A   1      31.592  24.864  22.612  1.00  0.00     0.468 C 
BRANCH  16  24
ATOM     24  O   UNL A   1      31.111  21.823  25.751  1.00  0.00    -0.493 OA
ATOM     25  C   UNL A   1      30.681  22.713  26.775  1.00  0.00     0.278 C 
ENDBRANCH  16  24
ENDBRANCH   8  15
ENDBRANCH   6   7
ENDBRANCH   4   6
ENDBRANCH   3   4
ENDBRANCH   2   3
ENDBRANCH   1   2
BRANCH   1  26
ATOM     26  O   UNL A   1      43.775  20.507  24.626  1.00  0.00    -0.374 OA
BRANCH  26  27
ATOM     27  C   UNL A   1      44.865  21.424  24.518  1.00  0.00     0.202 C 
BRANCH  27  28
ATOM     28  C   UNL A   1      44.741  22.723  25.324  1.00  0.00     0.261 C 
BRANCH  28  29
ATOM     29  O   UNL A   1      44.575  23.881  24.480  1.00  0.00    -0.460 OA
BRANCH  29  30
ATOM     30  C   UNL A   1      45.144  25.010  24.967  1.00  0.00     0.338 C 
ATOM     31  O   UNL A   1      46.223  25.494  24.649  1.00  0.00    -0.246 OA
BRANCH  30  32
ATOM     32  C   UNL A   1      44.210  25.732  25.850  1.00  0.00     0.060 A 
ATOM     33  C   UNL A   1      44.506  27.072  26.133  1.00  0.00     0.016 A 
ATOM     34  C   UNL A   1      43.137  25.094  26.476  1.00  0.00     0.016 A 
ATOM     35  C   UNL A   1      43.767  27.764  27.091  1.00  0.00     0.010 A 
ATOM     36  C   UNL A   1      42.400  25.789  27.443  1.00  0.00     0.010 A 
ATOM     37  C   UNL A   1      42.739  27.112  27.784  1.00  0.00    -0.014 A 
BRANCH  37  38
ATOM     38  C   UNL A   1      42.131  27.778  28.962  1.00  0.00     0.031 A 
ATOM     39  C   UNL A   1      42.810  27.667  30.300  1.00  0.00     0.074 A 
ATOM     40  C   UNL A   1      41.014  28.515  28.835  1.00  0.00     0.049 A 
ATOM     41  N   UNL A   1      42.468  28.191  31.450  1.00  0.00    -0.248 NA
ATOM     42  C   UNL A   1      44.039  26.860  30.347  1.00  0.00     0.031 C 
ATOM     43  C   UNL A   1      40.279  28.729  27.590  1.00  0.00     0.029 A 
ATOM     44  N   UNL A   1      40.304  29.220  29.775  1.00  0.00    -0.354 N 
ATOM     45  C   UNL A   1      43.435  27.775  32.357  1.00  0.00     0.074 A 
ATOM     46  C   UNL A   1      44.359  26.930  31.631  1.00  0.00     0.031 C 
ATOM     47  C   UNL A   1      39.212  29.506  27.844  1.00  0.00     0.029 A 
ATOM     48  C   UNL A   1      39.178  29.823  29.271  1.00  0.00     0.049 A 
ATOM     49  H   UNL A   1      40.575  29.288  30.718  1.00  0.00     0.167 HD
ATOM     50  C   UNL A   1      43.549  28.073  33.673  1.00  0.00     0.031 A 
ATOM     51  C   UNL A   1      38.219  30.537  29.892  1.00  0.00     0.031 A 
ATOM     52  C   UNL A   1      42.622  28.894  34.403  1.00  0.00     0.049 A 
ATOM     53  C   UNL A   1      38.331  30.803  31.368  1.00  0.00     0.074 A 
ATOM     54  C   UNL A   1      42.664  29.270  35.735  1.00  0.00     0.029 A 
ATOM     55  N   UNL A   1      41.477  29.459  33.864  1.00  0.00    -0.354 N 
ATOM     56  N   UNL A   1      39.273  30.437  32.206  1.00  0.00    -0.248 NA
ATOM     57  C   UNL A   1      37.253  31.590  31.983  1.00  0.00     0.031 C 
ATOM     58  C   UNL A   1      41.514  30.017  36.015  1.00  0.00     0.029 A 
ATOM     59  C   UNL A   1      40.785  30.152  34.843  1.00  0.00     0.049 A 
ATOM     60  H   UNL A   1      41.196  29.377  32.924  1.00  0.00     0.167 HD
ATOM     61  C   UNL A   1      38.911  30.964  33.439  1.00  0.00     0.074 A 
ATOM     62  C   UNL A   1      37.673  31.690  33.237  1.00  0.00     0.031 C 
ATOM     63  C   UNL A   1      39.547  30.858  34.631  1.00  0.00     0.031 A 
BRANCH  50  64
ATOM     64  C   UNL A   1      44.707  27.464  34.414  1.00  0.00    -0.014 A 
ATOM     65  C   UNL A   1      45.937  28.133  34.524  1.00  0.00     0.009 A 
ATOM     66  C   UNL A   1      44.563  26.205  35.018  1.00  0.00     0.009 A 
ATOM     67  C   UNL A   1      47.011  27.534  35.187  1.00  0.00     0.001 A 
ATOM     68  C   UNL A   1      45.630  25.621  35.704  1.00  0.00     0.001 A 
ATOM     69  C   UNL A   1      46.856  26.281  35.778  1.00  0.00     0.000 A 
ENDBRANCH  50  64
BRANCH  51  70
ATOM     70  C   UNL A   1      37.053  31.030  29.117  1.00  0.00    -0.014 A 
ATOM     71  C   UNL A   1      35.995  30.172  28.781  1.00  0.00     0.009 A 
ATOM     72  C   UNL A   1      36.991  32.374  28.715  1.00  0.00     0.009 A 
ATOM     73  C   UNL A   1      34.907  30.648  28.046  1.00  0.00     0.001 A 
ATOM     74  C   UNL A   1      35.891  32.852  28.003  1.00  0.00     0.001 A 
ATOM     75  C   UNL A   1      34.852  31.988  27.662  1.00  0.00     0.000 A 
ENDBRANCH  51  70
BRANCH  63  76
ATOM     76  C   UNL A   1      38.925  31.556  35.807  1.00  0.00    -0.014 A 
ATOM     77  C   UNL A   1      39.201  32.904  36.082  1.00  0.00     0.009 A 
ATOM     78  C   UNL A   1      38.017  30.866  36.627  1.00  0.00     0.009 A 
ATOM     79  C   UNL A   1      38.605  33.539  37.175  1.00  0.00     0.001 A 
ATOM     80  C   UNL A   1      37.402  31.510  37.702  1.00  0.00     0.001 A 
ATOM     81  C   UNL A   1      37.703  32.843  37.980  1.00  0.00     0.000 A 
ENDBRANCH  63  76
ENDBRANCH  37  38
ENDBRANCH  30  32
ENDBRANCH  29  30
ENDBRANCH  28  29
ENDBRANCH  27  28
ENDBRANCH  26  27
ENDBRANCH   1  26
TORSDOF 17
ENDMDL
