MODEL 1
REMARK VINA RESULT:      -9.7      0.000      0.000
REMARK SMILES C[NH2+][C@@]1(C(=O)OCCOCCOC(=O)c2ccc(-c3c4nc(c(-c5ccccc5)c5ccc([nH]5)c(-c5ccccc5)c5nc(c(-c6ccccc6)c6ccc3[nH]6)C=C5)C=C4)cc2)CC[C@H](n2ccc(C)n2)C1
REMARK SMILES IDX 10 1 9 2 8 3 7 4 6 5 4 6 5 7 3 8 63 9 72 10 64 11 65 12 2 13
REMARK SMILES IDX 1 14 66 17 67 18 71 19 68 20 69 21 70 22 11 23 12 24 13 25
REMARK SMILES IDX 14 26 15 27 16 28 62 29 17 30 61 31 18 32 19 33 20 34 55 35
REMARK SMILES IDX 21 36 60 37 54 38 56 39 22 40 59 41 53 42 52 43 23 45 45 46
REMARK SMILES IDX 30 47 44 48 31 49 34 50 43 51 57 52 32 53 33 54 42 56 58 57
REMARK SMILES IDX 35 58 24 59 25 60 29 61 26 62 28 63 27 64 46 65 47 66 51 67
REMARK SMILES IDX 48 68 50 69 49 70 36 71 37 72 41 73 38 74 40 75 39 76
REMARK H PARENT 2 15 2 16 56 44 34 55
REMARK Flexibility Score: inf
ROOT
ATOM      1  C   UNL A   1      35.806  21.611  24.746  1.00  0.00     0.202 C 
ENDROOT
BRANCH   1   2
ATOM      2  O   UNL A   1      34.951  22.322  25.637  1.00  0.00    -0.374 OA
BRANCH   2   3
ATOM      3  C   UNL A   1      34.724  23.700  25.359  1.00  0.00     0.202 C 
BRANCH   3   4
ATOM      4  C   UNL A   1      33.484  24.361  25.973  1.00  0.00     0.261 C 
BRANCH   4   5
ATOM      5  O   UNL A   1      33.612  25.773  26.213  1.00  0.00    -0.459 OA
BRANCH   5   6
ATOM      6  C   UNL A   1      32.865  26.567  25.396  1.00  0.00     0.368 C 
ATOM      7  O   UNL A   1      33.046  26.674  24.184  1.00  0.00    -0.245 OA
BRANCH   6   8
ATOM      8  C   UNL A   1      31.753  27.382  26.152  1.00  0.00     0.196 C 
ATOM      9  C   UNL A   1      31.185  28.432  25.185  1.00  0.00     0.083 C 
ATOM     10  C   UNL A   1      32.300  28.225  27.316  1.00  0.00     0.108 C 
ATOM     11  C   UNL A   1      32.140  29.618  25.309  1.00  0.00     0.034 C 
ATOM     12  C   UNL A   1      32.450  29.673  26.805  1.00  0.00     0.114 C 
BRANCH   8  13
ATOM     13  N   UNL A   1      30.671  26.407  26.468  1.00  0.00    -0.334 N 
ATOM     14  C   UNL A   1      29.898  25.881  25.358  1.00  0.00     0.331 C 
ATOM     15  H   UNL A   1      31.102  25.615  26.942  1.00  0.00     0.347 HD
ATOM     16  H   UNL A   1      29.999  26.935  27.024  1.00  0.00     0.347 HD
ENDBRANCH   8  13
BRANCH  12  17
ATOM     17  N   UNL A   1      33.704  30.279  27.210  1.00  0.00    -0.269 N 
ATOM     18  C   UNL A   1      33.917  31.484  27.812  1.00  0.00     0.109 A 
ATOM     19  N   UNL A   1      34.827  29.541  27.105  1.00  0.00    -0.178 NA
ATOM     20  C   UNL A   1      35.263  31.536  28.090  1.00  0.00     0.045 A 
ATOM     21  C   UNL A   1      35.787  30.312  27.619  1.00  0.00     0.059 A 
ATOM     22  C   UNL A   1      37.187  29.824  27.622  1.00  0.00     0.069 C 
ENDBRANCH  12  17
ENDBRANCH   6   8
ENDBRANCH   5   6
ENDBRANCH   4   5
ENDBRANCH   3   4
ENDBRANCH   2   3
ENDBRANCH   1   2
BRANCH   1  23
ATOM     23  C   UNL A   1      36.941  20.784  25.360  1.00  0.00     0.261 C 
BRANCH  23  24
ATOM     24  O   UNL A   1      38.248  21.300  25.056  1.00  0.00    -0.460 OA
BRANCH  24  25
ATOM     25  C   UNL A   1      39.181  21.129  26.018  1.00  0.00     0.338 C 
ATOM     26  O   UNL A   1      39.713  20.078  26.364  1.00  0.00    -0.246 OA
BRANCH  25  27
ATOM     27  C   UNL A   1      39.594  22.438  26.554  1.00  0.00     0.060 A 
ATOM     28  C   UNL A   1      38.930  23.590  26.121  1.00  0.00     0.016 A 
ATOM     29  C   UNL A   1      40.674  22.539  27.428  1.00  0.00     0.016 A 
ATOM     30  C   UNL A   1      39.381  24.848  26.528  1.00  0.00     0.010 A 
ATOM     31  C   UNL A   1      41.106  23.789  27.862  1.00  0.00     0.010 A 
ATOM     32  C   UNL A   1      40.492  24.954  27.378  1.00  0.00    -0.014 A 
BRANCH  32  33
ATOM     33  C   UNL A   1      41.109  26.268  27.673  1.00  0.00     0.031 A 
ATOM     34  C   UNL A   1      42.462  26.589  27.093  1.00  0.00     0.074 A 
ATOM     35  C   UNL A   1      40.498  27.136  28.498  1.00  0.00     0.049 A 
ATOM     36  N   UNL A   1      43.205  27.652  27.262  1.00  0.00    -0.248 NA
ATOM     37  C   UNL A   1      43.072  25.559  26.236  1.00  0.00     0.031 C 
ATOM     38  C   UNL A   1      39.212  26.913  29.161  1.00  0.00     0.029 A 
ATOM     39  N   UNL A   1      40.893  28.374  28.934  1.00  0.00    -0.354 N 
ATOM     40  C   UNL A   1      44.379  27.406  26.557  1.00  0.00     0.074 A 
ATOM     41  C   UNL A   1      44.268  26.077  26.000  1.00  0.00     0.031 C 
ATOM     42  C   UNL A   1      38.923  27.984  29.919  1.00  0.00     0.029 A 
ATOM     43  C   UNL A   1      40.006  28.956  29.806  1.00  0.00     0.049 A 
ATOM     44  H   UNL A   1      41.730  28.805  28.650  1.00  0.00     0.167 HD
ATOM     45  C   UNL A   1      45.446  28.219  26.375  1.00  0.00     0.031 A 
ATOM     46  C   UNL A   1      40.063  30.144  30.438  1.00  0.00     0.031 A 
ATOM     47  C   UNL A   1      45.537  29.551  26.911  1.00  0.00     0.049 A 
ATOM     48  C   UNL A   1      41.231  31.055  30.181  1.00  0.00     0.074 A 
ATOM     49  C   UNL A   1      46.532  30.493  26.721  1.00  0.00     0.029 A 
ATOM     50  N   UNL A   1      44.589  30.128  27.742  1.00  0.00    -0.354 N 
ATOM     51  N   UNL A   1      42.294  30.844  29.443  1.00  0.00    -0.248 NA
ATOM     52  C   UNL A   1      41.192  32.377  30.821  1.00  0.00     0.031 C 
ATOM     53  C   UNL A   1      46.203  31.630  27.468  1.00  0.00     0.029 A 
ATOM     54  C   UNL A   1      44.980  31.410  28.084  1.00  0.00     0.049 A 
ATOM     55  H   UNL A   1      43.760  29.690  28.044  1.00  0.00     0.167 HD
ATOM     56  C   UNL A   1      43.037  32.016  29.506  1.00  0.00     0.074 A 
ATOM     57  C   UNL A   1      42.296  32.936  30.344  1.00  0.00     0.031 C 
ATOM     58  C   UNL A   1      44.224  32.307  28.918  1.00  0.00     0.031 A 
BRANCH  45  59
ATOM     59  C   UNL A   1      46.596  27.688  25.563  1.00  0.00    -0.014 A 
ATOM     60  C   UNL A   1      46.713  27.970  24.192  1.00  0.00     0.009 A 
ATOM     61  C   UNL A   1      47.591  26.914  26.181  1.00  0.00     0.009 A 
ATOM     62  C   UNL A   1      47.776  27.451  23.449  1.00  0.00     0.001 A 
ATOM     63  C   UNL A   1      48.670  26.423  25.442  1.00  0.00     0.001 A 
ATOM     64  C   UNL A   1      48.756  26.683  24.075  1.00  0.00     0.000 A 
ENDBRANCH  45  59
BRANCH  46  65
ATOM     65  C   UNL A   1      38.953  30.556  31.333  1.00  0.00    -0.014 A 
ATOM     66  C   UNL A   1      38.965  30.196  32.689  1.00  0.00     0.009 A 
ATOM     67  C   UNL A   1      37.889  31.331  30.845  1.00  0.00     0.009 A 
ATOM     68  C   UNL A   1      37.925  30.588  33.536  1.00  0.00     0.001 A 
ATOM     69  C   UNL A   1      36.863  31.742  31.700  1.00  0.00     0.001 A 
ATOM     70  C   UNL A   1      36.879  31.366  33.042  1.00  0.00     0.000 A 
ENDBRANCH  46  65
BRANCH  58  71
ATOM     71  C   UNL A   1      44.773  33.687  29.136  1.00  0.00    -0.014 A 
ATOM     72  C   UNL A   1      45.646  33.964  30.199  1.00  0.00     0.009 A 
ATOM     73  C   UNL A   1      44.444  34.713  28.236  1.00  0.00     0.009 A 
ATOM     74  C   UNL A   1      46.153  35.252  30.376  1.00  0.00     0.001 A 
ATOM     75  C   UNL A   1      44.972  35.993  28.401  1.00  0.00     0.001 A 
ATOM     76  C   UNL A   1      45.820  36.264  29.475  1.00  0.00     0.000 A 
ENDBRANCH  58  71
ENDBRANCH  32  33
ENDBRANCH  25  27
ENDBRANCH  24  25
ENDBRANCH  23  24
ENDBRANCH   1  23
TORSDOF 16
ENDMDL
MODEL 2
REMARK VINA RESULT:      -9.6      2.751      4.558
REMARK SMILES C[NH2+][C@@]1(C(=O)OCCOCCOC(=O)c2ccc(-c3c4nc(c(-c5ccccc5)c5ccc([nH]5)c(-c5ccccc5)c5nc(c(-c6ccccc6)c6ccc3[nH]6)C=C5)C=C4)cc2)CC[C@H](n2ccc(C)n2)C1
REMARK SMILES IDX 10 1 9 2 8 3 7 4 6 5 4 6 5 7 3 8 63 9 72 10 64 11 65 12 2 13
REMARK SMILES IDX 1 14 66 17 67 18 71 19 68 20 69 21 70 22 11 23 12 24 13 25
REMARK SMILES IDX 14 26 15 27 16 28 62 29 17 30 61 31 18 32 19 33 20 34 55 35
REMARK SMILES IDX 21 36 60 37 54 38 56 39 22 40 59 41 53 42 52 43 23 45 45 46
REMARK SMILES IDX 30 47 44 48 31 49 34 50 43 51 57 52 32 53 33 54 42 56 58 57
REMARK SMILES IDX 35 58 24 59 25 60 29 61 26 62 28 63 27 64 46 65 47 66 51 67
REMARK SMILES IDX 48 68 50 69 49 70 36 71 37 72 41 73 38 74 40 75 39 76
REMARK H PARENT 2 15 2 16 56 44 34 55
REMARK Flexibility Score: inf
ROOT
ATOM      1  C   UNL A   1      38.818  21.661  25.806  1.00  0.00     0.202 C 
ENDROOT
BRANCH   1   2
ATOM      2  O   UNL A   1      37.957  22.319  24.880  1.00  0.00    -0.374 OA
BRANCH   2   3
ATOM      3  C   UNL A   1      37.026  23.257  25.411  1.00  0.00     0.202 C 
BRANCH   3   4
ATOM      4  C   UNL A   1      35.531  22.972  25.219  1.00  0.00     0.261 C 
BRANCH   4   5
ATOM      5  O   UNL A   1      34.998  21.953  26.082  1.00  0.00    -0.459 OA
BRANCH   5   6
ATOM      6  C   UNL A   1      34.703  20.774  25.466  1.00  0.00     0.368 C 
ATOM      7  O   UNL A   1      35.541  20.039  24.945  1.00  0.00    -0.245 OA
BRANCH   6   8
ATOM      8  C   UNL A   1      33.167  20.441  25.442  1.00  0.00     0.196 C 
ATOM      9  C   UNL A   1      32.765  20.127  23.992  1.00  0.00     0.083 C 
ATOM     10  C   UNL A   1      32.277  21.641  25.808  1.00  0.00     0.108 C 
ATOM     11  C   UNL A   1      32.480  21.493  23.372  1.00  0.00     0.034 C 
ATOM     12  C   UNL A   1      31.759  22.249  24.488  1.00  0.00     0.114 C 
BRANCH   8  13
ATOM     13  N   UNL A   1      33.001  19.200  26.250  1.00  0.00    -0.334 N 
ATOM     14  C   UNL A   1      32.597  17.994  25.550  1.00  0.00     0.331 C 
ATOM     15  H   UNL A   1      33.895  19.007  26.701  1.00  0.00     0.347 HD
ATOM     16  H   UNL A   1      32.228  19.403  26.883  1.00  0.00     0.347 HD
ENDBRANCH   8  13
BRANCH  12  17
ATOM     17  N   UNL A   1      31.832  23.698  24.476  1.00  0.00    -0.269 N 
ATOM     18  C   UNL A   1      32.277  24.524  23.487  1.00  0.00     0.109 A 
ATOM     19  N   UNL A   1      31.288  24.367  25.512  1.00  0.00    -0.178 NA
ATOM     20  C   UNL A   1      32.028  25.805  23.922  1.00  0.00     0.045 A 
ATOM     21  C   UNL A   1      31.426  25.655  25.191  1.00  0.00     0.059 A 
ATOM     22  C   UNL A   1      30.969  26.694  26.144  1.00  0.00     0.069 C 
ENDBRANCH  12  17
ENDBRANCH   6   8
ENDBRANCH   5   6
ENDBRANCH   4   5
ENDBRANCH   3   4
ENDBRANCH   2   3
ENDBRANCH   1   2
BRANCH   1  23
ATOM     23  C   UNL A   1      39.227  20.217  25.492  1.00  0.00     0.261 C 
BRANCH  23  24
ATOM     24  O   UNL A   1      40.231  19.706  26.384  1.00  0.00    -0.460 OA
BRANCH  24  25
ATOM     25  C   UNL A   1      41.511  19.903  25.997  1.00  0.00     0.338 C 
ATOM     26  O   UNL A   1      42.169  19.219  25.217  1.00  0.00    -0.246 OA
BRANCH  25  27
ATOM     27  C   UNL A   1      42.017  21.166  26.562  1.00  0.00     0.060 A 
ATOM     28  C   UNL A   1      41.955  21.366  27.945  1.00  0.00     0.016 A 
ATOM     29  C   UNL A   1      42.486  22.179  25.728  1.00  0.00     0.016 A 
ATOM     30  C   UNL A   1      42.321  22.600  28.486  1.00  0.00     0.010 A 
ATOM     31  C   UNL A   1      42.883  23.399  26.268  1.00  0.00     0.010 A 
ATOM     32  C   UNL A   1      42.759  23.634  27.645  1.00  0.00    -0.014 A 
BRANCH  32  33
ATOM     33  C   UNL A   1      42.971  25.006  28.163  1.00  0.00     0.031 A 
ATOM     34  C   UNL A   1      44.353  25.419  28.598  1.00  0.00     0.074 A 
ATOM     35  C   UNL A   1      41.933  25.848  28.303  1.00  0.00     0.049 A 
ATOM     36  N   UNL A   1      44.754  26.546  29.127  1.00  0.00    -0.248 NA
ATOM     37  C   UNL A   1      45.418  24.413  28.449  1.00  0.00     0.031 C 
ATOM     38  C   UNL A   1      40.542  25.542  27.966  1.00  0.00     0.029 A 
ATOM     39  N   UNL A   1      41.889  27.130  28.786  1.00  0.00    -0.354 N 
ATOM     40  C   UNL A   1      46.107  26.375  29.398  1.00  0.00     0.074 A 
ATOM     41  C   UNL A   1      46.447  25.021  29.019  1.00  0.00     0.031 C 
ATOM     42  C   UNL A   1      39.779  26.610  28.251  1.00  0.00     0.029 A 
ATOM     43  C   UNL A   1      40.625  27.666  28.802  1.00  0.00     0.049 A 
ATOM     44  H   UNL A   1      42.686  27.619  29.092  1.00  0.00     0.167 HD
ATOM     45  C   UNL A   1      46.992  27.268  29.900  1.00  0.00     0.031 A 
ATOM     46  C   UNL A   1      40.200  28.876  29.212  1.00  0.00     0.031 A 
ATOM     47  C   UNL A   1      46.651  28.621  30.249  1.00  0.00     0.049 A 
ATOM     48  C   UNL A   1      41.207  29.873  29.717  1.00  0.00     0.074 A 
ATOM     49  C   UNL A   1      47.483  29.637  30.688  1.00  0.00     0.029 A 
ATOM     50  N   UNL A   1      45.369  29.146  30.194  1.00  0.00    -0.354 N 
ATOM     51  N   UNL A   1      42.499  29.726  29.887  1.00  0.00    -0.248 NA
ATOM     52  C   UNL A   1      40.700  31.209  30.059  1.00  0.00     0.031 C 
ATOM     53  C   UNL A   1      46.696  30.768  30.932  1.00  0.00     0.029 A 
ATOM     54  C   UNL A   1      45.383  30.468  30.601  1.00  0.00     0.049 A 
ATOM     55  H   UNL A   1      44.568  28.650  29.908  1.00  0.00     0.167 HD
ATOM     56  C   UNL A   1      42.965  30.958  30.327  1.00  0.00     0.074 A 
ATOM     57  C   UNL A   1      41.819  31.842  30.386  1.00  0.00     0.031 C 
ATOM     58  C   UNL A   1      44.229  31.327  30.649  1.00  0.00     0.031 A 
BRANCH  45  59
ATOM     59  C   UNL A   1      48.411  26.807  30.099  1.00  0.00    -0.014 A 
ATOM     60  C   UNL A   1      49.384  26.990  29.103  1.00  0.00     0.009 A 
ATOM     61  C   UNL A   1      48.787  26.202  31.308  1.00  0.00     0.009 A 
ATOM     62  C   UNL A   1      50.691  26.537  29.296  1.00  0.00     0.001 A 
ATOM     63  C   UNL A   1      50.103  25.778  31.511  1.00  0.00     0.001 A 
ATOM     64  C   UNL A   1      51.050  25.936  30.501  1.00  0.00     0.000 A 
ENDBRANCH  45  59
BRANCH  46  65
ATOM     65  C   UNL A   1      38.761  29.225  29.112  1.00  0.00    -0.014 A 
ATOM     66  C   UNL A   1      37.914  29.066  30.219  1.00  0.00     0.009 A 
ATOM     67  C   UNL A   1      38.231  29.742  27.919  1.00  0.00     0.009 A 
ATOM     68  C   UNL A   1      36.561  29.401  30.130  1.00  0.00     0.001 A 
ATOM     69  C   UNL A   1      36.882  30.098  27.840  1.00  0.00     0.001 A 
ATOM     70  C   UNL A   1      36.047  29.921  28.944  1.00  0.00     0.000 A 
ENDBRANCH  46  65
BRANCH  58  71
ATOM     71  C   UNL A   1      44.440  32.755  31.061  1.00  0.00    -0.014 A 
ATOM     72  C   UNL A   1      44.743  33.748  30.117  1.00  0.00     0.009 A 
ATOM     73  C   UNL A   1      44.290  33.117  32.409  1.00  0.00     0.009 A 
ATOM     74  C   UNL A   1      44.924  35.071  30.520  1.00  0.00     0.001 A 
ATOM     75  C   UNL A   1      44.447  34.444  32.806  1.00  0.00     0.001 A 
ATOM     76  C   UNL A   1      44.772  35.419  31.863  1.00  0.00     0.000 A 
ENDBRANCH  58  71
ENDBRANCH  32  33
ENDBRANCH  25  27
ENDBRANCH  24  25
ENDBRANCH  23  24
ENDBRANCH   1  23
TORSDOF 16
ENDMDL
MODEL 3
REMARK VINA RESULT:      -9.5      2.698      4.071
REMARK SMILES C[NH2+][C@@]1(C(=O)OCCOCCOC(=O)c2ccc(-c3c4nc(c(-c5ccccc5)c5ccc([nH]5)c(-c5ccccc5)c5nc(c(-c6ccccc6)c6ccc3[nH]6)C=C5)C=C4)cc2)CC[C@H](n2ccc(C)n2)C1
REMARK SMILES IDX 10 1 9 2 8 3 7 4 6 5 4 6 5 7 3 8 63 9 72 10 64 11 65 12 2 13
REMARK SMILES IDX 1 14 66 17 67 18 71 19 68 20 69 21 70 22 11 23 12 24 13 25
REMARK SMILES IDX 14 26 15 27 16 28 62 29 17 30 61 31 18 32 19 33 20 34 55 35
REMARK SMILES IDX 21 36 60 37 54 38 56 39 22 40 59 41 53 42 52 43 23 45 45 46
REMARK SMILES IDX 30 47 44 48 31 49 34 50 43 51 57 52 32 53 33 54 42 56 58 57
REMARK SMILES IDX 35 58 24 59 25 60 29 61 26 62 28 63 27 64 46 65 47 66 51 67
REMARK SMILES IDX 48 68 50 69 49 70 36 71 37 72 41 73 38 74 40 75 39 76
REMARK H PARENT 2 15 2 16 56 44 34 55
REMARK Flexibility Score: inf
ROOT
ATOM      1  C   UNL A   1      38.371  21.650  25.653  1.00  0.00     0.202 C 
ENDROOT
BRANCH   1   2
ATOM      2  O   UNL A   1      36.957  21.642  25.829  1.00  0.00    -0.374 OA
BRANCH   2   3
ATOM      3  C   UNL A   1      36.155  21.599  24.653  1.00  0.00     0.202 C 
BRANCH   3   4
ATOM      4  C   UNL A   1      34.828  20.832  24.716  1.00  0.00     0.261 C 
BRANCH   4   5
ATOM      5  O   UNL A   1      33.672  21.601  24.343  1.00  0.00    -0.459 OA
BRANCH   5   6
ATOM      6  C   UNL A   1      32.589  21.442  25.155  1.00  0.00     0.368 C 
ATOM      7  O   UNL A   1      31.819  20.485  25.098  1.00  0.00    -0.245 OA
BRANCH   6   8
ATOM      8  C   UNL A   1      32.378  22.628  26.165  1.00  0.00     0.196 C 
ATOM      9  C   UNL A   1      30.901  23.050  26.111  1.00  0.00     0.083 C 
ATOM     10  C   UNL A   1      33.131  23.909  25.769  1.00  0.00     0.108 C 
ATOM     11  C   UNL A   1      30.829  24.031  24.942  1.00  0.00     0.034 C 
ATOM     12  C   UNL A   1      32.117  24.844  25.079  1.00  0.00     0.114 C 
BRANCH   8  13
ATOM     13  N   UNL A   1      32.652  22.069  27.520  1.00  0.00    -0.334 N 
ATOM     14  C   UNL A   1      33.997  22.217  28.045  1.00  0.00     0.331 C 
ATOM     15  H   UNL A   1      32.016  22.525  28.173  1.00  0.00     0.347 HD
ATOM     16  H   UNL A   1      32.524  21.062  27.416  1.00  0.00     0.347 HD
ENDBRANCH   8  13
BRANCH  12  17
ATOM     17  N   UNL A   1      32.653  25.460  23.881  1.00  0.00    -0.269 N 
ATOM     18  C   UNL A   1      32.697  24.968  22.610  1.00  0.00     0.109 A 
ATOM     19  N   UNL A   1      33.068  26.741  23.960  1.00  0.00    -0.178 NA
ATOM     20  C   UNL A   1      33.194  25.983  21.826  1.00  0.00     0.045 A 
ATOM     21  C   UNL A   1      33.422  27.059  22.713  1.00  0.00     0.059 A 
ATOM     22  C   UNL A   1      33.979  28.404  22.437  1.00  0.00     0.069 C 
ENDBRANCH  12  17
ENDBRANCH   6   8
ENDBRANCH   5   6
ENDBRANCH   4   5
ENDBRANCH   3   4
ENDBRANCH   2   3
ENDBRANCH   1   2
BRANCH   1  23
ATOM     23  C   UNL A   1      39.046  20.327  25.272  1.00  0.00     0.261 C 
BRANCH  23  24
ATOM     24  O   UNL A   1      39.919  19.821  26.296  1.00  0.00    -0.460 OA
BRANCH  24  25
ATOM     25  C   UNL A   1      41.241  19.901  26.029  1.00  0.00     0.338 C 
ATOM     26  O   UNL A   1      41.916  19.125  25.359  1.00  0.00    -0.246 OA
BRANCH  25  27
ATOM     27  C   UNL A   1      41.785  21.160  26.569  1.00  0.00     0.060 A 
ATOM     28  C   UNL A   1      41.788  21.361  27.953  1.00  0.00     0.016 A 
ATOM     29  C   UNL A   1      42.229  22.166  25.714  1.00  0.00     0.016 A 
ATOM     30  C   UNL A   1      42.192  22.591  28.476  1.00  0.00     0.010 A 
ATOM     31  C   UNL A   1      42.663  23.383  26.235  1.00  0.00     0.010 A 
ATOM     32  C   UNL A   1      42.604  23.619  27.616  1.00  0.00    -0.014 A 
BRANCH  32  33
ATOM     33  C   UNL A   1      42.854  24.989  28.122  1.00  0.00     0.031 A 
ATOM     34  C   UNL A   1      44.251  25.373  28.533  1.00  0.00     0.074 A 
ATOM     35  C   UNL A   1      41.837  25.854  28.274  1.00  0.00     0.049 A 
ATOM     36  N   UNL A   1      44.685  26.494  29.049  1.00  0.00    -0.248 NA
ATOM     37  C   UNL A   1      45.292  24.343  28.373  1.00  0.00     0.031 C 
ATOM     38  C   UNL A   1      40.435  25.577  27.960  1.00  0.00     0.029 A 
ATOM     39  N   UNL A   1      41.829  27.140  28.750  1.00  0.00    -0.354 N 
ATOM     40  C   UNL A   1      46.038  26.294  29.300  1.00  0.00     0.074 A 
ATOM     41  C   UNL A   1      46.343  24.932  28.924  1.00  0.00     0.031 C 
ATOM     42  C   UNL A   1      39.700  26.664  28.251  1.00  0.00     0.029 A 
ATOM     43  C   UNL A   1      40.578  27.704  28.782  1.00  0.00     0.049 A 
ATOM     44  H   UNL A   1      42.641  27.613  29.040  1.00  0.00     0.167 HD
ATOM     45  C   UNL A   1      46.951  27.170  29.783  1.00  0.00     0.031 A 
ATOM     46  C   UNL A   1      40.186  28.926  29.192  1.00  0.00     0.031 A 
ATOM     47  C   UNL A   1      46.645  28.533  30.130  1.00  0.00     0.049 A 
ATOM     48  C   UNL A   1      41.222  29.902  29.675  1.00  0.00     0.074 A 
ATOM     49  C   UNL A   1      47.506  29.532  30.549  1.00  0.00     0.029 A 
ATOM     50  N   UNL A   1      45.375  29.085  30.091  1.00  0.00    -0.354 N 
ATOM     51  N   UNL A   1      42.513  29.728  29.826  1.00  0.00    -0.248 NA
ATOM     52  C   UNL A   1      40.751  31.251  30.017  1.00  0.00     0.031 C 
ATOM     53  C   UNL A   1      46.748  30.682  30.799  1.00  0.00     0.029 A 
ATOM     54  C   UNL A   1      45.425  30.409  30.490  1.00  0.00     0.049 A 
ATOM     55  H   UNL A   1      44.558  28.606  29.821  1.00  0.00     0.167 HD
ATOM     56  C   UNL A   1      43.014  30.951  30.252  1.00  0.00     0.074 A 
ATOM     57  C   UNL A   1      41.888  31.861  30.324  1.00  0.00     0.031 C 
ATOM     58  C   UNL A   1      44.291  31.294  30.552  1.00  0.00     0.031 A 
BRANCH  45  59
ATOM     59  C   UNL A   1      48.362  26.679  29.962  1.00  0.00    -0.014 A 
ATOM     60  C   UNL A   1      49.306  26.776  28.926  1.00  0.00     0.009 A 
ATOM     61  C   UNL A   1      48.762  26.133  31.191  1.00  0.00     0.009 A 
ATOM     62  C   UNL A   1      50.606  26.296  29.102  1.00  0.00     0.001 A 
ATOM     63  C   UNL A   1      50.071  25.682  31.376  1.00  0.00     0.001 A 
ATOM     64  C   UNL A   1      50.988  25.754  30.328  1.00  0.00     0.000 A 
ENDBRANCH  45  59
BRANCH  46  65
ATOM     65  C   UNL A   1      38.754  29.306  29.112  1.00  0.00    -0.014 A 
ATOM     66  C   UNL A   1      38.232  29.860  27.933  1.00  0.00     0.009 A 
ATOM     67  C   UNL A   1      37.894  29.093  30.202  1.00  0.00     0.009 A 
ATOM     68  C   UNL A   1      36.882  30.211  27.852  1.00  0.00     0.001 A 
ATOM     69  C   UNL A   1      36.540  29.424  30.109  1.00  0.00     0.001 A 
ATOM     70  C   UNL A   1      36.037  29.988  28.937  1.00  0.00     0.000 A 
ENDBRANCH  46  65
BRANCH  58  71
ATOM     71  C   UNL A   1      44.539  32.720  30.951  1.00  0.00    -0.014 A 
ATOM     72  C   UNL A   1      44.820  33.706  29.994  1.00  0.00     0.009 A 
ATOM     73  C   UNL A   1      44.449  33.085  32.304  1.00  0.00     0.009 A 
ATOM     74  C   UNL A   1      45.037  35.027  30.388  1.00  0.00     0.001 A 
ATOM     75  C   UNL A   1      44.642  34.411  32.692  1.00  0.00     0.001 A 
ATOM     76  C   UNL A   1      44.944  35.379  31.735  1.00  0.00     0.000 A 
ENDBRANCH  58  71
ENDBRANCH  32  33
ENDBRANCH  25  27
ENDBRANCH  24  25
ENDBRANCH  23  24
ENDBRANCH   1  23
TORSDOF 16
ENDMDL
