MODEL 1
REMARK VINA RESULT:     -11.3      0.000      0.000
REMARK SMILES C[C@@H]1CCC[C@H](C)[N@H+]1Cc1cc2c(cc1Cl)C=C(C(=O)OCCOCCOC(=O)c1ccc(-c3c4nc(c(-c5ccccc5)c5ccc([nH]5)c(-c5ccccc5)c5nc(c(-c6ccccc6)c6ccc3[nH]6)C=C5)C=C4)cc1)[C@@H](C(F)(F)F)O2
REMARK SMILES IDX 24 1 23 2 22 3 21 4 19 5 20 6 18 7 10 8 11 9 15 10 12 11
REMARK SMILES IDX 14 12 16 13 13 14 83 15 17 16 78 17 9 18 8 19 7 20 6 21 5 22
REMARK SMILES IDX 4 23 2 24 3 26 1 27 79 28 80 29 81 30 82 31 25 32 26 33
REMARK SMILES IDX 27 34 28 35 29 36 30 37 31 38 77 39 32 40 76 41 33 42 34 43
REMARK SMILES IDX 35 44 70 45 36 46 75 47 69 48 71 49 37 50 74 51 68 52 67 53
REMARK SMILES IDX 38 55 60 56 45 57 59 58 46 59 49 60 58 61 72 62 47 63 48 64
REMARK SMILES IDX 57 66 73 67 50 68 39 69 40 70 44 71 41 72 43 73 42 74 61 75
REMARK SMILES IDX 62 76 66 77 63 78 65 79 64 80 51 81 52 82 56 83 53 84 55 85
REMARK SMILES IDX 54 86
REMARK H PARENT 8 25 71 54 49 65
REMARK Flexibility Score: inf
ROOT
ATOM      1  O   UNL A   1      33.046  30.025  25.888  1.00  0.00    -0.374 OA
ENDROOT
BRANCH   1   2
ATOM      2  C   UNL A   1      31.862  29.763  25.142  1.00  0.00     0.202 C 
BRANCH   2   3
ATOM      3  C   UNL A   1      31.654  28.349  24.596  1.00  0.00     0.261 C 
BRANCH   3   4
ATOM      4  O   UNL A   1      32.499  27.382  25.240  1.00  0.00    -0.460 OA
BRANCH   4   5
ATOM      5  C   UNL A   1      31.837  26.595  26.119  1.00  0.00     0.338 C 
ATOM      6  O   UNL A   1      31.018  26.966  26.947  1.00  0.00    -0.246 OA
BRANCH   5   7
ATOM      7  C   UNL A   1      32.150  25.172  25.898  1.00  0.00     0.087 C 
ATOM      8  C   UNL A   1      34.775  20.971  25.066  1.00  0.00     0.029 A 
ATOM      9  C   UNL A   1      33.392  21.272  25.075  1.00  0.00     0.058 A 
ATOM     10  C   UNL A   1      35.680  22.034  25.229  1.00  0.00     0.050 A 
ATOM     11  C   UNL A   1      32.941  22.562  25.375  1.00  0.00     0.128 A 
ATOM     12  C   UNL A   1      35.228  23.288  25.625  1.00  0.00     0.033 A 
ATOM     13  Cl  UNL A   1      37.380  21.892  24.951  1.00  0.00    -0.084 Cl
ATOM     14  C   UNL A   1      33.864  23.540  25.728  1.00  0.00     0.019 A 
ATOM     15  O   UNL A   1      31.592  22.802  25.356  1.00  0.00    -0.475 OA
ATOM     16  C   UNL A   1      33.421  24.846  26.157  1.00  0.00     0.027 C 
ATOM     17  C   UNL A   1      31.161  24.205  25.312  1.00  0.00     0.316 C 
BRANCH   8  18
ATOM     18  C   UNL A   1      35.239  19.529  24.945  1.00  0.00     0.301 C 
BRANCH  18  19
ATOM     19  N   UNL A   1      34.314  18.567  24.297  1.00  0.00    -0.327 N 
ATOM     20  C   UNL A   1      31.941  18.485  23.564  1.00  0.00     0.075 C 
ATOM     21  C   UNL A   1      32.917  18.649  24.748  1.00  0.00     0.181 C 
ATOM     22  C   UNL A   1      32.573  17.680  25.893  1.00  0.00     0.065 C 
ATOM     23  C   UNL A   1      33.057  16.257  25.651  1.00  0.00     0.012 C 
ATOM     24  C   UNL A   1      34.849  17.207  24.100  1.00  0.00     0.181 C 
ATOM     25  H   UNL A   1      34.258  18.911  23.338  1.00  0.00     0.348 HD
ATOM     26  C   UNL A   1      34.525  16.233  25.245  1.00  0.00     0.065 C 
ATOM     27  C   UNL A   1      34.420  16.590  22.760  1.00  0.00     0.075 C 
ENDBRANCH  18  19
ENDBRANCH   8  18
BRANCH  17  28
ATOM     28  C   UNL A   1      30.775  24.604  23.880  1.00  0.00     0.430 C 
ATOM     29  F   UNL A   1      30.228  23.568  23.203  1.00  0.00    -0.167 F 
ATOM     30  F   UNL A   1      29.854  25.599  23.880  1.00  0.00    -0.167 F 
ATOM     31  F   UNL A   1      31.838  25.042  23.168  1.00  0.00    -0.167 F 
ENDBRANCH  17  28
ENDBRANCH   5   7
ENDBRANCH   4   5
ENDBRANCH   3   4
ENDBRANCH   2   3
ENDBRANCH   1   2
BRANCH   1  32
ATOM     32  C   UNL A   1      32.927  30.589  27.193  1.00  0.00     0.202 C 
BRANCH  32  33
ATOM     33  C   UNL A   1      32.205  31.934  27.346  1.00  0.00     0.261 C 
BRANCH  33  34
ATOM     34  O   UNL A   1      33.056  33.060  27.074  1.00  0.00    -0.460 OA
BRANCH  34  35
ATOM     35  C   UNL A   1      33.290  33.868  28.137  1.00  0.00     0.338 C 
ATOM     36  O   UNL A   1      32.513  34.660  28.653  1.00  0.00    -0.246 OA
BRANCH  35  37
ATOM     37  C   UNL A   1      34.586  33.512  28.743  1.00  0.00     0.060 A 
ATOM     38  C   UNL A   1      34.651  32.788  29.933  1.00  0.00     0.016 A 
ATOM     39  C   UNL A   1      35.756  33.882  28.068  1.00  0.00     0.016 A 
ATOM     40  C   UNL A   1      35.898  32.404  30.429  1.00  0.00     0.010 A 
ATOM     41  C   UNL A   1      37.002  33.495  28.563  1.00  0.00     0.010 A 
ATOM     42  C   UNL A   1      37.079  32.730  29.734  1.00  0.00    -0.014 A 
BRANCH  42  43
ATOM     43  C   UNL A   1      38.371  32.137  30.156  1.00  0.00     0.031 A 
ATOM     44  C   UNL A   1      39.261  32.806  31.157  1.00  0.00     0.074 A 
ATOM     45  C   UNL A   1      38.739  30.963  29.604  1.00  0.00     0.049 A 
ATOM     46  N   UNL A   1      40.363  32.355  31.700  1.00  0.00    -0.248 NA
ATOM     47  C   UNL A   1      38.876  34.153  31.603  1.00  0.00     0.031 C 
ATOM     48  C   UNL A   1      37.970  30.241  28.589  1.00  0.00     0.029 A 
ATOM     49  N   UNL A   1      39.831  30.164  29.828  1.00  0.00    -0.354 N 
ATOM     50  C   UNL A   1      40.793  33.348  32.569  1.00  0.00     0.074 A 
ATOM     51  C   UNL A   1      39.863  34.449  32.441  1.00  0.00     0.031 C 
ATOM     52  C   UNL A   1      38.587  29.082  28.315  1.00  0.00     0.029 A 
ATOM     53  C   UNL A   1      39.813  28.997  29.103  1.00  0.00     0.049 A 
ATOM     54  H   UNL A   1      40.557  30.404  30.449  1.00  0.00     0.167 HD
ATOM     55  C   UNL A   1      41.856  33.326  33.408  1.00  0.00     0.031 A 
ATOM     56  C   UNL A   1      40.678  27.963  29.078  1.00  0.00     0.031 A 
ATOM     57  C   UNL A   1      42.789  32.232  33.508  1.00  0.00     0.049 A 
ATOM     58  C   UNL A   1      41.873  27.986  29.989  1.00  0.00     0.074 A 
ATOM     59  C   UNL A   1      43.870  32.106  34.364  1.00  0.00     0.029 A 
ATOM     60  N   UNL A   1      42.765  31.089  32.725  1.00  0.00    -0.354 N 
ATOM     61  N   UNL A   1      42.214  28.890  30.876  1.00  0.00    -0.248 NA
ATOM     62  C   UNL A   1      42.792  26.843  29.911  1.00  0.00     0.031 C 
ATOM     63  C   UNL A   1      44.547  30.929  34.042  1.00  0.00     0.029 A 
ATOM     64  C   UNL A   1      43.838  30.273  33.049  1.00  0.00     0.049 A 
ATOM     65  H   UNL A   1      42.088  30.886  32.040  1.00  0.00     0.167 HD
ATOM     66  C   UNL A   1      43.375  28.416  31.475  1.00  0.00     0.074 A 
ATOM     67  C   UNL A   1      43.664  27.133  30.869  1.00  0.00     0.031 C 
ATOM     68  C   UNL A   1      44.129  28.998  32.438  1.00  0.00     0.031 A 
BRANCH  55  69
ATOM     69  C   UNL A   1      42.079  34.514  34.307  1.00  0.00    -0.014 A 
ATOM     70  C   UNL A   1      41.450  34.574  35.562  1.00  0.00     0.009 A 
ATOM     71  C   UNL A   1      42.804  35.630  33.860  1.00  0.00     0.009 A 
ATOM     72  C   UNL A   1      41.521  35.734  36.337  1.00  0.00     0.001 A 
ATOM     73  C   UNL A   1      42.901  36.776  34.653  1.00  0.00     0.001 A 
ATOM     74  C   UNL A   1      42.249  36.832  35.884  1.00  0.00     0.000 A 
ENDBRANCH  55  69
BRANCH  56  75
ATOM     75  C   UNL A   1      40.402  26.807  28.184  1.00  0.00    -0.014 A 
ATOM     76  C   UNL A   1      40.909  26.779  26.873  1.00  0.00     0.009 A 
ATOM     77  C   UNL A   1      39.579  25.754  28.611  1.00  0.00     0.009 A 
ATOM     78  C   UNL A   1      40.571  25.742  26.001  1.00  0.00     0.001 A 
ATOM     79  C   UNL A   1      39.273  24.699  27.747  1.00  0.00     0.001 A 
ATOM     80  C   UNL A   1      39.757  24.700  26.440  1.00  0.00     0.000 A 
ENDBRANCH  56  75
BRANCH  68  81
ATOM     81  C   UNL A   1      45.355  28.265  32.919  1.00  0.00    -0.014 A 
ATOM     82  C   UNL A   1      46.557  28.366  32.198  1.00  0.00     0.009 A 
ATOM     83  C   UNL A   1      45.294  27.387  34.011  1.00  0.00     0.009 A 
ATOM     84  C   UNL A   1      47.662  27.586  32.544  1.00  0.00     0.001 A 
ATOM     85  C   UNL A   1      46.413  26.636  34.379  1.00  0.00     0.001 A 
ATOM     86  C   UNL A   1      47.591  26.725  33.639  1.00  0.00     0.000 A 
ENDBRANCH  68  81
ENDBRANCH  42  43
ENDBRANCH  35  37
ENDBRANCH  34  35
ENDBRANCH  33  34
ENDBRANCH  32  33
ENDBRANCH   1  32
TORSDOF 17
ENDMDL
MODEL 2
REMARK VINA RESULT:     -11.2      3.732      9.316
REMARK SMILES C[C@@H]1CCC[C@H](C)[N@H+]1Cc1cc2c(cc1Cl)C=C(C(=O)OCCOCCOC(=O)c1ccc(-c3c4nc(c(-c5ccccc5)c5ccc([nH]5)c(-c5ccccc5)c5nc(c(-c6ccccc6)c6ccc3[nH]6)C=C5)C=C4)cc1)[C@@H](C(F)(F)F)O2
REMARK SMILES IDX 24 1 23 2 22 3 21 4 19 5 20 6 18 7 10 8 11 9 15 10 12 11
REMARK SMILES IDX 14 12 16 13 13 14 83 15 17 16 78 17 9 18 8 19 7 20 6 21 5 22
REMARK SMILES IDX 4 23 2 24 3 26 1 27 79 28 80 29 81 30 82 31 25 32 26 33
REMARK SMILES IDX 27 34 28 35 29 36 30 37 31 38 77 39 32 40 76 41 33 42 34 43
REMARK SMILES IDX 35 44 70 45 36 46 75 47 69 48 71 49 37 50 74 51 68 52 67 53
REMARK SMILES IDX 38 55 60 56 45 57 59 58 46 59 49 60 58 61 72 62 47 63 48 64
REMARK SMILES IDX 57 66 73 67 50 68 39 69 40 70 44 71 41 72 43 73 42 74 61 75
REMARK SMILES IDX 62 76 66 77 63 78 65 79 64 80 51 81 52 82 56 83 53 84 55 85
REMARK SMILES IDX 54 86
REMARK H PARENT 8 25 71 54 49 65
REMARK Flexibility Score: inf
ROOT
ATOM      1  O   UNL A   1      36.818  20.969  24.792  1.00  0.00    -0.374 OA
ENDROOT
BRANCH   1   2
ATOM      2  C   UNL A   1      35.525  20.772  25.354  1.00  0.00     0.202 C 
BRANCH   2   3
ATOM      3  C   UNL A   1      34.422  21.766  24.985  1.00  0.00     0.261 C 
BRANCH   3   4
ATOM      4  O   UNL A   1      34.924  23.099  24.798  1.00  0.00    -0.460 OA
BRANCH   4   5
ATOM      5  C   UNL A   1      34.730  23.572  23.545  1.00  0.00     0.338 C 
ATOM      6  O   UNL A   1      35.187  23.097  22.515  1.00  0.00    -0.246 OA
BRANCH   5   7
ATOM      7  C   UNL A   1      33.794  24.709  23.545  1.00  0.00     0.087 C 
ATOM      8  C   UNL A   1      31.446  28.915  24.969  1.00  0.00     0.029 A 
ATOM      9  C   UNL A   1      31.193  27.948  23.968  1.00  0.00     0.058 A 
ATOM     10  C   UNL A   1      32.511  28.680  25.856  1.00  0.00     0.050 A 
ATOM     11  C   UNL A   1      32.060  26.866  23.781  1.00  0.00     0.128 A 
ATOM     12  C   UNL A   1      33.424  27.661  25.604  1.00  0.00     0.033 A 
ATOM     13  Cl  UNL A   1      32.770  29.593  27.300  1.00  0.00    -0.084 Cl
ATOM     14  C   UNL A   1      33.215  26.779  24.550  1.00  0.00     0.019 A 
ATOM     15  O   UNL A   1      31.761  25.951  22.805  1.00  0.00    -0.475 OA
ATOM     16  C   UNL A   1      34.187  25.740  24.300  1.00  0.00     0.027 C 
ATOM     17  C   UNL A   1      32.458  24.659  22.859  1.00  0.00     0.316 C 
BRANCH   8  18
ATOM     18  C   UNL A   1      30.618  30.187  25.025  1.00  0.00     0.301 C 
BRANCH  18  19
ATOM     19  N   UNL A   1      30.009  30.660  23.756  1.00  0.00    -0.327 N 
ATOM     20  C   UNL A   1      29.127  32.778  22.802  1.00  0.00     0.075 C 
ATOM     21  C   UNL A   1      28.994  31.713  23.910  1.00  0.00     0.181 C 
ATOM     22  C   UNL A   1      27.553  31.181  24.003  1.00  0.00     0.065 C 
ATOM     23  C   UNL A   1      27.214  30.153  22.932  1.00  0.00     0.012 C 
ATOM     24  C   UNL A   1      29.703  29.609  22.769  1.00  0.00     0.181 C 
ATOM     25  H   UNL A   1      30.777  31.157  23.303  1.00  0.00     0.348 HD
ATOM     26  C   UNL A   1      28.270  29.058  22.861  1.00  0.00     0.065 C 
ATOM     27  C   UNL A   1      29.995  30.048  21.326  1.00  0.00     0.075 C 
ENDBRANCH  18  19
ENDBRANCH   8  18
BRANCH  17  28
ATOM     28  C   UNL A   1      31.553  23.587  23.483  1.00  0.00     0.430 C 
ATOM     29  F   UNL A   1      31.660  23.566  24.832  1.00  0.00    -0.167 F 
ATOM     30  F   UNL A   1      30.247  23.822  23.201  1.00  0.00    -0.167 F 
ATOM     31  F   UNL A   1      31.843  22.347  23.031  1.00  0.00    -0.167 F 
ENDBRANCH  17  28
ENDBRANCH   5   7
ENDBRANCH   4   5
ENDBRANCH   3   4
ENDBRANCH   2   3
ENDBRANCH   1   2
BRANCH   1  32
ATOM     32  C   UNL A   1      37.778  19.917  24.888  1.00  0.00     0.202 C 
BRANCH  32  33
ATOM     33  C   UNL A   1      39.192  20.260  25.376  1.00  0.00     0.261 C 
BRANCH  33  34
ATOM     34  O   UNL A   1      39.968  19.096  25.706  1.00  0.00    -0.460 OA
BRANCH  34  35
ATOM     35  C   UNL A   1      41.272  19.341  25.985  1.00  0.00     0.338 C 
ATOM     36  O   UNL A   1      42.237  18.651  25.689  1.00  0.00    -0.246 OA
BRANCH  35  37
ATOM     37  C   UNL A   1      41.405  20.701  26.540  1.00  0.00     0.060 A 
ATOM     38  C   UNL A   1      41.122  20.964  27.880  1.00  0.00     0.016 A 
ATOM     39  C   UNL A   1      41.866  21.719  25.695  1.00  0.00     0.016 A 
ATOM     40  C   UNL A   1      41.338  22.249  28.382  1.00  0.00     0.010 A 
ATOM     41  C   UNL A   1      42.084  23.001  26.198  1.00  0.00     0.010 A 
ATOM     42  C   UNL A   1      41.846  23.268  27.553  1.00  0.00    -0.014 A 
BRANCH  42  43
ATOM     43  C   UNL A   1      42.269  24.559  28.147  1.00  0.00     0.031 A 
ATOM     44  C   UNL A   1      43.692  24.827  28.530  1.00  0.00     0.074 A 
ATOM     45  C   UNL A   1      41.328  25.504  28.346  1.00  0.00     0.049 A 
ATOM     46  N   UNL A   1      44.226  25.943  28.957  1.00  0.00    -0.248 NA
ATOM     47  C   UNL A   1      44.636  23.705  28.430  1.00  0.00     0.031 C 
ATOM     48  C   UNL A   1      39.904  25.338  28.048  1.00  0.00     0.029 A 
ATOM     49  N   UNL A   1      41.424  26.787  28.821  1.00  0.00    -0.354 N 
ATOM     50  C   UNL A   1      45.572  25.668  29.156  1.00  0.00     0.074 A 
ATOM     51  C   UNL A   1      45.763  24.266  28.854  1.00  0.00     0.031 C 
ATOM     52  C   UNL A   1      39.268  26.492  28.299  1.00  0.00     0.029 A 
ATOM     53  C   UNL A   1      40.228  27.464  28.812  1.00  0.00     0.049 A 
ATOM     54  H   UNL A   1      42.267  27.183  29.138  1.00  0.00     0.167 HD
ATOM     55  C   UNL A   1      46.555  26.519  29.535  1.00  0.00     0.031 A 
ATOM     56  C   UNL A   1      39.931  28.730  29.166  1.00  0.00     0.031 A 
ATOM     57  C   UNL A   1      46.347  27.909  29.856  1.00  0.00     0.049 A 
ATOM     58  C   UNL A   1      41.036  29.640  29.624  1.00  0.00     0.074 A 
ATOM     59  C   UNL A   1      47.293  28.857  30.206  1.00  0.00     0.029 A 
ATOM     60  N   UNL A   1      45.116  28.546  29.881  1.00  0.00    -0.354 N 
ATOM     61  N   UNL A   1      42.321  29.393  29.716  1.00  0.00    -0.248 NA
ATOM     62  C   UNL A   1      40.657  31.005  30.013  1.00  0.00     0.031 C 
ATOM     63  C   UNL A   1      46.628  30.042  30.524  1.00  0.00     0.029 A 
ATOM     64  C   UNL A   1      45.276  29.864  30.283  1.00  0.00     0.049 A 
ATOM     65  H   UNL A   1      44.256  28.127  29.648  1.00  0.00     0.167 HD
ATOM     66  C   UNL A   1      42.906  30.576  30.151  1.00  0.00     0.074 A 
ATOM     67  C   UNL A   1      41.839  31.546  30.282  1.00  0.00     0.031 C 
ATOM     68  C   UNL A   1      44.210  30.827  30.420  1.00  0.00     0.031 A 
BRANCH  55  69
ATOM     69  C   UNL A   1      47.963  25.990  29.619  1.00  0.00    -0.014 A 
ATOM     70  C   UNL A   1      48.539  25.724  30.873  1.00  0.00     0.009 A 
ATOM     71  C   UNL A   1      48.763  25.880  28.471  1.00  0.00     0.009 A 
ATOM     72  C   UNL A   1      49.890  25.384  30.976  1.00  0.00     0.001 A 
ATOM     73  C   UNL A   1      50.105  25.507  28.575  1.00  0.00     0.001 A 
ATOM     74  C   UNL A   1      50.670  25.272  29.827  1.00  0.00     0.000 A 
ENDBRANCH  55  69
BRANCH  56  75
ATOM     75  C   UNL A   1      38.528  29.208  29.049  1.00  0.00    -0.014 A 
ATOM     76  C   UNL A   1      38.052  29.739  27.838  1.00  0.00     0.009 A 
ATOM     77  C   UNL A   1      37.674  29.196  30.162  1.00  0.00     0.009 A 
ATOM     78  C   UNL A   1      36.766  30.278  27.754  1.00  0.00     0.001 A 
ATOM     79  C   UNL A   1      36.375  29.702  30.064  1.00  0.00     0.001 A 
ATOM     80  C   UNL A   1      35.927  30.254  28.865  1.00  0.00     0.000 A 
ENDBRANCH  56  75
BRANCH  68  81
ATOM     81  C   UNL A   1      44.584  32.210  30.885  1.00  0.00    -0.014 A 
ATOM     82  C   UNL A   1      45.007  33.171  29.951  1.00  0.00     0.009 A 
ATOM     83  C   UNL A   1      44.631  32.530  32.250  1.00  0.00     0.009 A 
ATOM     84  C   UNL A   1      45.491  34.411  30.375  1.00  0.00     0.001 A 
ATOM     85  C   UNL A   1      45.079  33.784  32.670  1.00  0.00     0.001 A 
ATOM     86  C   UNL A   1      45.521  34.718  31.734  1.00  0.00     0.000 A 
ENDBRANCH  68  81
ENDBRANCH  42  43
ENDBRANCH  35  37
ENDBRANCH  34  35
ENDBRANCH  33  34
ENDBRANCH  32  33
ENDBRANCH   1  32
TORSDOF 17
ENDMDL
MODEL 3
REMARK VINA RESULT:     -11.0      6.291      8.501
REMARK SMILES C[C@@H]1CCC[C@H](C)[N@H+]1Cc1cc2c(cc1Cl)C=C(C(=O)OCCOCCOC(=O)c1ccc(-c3c4nc(c(-c5ccccc5)c5ccc([nH]5)c(-c5ccccc5)c5nc(c(-c6ccccc6)c6ccc3[nH]6)C=C5)C=C4)cc1)[C@@H](C(F)(F)F)O2
REMARK SMILES IDX 24 1 23 2 22 3 21 4 19 5 20 6 18 7 10 8 11 9 15 10 12 11
REMARK SMILES IDX 14 12 16 13 13 14 83 15 17 16 78 17 9 18 8 19 7 20 6 21 5 22
REMARK SMILES IDX 4 23 2 24 3 26 1 27 79 28 80 29 81 30 82 31 25 32 26 33
REMARK SMILES IDX 27 34 28 35 29 36 30 37 31 38 77 39 32 40 76 41 33 42 34 43
REMARK SMILES IDX 35 44 70 45 36 46 75 47 69 48 71 49 37 50 74 51 68 52 67 53
REMARK SMILES IDX 38 55 60 56 45 57 59 58 46 59 49 60 58 61 72 62 47 63 48 64
REMARK SMILES IDX 57 66 73 67 50 68 39 69 40 70 44 71 41 72 43 73 42 74 61 75
REMARK SMILES IDX 62 76 66 77 63 78 65 79 64 80 51 81 52 82 56 83 53 84 55 85
REMARK SMILES IDX 54 86
REMARK H PARENT 8 25 71 54 49 65
REMARK Flexibility Score: inf
ROOT
ATOM      1  O   UNL A   1      34.087  33.510  29.330  1.00  0.00    -0.374 OA
ENDROOT
BRANCH   1   2
ATOM      2  C   UNL A   1      35.184  33.024  28.564  1.00  0.00     0.202 C 
BRANCH   2   3
ATOM      3  C   UNL A   1      35.439  31.515  28.549  1.00  0.00     0.261 C 
BRANCH   3   4
ATOM      4  O   UNL A   1      36.829  31.192  28.715  1.00  0.00    -0.460 OA
BRANCH   4   5
ATOM      5  C   UNL A   1      37.126  29.917  28.375  1.00  0.00     0.338 C 
ATOM      6  O   UNL A   1      36.350  29.094  27.910  1.00  0.00    -0.246 OA
BRANCH   5   7
ATOM      7  C   UNL A   1      38.563  29.642  28.541  1.00  0.00     0.087 C 
ATOM      8  C   UNL A   1      43.211  27.981  27.606  1.00  0.00     0.029 A 
ATOM      9  C   UNL A   1      42.584  28.536  28.747  1.00  0.00     0.058 A 
ATOM     10  C   UNL A   1      42.413  27.724  26.477  1.00  0.00     0.050 A 
ATOM     11  C   UNL A   1      41.246  28.943  28.704  1.00  0.00     0.128 A 
ATOM     12  C   UNL A   1      41.115  28.221  26.405  1.00  0.00     0.033 A 
ATOM     13  Cl  UNL A   1      42.944  26.789  25.125  1.00  0.00    -0.084 Cl
ATOM     14  C   UNL A   1      40.548  28.857  27.504  1.00  0.00     0.019 A 
ATOM     15  O   UNL A   1      40.685  29.462  29.841  1.00  0.00    -0.475 OA
ATOM     16  C   UNL A   1      39.205  29.378  27.398  1.00  0.00     0.027 C 
ATOM     17  C   UNL A   1      39.219  29.543  29.889  1.00  0.00     0.316 C 
BRANCH   8  18
ATOM     18  C   UNL A   1      44.710  27.737  27.604  1.00  0.00     0.301 C 
BRANCH  18  19
ATOM     19  N   UNL A   1      45.173  26.331  27.492  1.00  0.00    -0.327 N 
ATOM     20  C   UNL A   1      44.819  24.167  28.659  1.00  0.00     0.075 C 
ATOM     21  C   UNL A   1      45.318  25.622  28.772  1.00  0.00     0.181 C 
ATOM     22  C   UNL A   1      46.738  25.681  29.360  1.00  0.00     0.065 C 
ATOM     23  C   UNL A   1      47.829  25.354  28.350  1.00  0.00     0.012 C 
ATOM     24  C   UNL A   1      46.235  26.090  26.497  1.00  0.00     0.181 C 
ATOM     25  H   UNL A   1      44.375  25.859  27.065  1.00  0.00     0.348 HD
ATOM     26  C   UNL A   1      47.660  26.162  27.071  1.00  0.00     0.065 C 
ATOM     27  C   UNL A   1      46.048  24.766  25.741  1.00  0.00     0.075 C 
ENDBRANCH  18  19
ENDBRANCH   8  18
BRANCH  17  28
ATOM     28  C   UNL A   1      38.643  28.374  30.703  1.00  0.00     0.430 C 
ATOM     29  F   UNL A   1      38.510  27.259  29.948  1.00  0.00    -0.167 F 
ATOM     30  F   UNL A   1      39.457  28.049  31.737  1.00  0.00    -0.167 F 
ATOM     31  F   UNL A   1      37.430  28.663  31.223  1.00  0.00    -0.167 F 
ENDBRANCH  17  28
ENDBRANCH   5   7
ENDBRANCH   4   5
ENDBRANCH   3   4
ENDBRANCH   2   3
ENDBRANCH   1   2
BRANCH   1  32
ATOM     32  C   UNL A   1      34.184  34.801  29.930  1.00  0.00     0.202 C 
BRANCH  32  33
ATOM     33  C   UNL A   1      33.300  35.112  31.144  1.00  0.00     0.261 C 
BRANCH  33  34
ATOM     34  O   UNL A   1      34.008  35.018  32.392  1.00  0.00    -0.460 OA
BRANCH  34  35
ATOM     35  C   UNL A   1      34.036  33.778  32.939  1.00  0.00     0.338 C 
ATOM     36  O   UNL A   1      33.081  33.088  33.264  1.00  0.00    -0.246 OA
BRANCH  35  37
ATOM     37  C   UNL A   1      35.418  33.263  32.907  1.00  0.00     0.060 A 
ATOM     38  C   UNL A   1      35.758  32.160  32.124  1.00  0.00     0.016 A 
ATOM     39  C   UNL A   1      36.394  33.938  33.652  1.00  0.00     0.016 A 
ATOM     40  C   UNL A   1      37.093  31.756  32.062  1.00  0.00     0.010 A 
ATOM     41  C   UNL A   1      37.727  33.534  33.587  1.00  0.00     0.010 A 
ATOM     42  C   UNL A   1      38.090  32.456  32.769  1.00  0.00    -0.014 A 
BRANCH  42  43
ATOM     43  C   UNL A   1      39.520  32.149  32.526  1.00  0.00     0.031 A 
ATOM     44  C   UNL A   1      40.212  31.007  33.204  1.00  0.00     0.074 A 
ATOM     45  C   UNL A   1      40.201  32.940  31.673  1.00  0.00     0.049 A 
ATOM     46  N   UNL A   1      41.424  30.554  33.008  1.00  0.00    -0.248 NA
ATOM     47  C   UNL A   1      39.456  30.282  34.236  1.00  0.00     0.031 C 
ATOM     48  C   UNL A   1      39.640  34.105  30.987  1.00  0.00     0.029 A 
ATOM     49  N   UNL A   1      41.495  32.875  31.221  1.00  0.00    -0.354 N 
ATOM     50  C   UNL A   1      41.572  29.479  33.872  1.00  0.00     0.074 A 
ATOM     51  C   UNL A   1      40.345  29.379  34.633  1.00  0.00     0.031 C 
ATOM     52  C   UNL A   1      40.568  34.615  30.163  1.00  0.00     0.029 A 
ATOM     53  C   UNL A   1      41.798  33.841  30.291  1.00  0.00     0.049 A 
ATOM     54  H   UNL A   1      42.142  32.202  31.532  1.00  0.00     0.167 HD
ATOM     55  C   UNL A   1      42.631  28.643  33.998  1.00  0.00     0.031 A 
ATOM     56  C   UNL A   1      42.935  34.076  29.606  1.00  0.00     0.031 A 
ATOM     57  C   UNL A   1      43.857  28.768  33.250  1.00  0.00     0.049 A 
ATOM     58  C   UNL A   1      44.109  33.158  29.797  1.00  0.00     0.074 A 
ATOM     59  C   UNL A   1      44.965  27.939  33.281  1.00  0.00     0.029 A 
ATOM     60  N   UNL A   1      44.145  29.785  32.354  1.00  0.00    -0.354 N 
ATOM     61  N   UNL A   1      44.201  32.086  30.549  1.00  0.00    -0.248 NA
ATOM     62  C   UNL A   1      45.328  33.467  29.039  1.00  0.00     0.031 C 
ATOM     63  C   UNL A   1      45.953  28.499  32.470  1.00  0.00     0.029 A 
ATOM     64  C   UNL A   1      45.431  29.627  31.859  1.00  0.00     0.049 A 
ATOM     65  H   UNL A   1      43.529  30.512  32.105  1.00  0.00     0.167 HD
ATOM     66  C   UNL A   1      45.479  31.583  30.337  1.00  0.00     0.074 A 
ATOM     67  C   UNL A   1      46.116  32.452  29.369  1.00  0.00     0.031 C 
ATOM     68  C   UNL A   1      46.066  30.499  30.900  1.00  0.00     0.031 A 
BRANCH  55  69
ATOM     69  C   UNL A   1      42.525  27.499  34.972  1.00  0.00    -0.014 A 
ATOM     70  C   UNL A   1      41.861  26.318  34.600  1.00  0.00     0.009 A 
ATOM     71  C   UNL A   1      42.964  27.638  36.298  1.00  0.00     0.009 A 
ATOM     72  C   UNL A   1      41.619  25.313  35.540  1.00  0.00     0.001 A 
ATOM     73  C   UNL A   1      42.750  26.617  37.227  1.00  0.00     0.001 A 
ATOM     74  C   UNL A   1      42.066  25.462  36.851  1.00  0.00     0.000 A 
ENDBRANCH  55  69
BRANCH  56  75
ATOM     75  C   UNL A   1      42.982  35.209  28.644  1.00  0.00    -0.014 A 
ATOM     76  C   UNL A   1      42.712  35.002  27.280  1.00  0.00     0.009 A 
ATOM     77  C   UNL A   1      43.359  36.492  29.069  1.00  0.00     0.009 A 
ATOM     78  C   UNL A   1      42.851  36.043  26.361  1.00  0.00     0.001 A 
ATOM     79  C   UNL A   1      43.461  37.541  28.151  1.00  0.00     0.001 A 
ATOM     80  C   UNL A   1      43.221  37.313  26.797  1.00  0.00     0.000 A 
ENDBRANCH  56  75
BRANCH  68  81
ATOM     81  C   UNL A   1      47.479  30.168  30.495  1.00  0.00    -0.014 A 
ATOM     82  C   UNL A   1      47.710  29.302  29.412  1.00  0.00     0.009 A 
ATOM     83  C   UNL A   1      48.575  30.614  31.248  1.00  0.00     0.009 A 
ATOM     84  C   UNL A   1      49.003  28.872  29.109  1.00  0.00     0.001 A 
ATOM     85  C   UNL A   1      49.871  30.212  30.920  1.00  0.00     0.001 A 
ATOM     86  C   UNL A   1      50.084  29.332  29.860  1.00  0.00     0.000 A 
ENDBRANCH  68  81
ENDBRANCH  42  43
ENDBRANCH  35  37
ENDBRANCH  34  35
ENDBRANCH  33  34
ENDBRANCH  32  33
ENDBRANCH   1  32
TORSDOF 17
ENDMDL
