MODEL 1
REMARK VINA RESULT:     -11.5      0.000      0.000
REMARK SMILES CC(=O)n1cc2c3c(cccc31)C(=O)C[C@@H]2C(=O)OCCOCCOC(=O)c1ccc(-c2c3nc(c(-c4ccccc4)c4ccc([nH]4)c(-c4ccccc4)c4nc(c(-c5ccccc5)c5ccc2[nH]5)C=C4)C=C3)cc1
REMARK SMILES IDX 23 1 22 2 21 3 20 4 19 5 17 6 18 7 16 8 4 9 5 10 12 11 6 12
REMARK SMILES IDX 7 13 11 14 8 15 10 16 15 17 9 18 13 19 14 20 2 21 1 22 3 23
REMARK SMILES IDX 24 24 25 25 26 26 27 27 28 28 29 29 75 30 30 31 74 32 31 33
REMARK SMILES IDX 32 34 33 35 68 36 34 37 73 38 67 39 69 40 35 41 72 42 66 43
REMARK SMILES IDX 65 44 36 46 58 47 43 48 57 49 44 50 47 51 56 52 70 53 45 54
REMARK SMILES IDX 46 55 55 57 71 58 48 59 37 60 38 61 42 62 39 63 41 64 40 65
REMARK SMILES IDX 59 66 60 67 64 68 61 69 63 70 62 71 49 72 50 73 54 74 51 75
REMARK SMILES IDX 53 76 52 77
REMARK H PARENT 69 45 47 56
REMARK Flexibility Score: inf
ROOT
ATOM      1  C   UNL A   1      41.743  19.571  26.112  1.00  0.00     0.202 C 
ENDROOT
BRANCH   1   2
ATOM      2  O   UNL A   1      41.273  20.864  25.747  1.00  0.00    -0.374 OA
BRANCH   2   3
ATOM      3  C   UNL A   1      40.152  21.460  26.395  1.00  0.00     0.202 C 
BRANCH   3   4
ATOM      4  C   UNL A   1      38.797  21.440  25.693  1.00  0.00     0.261 C 
BRANCH   4   5
ATOM      5  O   UNL A   1      37.947  22.519  26.104  1.00  0.00    -0.463 OA
BRANCH   5   6
ATOM      6  C   UNL A   1      36.952  22.813  25.226  1.00  0.00     0.314 C 
ATOM      7  O   UNL A   1      37.040  22.703  24.006  1.00  0.00    -0.252 OA
BRANCH   6   8
ATOM      8  C   UNL A   1      35.710  23.365  25.900  1.00  0.00     0.139 C 
ATOM      9  N   UNL A   1      33.236  20.639  25.334  1.00  0.00    -0.287 N 
ATOM     10  C   UNL A   1      34.553  21.042  25.544  1.00  0.00     0.100 A 
ATOM     11  C   UNL A   1      32.434  21.787  25.379  1.00  0.00     0.057 A 
ATOM     12  C   UNL A   1      34.594  22.407  25.670  1.00  0.00    -0.006 A 
ATOM     13  C   UNL A   1      33.279  22.865  25.586  1.00  0.00     0.015 A 
ATOM     14  C   UNL A   1      31.049  22.000  25.299  1.00  0.00     0.027 A 
ATOM     15  C   UNL A   1      32.809  24.171  25.706  1.00  0.00     0.027 A 
ATOM     16  C   UNL A   1      30.572  23.318  25.471  1.00  0.00     0.003 A 
ATOM     17  C   UNL A   1      35.307  24.806  25.492  1.00  0.00     0.101 C 
ATOM     18  C   UNL A   1      31.438  24.399  25.677  1.00  0.00     0.012 A 
ATOM     19  C   UNL A   1      33.863  25.206  25.859  1.00  0.00     0.164 C 
ATOM     20  O   UNL A   1      33.564  26.353  26.177  1.00  0.00    -0.294 OA
BRANCH   9  21
ATOM     21  C   UNL A   1      32.807  19.314  25.144  1.00  0.00     0.227 C 
ATOM     22  C   UNL A   1      32.626  18.899  23.715  1.00  0.00     0.115 C 
ATOM     23  O   UNL A   1      32.650  18.570  26.114  1.00  0.00    -0.274 OA
ENDBRANCH   9  21
ENDBRANCH   6   8
ENDBRANCH   5   6
ENDBRANCH   4   5
ENDBRANCH   3   4
ENDBRANCH   2   3
ENDBRANCH   1   2
BRANCH   1  24
ATOM     24  C   UNL A   1      43.168  19.168  25.764  1.00  0.00     0.261 C 
BRANCH  24  25
ATOM     25  O   UNL A   1      43.563  19.647  24.486  1.00  0.00    -0.460 OA
BRANCH  25  26
ATOM     26  C   UNL A   1      44.895  19.808  24.380  1.00  0.00     0.338 C 
ATOM     27  O   UNL A   1      45.746  18.917  24.352  1.00  0.00    -0.246 OA
BRANCH  26  28
ATOM     28  C   UNL A   1      45.237  21.224  24.442  1.00  0.00     0.060 A 
ATOM     29  C   UNL A   1      46.085  21.574  25.494  1.00  0.00     0.016 A 
ATOM     30  C   UNL A   1      44.429  22.160  23.781  1.00  0.00     0.016 A 
ATOM     31  C   UNL A   1      45.886  22.792  26.087  1.00  0.00     0.010 A 
ATOM     32  C   UNL A   1      44.232  23.383  24.379  1.00  0.00     0.010 A 
ATOM     33  C   UNL A   1      44.881  23.628  25.583  1.00  0.00    -0.014 A 
BRANCH  33  34
ATOM     34  C   UNL A   1      44.568  24.791  26.373  1.00  0.00     0.031 A 
ATOM     35  C   UNL A   1      45.623  25.817  26.330  1.00  0.00     0.074 A 
ATOM     36  C   UNL A   1      43.449  24.912  27.104  1.00  0.00     0.049 A 
ATOM     37  N   UNL A   1      46.455  26.116  27.268  1.00  0.00    -0.248 NA
ATOM     38  C   UNL A   1      45.885  26.464  25.039  1.00  0.00     0.031 C 
ATOM     39  C   UNL A   1      42.215  24.126  27.070  1.00  0.00     0.029 A 
ATOM     40  N   UNL A   1      43.176  25.877  28.015  1.00  0.00    -0.354 N 
ATOM     41  C   UNL A   1      47.273  27.103  26.740  1.00  0.00     0.074 A 
ATOM     42  C   UNL A   1      46.969  27.182  25.330  1.00  0.00     0.031 C 
ATOM     43  C   UNL A   1      41.250  24.798  27.744  1.00  0.00     0.029 A 
ATOM     44  C   UNL A   1      41.843  25.968  28.373  1.00  0.00     0.049 A 
ATOM     45  H   UNL A   1      43.871  26.466  28.391  1.00  0.00     0.167 HD
ATOM     46  C   UNL A   1      48.004  27.927  27.533  1.00  0.00     0.031 A 
ATOM     47  C   UNL A   1      41.293  27.001  29.060  1.00  0.00     0.031 A 
ATOM     48  C   UNL A   1      48.124  27.430  28.875  1.00  0.00     0.049 A 
ATOM     49  C   UNL A   1      42.398  27.677  29.790  1.00  0.00     0.074 A 
ATOM     50  C   UNL A   1      48.699  26.312  29.447  1.00  0.00     0.029 A 
ATOM     51  N   UNL A   1      47.258  27.933  29.817  1.00  0.00    -0.354 N 
ATOM     52  N   UNL A   1      43.056  27.125  30.770  1.00  0.00    -0.248 NA
ATOM     53  C   UNL A   1      43.071  28.793  29.139  1.00  0.00     0.031 C 
ATOM     54  C   UNL A   1      47.807  25.933  30.491  1.00  0.00     0.029 A 
ATOM     55  C   UNL A   1      46.768  26.865  30.523  1.00  0.00     0.049 A 
ATOM     56  H   UNL A   1      47.032  28.882  29.958  1.00  0.00     0.167 HD
ATOM     57  C   UNL A   1      44.370  27.535  30.594  1.00  0.00     0.074 A 
ATOM     58  C   UNL A   1      44.303  28.629  29.628  1.00  0.00     0.031 C 
ATOM     59  C   UNL A   1      45.416  26.774  31.030  1.00  0.00     0.031 A 
BRANCH  46  60
ATOM     60  C   UNL A   1      48.288  29.352  27.170  1.00  0.00    -0.014 A 
ATOM     61  C   UNL A   1      49.614  29.810  27.186  1.00  0.00     0.009 A 
ATOM     62  C   UNL A   1      47.273  30.324  27.074  1.00  0.00     0.009 A 
ATOM     63  C   UNL A   1      49.904  31.178  27.150  1.00  0.00     0.001 A 
ATOM     64  C   UNL A   1      47.559  31.685  26.996  1.00  0.00     0.001 A 
ATOM     65  C   UNL A   1      48.876  32.114  27.057  1.00  0.00     0.000 A 
ENDBRANCH  46  60
BRANCH  47  66
ATOM     66  C   UNL A   1      39.996  27.668  28.800  1.00  0.00    -0.014 A 
ATOM     67  C   UNL A   1      39.036  27.762  29.823  1.00  0.00     0.009 A 
ATOM     68  C   UNL A   1      39.809  28.469  27.659  1.00  0.00     0.009 A 
ATOM     69  C   UNL A   1      37.971  28.669  29.734  1.00  0.00     0.001 A 
ATOM     70  C   UNL A   1      38.741  29.368  27.566  1.00  0.00     0.001 A 
ATOM     71  C   UNL A   1      37.835  29.483  28.613  1.00  0.00     0.000 A 
ENDBRANCH  47  66
BRANCH  59  72
ATOM     72  C   UNL A   1      45.114  25.563  31.876  1.00  0.00    -0.014 A 
ATOM     73  C   UNL A   1      45.104  25.608  33.282  1.00  0.00     0.009 A 
ATOM     74  C   UNL A   1      44.620  24.415  31.240  1.00  0.00     0.009 A 
ATOM     75  C   UNL A   1      44.609  24.531  34.027  1.00  0.00     0.001 A 
ATOM     76  C   UNL A   1      44.112  23.348  31.983  1.00  0.00     0.001 A 
ATOM     77  C   UNL A   1      44.104  23.407  33.375  1.00  0.00     0.000 A 
ENDBRANCH  59  72
ENDBRANCH  33  34
ENDBRANCH  26  28
ENDBRANCH  25  26
ENDBRANCH  24  25
ENDBRANCH   1  24
TORSDOF 15
ENDMDL
MODEL 2
REMARK VINA RESULT:     -11.2      0.860      2.237
REMARK SMILES CC(=O)n1cc2c3c(cccc31)C(=O)C[C@@H]2C(=O)OCCOCCOC(=O)c1ccc(-c2c3nc(c(-c4ccccc4)c4ccc([nH]4)c(-c4ccccc4)c4nc(c(-c5ccccc5)c5ccc2[nH]5)C=C4)C=C3)cc1
REMARK SMILES IDX 23 1 22 2 21 3 20 4 19 5 17 6 18 7 16 8 4 9 5 10 12 11 6 12
REMARK SMILES IDX 7 13 11 14 8 15 10 16 15 17 9 18 13 19 14 20 2 21 1 22 3 23
REMARK SMILES IDX 24 24 25 25 26 26 27 27 28 28 29 29 75 30 30 31 74 32 31 33
REMARK SMILES IDX 32 34 33 35 68 36 34 37 73 38 67 39 69 40 35 41 72 42 66 43
REMARK SMILES IDX 65 44 36 46 58 47 43 48 57 49 44 50 47 51 56 52 70 53 45 54
REMARK SMILES IDX 46 55 55 57 71 58 48 59 37 60 38 61 42 62 39 63 41 64 40 65
REMARK SMILES IDX 59 66 60 67 64 68 61 69 63 70 62 71 49 72 50 73 54 74 51 75
REMARK SMILES IDX 53 76 52 77
REMARK H PARENT 69 45 47 56
REMARK Flexibility Score: inf
ROOT
ATOM      1  C   UNL A   1      41.396  19.738  26.223  1.00  0.00     0.202 C 
ENDROOT
BRANCH   1   2
ATOM      2  O   UNL A   1      40.914  21.029  25.865  1.00  0.00    -0.374 OA
BRANCH   2   3
ATOM      3  C   UNL A   1      39.618  21.476  26.256  1.00  0.00     0.202 C 
BRANCH   3   4
ATOM      4  C   UNL A   1      38.423  21.144  25.367  1.00  0.00     0.261 C 
BRANCH   4   5
ATOM      5  O   UNL A   1      37.269  21.935  25.678  1.00  0.00    -0.463 OA
BRANCH   5   6
ATOM      6  C   UNL A   1      36.695  22.535  24.601  1.00  0.00     0.314 C 
ATOM      7  O   UNL A   1      37.261  23.337  23.863  1.00  0.00    -0.252 OA
BRANCH   6   8
ATOM      8  C   UNL A   1      35.234  22.164  24.424  1.00  0.00     0.139 C 
ATOM      9  N   UNL A   1      33.524  25.420  25.014  1.00  0.00    -0.287 N 
ATOM     10  C   UNL A   1      34.631  24.710  24.554  1.00  0.00     0.100 A 
ATOM     11  C   UNL A   1      32.573  24.483  25.441  1.00  0.00     0.057 A 
ATOM     12  C   UNL A   1      34.411  23.367  24.726  1.00  0.00    -0.006 A 
ATOM     13  C   UNL A   1      33.130  23.228  25.258  1.00  0.00     0.015 A 
ATOM     14  C   UNL A   1      31.263  24.594  25.934  1.00  0.00     0.027 A 
ATOM     15  C   UNL A   1      32.442  22.055  25.561  1.00  0.00     0.027 A 
ATOM     16  C   UNL A   1      30.552  23.402  26.192  1.00  0.00     0.003 A 
ATOM     17  C   UNL A   1      34.749  20.933  25.233  1.00  0.00     0.101 C 
ATOM     18  C   UNL A   1      31.127  22.140  26.006  1.00  0.00     0.012 A 
ATOM     19  C   UNL A   1      33.218  20.804  25.364  1.00  0.00     0.164 C 
ATOM     20  O   UNL A   1      32.655  19.713  25.400  1.00  0.00    -0.294 OA
BRANCH   9  21
ATOM     21  C   UNL A   1      33.392  26.819  25.014  1.00  0.00     0.227 C 
ATOM     22  C   UNL A   1      33.920  27.511  26.235  1.00  0.00     0.115 C 
ATOM     23  O   UNL A   1      32.914  27.395  24.035  1.00  0.00    -0.274 OA
ENDBRANCH   9  21
ENDBRANCH   6   8
ENDBRANCH   5   6
ENDBRANCH   4   5
ENDBRANCH   3   4
ENDBRANCH   2   3
ENDBRANCH   1   2
BRANCH   1  24
ATOM     24  C   UNL A   1      42.858  19.392  25.979  1.00  0.00     0.261 C 
BRANCH  24  25
ATOM     25  O   UNL A   1      43.256  19.666  24.643  1.00  0.00    -0.460 OA
BRANCH  25  26
ATOM     26  C   UNL A   1      44.592  19.760  24.508  1.00  0.00     0.338 C 
ATOM     27  O   UNL A   1      45.394  18.826  24.445  1.00  0.00    -0.246 OA
BRANCH  26  28
ATOM     28  C   UNL A   1      45.010  21.155  24.586  1.00  0.00     0.060 A 
ATOM     29  C   UNL A   1      45.820  21.461  25.680  1.00  0.00     0.016 A 
ATOM     30  C   UNL A   1      44.289  22.132  23.883  1.00  0.00     0.016 A 
ATOM     31  C   UNL A   1      45.660  22.690  26.261  1.00  0.00     0.010 A 
ATOM     32  C   UNL A   1      44.131  23.367  24.469  1.00  0.00     0.010 A 
ATOM     33  C   UNL A   1      44.730  23.579  25.704  1.00  0.00    -0.014 A 
BRANCH  33  34
ATOM     34  C   UNL A   1      44.443  24.761  26.476  1.00  0.00     0.031 A 
ATOM     35  C   UNL A   1      45.520  25.763  26.418  1.00  0.00     0.074 A 
ATOM     36  C   UNL A   1      43.327  24.918  27.205  1.00  0.00     0.049 A 
ATOM     37  N   UNL A   1      46.359  26.058  27.351  1.00  0.00    -0.248 NA
ATOM     38  C   UNL A   1      45.797  26.384  25.116  1.00  0.00     0.031 C 
ATOM     39  C   UNL A   1      42.076  24.159  27.183  1.00  0.00     0.029 A 
ATOM     40  N   UNL A   1      43.076  25.903  28.101  1.00  0.00    -0.354 N 
ATOM     41  C   UNL A   1      47.198  27.019  26.808  1.00  0.00     0.074 A 
ATOM     42  C   UNL A   1      46.895  27.082  25.397  1.00  0.00     0.031 C 
ATOM     43  C   UNL A   1      41.126  24.863  27.846  1.00  0.00     0.029 A 
ATOM     44  C   UNL A   1      41.745  26.029  28.457  1.00  0.00     0.049 A 
ATOM     45  H   UNL A   1      43.783  26.482  28.468  1.00  0.00     0.167 HD
ATOM     46  C   UNL A   1      47.947  27.838  27.588  1.00  0.00     0.031 A 
ATOM     47  C   UNL A   1      41.218  27.084  29.127  1.00  0.00     0.031 A 
ATOM     48  C   UNL A   1      48.056  27.360  28.939  1.00  0.00     0.049 A 
ATOM     49  C   UNL A   1      42.337  27.747  29.847  1.00  0.00     0.074 A 
ATOM     50  C   UNL A   1      48.606  26.239  29.528  1.00  0.00     0.029 A 
ATOM     51  N   UNL A   1      47.201  27.897  29.872  1.00  0.00    -0.354 N 
ATOM     52  N   UNL A   1      42.982  27.196  30.836  1.00  0.00    -0.248 NA
ATOM     53  C   UNL A   1      43.034  28.838  29.179  1.00  0.00     0.031 C 
ATOM     54  C   UNL A   1      47.706  25.896  30.577  1.00  0.00     0.029 A 
ATOM     55  C   UNL A   1      46.688  26.851  30.594  1.00  0.00     0.049 A 
ATOM     56  H   UNL A   1      46.996  28.852  29.998  1.00  0.00     0.167 HD
ATOM     57  C   UNL A   1      44.305  27.574  30.654  1.00  0.00     0.074 A 
ATOM     58  C   UNL A   1      44.263  28.654  29.671  1.00  0.00     0.031 C 
ATOM     59  C   UNL A   1      45.334  26.797  31.102  1.00  0.00     0.031 A 
BRANCH  46  60
ATOM     60  C   UNL A   1      48.262  29.251  27.203  1.00  0.00    -0.014 A 
ATOM     61  C   UNL A   1      49.604  29.655  27.127  1.00  0.00     0.009 A 
ATOM     62  C   UNL A   1      47.283  30.263  27.175  1.00  0.00     0.009 A 
ATOM     63  C   UNL A   1      49.945  31.011  27.068  1.00  0.00     0.001 A 
ATOM     64  C   UNL A   1      47.618  31.612  27.075  1.00  0.00     0.001 A 
ATOM     65  C   UNL A   1      48.952  31.987  27.044  1.00  0.00     0.000 A 
ENDBRANCH  46  60
BRANCH  47  66
ATOM     66  C   UNL A   1      39.935  27.776  28.857  1.00  0.00    -0.014 A 
ATOM     67  C   UNL A   1      38.990  27.933  29.886  1.00  0.00     0.009 A 
ATOM     68  C   UNL A   1      39.756  28.538  27.688  1.00  0.00     0.009 A 
ATOM     69  C   UNL A   1      37.949  28.864  29.774  1.00  0.00     0.001 A 
ATOM     70  C   UNL A   1      38.711  29.461  27.573  1.00  0.00     0.001 A 
ATOM     71  C   UNL A   1      37.820  29.639  28.625  1.00  0.00     0.000 A 
ENDBRANCH  47  66
BRANCH  59  72
ATOM     72  C   UNL A   1      45.006  25.606  31.967  1.00  0.00    -0.014 A 
ATOM     73  C   UNL A   1      44.877  25.701  33.364  1.00  0.00     0.009 A 
ATOM     74  C   UNL A   1      44.607  24.419  31.337  1.00  0.00     0.009 A 
ATOM     75  C   UNL A   1      44.361  24.634  34.107  1.00  0.00     0.001 A 
ATOM     76  C   UNL A   1      44.077  23.360  32.077  1.00  0.00     0.001 A 
ATOM     77  C   UNL A   1      43.951  23.469  33.461  1.00  0.00     0.000 A 
ENDBRANCH  59  72
ENDBRANCH  33  34
ENDBRANCH  26  28
ENDBRANCH  25  26
ENDBRANCH  24  25
ENDBRANCH   1  24
TORSDOF 15
ENDMDL
MODEL 3
REMARK VINA RESULT:     -11.1      1.390      2.180
REMARK SMILES CC(=O)n1cc2c3c(cccc31)C(=O)C[C@@H]2C(=O)OCCOCCOC(=O)c1ccc(-c2c3nc(c(-c4ccccc4)c4ccc([nH]4)c(-c4ccccc4)c4nc(c(-c5ccccc5)c5ccc2[nH]5)C=C4)C=C3)cc1
REMARK SMILES IDX 23 1 22 2 21 3 20 4 19 5 17 6 18 7 16 8 4 9 5 10 12 11 6 12
REMARK SMILES IDX 7 13 11 14 8 15 10 16 15 17 9 18 13 19 14 20 2 21 1 22 3 23
REMARK SMILES IDX 24 24 25 25 26 26 27 27 28 28 29 29 75 30 30 31 74 32 31 33
REMARK SMILES IDX 32 34 33 35 68 36 34 37 73 38 67 39 69 40 35 41 72 42 66 43
REMARK SMILES IDX 65 44 36 46 58 47 43 48 57 49 44 50 47 51 56 52 70 53 45 54
REMARK SMILES IDX 46 55 55 57 71 58 48 59 37 60 38 61 42 62 39 63 41 64 40 65
REMARK SMILES IDX 59 66 60 67 64 68 61 69 63 70 62 71 49 72 50 73 54 74 51 75
REMARK SMILES IDX 53 76 52 77
REMARK H PARENT 69 45 47 56
REMARK Flexibility Score: inf
ROOT
ATOM      1  C   UNL A   1      41.267  19.685  26.196  1.00  0.00     0.202 C 
ENDROOT
BRANCH   1   2
ATOM      2  O   UNL A   1      40.833  20.961  25.740  1.00  0.00    -0.374 OA
BRANCH   2   3
ATOM      3  C   UNL A   1      39.634  21.559  26.227  1.00  0.00     0.202 C 
BRANCH   3   4
ATOM      4  C   UNL A   1      38.353  21.418  25.409  1.00  0.00     0.261 C 
BRANCH   4   5
ATOM      5  O   UNL A   1      37.560  22.612  25.416  1.00  0.00    -0.463 OA
BRANCH   5   6
ATOM      6  C   UNL A   1      36.625  22.669  24.431  1.00  0.00     0.314 C 
ATOM      7  O   UNL A   1      36.874  22.824  23.239  1.00  0.00    -0.252 OA
BRANCH   6   8
ATOM      8  C   UNL A   1      35.204  22.585  24.956  1.00  0.00     0.139 C 
ATOM      9  N   UNL A   1      33.495  25.269  23.019  1.00  0.00    -0.287 N 
ATOM     10  C   UNL A   1      34.478  24.285  23.100  1.00  0.00     0.100 A 
ATOM     11  C   UNL A   1      32.772  25.238  24.219  1.00  0.00     0.057 A 
ATOM     12  C   UNL A   1      34.413  23.679  24.329  1.00  0.00    -0.006 A 
ATOM     13  C   UNL A   1      33.345  24.258  25.014  1.00  0.00     0.015 A 
ATOM     14  C   UNL A   1      31.648  25.937  24.687  1.00  0.00     0.027 A 
ATOM     15  C   UNL A   1      32.857  23.942  26.280  1.00  0.00     0.027 A 
ATOM     16  C   UNL A   1      31.126  25.579  25.949  1.00  0.00     0.003 A 
ATOM     17  C   UNL A   1      35.055  22.599  26.500  1.00  0.00     0.101 C 
ATOM     18  C   UNL A   1      31.716  24.589  26.742  1.00  0.00     0.012 A 
ATOM     19  C   UNL A   1      33.635  22.912  27.013  1.00  0.00     0.164 C 
ATOM     20  O   UNL A   1      33.186  22.410  28.040  1.00  0.00    -0.294 OA
BRANCH   9  21
ATOM     21  C   UNL A   1      33.267  26.109  21.916  1.00  0.00     0.227 C 
ATOM     22  C   UNL A   1      32.204  25.643  20.967  1.00  0.00     0.115 C 
ATOM     23  O   UNL A   1      33.890  27.167  21.806  1.00  0.00    -0.274 OA
ENDBRANCH   9  21
ENDBRANCH   6   8
ENDBRANCH   5   6
ENDBRANCH   4   5
ENDBRANCH   3   4
ENDBRANCH   2   3
ENDBRANCH   1   2
BRANCH   1  24
ATOM     24  C   UNL A   1      42.727  19.290  26.034  1.00  0.00     0.261 C 
BRANCH  24  25
ATOM     25  O   UNL A   1      43.229  19.612  24.744  1.00  0.00    -0.460 OA
BRANCH  25  26
ATOM     26  C   UNL A   1      44.563  19.783  24.732  1.00  0.00     0.338 C 
ATOM     27  O   UNL A   1      45.421  18.904  24.838  1.00  0.00    -0.246 OA
BRANCH  26  28
ATOM     28  C   UNL A   1      44.888  21.205  24.718  1.00  0.00     0.060 A 
ATOM     29  C   UNL A   1      45.780  21.610  25.712  1.00  0.00     0.016 A 
ATOM     30  C   UNL A   1      44.035  22.102  24.059  1.00  0.00     0.016 A 
ATOM     31  C   UNL A   1      45.592  22.849  26.263  1.00  0.00     0.010 A 
ATOM     32  C   UNL A   1      43.849  23.347  24.613  1.00  0.00     0.010 A 
ATOM     33  C   UNL A   1      44.552  23.651  25.773  1.00  0.00    -0.014 A 
BRANCH  33  34
ATOM     34  C   UNL A   1      44.261  24.842  26.527  1.00  0.00     0.031 A 
ATOM     35  C   UNL A   1      45.336  25.847  26.456  1.00  0.00     0.074 A 
ATOM     36  C   UNL A   1      43.144  25.007  27.253  1.00  0.00     0.049 A 
ATOM     37  N   UNL A   1      46.172  26.157  27.387  1.00  0.00    -0.248 NA
ATOM     38  C   UNL A   1      45.612  26.450  25.147  1.00  0.00     0.031 C 
ATOM     39  C   UNL A   1      41.895  24.244  27.240  1.00  0.00     0.029 A 
ATOM     40  N   UNL A   1      42.889  26.004  28.134  1.00  0.00    -0.354 N 
ATOM     41  C   UNL A   1      47.009  27.112  26.830  1.00  0.00     0.074 A 
ATOM     42  C   UNL A   1      46.709  27.154  25.419  1.00  0.00     0.031 C 
ATOM     43  C   UNL A   1      40.942  24.955  27.892  1.00  0.00     0.029 A 
ATOM     44  C   UNL A   1      41.557  26.132  28.487  1.00  0.00     0.049 A 
ATOM     45  H   UNL A   1      43.594  26.590  28.494  1.00  0.00     0.167 HD
ATOM     46  C   UNL A   1      47.756  27.944  27.600  1.00  0.00     0.031 A 
ATOM     47  C   UNL A   1      41.026  27.194  29.142  1.00  0.00     0.031 A 
ATOM     48  C   UNL A   1      47.865  27.486  28.957  1.00  0.00     0.049 A 
ATOM     49  C   UNL A   1      42.143  27.871  29.853  1.00  0.00     0.074 A 
ATOM     50  C   UNL A   1      48.417  26.374  29.563  1.00  0.00     0.029 A 
ATOM     51  N   UNL A   1      47.007  28.033  29.882  1.00  0.00    -0.354 N 
ATOM     52  N   UNL A   1      42.789  27.335  30.851  1.00  0.00    -0.248 NA
ATOM     53  C   UNL A   1      42.839  28.953  29.171  1.00  0.00     0.031 C 
ATOM     54  C   UNL A   1      47.516  26.044  30.616  1.00  0.00     0.029 A 
ATOM     55  C   UNL A   1      46.496  26.996  30.618  1.00  0.00     0.049 A 
ATOM     56  H   UNL A   1      46.800  28.990  29.995  1.00  0.00     0.167 HD
ATOM     57  C   UNL A   1      44.111  27.714  30.665  1.00  0.00     0.074 A 
ATOM     58  C   UNL A   1      44.067  28.780  29.667  1.00  0.00     0.031 C 
ATOM     59  C   UNL A   1      45.142  26.946  31.125  1.00  0.00     0.031 A 
BRANCH  46  60
ATOM     60  C   UNL A   1      48.068  29.352  27.196  1.00  0.00    -0.014 A 
ATOM     61  C   UNL A   1      49.390  29.812  27.286  1.00  0.00     0.009 A 
ATOM     62  C   UNL A   1      47.065  30.318  26.985  1.00  0.00     0.009 A 
ATOM     63  C   UNL A   1      49.685  31.177  27.210  1.00  0.00     0.001 A 
ATOM     64  C   UNL A   1      47.359  31.675  26.867  1.00  0.00     0.001 A 
ATOM     65  C   UNL A   1      48.669  32.107  27.003  1.00  0.00     0.000 A 
ENDBRANCH  46  60
BRANCH  47  66
ATOM     66  C   UNL A   1      39.743  27.879  28.860  1.00  0.00    -0.014 A 
ATOM     67  C   UNL A   1      38.790  28.036  29.882  1.00  0.00     0.009 A 
ATOM     68  C   UNL A   1      39.568  28.636  27.687  1.00  0.00     0.009 A 
ATOM     69  C   UNL A   1      37.745  28.962  29.759  1.00  0.00     0.001 A 
ATOM     70  C   UNL A   1      38.519  29.553  27.561  1.00  0.00     0.001 A 
ATOM     71  C   UNL A   1      37.620  29.731  28.607  1.00  0.00     0.000 A 
ENDBRANCH  47  66
BRANCH  59  72
ATOM     72  C   UNL A   1      44.815  25.767  32.007  1.00  0.00    -0.014 A 
ATOM     73  C   UNL A   1      44.494  24.501  31.485  1.00  0.00     0.009 A 
ATOM     74  C   UNL A   1      45.049  25.884  33.384  1.00  0.00     0.009 A 
ATOM     75  C   UNL A   1      44.412  23.383  32.323  1.00  0.00     0.001 A 
ATOM     76  C   UNL A   1      44.982  24.765  34.218  1.00  0.00     0.001 A 
ATOM     77  C   UNL A   1      44.667  23.516  33.687  1.00  0.00     0.000 A 
ENDBRANCH  59  72
ENDBRANCH  33  34
ENDBRANCH  26  28
ENDBRANCH  25  26
ENDBRANCH  24  25
ENDBRANCH   1  24
TORSDOF 15
ENDMDL
