MODEL 1
REMARK VINA RESULT:     -10.2      0.000      0.000
REMARK SMILES O=C(N[C@@H](Cc1c[nH]c2ccccc12)C(=O)N[C@@H](CS)C(=O)N[C@@H](CO)C(=O)OCCOCCOC(=O)c1ccc(-c2c3nc(c(-c4ccccc4)c4ccc([nH]4)c(-c4ccccc4)c4nc(c(-c5ccccc5)c5ccc2[nH]5)C=C4)C=C3)cc1)c1ccc(F)cc1
REMARK SMILES IDX 30 1 29 2 27 3 28 4 24 5 23 6 21 7 22 8 18 10 17 11 15 12
REMARK SMILES IDX 16 13 4 15 3 16 1 17 2 18 86 20 87 21 92 22 88 23 91 24
REMARK SMILES IDX 89 25 90 26 5 27 6 28 7 29 14 30 8 31 9 32 13 33 10 35 12 36
REMARK SMILES IDX 11 37 19 38 20 39 25 41 26 42 31 44 32 45 33 46 34 47 35 48
REMARK SMILES IDX 36 49 37 50 38 51 39 52 85 53 40 54 84 55 41 56 42 57 43 58
REMARK SMILES IDX 78 59 44 60 83 61 77 62 79 63 45 64 82 65 76 66 75 67 46 69
REMARK SMILES IDX 68 70 53 71 67 72 54 73 57 74 66 75 80 76 55 77 56 78 65 80
REMARK SMILES IDX 81 81 58 82 47 83 48 84 52 85 49 86 51 87 50 88 69 89 70 90
REMARK SMILES IDX 74 91 71 92 73 93 72 94 59 95 60 96 64 97 61 98 63 99 62 100
REMARK H PARENT 23 9 17 14 3 19 8 34 20 40 26 43 79 68 57 79
REMARK Flexibility Score: inf
ROOT
ATOM      1  C   UNL A   1      41.328  20.992  27.146  1.00  0.00     0.261 C 
ENDROOT
BRANCH   1   2
ATOM      2  O   UNL A   1      40.621  21.850  26.240  1.00  0.00    -0.462 OA
BRANCH   2   3
ATOM      3  C   UNL A   1      39.419  21.375  25.814  1.00  0.00     0.331 C 
ATOM      4  O   UNL A   1      39.113  20.190  25.769  1.00  0.00    -0.250 OA
BRANCH   3   5
ATOM      5  C   UNL A   1      38.508  22.513  25.344  1.00  0.00     0.218 C 
BRANCH   5   6
ATOM      6  N   UNL A   1      37.446  22.062  24.407  1.00  0.00    -0.339 N 
ATOM      7  C   UNL A   1      36.194  21.836  24.898  1.00  0.00     0.244 C 
ATOM      8  O   UNL A   1      36.054  20.843  25.616  1.00  0.00    -0.273 OA
ATOM      9  H   UNL A   1      37.642  21.930  23.451  1.00  0.00     0.164 HD
BRANCH   7  10
ATOM     10  C   UNL A   1      35.016  22.815  24.562  1.00  0.00     0.181 C 
BRANCH  10  11
ATOM     11  N   UNL A   1      34.410  23.179  25.854  1.00  0.00    -0.342 N 
ATOM     12  C   UNL A   1      33.387  22.556  26.519  1.00  0.00     0.243 C 
ATOM     13  O   UNL A   1      33.547  22.393  27.735  1.00  0.00    -0.273 OA
ATOM     14  H   UNL A   1      34.790  23.972  26.296  1.00  0.00     0.164 HD
BRANCH  12  15
ATOM     15  C   UNL A   1      32.054  22.116  25.852  1.00  0.00     0.176 C 
BRANCH  15  16
ATOM     16  N   UNL A   1      30.887  22.408  26.691  1.00  0.00    -0.340 N 
ATOM     17  O   UNL A   1      29.225  23.681  27.542  1.00  0.00    -0.269 OA
ATOM     18  C   UNL A   1      30.203  23.600  26.805  1.00  0.00     0.251 C 
ATOM     19  H   UNL A   1      30.552  21.663  27.240  1.00  0.00     0.164 HD
BRANCH  18  20
ATOM     20  C   UNL A   1      30.687  24.819  26.107  1.00  0.00     0.040 A 
ATOM     21  C   UNL A   1      31.786  25.555  26.572  1.00  0.00     0.017 A 
ATOM     22  C   UNL A   1      30.000  25.238  24.958  1.00  0.00     0.017 A 
ATOM     23  C   UNL A   1      32.142  26.748  25.935  1.00  0.00     0.040 A 
ATOM     24  C   UNL A   1      30.368  26.424  24.319  1.00  0.00     0.040 A 
ATOM     25  C   UNL A   1      31.425  27.175  24.822  1.00  0.00     0.123 A 
ATOM     26  F   UNL A   1      31.756  28.329  24.227  1.00  0.00    -0.207 F 
ENDBRANCH  18  20
ENDBRANCH  15  16
BRANCH  15  27
ATOM     27  C   UNL A   1      31.849  22.321  24.333  1.00  0.00     0.072 C 
BRANCH  27  28
ATOM     28  C   UNL A   1      32.015  21.139  23.434  1.00  0.00    -0.020 A 
ATOM     29  C   UNL A   1      31.912  21.173  22.062  1.00  0.00     0.087 A 
ATOM     30  C   UNL A   1      32.541  19.834  23.726  1.00  0.00     0.003 A 
ATOM     31  N   UNL A   1      31.934  19.895  21.588  1.00  0.00    -0.361 N 
ATOM     32  C   UNL A   1      32.384  19.056  22.575  1.00  0.00     0.046 A 
ATOM     33  C   UNL A   1      33.178  19.241  24.836  1.00  0.00     0.010 A 
ATOM     34  H   UNL A   1      31.668  19.618  20.681  1.00  0.00     0.166 HD
ATOM     35  C   UNL A   1      32.718  17.700  22.507  1.00  0.00     0.026 A 
ATOM     36  C   UNL A   1      33.625  17.913  24.746  1.00  0.00     0.001 A 
ATOM     37  C   UNL A   1      33.368  17.148  23.611  1.00  0.00     0.002 A 
ENDBRANCH  27  28
ENDBRANCH  15  27
ENDBRANCH  12  15
ENDBRANCH  10  11
BRANCH  10  38
ATOM     38  C   UNL A   1      35.313  24.002  23.638  1.00  0.00     0.101 C 
BRANCH  38  39
ATOM     39  S   UNL A   1      33.907  25.029  23.118  1.00  0.00    -0.177 SA
ATOM     40  H   UNL A   1      33.795  24.993  21.763  1.00  0.00     0.102 HD
ENDBRANCH  38  39
ENDBRANCH  10  38
ENDBRANCH   7  10
ENDBRANCH   5   6
BRANCH   5  41
ATOM     41  C   UNL A   1      37.941  23.204  26.594  1.00  0.00     0.193 C 
BRANCH  41  42
ATOM     42  O   UNL A   1      38.998  23.698  27.420  1.00  0.00    -0.394 OA
ATOM     43  H   UNL A   1      39.749  23.954  26.864  1.00  0.00     0.210 HD
ENDBRANCH  41  42
ENDBRANCH   5  41
ENDBRANCH   3   5
ENDBRANCH   2   3
ENDBRANCH   1   2
BRANCH   1  44
ATOM     44  C   UNL A   1      42.595  20.473  26.464  1.00  0.00     0.202 C 
BRANCH  44  45
ATOM     45  O   UNL A   1      43.020  21.186  25.300  1.00  0.00    -0.374 OA
BRANCH  45  46
ATOM     46  C   UNL A   1      44.420  21.240  25.036  1.00  0.00     0.202 C 
BRANCH  46  47
ATOM     47  C   UNL A   1      44.993  22.603  24.620  1.00  0.00     0.261 C 
BRANCH  47  48
ATOM     48  O   UNL A   1      44.899  23.597  25.655  1.00  0.00    -0.460 OA
BRANCH  48  49
ATOM     49  C   UNL A   1      43.825  24.418  25.540  1.00  0.00     0.338 C 
ATOM     50  O   UNL A   1      43.020  24.465  24.621  1.00  0.00    -0.246 OA
BRANCH  49  51
ATOM     51  C   UNL A   1      43.632  25.186  26.781  1.00  0.00     0.060 A 
ATOM     52  C   UNL A   1      42.790  24.638  27.756  1.00  0.00     0.016 A 
ATOM     53  C   UNL A   1      44.180  26.459  26.946  1.00  0.00     0.016 A 
ATOM     54  C   UNL A   1      42.464  25.376  28.891  1.00  0.00     0.010 A 
ATOM     55  C   UNL A   1      43.840  27.206  28.081  1.00  0.00     0.010 A 
ATOM     56  C   UNL A   1      42.957  26.678  29.041  1.00  0.00    -0.014 A 
BRANCH  56  57
ATOM     57  C   UNL A   1      42.420  27.531  30.127  1.00  0.00     0.031 A 
ATOM     58  C   UNL A   1      41.127  28.268  29.906  1.00  0.00     0.074 A 
ATOM     59  C   UNL A   1      43.047  27.608  31.314  1.00  0.00     0.049 A 
ATOM     60  N   UNL A   1      40.469  29.051  30.722  1.00  0.00    -0.248 NA
ATOM     61  C   UNL A   1      40.489  28.093  28.591  1.00  0.00     0.031 C 
ATOM     62  C   UNL A   1      44.278  26.903  31.668  1.00  0.00     0.029 A 
ATOM     63  N   UNL A   1      42.724  28.314  32.445  1.00  0.00    -0.354 N 
ATOM     64  C   UNL A   1      39.342  29.463  30.021  1.00  0.00     0.074 A 
ATOM     65  C   UNL A   1      39.422  28.870  28.703  1.00  0.00     0.031 C 
ATOM     66  C   UNL A   1      44.606  27.211  32.935  1.00  0.00     0.029 A 
ATOM     67  C   UNL A   1      43.627  28.155  33.468  1.00  0.00     0.049 A 
ATOM     68  H   UNL A   1      41.922  28.880  32.518  1.00  0.00     0.167 HD
ATOM     69  C   UNL A   1      38.328  30.258  30.436  1.00  0.00     0.031 A 
ATOM     70  C   UNL A   1      43.663  28.719  34.691  1.00  0.00     0.031 A 
ATOM     71  C   UNL A   1      38.257  30.865  31.739  1.00  0.00     0.049 A 
ATOM     72  C   UNL A   1      42.569  29.668  35.099  1.00  0.00     0.074 A 
ATOM     73  C   UNL A   1      37.270  31.685  32.257  1.00  0.00     0.029 A 
ATOM     74  N   UNL A   1      39.219  30.723  32.727  1.00  0.00    -0.354 N 
ATOM     75  N   UNL A   1      41.500  30.033  34.434  1.00  0.00    -0.248 NA
ATOM     76  C   UNL A   1      42.684  30.275  36.433  1.00  0.00     0.031 C 
ATOM     77  C   UNL A   1      37.661  32.081  33.541  1.00  0.00     0.029 A 
ATOM     78  C   UNL A   1      38.863  31.461  33.842  1.00  0.00     0.049 A 
ATOM     79  H   UNL A   1      40.035  30.178  32.647  1.00  0.00     0.167 HD
ATOM     80  C   UNL A   1      40.801  30.888  35.278  1.00  0.00     0.074 A 
ATOM     81  C   UNL A   1      41.561  30.976  36.508  1.00  0.00     0.031 C 
ATOM     82  C   UNL A   1      39.633  31.539  35.057  1.00  0.00     0.031 A 
BRANCH  69  83
ATOM     83  C   UNL A   1      37.229  30.545  29.452  1.00  0.00    -0.014 A 
ATOM     84  C   UNL A   1      36.287  29.564  29.104  1.00  0.00     0.009 A 
ATOM     85  C   UNL A   1      37.125  31.821  28.876  1.00  0.00     0.009 A 
ATOM     86  C   UNL A   1      35.283  29.845  28.175  1.00  0.00     0.001 A 
ATOM     87  C   UNL A   1      36.105  32.107  27.968  1.00  0.00     0.001 A 
ATOM     88  C   UNL A   1      35.191  31.118  27.610  1.00  0.00     0.000 A 
ENDBRANCH  69  83
BRANCH  70  89
ATOM     89  C   UNL A   1      44.784  28.414  35.619  1.00  0.00    -0.014 A 
ATOM     90  C   UNL A   1      46.046  28.999  35.435  1.00  0.00     0.009 A 
ATOM     91  C   UNL A   1      44.600  27.519  36.685  1.00  0.00     0.009 A 
ATOM     92  C   UNL A   1      47.106  28.674  36.287  1.00  0.00     0.001 A 
ATOM     93  C   UNL A   1      45.653  27.219  37.550  1.00  0.00     0.001 A 
ATOM     94  C   UNL A   1      46.907  27.790  37.345  1.00  0.00     0.000 A 
ENDBRANCH  70  89
BRANCH  82  95
ATOM     95  C   UNL A   1      39.088  32.376  36.181  1.00  0.00    -0.014 A 
ATOM     96  C   UNL A   1      38.183  31.846  37.114  1.00  0.00     0.009 A 
ATOM     97  C   UNL A   1      39.517  33.705  36.327  1.00  0.00     0.009 A 
ATOM     98  C   UNL A   1      37.694  32.641  38.152  1.00  0.00     0.001 A 
ATOM     99  C   UNL A   1      39.047  34.488  37.382  1.00  0.00     0.001 A 
ATOM    100  C   UNL A   1      38.129  33.960  38.287  1.00  0.00     0.000 A 
ENDBRANCH  82  95
ENDBRANCH  56  57
ENDBRANCH  49  51
ENDBRANCH  48  49
ENDBRANCH  47  48
ENDBRANCH  46  47
ENDBRANCH  45  46
ENDBRANCH  44  45
ENDBRANCH   1  44
TORSDOF 26
ENDMDL
MODEL 2
REMARK VINA RESULT:      -9.3      6.504     10.853
REMARK SMILES O=C(N[C@@H](Cc1c[nH]c2ccccc12)C(=O)N[C@@H](CS)C(=O)N[C@@H](CO)C(=O)OCCOCCOC(=O)c1ccc(-c2c3nc(c(-c4ccccc4)c4ccc([nH]4)c(-c4ccccc4)c4nc(c(-c5ccccc5)c5ccc2[nH]5)C=C4)C=C3)cc1)c1ccc(F)cc1
REMARK SMILES IDX 30 1 29 2 27 3 28 4 24 5 23 6 21 7 22 8 18 10 17 11 15 12
REMARK SMILES IDX 16 13 4 15 3 16 1 17 2 18 86 20 87 21 92 22 88 23 91 24
REMARK SMILES IDX 89 25 90 26 5 27 6 28 7 29 14 30 8 31 9 32 13 33 10 35 12 36
REMARK SMILES IDX 11 37 19 38 20 39 25 41 26 42 31 44 32 45 33 46 34 47 35 48
REMARK SMILES IDX 36 49 37 50 38 51 39 52 85 53 40 54 84 55 41 56 42 57 43 58
REMARK SMILES IDX 78 59 44 60 83 61 77 62 79 63 45 64 82 65 76 66 75 67 46 69
REMARK SMILES IDX 68 70 53 71 67 72 54 73 57 74 66 75 80 76 55 77 56 78 65 80
REMARK SMILES IDX 81 81 58 82 47 83 48 84 52 85 49 86 51 87 50 88 69 89 70 90
REMARK SMILES IDX 74 91 71 92 73 93 72 94 59 95 60 96 64 97 61 98 63 99 62 100
REMARK H PARENT 23 9 17 14 3 19 8 34 20 40 26 43 79 68 57 79
REMARK Flexibility Score: inf
ROOT
ATOM      1  C   UNL A   1      39.640  27.793  30.586  1.00  0.00     0.261 C 
ENDROOT
BRANCH   1   2
ATOM      2  O   UNL A   1      38.789  27.611  31.726  1.00  0.00    -0.462 OA
BRANCH   2   3
ATOM      3  C   UNL A   1      38.908  28.562  32.692  1.00  0.00     0.331 C 
ATOM      4  O   UNL A   1      38.036  28.845  33.504  1.00  0.00    -0.250 OA
BRANCH   3   5
ATOM      5  C   UNL A   1      40.261  29.276  32.606  1.00  0.00     0.218 C 
BRANCH   5   6
ATOM      6  N   UNL A   1      40.137  30.754  32.512  1.00  0.00    -0.339 N 
ATOM      7  C   UNL A   1      39.330  31.282  31.549  1.00  0.00     0.244 C 
ATOM      8  O   UNL A   1      39.726  31.190  30.384  1.00  0.00    -0.273 OA
ATOM      9  H   UNL A   1      40.629  31.339  33.133  1.00  0.00     0.164 HD
BRANCH   7  10
ATOM     10  C   UNL A   1      37.965  31.954  31.931  1.00  0.00     0.181 C 
BRANCH  10  11
ATOM     11  N   UNL A   1      36.925  30.954  31.639  1.00  0.00    -0.342 N 
ATOM     12  C   UNL A   1      36.601  30.391  30.433  1.00  0.00     0.243 C 
ATOM     13  O   UNL A   1      36.418  29.168  30.433  1.00  0.00    -0.273 OA
ATOM     14  H   UNL A   1      36.394  30.650  32.410  1.00  0.00     0.164 HD
BRANCH  12  15
ATOM     15  C   UNL A   1      36.400  31.199  29.119  1.00  0.00     0.176 C 
BRANCH  15  16
ATOM     16  N   UNL A   1      37.375  32.285  28.978  1.00  0.00    -0.340 N 
ATOM     17  O   UNL A   1      38.101  34.425  29.022  1.00  0.00    -0.269 OA
ATOM     18  C   UNL A   1      37.170  33.637  29.159  1.00  0.00     0.251 C 
ATOM     19  H   UNL A   1      38.287  32.016  28.722  1.00  0.00     0.164 HD
BRANCH  18  20
ATOM     20  C   UNL A   1      35.810  34.165  29.440  1.00  0.00     0.040 A 
ATOM     21  C   UNL A   1      34.994  34.690  28.429  1.00  0.00     0.017 A 
ATOM     22  C   UNL A   1      35.353  34.140  30.766  1.00  0.00     0.017 A 
ATOM     23  C   UNL A   1      33.761  35.263  28.758  1.00  0.00     0.040 A 
ATOM     24  C   UNL A   1      34.115  34.701  31.087  1.00  0.00     0.040 A 
ATOM     25  C   UNL A   1      33.338  35.271  30.084  1.00  0.00     0.123 A 
ATOM     26  F   UNL A   1      32.166  35.838  30.399  1.00  0.00    -0.207 F 
ENDBRANCH  18  20
ENDBRANCH  15  16
BRANCH  15  27
ATOM     27  C   UNL A   1      36.030  30.461  27.812  1.00  0.00     0.072 C 
BRANCH  27  28
ATOM     28  C   UNL A   1      34.583  30.264  27.499  1.00  0.00    -0.020 A 
ATOM     29  C   UNL A   1      33.654  31.275  27.396  1.00  0.00     0.087 A 
ATOM     30  C   UNL A   1      33.904  29.096  27.008  1.00  0.00     0.003 A 
ATOM     31  N   UNL A   1      32.413  30.722  27.289  1.00  0.00    -0.361 N 
ATOM     32  C   UNL A   1      32.538  29.391  26.982  1.00  0.00     0.046 A 
ATOM     33  C   UNL A   1      34.310  27.830  26.537  1.00  0.00     0.010 A 
ATOM     34  H   UNL A   1      31.562  31.202  27.412  1.00  0.00     0.166 HD
ATOM     35  C   UNL A   1      31.553  28.464  26.626  1.00  0.00     0.026 A 
ATOM     36  C   UNL A   1      33.344  26.927  26.067  1.00  0.00     0.001 A 
ATOM     37  C   UNL A   1      31.986  27.229  26.142  1.00  0.00     0.002 A 
ENDBRANCH  27  28
ENDBRANCH  15  27
ENDBRANCH  12  15
ENDBRANCH  10  11
BRANCH  10  38
ATOM     38  C   UNL A   1      37.852  32.609  33.313  1.00  0.00     0.101 C 
BRANCH  38  39
ATOM     39  S   UNL A   1      38.070  34.410  33.405  1.00  0.00    -0.177 SA
ATOM     40  H   UNL A   1      36.901  35.026  33.080  1.00  0.00     0.102 HD
ENDBRANCH  38  39
ENDBRANCH  10  38
ENDBRANCH   7  10
ENDBRANCH   5   6
BRANCH   5  41
ATOM     41  C   UNL A   1      41.103  28.827  33.810  1.00  0.00     0.193 C 
BRANCH  41  42
ATOM     42  O   UNL A   1      40.441  29.145  35.036  1.00  0.00    -0.394 OA
ATOM     43  H   UNL A   1      40.629  28.457  35.693  1.00  0.00     0.210 HD
ENDBRANCH  41  42
ENDBRANCH   5  41
ENDBRANCH   3   5
ENDBRANCH   2   3
ENDBRANCH   1   2
BRANCH   1  44
ATOM     44  C   UNL A   1      39.270  26.767  29.513  1.00  0.00     0.202 C 
BRANCH  44  45
ATOM     45  O   UNL A   1      39.079  27.280  28.192  1.00  0.00    -0.374 OA
BRANCH  45  46
ATOM     46  C   UNL A   1      40.166  27.161  27.276  1.00  0.00     0.202 C 
BRANCH  46  47
ATOM     47  C   UNL A   1      40.298  25.825  26.530  1.00  0.00     0.261 C 
BRANCH  47  48
ATOM     48  O   UNL A   1      40.900  24.788  27.324  1.00  0.00    -0.460 OA
BRANCH  48  49
ATOM     49  C   UNL A   1      41.828  24.052  26.663  1.00  0.00     0.338 C 
ATOM     50  O   UNL A   1      41.662  22.978  26.100  1.00  0.00    -0.246 OA
BRANCH  49  51
ATOM     51  C   UNL A   1      43.093  24.796  26.557  1.00  0.00     0.060 A 
ATOM     52  C   UNL A   1      43.679  25.247  27.747  1.00  0.00     0.016 A 
ATOM     53  C   UNL A   1      43.641  25.136  25.319  1.00  0.00     0.016 A 
ATOM     54  C   UNL A   1      44.802  26.069  27.703  1.00  0.00     0.010 A 
ATOM     55  C   UNL A   1      44.763  25.973  25.277  1.00  0.00     0.010 A 
ATOM     56  C   UNL A   1      45.327  26.467  26.467  1.00  0.00    -0.014 A 
BRANCH  56  57
ATOM     57  C   UNL A   1      46.369  27.520  26.433  1.00  0.00     0.031 A 
ATOM     58  C   UNL A   1      45.954  28.962  26.534  1.00  0.00     0.074 A 
ATOM     59  C   UNL A   1      47.672  27.195  26.365  1.00  0.00     0.049 A 
ATOM     60  N   UNL A   1      46.696  30.040  26.543  1.00  0.00    -0.248 NA
ATOM     61  C   UNL A   1      44.510  29.223  26.645  1.00  0.00     0.031 C 
ATOM     62  C   UNL A   1      48.203  25.833  26.313  1.00  0.00     0.029 A 
ATOM     63  N   UNL A   1      48.787  27.994  26.335  1.00  0.00    -0.354 N 
ATOM     64  C   UNL A   1      45.811  31.105  26.659  1.00  0.00     0.074 A 
ATOM     65  C   UNL A   1      44.477  30.546  26.685  1.00  0.00     0.031 C 
ATOM     66  C   UNL A   1      49.545  25.892  26.260  1.00  0.00     0.029 A 
ATOM     67  C   UNL A   1      49.964  27.292  26.244  1.00  0.00     0.049 A 
ATOM     68  H   UNL A   1      48.747  28.977  26.375  1.00  0.00     0.167 HD
ATOM     69  C   UNL A   1      46.083  32.429  26.743  1.00  0.00     0.031 A 
ATOM     70  C   UNL A   1      51.233  27.732  26.147  1.00  0.00     0.031 A 
ATOM     71  C   UNL A   1      47.409  32.987  26.697  1.00  0.00     0.049 A 
ATOM     72  C   UNL A   1      51.504  29.212  26.157  1.00  0.00     0.074 A 
ATOM     73  C   UNL A   1      47.789  34.315  26.777  1.00  0.00     0.029 A 
ATOM     74  N   UNL A   1      48.570  32.245  26.550  1.00  0.00    -0.354 N 
ATOM     75  N   UNL A   1      50.660  30.207  26.288  1.00  0.00    -0.248 NA
ATOM     76  C   UNL A   1      52.907  29.628  26.014  1.00  0.00     0.031 C 
ATOM     77  C   UNL A   1      49.179  34.380  26.626  1.00  0.00     0.029 A 
ATOM     78  C   UNL A   1      49.667  33.089  26.510  1.00  0.00     0.049 A 
ATOM     79  H   UNL A   1      48.610  31.263  26.483  1.00  0.00     0.167 HD
ATOM     80  C   UNL A   1      51.431  31.363  26.272  1.00  0.00     0.074 A 
ATOM     81  C   UNL A   1      52.811  30.945  26.132  1.00  0.00     0.031 C 
ATOM     82  C   UNL A   1      51.033  32.655  26.368  1.00  0.00     0.031 A 
BRANCH  69  83
ATOM     83  C   UNL A   1      44.914  33.366  26.858  1.00  0.00    -0.014 A 
ATOM     84  C   UNL A   1      44.382  33.719  28.108  1.00  0.00     0.009 A 
ATOM     85  C   UNL A   1      44.348  33.919  25.698  1.00  0.00     0.009 A 
ATOM     86  C   UNL A   1      43.284  34.579  28.192  1.00  0.00     0.001 A 
ATOM     87  C   UNL A   1      43.270  34.799  25.786  1.00  0.00     0.001 A 
ATOM     88  C   UNL A   1      42.732  35.122  27.032  1.00  0.00     0.000 A 
ENDBRANCH  69  83
BRANCH  70  89
ATOM     89  C   UNL A   1      52.351  26.760  26.018  1.00  0.00    -0.014 A 
ATOM     90  C   UNL A   1      53.132  26.414  27.132  1.00  0.00     0.009 A 
ATOM     91  C   UNL A   1      52.653  26.185  24.773  1.00  0.00     0.009 A 
ATOM     92  C   UNL A   1      54.207  25.532  26.994  1.00  0.00     0.001 A 
ATOM     93  C   UNL A   1      53.710  25.283  24.645  1.00  0.00     0.001 A 
ATOM     94  C   UNL A   1      54.492  24.965  25.753  1.00  0.00     0.000 A 
ENDBRANCH  70  89
BRANCH  82  95
ATOM     95  C   UNL A   1      52.107  33.708  26.362  1.00  0.00    -0.014 A 
ATOM     96  C   UNL A   1      52.529  34.314  25.169  1.00  0.00     0.009 A 
ATOM     97  C   UNL A   1      52.677  34.123  27.576  1.00  0.00     0.009 A 
ATOM     98  C   UNL A   1      53.525  35.293  25.189  1.00  0.00     0.001 A 
ATOM     99  C   UNL A   1      53.653  35.121  27.595  1.00  0.00     0.001 A 
ATOM    100  C   UNL A   1      54.082  35.697  26.402  1.00  0.00     0.000 A 
ENDBRANCH  82  95
ENDBRANCH  56  57
ENDBRANCH  49  51
ENDBRANCH  48  49
ENDBRANCH  47  48
ENDBRANCH  46  47
ENDBRANCH  45  46
ENDBRANCH  44  45
ENDBRANCH   1  44
TORSDOF 26
ENDMDL
MODEL 3
REMARK VINA RESULT:      -9.2      6.217     11.502
REMARK SMILES O=C(N[C@@H](Cc1c[nH]c2ccccc12)C(=O)N[C@@H](CS)C(=O)N[C@@H](CO)C(=O)OCCOCCOC(=O)c1ccc(-c2c3nc(c(-c4ccccc4)c4ccc([nH]4)c(-c4ccccc4)c4nc(c(-c5ccccc5)c5ccc2[nH]5)C=C4)C=C3)cc1)c1ccc(F)cc1
REMARK SMILES IDX 30 1 29 2 27 3 28 4 24 5 23 6 21 7 22 8 18 10 17 11 15 12
REMARK SMILES IDX 16 13 4 15 3 16 1 17 2 18 86 20 87 21 92 22 88 23 91 24
REMARK SMILES IDX 89 25 90 26 5 27 6 28 7 29 14 30 8 31 9 32 13 33 10 35 12 36
REMARK SMILES IDX 11 37 19 38 20 39 25 41 26 42 31 44 32 45 33 46 34 47 35 48
REMARK SMILES IDX 36 49 37 50 38 51 39 52 85 53 40 54 84 55 41 56 42 57 43 58
REMARK SMILES IDX 78 59 44 60 83 61 77 62 79 63 45 64 82 65 76 66 75 67 46 69
REMARK SMILES IDX 68 70 53 71 67 72 54 73 57 74 66 75 80 76 55 77 56 78 65 80
REMARK SMILES IDX 81 81 58 82 47 83 48 84 52 85 49 86 51 87 50 88 69 89 70 90
REMARK SMILES IDX 74 91 71 92 73 93 72 94 59 95 60 96 64 97 61 98 63 99 62 100
REMARK H PARENT 23 9 17 14 3 19 8 34 20 40 26 43 79 68 57 79
REMARK Flexibility Score: inf
ROOT
ATOM      1  C   UNL A   1      33.003  34.687  29.121  1.00  0.00     0.261 C 
ENDROOT
BRANCH   1   2
ATOM      2  O   UNL A   1      33.806  34.150  28.061  1.00  0.00    -0.462 OA
BRANCH   2   3
ATOM      3  C   UNL A   1      35.000  33.626  28.451  1.00  0.00     0.331 C 
ATOM      4  O   UNL A   1      35.931  34.275  28.911  1.00  0.00    -0.250 OA
BRANCH   3   5
ATOM      5  C   UNL A   1      35.054  32.117  28.192  1.00  0.00     0.218 C 
BRANCH   5   6
ATOM      6  N   UNL A   1      35.423  31.330  29.398  1.00  0.00    -0.339 N 
ATOM      7  C   UNL A   1      36.379  30.365  29.281  1.00  0.00     0.244 C 
ATOM      8  O   UNL A   1      36.067  29.352  28.652  1.00  0.00    -0.273 OA
ATOM      9  H   UNL A   1      34.985  31.502  30.263  1.00  0.00     0.164 HD
BRANCH   7  10
ATOM     10  C   UNL A   1      37.800  30.569  29.913  1.00  0.00     0.181 C 
BRANCH  10  11
ATOM     11  N   UNL A   1      38.765  30.324  28.829  1.00  0.00    -0.342 N 
ATOM     12  C   UNL A   1      39.346  29.139  28.459  1.00  0.00     0.243 C 
ATOM     13  O   UNL A   1      39.387  28.908  27.245  1.00  0.00    -0.273 OA
ATOM     14  H   UNL A   1      39.026  31.113  28.301  1.00  0.00     0.164 HD
BRANCH  12  15
ATOM     15  C   UNL A   1      39.989  28.134  29.456  1.00  0.00     0.176 C 
BRANCH  15  16
ATOM     16  N   UNL A   1      39.338  28.161  30.771  1.00  0.00    -0.340 N 
ATOM     17  O   UNL A   1      39.146  28.655  32.967  1.00  0.00    -0.269 OA
ATOM     18  C   UNL A   1      39.825  28.694  31.946  1.00  0.00     0.251 C 
ATOM     19  H   UNL A   1      38.447  27.747  30.820  1.00  0.00     0.164 HD
BRANCH  18  20
ATOM     20  C   UNL A   1      41.203  29.245  32.013  1.00  0.00     0.040 A 
ATOM     21  C   UNL A   1      42.261  28.532  32.594  1.00  0.00     0.017 A 
ATOM     22  C   UNL A   1      41.428  30.525  31.485  1.00  0.00     0.017 A 
ATOM     23  C   UNL A   1      43.517  29.133  32.719  1.00  0.00     0.040 A 
ATOM     24  C   UNL A   1      42.689  31.116  31.602  1.00  0.00     0.040 A 
ATOM     25  C   UNL A   1      43.717  30.421  32.231  1.00  0.00     0.123 A 
ATOM     26  F   UNL A   1      44.916  31.001  32.370  1.00  0.00    -0.207 F 
ENDBRANCH  18  20
ENDBRANCH  15  16
BRANCH  15  27
ATOM     27  C   UNL A   1      40.435  26.739  28.961  1.00  0.00     0.072 C 
BRANCH  27  28
ATOM     28  C   UNL A   1      41.870  26.548  28.592  1.00  0.00    -0.020 A 
ATOM     29  C   UNL A   1      42.919  26.557  29.483  1.00  0.00     0.087 A 
ATOM     30  C   UNL A   1      42.443  26.083  27.360  1.00  0.00     0.003 A 
ATOM     31  N   UNL A   1      44.089  26.541  28.783  1.00  0.00    -0.361 N 
ATOM     32  C   UNL A   1      43.832  26.184  27.484  1.00  0.00     0.046 A 
ATOM     33  C   UNL A   1      41.931  25.539  26.163  1.00  0.00     0.010 A 
ATOM     34  H   UNL A   1      44.978  26.753  29.151  1.00  0.00     0.166 HD
ATOM     35  C   UNL A   1      44.725  25.887  26.450  1.00  0.00     0.026 A 
ATOM     36  C   UNL A   1      42.818  25.128  25.158  1.00  0.00     0.001 A 
ATOM     37  C   UNL A   1      44.190  25.330  25.288  1.00  0.00     0.002 A 
ENDBRANCH  27  28
ENDBRANCH  15  27
ENDBRANCH  12  15
ENDBRANCH  10  11
BRANCH  10  38
ATOM     38  C   UNL A   1      38.050  31.853  30.713  1.00  0.00     0.101 C 
BRANCH  38  39
ATOM     39  S   UNL A   1      39.096  33.126  29.947  1.00  0.00    -0.177 SA
ATOM     40  H   UNL A   1      38.645  33.388  28.691  1.00  0.00     0.102 HD
ENDBRANCH  38  39
ENDBRANCH  10  38
ENDBRANCH   7  10
ENDBRANCH   5   6
BRANCH   5  41
ATOM     41  C   UNL A   1      33.700  31.695  27.601  1.00  0.00     0.193 C 
BRANCH  41  42
ATOM     42  O   UNL A   1      33.413  30.332  27.920  1.00  0.00    -0.394 OA
ATOM     43  H   UNL A   1      34.016  30.029  28.615  1.00  0.00     0.210 HD
ENDBRANCH  41  42
ENDBRANCH   5  41
ENDBRANCH   3   5
ENDBRANCH   2   3
ENDBRANCH   1   2
BRANCH   1  44
ATOM     44  C   UNL A   1      33.189  36.204  29.176  1.00  0.00     0.202 C 
BRANCH  44  45
ATOM     45  O   UNL A   1      33.060  36.807  30.466  1.00  0.00    -0.374 OA
BRANCH  45  46
ATOM     46  C   UNL A   1      32.640  35.973  31.544  1.00  0.00     0.202 C 
BRANCH  46  47
ATOM     47  C   UNL A   1      33.685  35.668  32.628  1.00  0.00     0.261 C 
BRANCH  47  48
ATOM     48  O   UNL A   1      34.880  35.059  32.109  1.00  0.00    -0.460 OA
BRANCH  48  49
ATOM     49  C   UNL A   1      34.997  33.738  32.394  1.00  0.00     0.338 C 
ATOM     50  O   UNL A   1      34.359  32.814  31.910  1.00  0.00    -0.246 OA
BRANCH  49  51
ATOM     51  C   UNL A   1      36.144  33.506  33.286  1.00  0.00     0.060 A 
ATOM     52  C   UNL A   1      36.412  32.185  33.664  1.00  0.00     0.016 A 
ATOM     53  C   UNL A   1      36.880  34.564  33.822  1.00  0.00     0.016 A 
ATOM     54  C   UNL A   1      37.399  31.917  34.609  1.00  0.00     0.010 A 
ATOM     55  C   UNL A   1      37.863  34.294  34.782  1.00  0.00     0.010 A 
ATOM     56  C   UNL A   1      38.104  32.973  35.201  1.00  0.00    -0.014 A 
BRANCH  56  57
ATOM     57  C   UNL A   1      38.979  32.693  36.364  1.00  0.00     0.031 A 
ATOM     58  C   UNL A   1      38.376  32.663  37.741  1.00  0.00     0.074 A 
ATOM     59  C   UNL A   1      40.283  32.418  36.191  1.00  0.00     0.049 A 
ATOM     60  N   UNL A   1      38.949  32.422  38.893  1.00  0.00    -0.248 NA
ATOM     61  C   UNL A   1      36.933  32.937  37.832  1.00  0.00     0.031 C 
ATOM     62  C   UNL A   1      40.974  32.367  34.903  1.00  0.00     0.029 A 
ATOM     63  N   UNL A   1      41.258  32.122  37.110  1.00  0.00    -0.354 N 
ATOM     64  C   UNL A   1      37.940  32.516  39.843  1.00  0.00     0.074 A 
ATOM     65  C   UNL A   1      36.726  32.867  39.138  1.00  0.00     0.031 C 
ATOM     66  C   UNL A   1      42.265  32.055  35.115  1.00  0.00     0.029 A 
ATOM     67  C   UNL A   1      42.495  31.914  36.551  1.00  0.00     0.049 A 
ATOM     68  H   UNL A   1      41.088  32.064  38.078  1.00  0.00     0.167 HD
ATOM     69  C   UNL A   1      38.013  32.321  41.181  1.00  0.00     0.031 A 
ATOM     70  C   UNL A   1      43.680  31.653  37.134  1.00  0.00     0.031 A 
ATOM     71  C   UNL A   1      39.224  31.992  41.885  1.00  0.00     0.049 A 
ATOM     72  C   UNL A   1      43.754  31.525  38.632  1.00  0.00     0.074 A 
ATOM     73  C   UNL A   1      39.402  31.771  43.240  1.00  0.00     0.029 A 
ATOM     74  N   UNL A   1      40.466  31.843  41.288  1.00  0.00    -0.354 N 
ATOM     75  N   UNL A   1      42.788  31.596  39.517  1.00  0.00    -0.248 NA
ATOM     76  C   UNL A   1      45.081  31.273  39.210  1.00  0.00     0.031 C 
ATOM     77  C   UNL A   1      40.763  31.541  43.469  1.00  0.00     0.029 A 
ATOM     78  C   UNL A   1      41.421  31.561  42.250  1.00  0.00     0.049 A 
ATOM     79  H   UNL A   1      40.643  31.927  40.324  1.00  0.00     0.167 HD
ATOM     80  C   UNL A   1      43.385  31.368  40.750  1.00  0.00     0.074 A 
ATOM     81  C   UNL A   1      44.794  31.144  40.499  1.00  0.00     0.031 C 
ATOM     82  C   UNL A   1      42.819  31.343  41.981  1.00  0.00     0.031 A 
BRANCH  69  83
ATOM     83  C   UNL A   1      36.748  32.497  41.973  1.00  0.00    -0.014 A 
ATOM     84  C   UNL A   1      36.397  33.741  42.520  1.00  0.00     0.009 A 
ATOM     85  C   UNL A   1      35.886  31.405  42.160  1.00  0.00     0.009 A 
ATOM     86  C   UNL A   1      35.224  33.880  43.266  1.00  0.00     0.001 A 
ATOM     87  C   UNL A   1      34.702  31.553  42.883  1.00  0.00     0.001 A 
ATOM     88  C   UNL A   1      34.376  32.787  43.444  1.00  0.00     0.000 A 
ENDBRANCH  69  83
BRANCH  70  89
ATOM     89  C   UNL A   1      44.904  31.506  36.303  1.00  0.00    -0.014 A 
ATOM     90  C   UNL A   1      45.659  32.630  35.934  1.00  0.00     0.009 A 
ATOM     91  C   UNL A   1      45.315  30.238  35.860  1.00  0.00     0.009 A 
ATOM     92  C   UNL A   1      46.784  32.488  35.117  1.00  0.00     0.001 A 
ATOM     93  C   UNL A   1      46.455  30.097  35.068  1.00  0.00     0.001 A 
ATOM     94  C   UNL A   1      47.183  31.223  34.690  1.00  0.00     0.000 A 
ENDBRANCH  70  89
BRANCH  82  95
ATOM     95  C   UNL A   1      43.717  31.028  43.146  1.00  0.00    -0.014 A 
ATOM     96  C   UNL A   1      44.369  32.044  43.862  1.00  0.00     0.009 A 
ATOM     97  C   UNL A   1      43.881  29.694  43.552  1.00  0.00     0.009 A 
ATOM     98  C   UNL A   1      45.195  31.726  44.942  1.00  0.00     0.001 A 
ATOM     99  C   UNL A   1      44.685  29.383  44.650  1.00  0.00     0.001 A 
ATOM    100  C   UNL A   1      45.348  30.397  45.337  1.00  0.00     0.000 A 
ENDBRANCH  82  95
ENDBRANCH  56  57
ENDBRANCH  49  51
ENDBRANCH  48  49
ENDBRANCH  47  48
ENDBRANCH  46  47
ENDBRANCH  45  46
ENDBRANCH  44  45
ENDBRANCH   1  44
TORSDOF 26
ENDMDL
