MODEL 1
REMARK VINA RESULT:     -11.0      0.000      0.000
REMARK SMILES O=C(OCCOCCOC(=O)c1cccc(Nc2nc(-c3ccc(F)cc3F)cs2)c1)c1ccc(-c2c3nc(c(-c4ccccc4)c4ccc([nH]4)c(-c4ccccc4)c4nc(c(-c5ccccc5)c5ccc2[nH]5)C=C4)C=C3)cc1
REMARK SMILES IDX 7 1 6 2 5 3 4 4 3 5 2 6 1 7 32 8 33 9 79 10 34 11 78 12
REMARK SMILES IDX 35 13 36 14 37 15 72 16 38 17 77 18 71 19 73 20 39 21 76 22
REMARK SMILES IDX 70 23 69 24 40 26 62 27 47 28 61 29 48 30 51 31 60 32 74 33
REMARK SMILES IDX 49 34 50 35 59 37 75 38 52 39 41 40 42 41 46 42 43 43 45 44
REMARK SMILES IDX 44 45 63 46 64 47 68 48 65 49 67 50 66 51 53 52 54 53 58 54
REMARK SMILES IDX 55 55 57 56 56 57 8 58 9 59 10 60 11 61 12 62 13 63 31 64
REMARK SMILES IDX 14 65 16 66 15 67 17 68 18 70 19 71 30 72 20 73 29 74 21 75
REMARK SMILES IDX 22 76 27 77 23 78 26 79 28 80 24 81 25 82
REMARK H PARENT 73 25 51 36 17 69
REMARK Flexibility Score: inf
ROOT
ATOM      1  C   UNL A   1      43.779  19.511  24.953  1.00  0.00     0.202 C 
ENDROOT
BRANCH   1   2
ATOM      2  O   UNL A   1      44.293  20.797  25.317  1.00  0.00    -0.374 OA
BRANCH   2   3
ATOM      3  C   UNL A   1      45.409  21.256  24.551  1.00  0.00     0.202 C 
BRANCH   3   4
ATOM      4  C   UNL A   1      45.343  22.739  24.178  1.00  0.00     0.261 C 
BRANCH   4   5
ATOM      5  O   UNL A   1      45.093  23.541  25.342  1.00  0.00    -0.460 OA
BRANCH   5   6
ATOM      6  C   UNL A   1      45.140  24.888  25.463  1.00  0.00     0.338 C 
ATOM      7  O   UNL A   1      45.839  25.523  24.675  1.00  0.00    -0.246 OA
BRANCH   6   8
ATOM      8  C   UNL A   1      44.367  25.665  26.482  1.00  0.00     0.060 A 
ATOM      9  C   UNL A   1      44.364  27.055  26.605  1.00  0.00     0.016 A 
ATOM     10  C   UNL A   1      43.523  24.932  27.335  1.00  0.00     0.016 A 
ATOM     11  C   UNL A   1      43.620  27.699  27.577  1.00  0.00     0.010 A 
ATOM     12  C   UNL A   1      42.737  25.573  28.298  1.00  0.00     0.010 A 
ATOM     13  C   UNL A   1      42.812  26.962  28.436  1.00  0.00    -0.014 A 
BRANCH  13  14
ATOM     14  C   UNL A   1      42.192  27.688  29.555  1.00  0.00     0.031 A 
ATOM     15  C   UNL A   1      42.977  27.827  30.822  1.00  0.00     0.074 A 
ATOM     16  C   UNL A   1      41.044  28.360  29.352  1.00  0.00     0.049 A 
ATOM     17  N   UNL A   1      42.676  28.472  31.916  1.00  0.00    -0.248 NA
ATOM     18  C   UNL A   1      44.296  27.168  30.852  1.00  0.00     0.031 C 
ATOM     19  C   UNL A   1      40.297  28.392  28.092  1.00  0.00     0.029 A 
ATOM     20  N   UNL A   1      40.340  29.189  30.181  1.00  0.00    -0.354 N 
ATOM     21  C   UNL A   1      43.751  28.273  32.772  1.00  0.00     0.074 A 
ATOM     22  C   UNL A   1      44.711  27.447  32.077  1.00  0.00     0.031 C 
ATOM     23  C   UNL A   1      39.261  29.235  28.220  1.00  0.00     0.029 A 
ATOM     24  C   UNL A   1      39.236  29.749  29.585  1.00  0.00     0.049 A 
ATOM     25  H   UNL A   1      40.598  29.366  31.114  1.00  0.00     0.167 HD
ATOM     26  C   UNL A   1      43.910  28.732  34.034  1.00  0.00     0.031 A 
ATOM     27  C   UNL A   1      38.306  30.572  30.102  1.00  0.00     0.031 A 
ATOM     28  C   UNL A   1      42.931  29.539  34.704  1.00  0.00     0.049 A 
ATOM     29  C   UNL A   1      38.458  30.985  31.539  1.00  0.00     0.074 A 
ATOM     30  C   UNL A   1      42.931  30.005  36.005  1.00  0.00     0.029 A 
ATOM     31  N   UNL A   1      41.764  30.003  34.108  1.00  0.00    -0.354 N 
ATOM     32  N   UNL A   1      39.439  30.729  32.373  1.00  0.00    -0.248 NA
ATOM     33  C   UNL A   1      37.372  31.790  32.112  1.00  0.00     0.031 C 
ATOM     34  C   UNL A   1      41.739  30.711  36.209  1.00  0.00     0.029 A 
ATOM     35  C   UNL A   1      41.028  30.736  35.018  1.00  0.00     0.049 A 
ATOM     36  H   UNL A   1      41.502  29.834  33.174  1.00  0.00     0.167 HD
ATOM     37  C   UNL A   1      39.102  31.359  33.562  1.00  0.00     0.074 A 
ATOM     38  C   UNL A   1      37.833  32.026  33.332  1.00  0.00     0.031 C 
ATOM     39  C   UNL A   1      39.772  31.386  34.741  1.00  0.00     0.031 A 
BRANCH  26  40
ATOM     40  C   UNL A   1      45.136  28.274  34.771  1.00  0.00    -0.014 A 
ATOM     41  C   UNL A   1      46.374  28.922  34.624  1.00  0.00     0.009 A 
ATOM     42  C   UNL A   1      45.060  27.133  35.585  1.00  0.00     0.009 A 
ATOM     43  C   UNL A   1      47.517  28.407  35.242  1.00  0.00     0.001 A 
ATOM     44  C   UNL A   1      46.198  26.638  36.222  1.00  0.00     0.001 A 
ATOM     45  C   UNL A   1      47.428  27.266  36.040  1.00  0.00     0.000 A 
ENDBRANCH  26  40
BRANCH  27  46
ATOM     46  C   UNL A   1      37.145  31.014  29.283  1.00  0.00    -0.014 A 
ATOM     47  C   UNL A   1      36.111  30.126  28.951  1.00  0.00     0.009 A 
ATOM     48  C   UNL A   1      37.075  32.336  28.811  1.00  0.00     0.009 A 
ATOM     49  C   UNL A   1      35.048  30.545  28.144  1.00  0.00     0.001 A 
ATOM     50  C   UNL A   1      35.996  32.760  28.032  1.00  0.00     0.001 A 
ATOM     51  C   UNL A   1      34.989  31.862  27.689  1.00  0.00     0.000 A 
ENDBRANCH  27  46
BRANCH  39  52
ATOM     52  C   UNL A   1      39.162  32.201  35.843  1.00  0.00    -0.014 A 
ATOM     53  C   UNL A   1      39.395  33.580  35.947  1.00  0.00     0.009 A 
ATOM     54  C   UNL A   1      38.309  31.578  36.767  1.00  0.00     0.009 A 
ATOM     55  C   UNL A   1      38.813  34.314  36.980  1.00  0.00     0.001 A 
ATOM     56  C   UNL A   1      37.704  32.320  37.780  1.00  0.00     0.001 A 
ATOM     57  C   UNL A   1      37.965  33.685  37.892  1.00  0.00     0.000 A 
ENDBRANCH  39  52
ENDBRANCH  13  14
ENDBRANCH   6   8
ENDBRANCH   5   6
ENDBRANCH   4   5
ENDBRANCH   3   4
ENDBRANCH   2   3
ENDBRANCH   1   2
BRANCH   1  58
ATOM     58  C   UNL A   1      42.523  19.205  25.773  1.00  0.00     0.261 C 
BRANCH  58  59
ATOM     59  O   UNL A   1      41.747  20.407  25.891  1.00  0.00    -0.460 OA
BRANCH  59  60
ATOM     60  C   UNL A   1      40.987  20.487  27.013  1.00  0.00     0.338 C 
ATOM     61  O   UNL A   1      41.071  19.812  28.023  1.00  0.00    -0.246 OA
BRANCH  60  62
ATOM     62  C   UNL A   1      40.168  21.710  26.897  1.00  0.00     0.062 A 
ATOM     63  C   UNL A   1      40.468  22.796  27.720  1.00  0.00     0.016 A 
ATOM     64  C   UNL A   1      39.164  21.806  25.932  1.00  0.00     0.041 A 
ATOM     65  C   UNL A   1      39.828  24.013  27.509  1.00  0.00     0.003 A 
ATOM     66  C   UNL A   1      38.438  22.993  25.783  1.00  0.00     0.041 A 
ATOM     67  C   UNL A   1      38.831  24.110  26.534  1.00  0.00     0.026 A 
BRANCH  66  68
ATOM     68  N   UNL A   1      37.350  22.995  24.890  1.00  0.00    -0.332 N 
ATOM     69  H   UNL A   1      37.445  23.532  24.071  1.00  0.00     0.169 HD
BRANCH  68  70
ATOM     70  C   UNL A   1      36.188  22.327  25.055  1.00  0.00     0.187 A 
ATOM     71  N   UNL A   1      35.905  21.129  24.594  1.00  0.00    -0.220 NA
ATOM     72  S   UNL A   1      34.917  23.074  25.955  1.00  0.00    -0.105 S 
ATOM     73  C   UNL A   1      34.638  20.754  24.989  1.00  0.00     0.086 A 
ATOM     74  C   UNL A   1      33.913  21.721  25.654  1.00  0.00     0.097 A 
BRANCH  73  75
ATOM     75  C   UNL A   1      34.144  19.415  24.761  1.00  0.00     0.037 A 
ATOM     76  C   UNL A   1      32.771  19.155  24.677  1.00  0.00     0.016 A 
ATOM     77  C   UNL A   1      35.053  18.355  24.648  1.00  0.00     0.135 A 
ATOM     78  C   UNL A   1      32.325  17.843  24.494  1.00  0.00     0.040 A 
ATOM     79  C   UNL A   1      34.614  17.049  24.468  1.00  0.00     0.079 A 
ATOM     80  F   UNL A   1      36.374  18.571  24.753  1.00  0.00    -0.206 F 
ATOM     81  C   UNL A   1      33.251  16.805  24.393  1.00  0.00     0.126 A 
ATOM     82  F   UNL A   1      32.814  15.550  24.231  1.00  0.00    -0.207 F 
ENDBRANCH  73  75
ENDBRANCH  68  70
ENDBRANCH  66  68
ENDBRANCH  60  62
ENDBRANCH  59  60
ENDBRANCH  58  59
ENDBRANCH   1  58
TORSDOF 17
ENDMDL
MODEL 2
REMARK VINA RESULT:     -11.0      4.620      8.977
REMARK SMILES O=C(OCCOCCOC(=O)c1cccc(Nc2nc(-c3ccc(F)cc3F)cs2)c1)c1ccc(-c2c3nc(c(-c4ccccc4)c4ccc([nH]4)c(-c4ccccc4)c4nc(c(-c5ccccc5)c5ccc2[nH]5)C=C4)C=C3)cc1
REMARK SMILES IDX 7 1 6 2 5 3 4 4 3 5 2 6 1 7 32 8 33 9 79 10 34 11 78 12
REMARK SMILES IDX 35 13 36 14 37 15 72 16 38 17 77 18 71 19 73 20 39 21 76 22
REMARK SMILES IDX 70 23 69 24 40 26 62 27 47 28 61 29 48 30 51 31 60 32 74 33
REMARK SMILES IDX 49 34 50 35 59 37 75 38 52 39 41 40 42 41 46 42 43 43 45 44
REMARK SMILES IDX 44 45 63 46 64 47 68 48 65 49 67 50 66 51 53 52 54 53 58 54
REMARK SMILES IDX 55 55 57 56 56 57 8 58 9 59 10 60 11 61 12 62 13 63 31 64
REMARK SMILES IDX 14 65 16 66 15 67 17 68 18 70 19 71 30 72 20 73 29 74 21 75
REMARK SMILES IDX 22 76 27 77 23 78 26 79 28 80 24 81 25 82
REMARK H PARENT 73 25 51 36 17 69
REMARK Flexibility Score: inf
ROOT
ATOM      1  C   UNL A   1      32.685  29.151  26.945  1.00  0.00     0.202 C 
ENDROOT
BRANCH   1   2
ATOM      2  O   UNL A   1      32.043  30.429  26.880  1.00  0.00    -0.374 OA
BRANCH   2   3
ATOM      3  C   UNL A   1      32.779  31.520  27.435  1.00  0.00     0.202 C 
BRANCH   3   4
ATOM      4  C   UNL A   1      32.402  32.887  26.859  1.00  0.00     0.261 C 
BRANCH   4   5
ATOM      5  O   UNL A   1      32.134  33.822  27.916  1.00  0.00    -0.460 OA
BRANCH   5   6
ATOM      6  C   UNL A   1      33.010  34.588  28.604  1.00  0.00     0.338 C 
ATOM      7  O   UNL A   1      32.714  35.761  28.826  1.00  0.00    -0.246 OA
BRANCH   6   8
ATOM      8  C   UNL A   1      34.314  34.091  29.143  1.00  0.00     0.060 A 
ATOM      9  C   UNL A   1      35.566  34.327  28.573  1.00  0.00     0.016 A 
ATOM     10  C   UNL A   1      34.273  33.392  30.363  1.00  0.00     0.016 A 
ATOM     11  C   UNL A   1      36.728  33.831  29.136  1.00  0.00     0.010 A 
ATOM     12  C   UNL A   1      35.444  32.916  30.962  1.00  0.00     0.010 A 
ATOM     13  C   UNL A   1      36.673  33.113  30.325  1.00  0.00    -0.014 A 
BRANCH  13  14
ATOM     14  C   UNL A   1      37.916  32.464  30.771  1.00  0.00     0.031 A 
ATOM     15  C   UNL A   1      38.543  32.948  32.041  1.00  0.00     0.074 A 
ATOM     16  C   UNL A   1      38.341  31.350  30.147  1.00  0.00     0.049 A 
ATOM     17  N   UNL A   1      39.595  32.497  32.668  1.00  0.00    -0.248 NA
ATOM     18  C   UNL A   1      37.880  34.081  32.710  1.00  0.00     0.031 C 
ATOM     19  C   UNL A   1      37.691  30.733  28.987  1.00  0.00     0.029 A 
ATOM     20  N   UNL A   1      39.381  30.512  30.434  1.00  0.00    -0.354 N 
ATOM     21  C   UNL A   1      39.736  33.308  33.787  1.00  0.00     0.074 A 
ATOM     22  C   UNL A   1      38.667  34.279  33.755  1.00  0.00     0.031 C 
ATOM     23  C   UNL A   1      38.325  29.588  28.690  1.00  0.00     0.029 A 
ATOM     24  C   UNL A   1      39.458  29.428  29.593  1.00  0.00     0.049 A 
ATOM     25  H   UNL A   1      40.015  30.669  31.171  1.00  0.00     0.167 HD
ATOM     26  C   UNL A   1      40.686  33.249  34.748  1.00  0.00     0.031 A 
ATOM     27  C   UNL A   1      40.361  28.431  29.557  1.00  0.00     0.031 A 
ATOM     28  C   UNL A   1      41.745  32.279  34.745  1.00  0.00     0.049 A 
ATOM     29  C   UNL A   1      41.465  28.449  30.578  1.00  0.00     0.074 A 
ATOM     30  C   UNL A   1      42.814  32.157  35.612  1.00  0.00     0.029 A 
ATOM     31  N   UNL A   1      41.860  31.255  33.813  1.00  0.00    -0.354 N 
ATOM     32  N   UNL A   1      41.640  29.266  31.590  1.00  0.00    -0.248 NA
ATOM     33  C   UNL A   1      42.500  27.416  30.448  1.00  0.00     0.031 C 
ATOM     34  C   UNL A   1      43.602  31.086  35.174  1.00  0.00     0.029 A 
ATOM     35  C   UNL A   1      42.991  30.505  34.073  1.00  0.00     0.049 A 
ATOM     36  H   UNL A   1      41.228  31.088  33.078  1.00  0.00     0.167 HD
ATOM     37  C   UNL A   1      42.792  28.834  32.233  1.00  0.00     0.074 A 
ATOM     38  C   UNL A   1      43.260  27.670  31.504  1.00  0.00     0.031 C 
ATOM     39  C   UNL A   1      43.413  29.350  33.322  1.00  0.00     0.031 A 
BRANCH  26  40
ATOM     40  C   UNL A   1      40.656  34.324  35.796  1.00  0.00    -0.014 A 
ATOM     41  C   UNL A   1      39.924  34.178  36.986  1.00  0.00     0.009 A 
ATOM     42  C   UNL A   1      41.330  35.531  35.557  1.00  0.00     0.009 A 
ATOM     43  C   UNL A   1      39.832  35.238  37.892  1.00  0.00     0.001 A 
ATOM     44  C   UNL A   1      41.259  36.578  36.477  1.00  0.00     0.001 A 
ATOM     45  C   UNL A   1      40.499  36.437  37.637  1.00  0.00     0.000 A 
ENDBRANCH  26  40
BRANCH  27  46
ATOM     46  C   UNL A   1      40.288  27.379  28.508  1.00  0.00    -0.014 A 
ATOM     47  C   UNL A   1      40.899  27.556  27.258  1.00  0.00     0.009 A 
ATOM     48  C   UNL A   1      39.584  26.186  28.750  1.00  0.00     0.009 A 
ATOM     49  C   UNL A   1      40.785  26.575  26.267  1.00  0.00     0.001 A 
ATOM     50  C   UNL A   1      39.498  25.196  27.770  1.00  0.00     0.001 A 
ATOM     51  C   UNL A   1      40.089  25.395  26.525  1.00  0.00     0.000 A 
ENDBRANCH  27  46
BRANCH  39  52
ATOM     52  C   UNL A   1      44.632  28.623  33.808  1.00  0.00    -0.014 A 
ATOM     53  C   UNL A   1      44.536  27.566  34.726  1.00  0.00     0.009 A 
ATOM     54  C   UNL A   1      45.893  28.982  33.305  1.00  0.00     0.009 A 
ATOM     55  C   UNL A   1      45.685  26.906  35.159  1.00  0.00     0.001 A 
ATOM     56  C   UNL A   1      47.036  28.299  33.717  1.00  0.00     0.001 A 
ATOM     57  C   UNL A   1      46.933  27.269  34.650  1.00  0.00     0.000 A 
ENDBRANCH  39  52
ENDBRANCH  13  14
ENDBRANCH   6   8
ENDBRANCH   5   6
ENDBRANCH   4   5
ENDBRANCH   3   4
ENDBRANCH   2   3
ENDBRANCH   1   2
BRANCH   1  58
ATOM     58  C   UNL A   1      33.399  28.862  25.622  1.00  0.00     0.261 C 
BRANCH  58  59
ATOM     59  O   UNL A   1      32.646  29.456  24.555  1.00  0.00    -0.460 OA
BRANCH  59  60
ATOM     60  C   UNL A   1      32.523  28.684  23.445  1.00  0.00     0.338 C 
ATOM     61  O   UNL A   1      33.329  28.535  22.543  1.00  0.00    -0.246 OA
BRANCH  60  62
ATOM     62  C   UNL A   1      31.316  27.854  23.623  1.00  0.00     0.062 A 
ATOM     63  C   UNL A   1      30.065  28.472  23.570  1.00  0.00     0.016 A 
ATOM     64  C   UNL A   1      31.418  26.469  23.765  1.00  0.00     0.041 A 
ATOM     65  C   UNL A   1      28.915  27.689  23.560  1.00  0.00     0.003 A 
ATOM     66  C   UNL A   1      30.266  25.681  23.865  1.00  0.00     0.041 A 
ATOM     67  C   UNL A   1      29.020  26.302  23.691  1.00  0.00     0.026 A 
BRANCH  66  68
ATOM     68  N   UNL A   1      30.423  24.310  24.141  1.00  0.00    -0.332 N 
ATOM     69  H   UNL A   1      29.790  23.692  23.710  1.00  0.00     0.169 HD
BRANCH  68  70
ATOM     70  C   UNL A   1      31.364  23.765  24.941  1.00  0.00     0.187 A 
ATOM     71  N   UNL A   1      32.586  23.428  24.592  1.00  0.00    -0.220 NA
ATOM     72  S   UNL A   1      30.977  23.464  26.598  1.00  0.00    -0.105 S 
ATOM     73  C   UNL A   1      33.274  22.937  25.681  1.00  0.00     0.086 A 
ATOM     74  C   UNL A   1      32.533  22.791  26.835  1.00  0.00     0.097 A 
BRANCH  73  75
ATOM     75  C   UNL A   1      34.689  22.652  25.612  1.00  0.00     0.037 A 
ATOM     76  C   UNL A   1      35.642  23.653  25.842  1.00  0.00     0.016 A 
ATOM     77  C   UNL A   1      35.116  21.360  25.280  1.00  0.00     0.135 A 
ATOM     78  C   UNL A   1      37.002  23.352  25.729  1.00  0.00     0.040 A 
ATOM     79  C   UNL A   1      36.468  21.058  25.164  1.00  0.00     0.079 A 
ATOM     80  F   UNL A   1      34.225  20.389  25.026  1.00  0.00    -0.206 F 
ATOM     81  C   UNL A   1      37.399  22.059  25.389  1.00  0.00     0.126 A 
ATOM     82  F   UNL A   1      38.704  21.784  25.270  1.00  0.00    -0.207 F 
ENDBRANCH  73  75
ENDBRANCH  68  70
ENDBRANCH  66  68
ENDBRANCH  60  62
ENDBRANCH  59  60
ENDBRANCH  58  59
ENDBRANCH   1  58
TORSDOF 17
ENDMDL
MODEL 3
REMARK VINA RESULT:     -10.9      2.867      4.415
REMARK SMILES O=C(OCCOCCOC(=O)c1cccc(Nc2nc(-c3ccc(F)cc3F)cs2)c1)c1ccc(-c2c3nc(c(-c4ccccc4)c4ccc([nH]4)c(-c4ccccc4)c4nc(c(-c5ccccc5)c5ccc2[nH]5)C=C4)C=C3)cc1
REMARK SMILES IDX 7 1 6 2 5 3 4 4 3 5 2 6 1 7 32 8 33 9 79 10 34 11 78 12
REMARK SMILES IDX 35 13 36 14 37 15 72 16 38 17 77 18 71 19 73 20 39 21 76 22
REMARK SMILES IDX 70 23 69 24 40 26 62 27 47 28 61 29 48 30 51 31 60 32 74 33
REMARK SMILES IDX 49 34 50 35 59 37 75 38 52 39 41 40 42 41 46 42 43 43 45 44
REMARK SMILES IDX 44 45 63 46 64 47 68 48 65 49 67 50 66 51 53 52 54 53 58 54
REMARK SMILES IDX 55 55 57 56 56 57 8 58 9 59 10 60 11 61 12 62 13 63 31 64
REMARK SMILES IDX 14 65 16 66 15 67 17 68 18 70 19 71 30 72 20 73 29 74 21 75
REMARK SMILES IDX 22 76 27 77 23 78 26 79 28 80 24 81 25 82
REMARK H PARENT 73 25 51 36 17 69
REMARK Flexibility Score: inf
ROOT
ATOM      1  C   UNL A   1      40.527  20.405  26.505  1.00  0.00     0.202 C 
ENDROOT
BRANCH   1   2
ATOM      2  O   UNL A   1      41.914  20.622  26.784  1.00  0.00    -0.374 OA
BRANCH   2   3
ATOM      3  C   UNL A   1      42.826  20.153  25.790  1.00  0.00     0.202 C 
BRANCH   3   4
ATOM      4  C   UNL A   1      43.865  21.189  25.355  1.00  0.00     0.261 C 
BRANCH   4   5
ATOM      5  O   UNL A   1      43.226  22.425  25.000  1.00  0.00    -0.460 OA
BRANCH   5   6
ATOM      6  C   UNL A   1      43.634  23.689  25.257  1.00  0.00     0.338 C 
ATOM      7  O   UNL A   1      44.383  24.238  24.451  1.00  0.00    -0.246 OA
BRANCH   6   8
ATOM      8  C   UNL A   1      43.209  24.479  26.454  1.00  0.00     0.060 A 
ATOM      9  C   UNL A   1      42.498  23.974  27.544  1.00  0.00     0.016 A 
ATOM     10  C   UNL A   1      43.626  25.821  26.511  1.00  0.00     0.016 A 
ATOM     11  C   UNL A   1      42.143  24.774  28.616  1.00  0.00     0.010 A 
ATOM     12  C   UNL A   1      43.305  26.631  27.605  1.00  0.00     0.010 A 
ATOM     13  C   UNL A   1      42.533  26.108  28.647  1.00  0.00    -0.014 A 
BRANCH  13  14
ATOM     14  C   UNL A   1      41.971  26.942  29.721  1.00  0.00     0.031 A 
ATOM     15  C   UNL A   1      42.774  27.105  30.974  1.00  0.00     0.074 A 
ATOM     16  C   UNL A   1      40.870  27.676  29.481  1.00  0.00     0.049 A 
ATOM     17  N   UNL A   1      42.525  27.836  32.027  1.00  0.00    -0.248 NA
ATOM     18  C   UNL A   1      44.046  26.363  31.040  1.00  0.00     0.031 C 
ATOM     19  C   UNL A   1      40.116  27.680  28.224  1.00  0.00     0.029 A 
ATOM     20  N   UNL A   1      40.229  28.599  30.259  1.00  0.00    -0.354 N 
ATOM     21  C   UNL A   1      43.591  27.618  32.890  1.00  0.00     0.074 A 
ATOM     22  C   UNL A   1      44.489  26.689  32.244  1.00  0.00     0.031 C 
ATOM     23  C   UNL A   1      39.139  28.597  28.304  1.00  0.00     0.029 A 
ATOM     24  C   UNL A   1      39.160  29.194  29.634  1.00  0.00     0.049 A 
ATOM     25  H   UNL A   1      40.506  28.816  31.179  1.00  0.00     0.167 HD
ATOM     26  C   UNL A   1      43.791  28.142  34.121  1.00  0.00     0.031 A 
ATOM     27  C   UNL A   1      38.291  30.108  30.102  1.00  0.00     0.031 A 
ATOM     28  C   UNL A   1      42.872  29.054  34.743  1.00  0.00     0.049 A 
ATOM     29  C   UNL A   1      38.481  30.598  31.511  1.00  0.00     0.074 A 
ATOM     30  C   UNL A   1      42.914  29.598  36.013  1.00  0.00     0.029 A 
ATOM     31  N   UNL A   1      41.735  29.557  34.123  1.00  0.00    -0.354 N 
ATOM     32  N   UNL A   1      39.449  30.329  32.355  1.00  0.00    -0.248 NA
ATOM     33  C   UNL A   1      37.456  31.507  32.036  1.00  0.00     0.031 C 
ATOM     34  C   UNL A   1      41.773  30.393  36.177  1.00  0.00     0.029 A 
ATOM     35  C   UNL A   1      41.056  30.392  34.989  1.00  0.00     0.049 A 
ATOM     36  H   UNL A   1      41.455  29.349  33.203  1.00  0.00     0.167 HD
ATOM     37  C   UNL A   1      39.164  31.052  33.504  1.00  0.00     0.074 A 
ATOM     38  C   UNL A   1      37.942  31.787  33.238  1.00  0.00     0.031 C 
ATOM     39  C   UNL A   1      39.844  31.107  34.676  1.00  0.00     0.031 A 
BRANCH  26  40
ATOM     40  C   UNL A   1      44.989  27.650  34.880  1.00  0.00    -0.014 A 
ATOM     41  C   UNL A   1      46.235  28.292  34.795  1.00  0.00     0.009 A 
ATOM     42  C   UNL A   1      44.878  26.483  35.651  1.00  0.00     0.009 A 
ATOM     43  C   UNL A   1      47.354  27.748  35.431  1.00  0.00     0.001 A 
ATOM     44  C   UNL A   1      45.992  25.957  36.307  1.00  0.00     0.001 A 
ATOM     45  C   UNL A   1      47.232  26.581  36.186  1.00  0.00     0.000 A 
ENDBRANCH  26  40
BRANCH  27  46
ATOM     46  C   UNL A   1      37.156  30.576  29.262  1.00  0.00    -0.014 A 
ATOM     47  C   UNL A   1      36.105  29.713  28.916  1.00  0.00     0.009 A 
ATOM     48  C   UNL A   1      37.127  31.897  28.783  1.00  0.00     0.009 A 
ATOM     49  C   UNL A   1      35.067  30.155  28.089  1.00  0.00     0.001 A 
ATOM     50  C   UNL A   1      36.073  32.344  27.983  1.00  0.00     0.001 A 
ATOM     51  C   UNL A   1      35.049  31.470  27.628  1.00  0.00     0.000 A 
ENDBRANCH  27  46
BRANCH  39  52
ATOM     52  C   UNL A   1      39.298  32.027  35.728  1.00  0.00    -0.014 A 
ATOM     53  C   UNL A   1      39.713  33.365  35.815  1.00  0.00     0.009 A 
ATOM     54  C   UNL A   1      38.324  31.552  36.620  1.00  0.00     0.009 A 
ATOM     55  C   UNL A   1      39.187  34.199  36.801  1.00  0.00     0.001 A 
ATOM     56  C   UNL A   1      37.778  32.397  37.584  1.00  0.00     0.001 A 
ATOM     57  C   UNL A   1      38.218  33.716  37.680  1.00  0.00     0.000 A 
ENDBRANCH  39  52
ENDBRANCH  13  14
ENDBRANCH   6   8
ENDBRANCH   5   6
ENDBRANCH   4   5
ENDBRANCH   3   4
ENDBRANCH   2   3
ENDBRANCH   1   2
BRANCH   1  58
ATOM     58  C   UNL A   1      39.794  21.748  26.448  1.00  0.00     0.261 C 
BRANCH  58  59
ATOM     59  O   UNL A   1      38.587  21.582  25.691  1.00  0.00    -0.460 OA
BRANCH  59  60
ATOM     60  C   UNL A   1      37.772  22.667  25.671  1.00  0.00     0.338 C 
ATOM     61  O   UNL A   1      38.062  23.826  25.910  1.00  0.00    -0.246 OA
BRANCH  60  62
ATOM     62  C   UNL A   1      36.491  22.239  25.075  1.00  0.00     0.062 A 
ATOM     63  C   UNL A   1      35.899  21.062  25.535  1.00  0.00     0.016 A 
ATOM     64  C   UNL A   1      35.846  23.034  24.125  1.00  0.00     0.041 A 
ATOM     65  C   UNL A   1      34.614  20.733  25.116  1.00  0.00     0.003 A 
ATOM     66  C   UNL A   1      34.599  22.656  23.615  1.00  0.00     0.041 A 
ATOM     67  C   UNL A   1      33.966  21.537  24.174  1.00  0.00     0.026 A 
BRANCH  66  68
ATOM     68  N   UNL A   1      34.054  23.419  22.566  1.00  0.00    -0.332 N 
ATOM     69  H   UNL A   1      34.198  23.087  21.650  1.00  0.00     0.169 HD
BRANCH  68  70
ATOM     70  C   UNL A   1      33.351  24.564  22.700  1.00  0.00     0.187 A 
ATOM     71  N   UNL A   1      33.225  25.278  23.796  1.00  0.00    -0.220 NA
ATOM     72  S   UNL A   1      32.518  25.197  21.326  1.00  0.00    -0.105 S 
ATOM     73  C   UNL A   1      32.464  26.401  23.548  1.00  0.00     0.086 A 
ATOM     74  C   UNL A   1      31.913  26.477  22.287  1.00  0.00     0.097 A 
BRANCH  73  75
ATOM     75  C   UNL A   1      32.313  27.442  24.539  1.00  0.00     0.037 A 
ATOM     76  C   UNL A   1      31.554  27.235  25.697  1.00  0.00     0.016 A 
ATOM     77  C   UNL A   1      32.913  28.690  24.324  1.00  0.00     0.135 A 
ATOM     78  C   UNL A   1      31.397  28.276  26.617  1.00  0.00     0.040 A 
ATOM     79  C   UNL A   1      32.757  29.728  25.235  1.00  0.00     0.079 A 
ATOM     80  F   UNL A   1      33.622  28.926  23.209  1.00  0.00    -0.206 F 
ATOM     81  C   UNL A   1      31.997  29.510  26.375  1.00  0.00     0.126 A 
ATOM     82  F   UNL A   1      31.830  30.505  27.255  1.00  0.00    -0.207 F 
ENDBRANCH  73  75
ENDBRANCH  68  70
ENDBRANCH  66  68
ENDBRANCH  60  62
ENDBRANCH  59  60
ENDBRANCH  58  59
ENDBRANCH   1  58
TORSDOF 17
ENDMDL
