MODEL 1
REMARK VINA RESULT:     -12.4      0.000      0.000
REMARK SMILES C[C@H](C(=O)OCCOCCOC(=O)c1ccc(-c2c3nc(c(-c4ccccc4)c4ccc([nH]4)c(-c4ccccc4)c4nc(c(-c5ccccc5)c5ccc2[nH]5)C=C4)C=C3)cc1)c1ccc2c3cc(Cl)ccc3n(C(=O)c3ccc(Cl)cc3)c2c1
REMARK SMILES IDX 7 1 6 2 5 3 3 4 4 5 2 6 1 7 62 8 63 9 84 10 64 11 83 12
REMARK SMILES IDX 65 13 73 14 66 15 72 16 67 17 71 18 68 19 70 20 69 21 74 22
REMARK SMILES IDX 75 23 76 24 77 25 82 26 78 27 81 28 79 29 80 30 8 31 9 32
REMARK SMILES IDX 10 33 11 34 12 35 13 36 14 37 15 38 61 39 16 40 60 41 17 42
REMARK SMILES IDX 18 43 19 44 54 45 20 46 59 47 53 48 55 49 21 50 58 51 52 52
REMARK SMILES IDX 51 53 22 55 44 56 29 57 43 58 30 59 33 60 42 61 56 62 31 63
REMARK SMILES IDX 32 64 41 66 57 67 34 68 23 69 24 70 28 71 25 72 27 73 26 74
REMARK SMILES IDX 45 75 46 76 50 77 47 78 49 79 48 80 35 81 36 82 40 83 37 84
REMARK SMILES IDX 39 85 38 86
REMARK H PARENT 55 54 33 65
REMARK Flexibility Score: inf
ROOT
ATOM      1  C   UNL A   1      33.642  19.726  25.271  1.00  0.00     0.202 C 
ENDROOT
BRANCH   1   2
ATOM      2  C   UNL A   1      32.425  19.655  24.343  1.00  0.00     0.261 C 
BRANCH   2   3
ATOM      3  O   UNL A   1      32.457  20.683  23.344  1.00  0.00    -0.463 OA
BRANCH   3   4
ATOM      4  C   UNL A   1      32.354  21.959  23.811  1.00  0.00     0.313 C 
ATOM      5  O   UNL A   1      31.549  22.329  24.659  1.00  0.00    -0.252 OA
BRANCH   4   6
ATOM      6  C   UNL A   1      33.387  22.896  23.176  1.00  0.00     0.126 C 
ATOM      7  C   UNL A   1      33.140  23.235  21.705  1.00  0.00     0.025 C 
BRANCH   6   8
ATOM      8  C   UNL A   1      33.532  24.170  23.977  1.00  0.00    -0.032 A 
ATOM      9  C   UNL A   1      34.591  24.353  24.866  1.00  0.00     0.005 A 
ATOM     10  C   UNL A   1      32.582  25.183  23.811  1.00  0.00     0.032 A 
ATOM     11  C   UNL A   1      34.721  25.553  25.578  1.00  0.00     0.011 A 
ATOM     12  C   UNL A   1      32.645  26.317  24.627  1.00  0.00     0.057 A 
ATOM     13  C   UNL A   1      33.732  26.553  25.450  1.00  0.00     0.008 A 
ATOM     14  N   UNL A   1      31.709  27.341  24.792  1.00  0.00    -0.276 N 
ATOM     15  C   UNL A   1      33.553  27.853  25.992  1.00  0.00     0.009 A 
ATOM     16  C   UNL A   1      32.275  28.311  25.625  1.00  0.00     0.057 A 
ATOM     17  C   UNL A   1      34.378  28.652  26.811  1.00  0.00     0.031 A 
ATOM     18  C   UNL A   1      31.762  29.499  26.177  1.00  0.00     0.029 A 
ATOM     19  C   UNL A   1      33.893  29.865  27.287  1.00  0.00     0.041 A 
ATOM     20  C   UNL A   1      32.597  30.273  26.996  1.00  0.00     0.023 A 
ATOM     21  Cl  UNL A   1      34.905  30.850  28.272  1.00  0.00    -0.084 Cl
BRANCH  14  22
ATOM     22  C   UNL A   1      30.400  27.243  24.255  1.00  0.00     0.262 C 
ATOM     23  O   UNL A   1      29.789  26.210  24.543  1.00  0.00    -0.268 OA
BRANCH  22  24
ATOM     24  C   UNL A   1      29.684  28.162  23.330  1.00  0.00     0.040 A 
ATOM     25  C   UNL A   1      30.487  28.984  22.508  1.00  0.00     0.015 A 
ATOM     26  C   UNL A   1      28.303  28.364  23.330  1.00  0.00     0.015 A 
ATOM     27  C   UNL A   1      29.928  29.968  21.693  1.00  0.00     0.021 A 
ATOM     28  C   UNL A   1      27.738  29.332  22.484  1.00  0.00     0.021 A 
ATOM     29  C   UNL A   1      28.550  30.132  21.677  1.00  0.00     0.041 A 
ATOM     30  Cl  UNL A   1      27.850  31.345  20.681  1.00  0.00    -0.084 Cl
ENDBRANCH  22  24
ENDBRANCH  14  22
ENDBRANCH   6   8
ENDBRANCH   4   6
ENDBRANCH   3   4
ENDBRANCH   2   3
ENDBRANCH   1   2
BRANCH   1  31
ATOM     31  O   UNL A   1      34.938  19.718  24.679  1.00  0.00    -0.374 OA
BRANCH  31  32
ATOM     32  C   UNL A   1      35.921  20.639  25.141  1.00  0.00     0.202 C 
BRANCH  32  33
ATOM     33  C   UNL A   1      37.400  20.271  24.978  1.00  0.00     0.261 C 
BRANCH  33  34
ATOM     34  O   UNL A   1      38.290  21.389  25.141  1.00  0.00    -0.460 OA
BRANCH  34  35
ATOM     35  C   UNL A   1      39.303  21.171  26.010  1.00  0.00     0.338 C 
ATOM     36  O   UNL A   1      39.965  20.148  26.137  1.00  0.00    -0.246 OA
BRANCH  35  37
ATOM     37  C   UNL A   1      39.658  22.408  26.723  1.00  0.00     0.060 A 
ATOM     38  C   UNL A   1      38.994  23.580  26.340  1.00  0.00     0.016 A 
ATOM     39  C   UNL A   1      40.710  22.453  27.641  1.00  0.00     0.016 A 
ATOM     40  C   UNL A   1      39.421  24.812  26.822  1.00  0.00     0.010 A 
ATOM     41  C   UNL A   1      41.144  23.696  28.118  1.00  0.00     0.010 A 
ATOM     42  C   UNL A   1      40.531  24.882  27.675  1.00  0.00    -0.014 A 
BRANCH  42  43
ATOM     43  C   UNL A   1      41.141  26.205  27.951  1.00  0.00     0.031 A 
ATOM     44  C   UNL A   1      42.480  26.534  27.349  1.00  0.00     0.074 A 
ATOM     45  C   UNL A   1      40.482  27.130  28.671  1.00  0.00     0.049 A 
ATOM     46  N   UNL A   1      43.187  27.631  27.446  1.00  0.00    -0.248 NA
ATOM     47  C   UNL A   1      43.104  25.488  26.522  1.00  0.00     0.031 C 
ATOM     48  C   UNL A   1      39.155  26.958  29.259  1.00  0.00     0.029 A 
ATOM     49  N   UNL A   1      40.845  28.407  29.021  1.00  0.00    -0.354 N 
ATOM     50  C   UNL A   1      44.338  27.407  26.699  1.00  0.00     0.074 A 
ATOM     51  C   UNL A   1      44.250  26.059  26.182  1.00  0.00     0.031 C 
ATOM     52  C   UNL A   1      38.815  28.088  29.902  1.00  0.00     0.029 A 
ATOM     53  C   UNL A   1      39.911  29.049  29.797  1.00  0.00     0.049 A 
ATOM     54  H   UNL A   1      41.693  28.821  28.744  1.00  0.00     0.167 HD
ATOM     55  C   UNL A   1      45.371  28.249  26.458  1.00  0.00     0.031 A 
ATOM     56  C   UNL A   1      39.945  30.266  30.372  1.00  0.00     0.031 A 
ATOM     57  C   UNL A   1      45.467  29.585  26.981  1.00  0.00     0.049 A 
ATOM     58  C   UNL A   1      41.145  31.152  30.160  1.00  0.00     0.074 A 
ATOM     59  C   UNL A   1      46.472  30.517  26.788  1.00  0.00     0.029 A 
ATOM     60  N   UNL A   1      44.525  30.178  27.808  1.00  0.00    -0.354 N 
ATOM     61  N   UNL A   1      42.217  30.934  29.439  1.00  0.00    -0.248 NA
ATOM     62  C   UNL A   1      41.131  32.456  30.838  1.00  0.00     0.031 C 
ATOM     63  C   UNL A   1      46.166  31.653  27.543  1.00  0.00     0.029 A 
ATOM     64  C   UNL A   1      44.940  31.452  28.156  1.00  0.00     0.049 A 
ATOM     65  H   UNL A   1      43.686  29.756  28.103  1.00  0.00     0.167 HD
ATOM     66  C   UNL A   1      42.992  32.081  29.553  1.00  0.00     0.074 A 
ATOM     67  C   UNL A   1      42.259  32.999  30.400  1.00  0.00     0.031 C 
ATOM     68  C   UNL A   1      44.201  32.353  29.004  1.00  0.00     0.031 A 
BRANCH  55  69
ATOM     69  C   UNL A   1      46.502  27.731  25.615  1.00  0.00    -0.014 A 
ATOM     70  C   UNL A   1      46.585  28.024  24.244  1.00  0.00     0.009 A 
ATOM     71  C   UNL A   1      47.516  26.963  26.208  1.00  0.00     0.009 A 
ATOM     72  C   UNL A   1      47.645  27.531  23.479  1.00  0.00     0.001 A 
ATOM     73  C   UNL A   1      48.589  26.495  25.447  1.00  0.00     0.001 A 
ATOM     74  C   UNL A   1      48.648  26.772  24.082  1.00  0.00     0.000 A 
ENDBRANCH  55  69
BRANCH  56  75
ATOM     75  C   UNL A   1      38.817  30.714  31.229  1.00  0.00    -0.014 A 
ATOM     76  C   UNL A   1      37.774  31.488  30.699  1.00  0.00     0.009 A 
ATOM     77  C   UNL A   1      38.789  30.380  32.593  1.00  0.00     0.009 A 
ATOM     78  C   UNL A   1      36.739  31.938  31.523  1.00  0.00     0.001 A 
ATOM     79  C   UNL A   1      37.739  30.806  33.406  1.00  0.00     0.001 A 
ATOM     80  C   UNL A   1      36.720  31.593  32.873  1.00  0.00     0.000 A 
ENDBRANCH  56  75
BRANCH  68  81
ATOM     81  C   UNL A   1      44.794  33.709  29.272  1.00  0.00    -0.014 A 
ATOM     82  C   UNL A   1      45.603  33.943  30.395  1.00  0.00     0.009 A 
ATOM     83  C   UNL A   1      44.572  34.756  28.364  1.00  0.00     0.009 A 
ATOM     84  C   UNL A   1      46.151  35.209  30.618  1.00  0.00     0.001 A 
ATOM     85  C   UNL A   1      45.144  36.012  28.574  1.00  0.00     0.001 A 
ATOM     86  C   UNL A   1      45.925  36.240  29.706  1.00  0.00     0.000 A 
ENDBRANCH  68  81
ENDBRANCH  42  43
ENDBRANCH  35  37
ENDBRANCH  34  35
ENDBRANCH  33  34
ENDBRANCH  32  33
ENDBRANCH  31  32
ENDBRANCH   1  31
TORSDOF 17
ENDMDL
MODEL 2
REMARK VINA RESULT:     -12.3      0.318      5.603
REMARK SMILES C[C@H](C(=O)OCCOCCOC(=O)c1ccc(-c2c3nc(c(-c4ccccc4)c4ccc([nH]4)c(-c4ccccc4)c4nc(c(-c5ccccc5)c5ccc2[nH]5)C=C4)C=C3)cc1)c1ccc2c3cc(Cl)ccc3n(C(=O)c3ccc(Cl)cc3)c2c1
REMARK SMILES IDX 7 1 6 2 5 3 3 4 4 5 2 6 1 7 62 8 63 9 84 10 64 11 83 12
REMARK SMILES IDX 65 13 73 14 66 15 72 16 67 17 71 18 68 19 70 20 69 21 74 22
REMARK SMILES IDX 75 23 76 24 77 25 82 26 78 27 81 28 79 29 80 30 8 31 9 32
REMARK SMILES IDX 10 33 11 34 12 35 13 36 14 37 15 38 61 39 16 40 60 41 17 42
REMARK SMILES IDX 18 43 19 44 54 45 20 46 59 47 53 48 55 49 21 50 58 51 52 52
REMARK SMILES IDX 51 53 22 55 44 56 29 57 43 58 30 59 33 60 42 61 56 62 31 63
REMARK SMILES IDX 32 64 41 66 57 67 34 68 23 69 24 70 28 71 25 72 27 73 26 74
REMARK SMILES IDX 45 75 46 76 50 77 47 78 49 79 48 80 35 81 36 82 40 83 37 84
REMARK SMILES IDX 39 85 38 86
REMARK H PARENT 55 54 33 65
REMARK Flexibility Score: inf
ROOT
ATOM      1  C   UNL A   1      33.533  19.780  25.342  1.00  0.00     0.202 C 
ENDROOT
BRANCH   1   2
ATOM      2  C   UNL A   1      32.290  19.686  24.452  1.00  0.00     0.261 C 
BRANCH   2   3
ATOM      3  O   UNL A   1      32.282  20.701  23.439  1.00  0.00    -0.463 OA
BRANCH   3   4
ATOM      4  C   UNL A   1      32.215  21.984  23.895  1.00  0.00     0.313 C 
ATOM      5  O   UNL A   1      31.420  22.384  24.738  1.00  0.00    -0.252 OA
BRANCH   4   6
ATOM      6  C   UNL A   1      33.274  22.885  23.252  1.00  0.00     0.126 C 
ATOM      7  C   UNL A   1      33.052  23.197  21.771  1.00  0.00     0.025 C 
BRANCH   6   8
ATOM      8  C   UNL A   1      33.436  24.174  24.026  1.00  0.00    -0.032 A 
ATOM      9  C   UNL A   1      34.489  24.355  24.922  1.00  0.00     0.005 A 
ATOM     10  C   UNL A   1      32.508  25.201  23.829  1.00  0.00     0.032 A 
ATOM     11  C   UNL A   1      34.636  25.567  25.610  1.00  0.00     0.011 A 
ATOM     12  C   UNL A   1      32.584  26.350  24.620  1.00  0.00     0.057 A 
ATOM     13  C   UNL A   1      33.667  26.583  25.450  1.00  0.00     0.008 A 
ATOM     14  N   UNL A   1      31.668  27.396  24.754  1.00  0.00    -0.276 N 
ATOM     15  C   UNL A   1      33.509  27.898  25.962  1.00  0.00     0.009 A 
ATOM     16  C   UNL A   1      32.243  28.373  25.571  1.00  0.00     0.057 A 
ATOM     17  C   UNL A   1      34.341  28.699  26.772  1.00  0.00     0.031 A 
ATOM     18  C   UNL A   1      31.749  29.583  26.092  1.00  0.00     0.029 A 
ATOM     19  C   UNL A   1      33.875  29.932  27.216  1.00  0.00     0.041 A 
ATOM     20  C   UNL A   1      32.590  30.358  26.903  1.00  0.00     0.023 A 
ATOM     21  Cl  UNL A   1      34.896  30.918  28.190  1.00  0.00    -0.084 Cl
BRANCH  14  22
ATOM     22  C   UNL A   1      30.362  27.312  24.205  1.00  0.00     0.262 C 
ATOM     23  O   UNL A   1      29.740  26.282  24.483  1.00  0.00    -0.268 OA
BRANCH  22  24
ATOM     24  C   UNL A   1      29.662  28.241  23.278  1.00  0.00     0.040 A 
ATOM     25  C   UNL A   1      30.478  29.040  22.448  1.00  0.00     0.015 A 
ATOM     26  C   UNL A   1      28.286  28.473  23.284  1.00  0.00     0.015 A 
ATOM     27  C   UNL A   1      29.937  30.032  21.630  1.00  0.00     0.021 A 
ATOM     28  C   UNL A   1      27.737  29.449  22.435  1.00  0.00     0.021 A 
ATOM     29  C   UNL A   1      28.563  30.226  21.620  1.00  0.00     0.041 A 
ATOM     30  Cl  UNL A   1      27.884  31.449  20.620  1.00  0.00    -0.084 Cl
ENDBRANCH  22  24
ENDBRANCH  14  22
ENDBRANCH   6   8
ENDBRANCH   4   6
ENDBRANCH   3   4
ENDBRANCH   2   3
ENDBRANCH   1   2
BRANCH   1  31
ATOM     31  O   UNL A   1      34.812  19.691  24.719  1.00  0.00    -0.374 OA
BRANCH  31  32
ATOM     32  C   UNL A   1      35.825  20.627  25.072  1.00  0.00     0.202 C 
BRANCH  32  33
ATOM     33  C   UNL A   1      37.287  20.166  25.038  1.00  0.00     0.261 C 
BRANCH  33  34
ATOM     34  O   UNL A   1      38.231  21.249  25.106  1.00  0.00    -0.460 OA
BRANCH  34  35
ATOM     35  C   UNL A   1      39.259  21.038  25.958  1.00  0.00     0.338 C 
ATOM     36  O   UNL A   1      39.889  19.998  26.119  1.00  0.00    -0.246 OA
BRANCH  35  37
ATOM     37  C   UNL A   1      39.679  22.295  26.597  1.00  0.00     0.060 A 
ATOM     38  C   UNL A   1      39.109  23.480  26.113  1.00  0.00     0.016 A 
ATOM     39  C   UNL A   1      40.703  22.333  27.546  1.00  0.00     0.016 A 
ATOM     40  C   UNL A   1      39.607  24.711  26.525  1.00  0.00     0.010 A 
ATOM     41  C   UNL A   1      41.208  23.574  27.952  1.00  0.00     0.010 A 
ATOM     42  C   UNL A   1      40.693  24.765  27.409  1.00  0.00    -0.014 A 
BRANCH  42  43
ATOM     43  C   UNL A   1      41.385  26.060  27.615  1.00  0.00     0.031 A 
ATOM     44  C   UNL A   1      40.722  27.118  28.456  1.00  0.00     0.074 A 
ATOM     45  C   UNL A   1      42.617  26.269  27.120  1.00  0.00     0.049 A 
ATOM     46  N   UNL A   1      41.152  28.311  28.778  1.00  0.00    -0.248 NA
ATOM     47  C   UNL A   1      39.401  26.783  29.012  1.00  0.00     0.031 C 
ATOM     48  C   UNL A   1      43.391  25.305  26.340  1.00  0.00     0.029 A 
ATOM     49  N   UNL A   1      43.436  27.367  27.211  1.00  0.00    -0.354 N 
ATOM     50  C   UNL A   1      40.156  28.871  29.569  1.00  0.00     0.074 A 
ATOM     51  C   UNL A   1      39.085  27.900  29.651  1.00  0.00     0.031 C 
ATOM     52  C   UNL A   1      44.575  25.855  26.019  1.00  0.00     0.029 A 
ATOM     53  C   UNL A   1      44.628  27.219  26.545  1.00  0.00     0.049 A 
ATOM     54  H   UNL A   1      43.193  28.182  27.705  1.00  0.00     0.167 HD
ATOM     55  C   UNL A   1      40.134  30.080  30.180  1.00  0.00     0.031 A 
ATOM     56  C   UNL A   1      45.638  28.090  26.363  1.00  0.00     0.031 A 
ATOM     57  C   UNL A   1      41.191  31.052  30.090  1.00  0.00     0.049 A 
ATOM     58  C   UNL A   1      45.553  29.461  26.979  1.00  0.00     0.074 A 
ATOM     59  C   UNL A   1      41.264  32.303  30.678  1.00  0.00     0.029 A 
ATOM     60  N   UNL A   1      42.356  30.884  29.359  1.00  0.00    -0.354 N 
ATOM     61  N   UNL A   1      44.614  29.971  27.737  1.00  0.00    -0.248 NA
ATOM     62  C   UNL A   1      46.676  30.374  26.719  1.00  0.00     0.031 C 
ATOM     63  C   UNL A   1      42.448  32.915  30.257  1.00  0.00     0.029 A 
ATOM     64  C   UNL A   1      43.141  32.021  29.458  1.00  0.00     0.049 A 
ATOM     65  H   UNL A   1      42.591  30.077  28.846  1.00  0.00     0.167 HD
ATOM     66  C   UNL A   1      45.043  31.250  28.067  1.00  0.00     0.074 A 
ATOM     67  C   UNL A   1      46.335  31.433  27.440  1.00  0.00     0.031 C 
ATOM     68  C   UNL A   1      44.424  32.190  28.824  1.00  0.00     0.031 A 
BRANCH  55  69
ATOM     69  C   UNL A   1      38.907  30.432  30.973  1.00  0.00    -0.014 A 
ATOM     70  C   UNL A   1      37.927  31.295  30.458  1.00  0.00     0.009 A 
ATOM     71  C   UNL A   1      38.714  29.866  32.243  1.00  0.00     0.009 A 
ATOM     72  C   UNL A   1      36.794  31.609  31.213  1.00  0.00     0.001 A 
ATOM     73  C   UNL A   1      37.567  30.160  32.983  1.00  0.00     0.001 A 
ATOM     74  C   UNL A   1      36.613  31.038  32.471  1.00  0.00     0.000 A 
ENDBRANCH  55  69
BRANCH  56  75
ATOM     75  C   UNL A   1      46.811  27.704  25.536  1.00  0.00    -0.014 A 
ATOM     76  C   UNL A   1      47.938  27.107  26.121  1.00  0.00     0.009 A 
ATOM     77  C   UNL A   1      46.814  27.950  24.154  1.00  0.00     0.009 A 
ATOM     78  C   UNL A   1      49.052  26.786  25.341  1.00  0.00     0.001 A 
ATOM     79  C   UNL A   1      47.917  27.600  23.373  1.00  0.00     0.001 A 
ATOM     80  C   UNL A   1      49.038  27.028  23.968  1.00  0.00     0.000 A 
ENDBRANCH  56  75
BRANCH  68  81
ATOM     81  C   UNL A   1      45.151  33.488  29.046  1.00  0.00    -0.014 A 
ATOM     82  C   UNL A   1      44.963  34.585  28.192  1.00  0.00     0.009 A 
ATOM     83  C   UNL A   1      46.005  33.626  30.152  1.00  0.00     0.009 A 
ATOM     84  C   UNL A   1      45.641  35.784  28.424  1.00  0.00     0.001 A 
ATOM     85  C   UNL A   1      46.659  34.833  30.398  1.00  0.00     0.001 A 
ATOM     86  C   UNL A   1      46.485  35.909  29.527  1.00  0.00     0.000 A 
ENDBRANCH  68  81
ENDBRANCH  42  43
ENDBRANCH  35  37
ENDBRANCH  34  35
ENDBRANCH  33  34
ENDBRANCH  32  33
ENDBRANCH  31  32
ENDBRANCH   1  31
TORSDOF 17
ENDMDL
MODEL 3
REMARK VINA RESULT:     -11.4      3.956      7.992
REMARK SMILES C[C@H](C(=O)OCCOCCOC(=O)c1ccc(-c2c3nc(c(-c4ccccc4)c4ccc([nH]4)c(-c4ccccc4)c4nc(c(-c5ccccc5)c5ccc2[nH]5)C=C4)C=C3)cc1)c1ccc2c3cc(Cl)ccc3n(C(=O)c3ccc(Cl)cc3)c2c1
REMARK SMILES IDX 7 1 6 2 5 3 3 4 4 5 2 6 1 7 62 8 63 9 84 10 64 11 83 12
REMARK SMILES IDX 65 13 73 14 66 15 72 16 67 17 71 18 68 19 70 20 69 21 74 22
REMARK SMILES IDX 75 23 76 24 77 25 82 26 78 27 81 28 79 29 80 30 8 31 9 32
REMARK SMILES IDX 10 33 11 34 12 35 13 36 14 37 15 38 61 39 16 40 60 41 17 42
REMARK SMILES IDX 18 43 19 44 54 45 20 46 59 47 53 48 55 49 21 50 58 51 52 52
REMARK SMILES IDX 51 53 22 55 44 56 29 57 43 58 30 59 33 60 42 61 56 62 31 63
REMARK SMILES IDX 32 64 41 66 57 67 34 68 23 69 24 70 28 71 25 72 27 73 26 74
REMARK SMILES IDX 45 75 46 76 50 77 47 78 49 79 48 80 35 81 36 82 40 83 37 84
REMARK SMILES IDX 39 85 38 86
REMARK H PARENT 55 54 33 65
REMARK Flexibility Score: inf
ROOT
ATOM      1  C   UNL A   1      29.915  28.928  23.368  1.00  0.00     0.202 C 
ENDROOT
BRANCH   1   2
ATOM      2  C   UNL A   1      30.808  27.864  22.722  1.00  0.00     0.261 C 
BRANCH   2   3
ATOM      3  O   UNL A   1      31.117  26.802  23.637  1.00  0.00    -0.463 OA
BRANCH   3   4
ATOM      4  C   UNL A   1      32.386  26.806  24.132  1.00  0.00     0.313 C 
ATOM      5  O   UNL A   1      33.364  27.250  23.542  1.00  0.00    -0.252 OA
BRANCH   4   6
ATOM      6  C   UNL A   1      32.461  26.211  25.542  1.00  0.00     0.126 C 
ATOM      7  C   UNL A   1      31.331  26.627  26.485  1.00  0.00     0.025 C 
BRANCH   6   8
ATOM      8  C   UNL A   1      32.556  24.703  25.494  1.00  0.00    -0.032 A 
ATOM      9  C   UNL A   1      31.573  23.894  26.062  1.00  0.00     0.005 A 
ATOM     10  C   UNL A   1      33.656  24.117  24.860  1.00  0.00     0.032 A 
ATOM     11  C   UNL A   1      31.668  22.499  25.983  1.00  0.00     0.011 A 
ATOM     12  C   UNL A   1      33.810  22.728  24.908  1.00  0.00     0.057 A 
ATOM     13  C   UNL A   1      32.805  21.908  25.390  1.00  0.00     0.008 A 
ATOM     14  N   UNL A   1      34.908  21.946  24.542  1.00  0.00    -0.276 N 
ATOM     15  C   UNL A   1      33.216  20.572  25.135  1.00  0.00     0.009 A 
ATOM     16  C   UNL A   1      34.540  20.602  24.661  1.00  0.00     0.057 A 
ATOM     17  C   UNL A   1      32.563  19.336  25.320  1.00  0.00     0.031 A 
ATOM     18  C   UNL A   1      35.261  19.406  24.498  1.00  0.00     0.029 A 
ATOM     19  C   UNL A   1      33.259  18.157  25.077  1.00  0.00     0.041 A 
ATOM     20  C   UNL A   1      34.595  18.188  24.696  1.00  0.00     0.023 A 
ATOM     21  Cl  UNL A   1      32.458  16.647  25.286  1.00  0.00    -0.084 Cl
BRANCH  14  22
ATOM     22  C   UNL A   1      36.165  22.529  24.236  1.00  0.00     0.262 C 
ATOM     23  O   UNL A   1      36.275  22.970  23.088  1.00  0.00    -0.268 OA
BRANCH  22  24
ATOM     24  C   UNL A   1      37.397  22.614  25.065  1.00  0.00     0.040 A 
ATOM     25  C   UNL A   1      38.131  21.419  25.232  1.00  0.00     0.015 A 
ATOM     26  C   UNL A   1      37.782  23.740  25.794  1.00  0.00     0.015 A 
ATOM     27  C   UNL A   1      39.232  21.352  26.086  1.00  0.00     0.021 A 
ATOM     28  C   UNL A   1      38.910  23.682  26.629  1.00  0.00     0.021 A 
ATOM     29  C   UNL A   1      39.624  22.490  26.776  1.00  0.00     0.041 A 
ATOM     30  Cl  UNL A   1      40.975  22.420  27.836  1.00  0.00    -0.084 Cl
ENDBRANCH  22  24
ENDBRANCH  14  22
ENDBRANCH   6   8
ENDBRANCH   4   6
ENDBRANCH   3   4
ENDBRANCH   2   3
ENDBRANCH   1   2
BRANCH   1  31
ATOM     31  O   UNL A   1      30.547  30.017  24.037  1.00  0.00    -0.374 OA
BRANCH  31  32
ATOM     32  C   UNL A   1      30.920  29.873  25.404  1.00  0.00     0.202 C 
BRANCH  32  33
ATOM     33  C   UNL A   1      31.603  31.054  26.102  1.00  0.00     0.261 C 
BRANCH  33  34
ATOM     34  O   UNL A   1      32.870  30.715  26.692  1.00  0.00    -0.460 OA
BRANCH  34  35
ATOM     35  C   UNL A   1      33.475  31.738  27.337  1.00  0.00     0.338 C 
ATOM     36  O   UNL A   1      32.968  32.798  27.688  1.00  0.00    -0.246 OA
BRANCH  35  37
ATOM     37  C   UNL A   1      34.840  31.369  27.743  1.00  0.00     0.060 A 
ATOM     38  C   UNL A   1      35.105  30.007  27.933  1.00  0.00     0.016 A 
ATOM     39  C   UNL A   1      35.797  32.333  28.067  1.00  0.00     0.016 A 
ATOM     40  C   UNL A   1      36.304  29.605  28.511  1.00  0.00     0.010 A 
ATOM     41  C   UNL A   1      37.000  31.926  28.657  1.00  0.00     0.010 A 
ATOM     42  C   UNL A   1      37.238  30.564  28.923  1.00  0.00    -0.014 A 
BRANCH  42  43
ATOM     43  C   UNL A   1      38.370  30.141  29.782  1.00  0.00     0.031 A 
ATOM     44  C   UNL A   1      39.471  29.308  29.184  1.00  0.00     0.074 A 
ATOM     45  C   UNL A   1      38.454  30.548  31.061  1.00  0.00     0.049 A 
ATOM     46  N   UNL A   1      40.558  28.843  29.745  1.00  0.00    -0.248 NA
ATOM     47  C   UNL A   1      39.332  28.959  27.760  1.00  0.00     0.031 C 
ATOM     48  C   UNL A   1      37.483  31.404  31.742  1.00  0.00     0.029 A 
ATOM     49  N   UNL A   1      39.411  30.297  32.011  1.00  0.00    -0.354 N 
ATOM     50  C   UNL A   1      41.228  28.144  28.749  1.00  0.00     0.074 A 
ATOM     51  C   UNL A   1      40.411  28.218  27.556  1.00  0.00     0.031 C 
ATOM     52  C   UNL A   1      37.894  31.605  33.006  1.00  0.00     0.029 A 
ATOM     53  C   UNL A   1      39.137  30.869  33.230  1.00  0.00     0.049 A 
ATOM     54  H   UNL A   1      40.216  29.759  31.837  1.00  0.00     0.167 HD
ATOM     55  C   UNL A   1      42.420  27.504  28.815  1.00  0.00     0.031 A 
ATOM     56  C   UNL A   1      39.803  30.791  34.398  1.00  0.00     0.031 A 
ATOM     57  C   UNL A   1      43.229  27.416  30.001  1.00  0.00     0.049 A 
ATOM     58  C   UNL A   1      41.083  30.000  34.469  1.00  0.00     0.074 A 
ATOM     59  C   UNL A   1      44.454  26.795  30.166  1.00  0.00     0.029 A 
ATOM     60  N   UNL A   1      42.888  27.962  31.229  1.00  0.00    -0.354 N 
ATOM     61  N   UNL A   1      41.713  29.358  33.516  1.00  0.00    -0.248 NA
ATOM     62  C   UNL A   1      41.746  29.932  35.780  1.00  0.00     0.031 C 
ATOM     63  C   UNL A   1      44.829  26.916  31.508  1.00  0.00     0.029 A 
ATOM     64  C   UNL A   1      43.867  27.667  32.163  1.00  0.00     0.049 A 
ATOM     65  H   UNL A   1      42.072  28.483  31.410  1.00  0.00     0.167 HD
ATOM     66  C   UNL A   1      42.858  28.834  34.103  1.00  0.00     0.074 A 
ATOM     67  C   UNL A   1      42.844  29.246  35.491  1.00  0.00     0.031 C 
ATOM     68  C   UNL A   1      43.836  28.081  33.543  1.00  0.00     0.031 A 
BRANCH  55  69
ATOM     69  C   UNL A   1      42.904  26.813  27.570  1.00  0.00    -0.014 A 
ATOM     70  C   UNL A   1      42.433  25.541  27.210  1.00  0.00     0.009 A 
ATOM     71  C   UNL A   1      43.823  27.461  26.729  1.00  0.00     0.009 A 
ATOM     72  C   UNL A   1      42.897  24.918  26.049  1.00  0.00     0.001 A 
ATOM     73  C   UNL A   1      44.263  26.848  25.555  1.00  0.00     0.001 A 
ATOM     74  C   UNL A   1      43.807  25.574  25.220  1.00  0.00     0.000 A 
ENDBRANCH  55  69
BRANCH  56  75
ATOM     75  C   UNL A   1      39.260  31.460  35.608  1.00  0.00    -0.014 A 
ATOM     76  C   UNL A   1      38.299  30.826  36.411  1.00  0.00     0.009 A 
ATOM     77  C   UNL A   1      39.689  32.750  35.957  1.00  0.00     0.009 A 
ATOM     78  C   UNL A   1      37.764  31.480  37.523  1.00  0.00     0.001 A 
ATOM     79  C   UNL A   1      39.175  33.390  37.085  1.00  0.00     0.001 A 
ATOM     80  C   UNL A   1      38.206  32.759  37.862  1.00  0.00     0.000 A 
ENDBRANCH  56  75
BRANCH  68  81
ATOM     81  C   UNL A   1      44.991  27.682  34.421  1.00  0.00    -0.014 A 
ATOM     82  C   UNL A   1      46.140  28.481  34.524  1.00  0.00     0.009 A 
ATOM     83  C   UNL A   1      44.906  26.510  35.189  1.00  0.00     0.009 A 
ATOM     84  C   UNL A   1      47.195  28.095  35.354  1.00  0.00     0.001 A 
ATOM     85  C   UNL A   1      45.950  26.142  36.039  1.00  0.00     0.001 A 
ATOM     86  C   UNL A   1      47.098  26.930  36.114  1.00  0.00     0.000 A 
ENDBRANCH  68  81
ENDBRANCH  42  43
ENDBRANCH  35  37
ENDBRANCH  34  35
ENDBRANCH  33  34
ENDBRANCH  32  33
ENDBRANCH  31  32
ENDBRANCH   1  31
TORSDOF 17
ENDMDL
