MODEL 1
REMARK VINA RESULT:     -11.5      0.000      0.000
REMARK SMILES C[C@H]1Oc2ccccc2C=C1/C=C/C(=O)N[C@H](C(=O)OCCOCCOC(=O)c1ccc(-c2c3nc(c(-c4ccccc4)c4ccc([nH]4)c(-c4ccccc4)c4nc(c(-c5ccccc5)c5ccc2[nH]5)C=C4)C=C3)cc1)c1ccccc1
REMARK SMILES IDX 22 1 21 2 20 3 18 4 19 5 17 6 16 7 14 8 15 9 13 11 12 12
REMARK SMILES IDX 11 13 1 14 2 15 3 16 4 17 10 18 5 19 9 20 6 21 8 22 7 23
REMARK SMILES IDX 77 24 78 25 82 26 79 27 81 28 80 29 23 30 24 31 25 32 26 33
REMARK SMILES IDX 27 34 28 35 29 36 30 37 76 38 31 39 75 40 32 41 33 42 34 43
REMARK SMILES IDX 69 44 35 45 74 46 68 47 70 48 36 49 73 50 67 51 66 52 37 54
REMARK SMILES IDX 59 55 44 56 58 57 45 58 48 59 57 60 71 61 46 62 47 63 56 65
REMARK SMILES IDX 72 66 49 67 38 68 39 69 43 70 40 71 42 72 41 73 60 74 61 75
REMARK SMILES IDX 65 76 62 77 64 78 63 79 50 80 51 81 55 82 52 83 54 84 53 85
REMARK H PARENT 16 10 70 53 48 64
REMARK Flexibility Score: inf
ROOT
ATOM      1  C   UNL A   1      32.548  30.570  26.566  1.00  0.00     0.202 C 
ENDROOT
BRANCH   1   2
ATOM      2  C   UNL A   1      32.904  29.622  25.415  1.00  0.00     0.261 C 
BRANCH   2   3
ATOM      3  O   UNL A   1      32.020  28.488  25.371  1.00  0.00    -0.461 OA
BRANCH   3   4
ATOM      4  C   UNL A   1      32.024  27.785  24.202  1.00  0.00     0.333 C 
ATOM      5  O   UNL A   1      32.979  27.735  23.432  1.00  0.00    -0.249 OA
BRANCH   4   6
ATOM      6  C   UNL A   1      30.667  27.095  23.902  1.00  0.00     0.223 C 
BRANCH   6   7
ATOM      7  N   UNL A   1      30.023  26.413  25.030  1.00  0.00    -0.335 N 
ATOM      8  C   UNL A   1      30.409  25.314  25.740  1.00  0.00     0.244 C 
ATOM      9  O   UNL A   1      29.656  24.863  26.600  1.00  0.00    -0.270 OA
ATOM     10  H   UNL A   1      29.173  26.813  25.321  1.00  0.00     0.165 HD
BRANCH   8  11
ATOM     11  C   UNL A   1      31.700  24.623  25.483  1.00  0.00     0.071 C 
ATOM     12  C   UNL A   1      31.928  23.344  25.810  1.00  0.00     0.013 C 
BRANCH  12  13
ATOM     13  C   UNL A   1      33.149  22.567  25.628  1.00  0.00    -0.007 C 
ATOM     14  C   UNL A   1      32.476  21.149  23.604  1.00  0.00     0.058 C 
ATOM     15  C   UNL A   1      32.942  21.161  25.063  1.00  0.00     0.200 C 
ATOM     16  O   UNL A   1      34.068  20.268  25.165  1.00  0.00    -0.485 OA
ATOM     17  C   UNL A   1      35.307  20.845  25.201  1.00  0.00     0.127 A 
ATOM     18  C   UNL A   1      34.380  23.036  25.878  1.00  0.00     0.019 C 
ATOM     19  C   UNL A   1      36.384  20.014  24.883  1.00  0.00     0.047 A 
ATOM     20  C   UNL A   1      35.519  22.176  25.569  1.00  0.00     0.017 A 
ATOM     21  C   UNL A   1      37.686  20.510  24.930  1.00  0.00     0.004 A 
ATOM     22  C   UNL A   1      36.831  22.661  25.635  1.00  0.00     0.012 A 
ATOM     23  C   UNL A   1      37.911  21.831  25.313  1.00  0.00     0.001 A 
ENDBRANCH  12  13
ENDBRANCH   8  11
ENDBRANCH   6   7
BRANCH   6  24
ATOM     24  C   UNL A   1      29.691  28.077  23.278  1.00  0.00    -0.014 A 
ATOM     25  C   UNL A   1      30.119  29.146  22.472  1.00  0.00     0.006 A 
ATOM     26  C   UNL A   1      28.320  27.918  23.522  1.00  0.00     0.006 A 
ATOM     27  C   UNL A   1      29.186  30.005  21.889  1.00  0.00     0.000 A 
ATOM     28  C   UNL A   1      27.393  28.782  22.944  1.00  0.00     0.000 A 
ATOM     29  C   UNL A   1      27.826  29.819  22.121  1.00  0.00     0.000 A 
ENDBRANCH   6  24
ENDBRANCH   4   6
ENDBRANCH   3   4
ENDBRANCH   2   3
ENDBRANCH   1   2
BRANCH   1  30
ATOM     30  O   UNL A   1      31.434  31.441  26.388  1.00  0.00    -0.374 OA
BRANCH  30  31
ATOM     31  C   UNL A   1      31.562  32.792  26.828  1.00  0.00     0.202 C 
BRANCH  31  32
ATOM     32  C   UNL A   1      32.821  33.206  27.606  1.00  0.00     0.261 C 
BRANCH  32  33
ATOM     33  O   UNL A   1      32.766  34.546  28.124  1.00  0.00    -0.460 OA
BRANCH  33  34
ATOM     34  C   UNL A   1      33.194  34.676  29.404  1.00  0.00     0.338 C 
ATOM     35  O   UNL A   1      32.580  35.149  30.349  1.00  0.00    -0.246 OA
BRANCH  34  36
ATOM     36  C   UNL A   1      34.471  33.958  29.570  1.00  0.00     0.060 A 
ATOM     37  C   UNL A   1      35.566  34.222  28.747  1.00  0.00     0.016 A 
ATOM     38  C   UNL A   1      34.569  33.026  30.612  1.00  0.00     0.016 A 
ATOM     39  C   UNL A   1      36.774  33.562  28.990  1.00  0.00     0.010 A 
ATOM     40  C   UNL A   1      35.773  32.367  30.850  1.00  0.00     0.010 A 
ATOM     41  C   UNL A   1      36.891  32.645  30.054  1.00  0.00    -0.014 A 
BRANCH  41  42
ATOM     42  C   UNL A   1      38.217  32.094  30.426  1.00  0.00     0.031 A 
ATOM     43  C   UNL A   1      39.130  32.812  31.371  1.00  0.00     0.074 A 
ATOM     44  C   UNL A   1      38.605  30.935  29.860  1.00  0.00     0.049 A 
ATOM     45  N   UNL A   1      40.289  32.423  31.841  1.00  0.00    -0.248 NA
ATOM     46  C   UNL A   1      38.698  34.134  31.849  1.00  0.00     0.031 C 
ATOM     47  C   UNL A   1      37.813  30.172  28.893  1.00  0.00     0.029 A 
ATOM     48  N   UNL A   1      39.747  30.191  30.017  1.00  0.00    -0.354 N 
ATOM     49  C   UNL A   1      40.719  33.441  32.681  1.00  0.00     0.074 A 
ATOM     50  C   UNL A   1      39.720  34.488  32.620  1.00  0.00     0.031 C 
ATOM     51  C   UNL A   1      38.474  29.051  28.573  1.00  0.00     0.029 A 
ATOM     52  C   UNL A   1      39.754  29.033  29.278  1.00  0.00     0.049 A 
ATOM     53  H   UNL A   1      40.491  30.462  30.603  1.00  0.00     0.167 HD
ATOM     54  C   UNL A   1      41.837  33.483  33.445  1.00  0.00     0.031 A 
ATOM     55  C   UNL A   1      40.680  28.059  29.177  1.00  0.00     0.031 A 
ATOM     56  C   UNL A   1      42.834  32.443  33.477  1.00  0.00     0.049 A 
ATOM     57  C   UNL A   1      41.932  28.151  30.005  1.00  0.00     0.074 A 
ATOM     58  C   UNL A   1      43.975  32.377  34.259  1.00  0.00     0.029 A 
ATOM     59  N   UNL A   1      42.823  31.301  32.691  1.00  0.00    -0.354 N 
ATOM     60  N   UNL A   1      42.278  29.073  30.871  1.00  0.00    -0.248 NA
ATOM     61  C   UNL A   1      42.911  27.066  29.858  1.00  0.00     0.031 C 
ATOM     62  C   UNL A   1      44.696  31.242  33.885  1.00  0.00     0.029 A 
ATOM     63  C   UNL A   1      43.959  30.547  32.938  1.00  0.00     0.049 A 
ATOM     64  H   UNL A   1      42.113  31.060  32.052  1.00  0.00     0.167 HD
ATOM     65  C   UNL A   1      43.502  28.669  31.388  1.00  0.00     0.074 A 
ATOM     66  C   UNL A   1      43.827  27.407  30.755  1.00  0.00     0.031 C 
ATOM     67  C   UNL A   1      44.281  29.292  32.305  1.00  0.00     0.031 A 
BRANCH  54  68
ATOM     68  C   UNL A   1      42.059  34.684  34.325  1.00  0.00    -0.014 A 
ATOM     69  C   UNL A   1      42.801  35.777  33.847  1.00  0.00     0.009 A 
ATOM     70  C   UNL A   1      41.652  34.681  35.669  1.00  0.00     0.009 A 
ATOM     71  C   UNL A   1      43.153  36.826  34.699  1.00  0.00     0.001 A 
ATOM     72  C   UNL A   1      41.977  35.748  36.511  1.00  0.00     0.001 A 
ATOM     73  C   UNL A   1      42.737  36.812  36.029  1.00  0.00     0.000 A 
ENDBRANCH  54  68
BRANCH  55  74
ATOM     74  C   UNL A   1      40.419  26.899  28.284  1.00  0.00    -0.014 A 
ATOM     75  C   UNL A   1      40.902  26.889  26.963  1.00  0.00     0.009 A 
ATOM     76  C   UNL A   1      39.627  25.826  28.719  1.00  0.00     0.009 A 
ATOM     77  C   UNL A   1      40.571  25.850  26.092  1.00  0.00     0.001 A 
ATOM     78  C   UNL A   1      39.328  24.769  27.856  1.00  0.00     0.001 A 
ATOM     79  C   UNL A   1      39.788  24.789  26.539  1.00  0.00     0.000 A 
ENDBRANCH  55  74
BRANCH  67  80
ATOM     80  C   UNL A   1      45.574  28.631  32.709  1.00  0.00    -0.014 A 
ATOM     81  C   UNL A   1      45.598  27.767  33.817  1.00  0.00     0.009 A 
ATOM     82  C   UNL A   1      46.785  28.958  32.080  1.00  0.00     0.009 A 
ATOM     83  C   UNL A   1      46.808  27.270  34.305  1.00  0.00     0.001 A 
ATOM     84  C   UNL A   1      47.990  28.430  32.549  1.00  0.00     0.001 A 
ATOM     85  C   UNL A   1      48.002  27.599  33.669  1.00  0.00     0.000 A 
ENDBRANCH  67  80
ENDBRANCH  41  42
ENDBRANCH  34  36
ENDBRANCH  33  34
ENDBRANCH  32  33
ENDBRANCH  31  32
ENDBRANCH  30  31
ENDBRANCH   1  30
TORSDOF 18
ENDMDL
MODEL 2
REMARK VINA RESULT:     -11.4      1.212      5.847
REMARK SMILES C[C@H]1Oc2ccccc2C=C1/C=C/C(=O)N[C@H](C(=O)OCCOCCOC(=O)c1ccc(-c2c3nc(c(-c4ccccc4)c4ccc([nH]4)c(-c4ccccc4)c4nc(c(-c5ccccc5)c5ccc2[nH]5)C=C4)C=C3)cc1)c1ccccc1
REMARK SMILES IDX 22 1 21 2 20 3 18 4 19 5 17 6 16 7 14 8 15 9 13 11 12 12
REMARK SMILES IDX 11 13 1 14 2 15 3 16 4 17 10 18 5 19 9 20 6 21 8 22 7 23
REMARK SMILES IDX 77 24 78 25 82 26 79 27 81 28 80 29 23 30 24 31 25 32 26 33
REMARK SMILES IDX 27 34 28 35 29 36 30 37 76 38 31 39 75 40 32 41 33 42 34 43
REMARK SMILES IDX 69 44 35 45 74 46 68 47 70 48 36 49 73 50 67 51 66 52 37 54
REMARK SMILES IDX 59 55 44 56 58 57 45 58 48 59 57 60 71 61 46 62 47 63 56 65
REMARK SMILES IDX 72 66 49 67 38 68 39 69 43 70 40 71 42 72 41 73 60 74 61 75
REMARK SMILES IDX 65 76 62 77 64 78 63 79 50 80 51 81 55 82 52 83 54 84 53 85
REMARK H PARENT 16 10 70 53 48 64
REMARK Flexibility Score: inf
ROOT
ATOM      1  C   UNL A   1      33.171  30.124  26.807  1.00  0.00     0.202 C 
ENDROOT
BRANCH   1   2
ATOM      2  C   UNL A   1      33.275  29.301  25.518  1.00  0.00     0.261 C 
BRANCH   2   3
ATOM      3  O   UNL A   1      31.978  28.912  25.032  1.00  0.00    -0.461 OA
BRANCH   3   4
ATOM      4  C   UNL A   1      31.982  28.059  23.967  1.00  0.00     0.333 C 
ATOM      5  O   UNL A   1      32.959  27.853  23.253  1.00  0.00    -0.249 OA
BRANCH   4   6
ATOM      6  C   UNL A   1      30.596  27.414  23.701  1.00  0.00     0.223 C 
BRANCH   6   7
ATOM      7  N   UNL A   1      29.940  26.787  24.853  1.00  0.00    -0.335 N 
ATOM      8  C   UNL A   1      30.377  25.811  25.701  1.00  0.00     0.244 C 
ATOM      9  O   UNL A   1      29.610  25.375  26.556  1.00  0.00    -0.270 OA
ATOM     10  H   UNL A   1      29.037  27.125  25.047  1.00  0.00     0.165 HD
BRANCH   8  11
ATOM     11  C   UNL A   1      31.743  25.233  25.600  1.00  0.00     0.071 C 
ATOM     12  C   UNL A   1      31.995  23.920  25.682  1.00  0.00     0.013 C 
BRANCH  12  13
ATOM     13  C   UNL A   1      33.283  23.240  25.618  1.00  0.00    -0.007 C 
ATOM     14  C   UNL A   1      32.922  21.799  23.531  1.00  0.00     0.058 C 
ATOM     15  C   UNL A   1      33.241  21.829  25.030  1.00  0.00     0.200 C 
ATOM     16  O   UNL A   1      34.416  21.022  25.238  1.00  0.00    -0.485 OA
ATOM     17  C   UNL A   1      35.598  21.690  25.398  1.00  0.00     0.127 A 
ATOM     18  C   UNL A   1      34.445  23.797  25.990  1.00  0.00     0.019 C 
ATOM     19  C   UNL A   1      36.761  20.947  25.184  1.00  0.00     0.047 A 
ATOM     20  C   UNL A   1      35.671  23.029  25.791  1.00  0.00     0.017 A 
ATOM     21  C   UNL A   1      38.010  21.539  25.361  1.00  0.00     0.004 A 
ATOM     22  C   UNL A   1      36.930  23.611  25.987  1.00  0.00     0.012 A 
ATOM     23  C   UNL A   1      38.095  22.869  25.770  1.00  0.00     0.001 A 
ENDBRANCH  12  13
ENDBRANCH   8  11
ENDBRANCH   6   7
BRANCH   6  24
ATOM     24  C   UNL A   1      29.651  28.415  23.060  1.00  0.00    -0.014 A 
ATOM     25  C   UNL A   1      28.259  28.353  23.246  1.00  0.00     0.006 A 
ATOM     26  C   UNL A   1      30.183  29.426  22.249  1.00  0.00     0.006 A 
ATOM     27  C   UNL A   1      27.429  29.314  22.667  1.00  0.00     0.000 A 
ATOM     28  C   UNL A   1      29.351  30.379  21.667  1.00  0.00     0.000 A 
ATOM     29  C   UNL A   1      27.975  30.328  21.884  1.00  0.00     0.000 A 
ENDBRANCH   6  24
ENDBRANCH   4   6
ENDBRANCH   3   4
ENDBRANCH   2   3
ENDBRANCH   1   2
BRANCH   1  30
ATOM     30  O   UNL A   1      31.914  30.722  27.113  1.00  0.00    -0.374 OA
BRANCH  30  31
ATOM     31  C   UNL A   1      31.722  32.093  26.770  1.00  0.00     0.202 C 
BRANCH  31  32
ATOM     32  C   UNL A   1      32.704  33.141  27.317  1.00  0.00     0.261 C 
BRANCH  32  33
ATOM     33  O   UNL A   1      32.162  33.941  28.382  1.00  0.00    -0.460 OA
BRANCH  33  34
ATOM     34  C   UNL A   1      32.939  34.989  28.755  1.00  0.00     0.338 C 
ATOM     35  O   UNL A   1      32.661  36.178  28.696  1.00  0.00    -0.246 OA
BRANCH  34  36
ATOM     36  C   UNL A   1      34.132  34.488  29.461  1.00  0.00     0.060 A 
ATOM     37  C   UNL A   1      34.046  33.960  30.749  1.00  0.00     0.016 A 
ATOM     38  C   UNL A   1      35.357  34.518  28.781  1.00  0.00     0.016 A 
ATOM     39  C   UNL A   1      35.196  33.436  31.346  1.00  0.00     0.010 A 
ATOM     40  C   UNL A   1      36.502  34.000  29.380  1.00  0.00     0.010 A 
ATOM     41  C   UNL A   1      36.427  33.435  30.660  1.00  0.00    -0.014 A 
BRANCH  41  42
ATOM     42  C   UNL A   1      37.595  32.711  31.216  1.00  0.00     0.031 A 
ATOM     43  C   UNL A   1      38.141  31.479  30.563  1.00  0.00     0.074 A 
ATOM     44  C   UNL A   1      38.142  33.169  32.359  1.00  0.00     0.049 A 
ATOM     45  N   UNL A   1      39.195  30.777  30.895  1.00  0.00    -0.248 NA
ATOM     46  C   UNL A   1      37.415  30.961  29.394  1.00  0.00     0.031 C 
ATOM     47  C   UNL A   1      37.664  34.336  33.104  1.00  0.00     0.029 A 
ATOM     48  N   UNL A   1      39.215  32.724  33.089  1.00  0.00    -0.354 N 
ATOM     49  C   UNL A   1      39.271  29.745  29.970  1.00  0.00     0.074 A 
ATOM     50  C   UNL A   1      38.130  29.883  29.090  1.00  0.00     0.031 C 
ATOM     51  C   UNL A   1      38.463  34.537  34.161  1.00  0.00     0.029 A 
ATOM     52  C   UNL A   1      39.484  33.493  34.195  1.00  0.00     0.049 A 
ATOM     53  H   UNL A   1      39.742  31.929  32.843  1.00  0.00     0.167 HD
ATOM     54  C   UNL A   1      40.221  28.784  29.859  1.00  0.00     0.031 A 
ATOM     55  C   UNL A   1      40.445  33.380  35.133  1.00  0.00     0.031 A 
ATOM     56  C   UNL A   1      41.340  28.647  30.757  1.00  0.00     0.049 A 
ATOM     57  C   UNL A   1      41.462  32.279  35.009  1.00  0.00     0.074 A 
ATOM     58  C   UNL A   1      42.379  27.734  30.693  1.00  0.00     0.029 A 
ATOM     59  N   UNL A   1      41.561  29.424  31.884  1.00  0.00    -0.354 N 
ATOM     60  N   UNL A   1      41.579  31.370  34.071  1.00  0.00    -0.248 NA
ATOM     61  C   UNL A   1      42.488  32.197  36.058  1.00  0.00     0.031 C 
ATOM     62  C   UNL A   1      43.178  27.902  31.824  1.00  0.00     0.029 A 
ATOM     63  C   UNL A   1      42.695  28.983  32.546  1.00  0.00     0.049 A 
ATOM     64  H   UNL A   1      40.996  30.177  32.172  1.00  0.00     0.167 HD
ATOM     65  C   UNL A   1      42.702  30.623  34.403  1.00  0.00     0.074 A 
ATOM     66  C   UNL A   1      43.243  31.199  35.617  1.00  0.00     0.031 C 
ATOM     67  C   UNL A   1      43.231  29.557  33.756  1.00  0.00     0.031 A 
BRANCH  54  68
ATOM     68  C   UNL A   1      40.115  27.800  28.726  1.00  0.00    -0.014 A 
ATOM     69  C   UNL A   1      39.521  26.545  28.941  1.00  0.00     0.009 A 
ATOM     70  C   UNL A   1      40.722  28.056  27.486  1.00  0.00     0.009 A 
ATOM     71  C   UNL A   1      39.558  25.560  27.951  1.00  0.00     0.001 A 
ATOM     72  C   UNL A   1      40.728  27.081  26.485  1.00  0.00     0.001 A 
ATOM     73  C   UNL A   1      40.158  25.831  26.722  1.00  0.00     0.000 A 
ENDBRANCH  54  68
BRANCH  55  74
ATOM     74  C   UNL A   1      40.499  34.372  36.240  1.00  0.00    -0.014 A 
ATOM     75  C   UNL A   1      39.793  34.150  37.435  1.00  0.00     0.009 A 
ATOM     76  C   UNL A   1      41.198  35.578  36.085  1.00  0.00     0.009 A 
ATOM     77  C   UNL A   1      39.759  35.125  38.434  1.00  0.00     0.001 A 
ATOM     78  C   UNL A   1      41.192  36.537  37.101  1.00  0.00     0.001 A 
ATOM     79  C   UNL A   1      40.461  36.316  38.268  1.00  0.00     0.000 A 
ENDBRANCH  55  74
BRANCH  67  80
ATOM     80  C   UNL A   1      44.475  28.924  34.324  1.00  0.00    -0.014 A 
ATOM     81  C   UNL A   1      45.737  29.319  33.849  1.00  0.00     0.009 A 
ATOM     82  C   UNL A   1      44.398  27.854  35.229  1.00  0.00     0.009 A 
ATOM     83  C   UNL A   1      46.890  28.637  34.243  1.00  0.00     0.001 A 
ATOM     84  C   UNL A   1      45.557  27.198  35.650  1.00  0.00     0.001 A 
ATOM     85  C   UNL A   1      46.800  27.581  35.145  1.00  0.00     0.000 A 
ENDBRANCH  67  80
ENDBRANCH  41  42
ENDBRANCH  34  36
ENDBRANCH  33  34
ENDBRANCH  32  33
ENDBRANCH  31  32
ENDBRANCH  30  31
ENDBRANCH   1  30
TORSDOF 18
ENDMDL
MODEL 3
REMARK VINA RESULT:     -11.2      1.906      2.817
REMARK SMILES C[C@H]1Oc2ccccc2C=C1/C=C/C(=O)N[C@H](C(=O)OCCOCCOC(=O)c1ccc(-c2c3nc(c(-c4ccccc4)c4ccc([nH]4)c(-c4ccccc4)c4nc(c(-c5ccccc5)c5ccc2[nH]5)C=C4)C=C3)cc1)c1ccccc1
REMARK SMILES IDX 22 1 21 2 20 3 18 4 19 5 17 6 16 7 14 8 15 9 13 11 12 12
REMARK SMILES IDX 11 13 1 14 2 15 3 16 4 17 10 18 5 19 9 20 6 21 8 22 7 23
REMARK SMILES IDX 77 24 78 25 82 26 79 27 81 28 80 29 23 30 24 31 25 32 26 33
REMARK SMILES IDX 27 34 28 35 29 36 30 37 76 38 31 39 75 40 32 41 33 42 34 43
REMARK SMILES IDX 69 44 35 45 74 46 68 47 70 48 36 49 73 50 67 51 66 52 37 54
REMARK SMILES IDX 59 55 44 56 58 57 45 58 48 59 57 60 71 61 46 62 47 63 56 65
REMARK SMILES IDX 72 66 49 67 38 68 39 69 43 70 40 71 42 72 41 73 60 74 61 75
REMARK SMILES IDX 65 76 62 77 64 78 63 79 50 80 51 81 55 82 52 83 54 84 53 85
REMARK H PARENT 16 10 70 53 48 64
REMARK Flexibility Score: inf
ROOT
ATOM      1  C   UNL A   1      31.818  30.600  26.646  1.00  0.00     0.202 C 
ENDROOT
BRANCH   1   2
ATOM      2  C   UNL A   1      31.868  29.397  25.696  1.00  0.00     0.261 C 
BRANCH   2   3
ATOM      3  O   UNL A   1      31.778  28.153  26.412  1.00  0.00    -0.461 OA
BRANCH   3   4
ATOM      4  C   UNL A   1      32.880  27.352  26.338  1.00  0.00     0.333 C 
ATOM      5  O   UNL A   1      34.034  27.757  26.441  1.00  0.00    -0.249 OA
BRANCH   4   6
ATOM      6  C   UNL A   1      32.534  25.868  26.044  1.00  0.00     0.223 C 
BRANCH   6   7
ATOM      7  N   UNL A   1      31.252  25.385  26.569  1.00  0.00    -0.335 N 
ATOM      8  C   UNL A   1      30.818  24.116  26.822  1.00  0.00     0.244 C 
ATOM      9  O   UNL A   1      29.657  23.943  27.183  1.00  0.00    -0.270 OA
ATOM     10  H   UNL A   1      30.598  26.091  26.771  1.00  0.00     0.165 HD
BRANCH   8  11
ATOM     11  C   UNL A   1      31.698  22.931  26.640  1.00  0.00     0.071 C 
ATOM     12  C   UNL A   1      31.763  22.231  25.500  1.00  0.00     0.013 C 
BRANCH  12  13
ATOM     13  C   UNL A   1      32.567  21.049  25.209  1.00  0.00    -0.007 C 
ATOM     14  C   UNL A   1      34.657  21.581  26.591  1.00  0.00     0.058 C 
ATOM     15  C   UNL A   1      34.078  21.280  25.204  1.00  0.00     0.200 C 
ATOM     16  O   UNL A   1      34.876  20.232  24.621  1.00  0.00    -0.485 OA
ATOM     17  C   UNL A   1      34.350  18.970  24.655  1.00  0.00     0.127 A 
ATOM     18  C   UNL A   1      32.055  19.825  25.006  1.00  0.00     0.019 C 
ATOM     19  C   UNL A   1      35.254  17.919  24.485  1.00  0.00     0.047 A 
ATOM     20  C   UNL A   1      32.984  18.716  24.809  1.00  0.00     0.017 A 
ATOM     21  C   UNL A   1      34.798  16.602  24.469  1.00  0.00     0.004 A 
ATOM     22  C   UNL A   1      32.531  17.391  24.771  1.00  0.00     0.012 A 
ATOM     23  C   UNL A   1      33.436  16.338  24.604  1.00  0.00     0.001 A 
ENDBRANCH  12  13
ENDBRANCH   8  11
ENDBRANCH   6   7
BRANCH   6  24
ATOM     24  C   UNL A   1      32.614  25.581  24.555  1.00  0.00    -0.014 A 
ATOM     25  C   UNL A   1      31.649  26.053  23.650  1.00  0.00     0.006 A 
ATOM     26  C   UNL A   1      33.681  24.812  24.070  1.00  0.00     0.006 A 
ATOM     27  C   UNL A   1      31.779  25.796  22.284  1.00  0.00     0.000 A 
ATOM     28  C   UNL A   1      33.804  24.552  22.707  1.00  0.00     0.000 A 
ATOM     29  C   UNL A   1      32.858  25.052  21.815  1.00  0.00     0.000 A 
ENDBRANCH   6  24
ENDBRANCH   4   6
ENDBRANCH   3   4
ENDBRANCH   2   3
ENDBRANCH   1   2
BRANCH   1  30
ATOM     30  O   UNL A   1      32.878  30.747  27.587  1.00  0.00    -0.374 OA
BRANCH  30  31
ATOM     31  C   UNL A   1      33.555  32.001  27.643  1.00  0.00     0.202 C 
BRANCH  31  32
ATOM     32  C   UNL A   1      32.759  33.289  27.383  1.00  0.00     0.261 C 
BRANCH  32  33
ATOM     33  O   UNL A   1      32.358  33.973  28.582  1.00  0.00    -0.460 OA
BRANCH  33  34
ATOM     34  C   UNL A   1      33.140  35.029  28.921  1.00  0.00     0.338 C 
ATOM     35  O   UNL A   1      32.857  36.216  28.850  1.00  0.00    -0.246 OA
BRANCH  34  36
ATOM     36  C   UNL A   1      34.350  34.542  29.607  1.00  0.00     0.060 A 
ATOM     37  C   UNL A   1      34.278  33.912  30.849  1.00  0.00     0.016 A 
ATOM     38  C   UNL A   1      35.580  34.693  28.953  1.00  0.00     0.016 A 
ATOM     39  C   UNL A   1      35.448  33.408  31.425  1.00  0.00     0.010 A 
ATOM     40  C   UNL A   1      36.745  34.194  29.530  1.00  0.00     0.010 A 
ATOM     41  C   UNL A   1      36.685  33.528  30.762  1.00  0.00    -0.014 A 
BRANCH  41  42
ATOM     42  C   UNL A   1      37.886  32.830  31.281  1.00  0.00     0.031 A 
ATOM     43  C   UNL A   1      38.611  33.311  32.500  1.00  0.00     0.074 A 
ATOM     44  C   UNL A   1      38.339  31.758  30.604  1.00  0.00     0.049 A 
ATOM     45  N   UNL A   1      39.634  32.768  33.109  1.00  0.00    -0.248 NA
ATOM     46  C   UNL A   1      38.138  34.562  33.112  1.00  0.00     0.031 C 
ATOM     47  C   UNL A   1      37.736  31.226  29.380  1.00  0.00     0.029 A 
ATOM     48  N   UNL A   1      39.398  30.919  30.845  1.00  0.00    -0.354 N 
ATOM     49  C   UNL A   1      39.919  33.597  34.185  1.00  0.00     0.074 A 
ATOM     50  C   UNL A   1      38.992  34.707  34.119  1.00  0.00     0.031 C 
ATOM     51  C   UNL A   1      38.408  30.131  29.000  1.00  0.00     0.029 A 
ATOM     52  C   UNL A   1      39.515  29.904  29.926  1.00  0.00     0.049 A 
ATOM     53  H   UNL A   1      40.015  31.034  31.603  1.00  0.00     0.167 HD
ATOM     54  C   UNL A   1      40.859  33.430  35.148  1.00  0.00     0.031 A 
ATOM     55  C   UNL A   1      40.406  28.898  29.835  1.00  0.00     0.031 A 
ATOM     56  C   UNL A   1      41.789  32.331  35.187  1.00  0.00     0.049 A 
ATOM     57  C   UNL A   1      41.465  28.760  30.894  1.00  0.00     0.074 A 
ATOM     58  C   UNL A   1      42.744  32.054  36.152  1.00  0.00     0.029 A 
ATOM     59  N   UNL A   1      41.899  31.341  34.223  1.00  0.00    -0.354 N 
ATOM     60  N   UNL A   1      41.660  29.496  31.962  1.00  0.00    -0.248 NA
ATOM     61  C   UNL A   1      42.414  27.648  30.750  1.00  0.00     0.031 C 
ATOM     62  C   UNL A   1      43.485  30.950  35.729  1.00  0.00     0.029 A 
ATOM     63  C   UNL A   1      42.932  30.478  34.548  1.00  0.00     0.049 A 
ATOM     64  H   UNL A   1      41.327  31.263  33.425  1.00  0.00     0.167 HD
ATOM     65  C   UNL A   1      42.736  28.925  32.628  1.00  0.00     0.074 A 
ATOM     66  C   UNL A   1      43.139  27.767  31.854  1.00  0.00     0.031 C 
ATOM     67  C   UNL A   1      43.332  29.327  33.775  1.00  0.00     0.031 A 
BRANCH  54  68
ATOM     68  C   UNL A   1      40.938  34.447  36.255  1.00  0.00    -0.014 A 
ATOM     69  C   UNL A   1      40.111  34.322  37.383  1.00  0.00     0.009 A 
ATOM     70  C   UNL A   1      41.729  35.600  36.123  1.00  0.00     0.009 A 
ATOM     71  C   UNL A   1      40.053  35.336  38.341  1.00  0.00     0.001 A 
ATOM     72  C   UNL A   1      41.695  36.599  37.100  1.00  0.00     0.001 A 
ATOM     73  C   UNL A   1      40.849  36.472  38.200  1.00  0.00     0.000 A 
ENDBRANCH  54  68
BRANCH  55  74
ATOM     74  C   UNL A   1      40.293  27.926  28.715  1.00  0.00    -0.014 A 
ATOM     75  C   UNL A   1      39.581  26.725  28.878  1.00  0.00     0.009 A 
ATOM     76  C   UNL A   1      40.952  28.158  27.498  1.00  0.00     0.009 A 
ATOM     77  C   UNL A   1      39.559  25.766  27.863  1.00  0.00     0.001 A 
ATOM     78  C   UNL A   1      40.898  27.213  26.471  1.00  0.00     0.001 A 
ATOM     79  C   UNL A   1      40.214  26.012  26.659  1.00  0.00     0.000 A 
ENDBRANCH  55  74
BRANCH  67  80
ATOM     80  C   UNL A   1      44.491  28.518  34.299  1.00  0.00    -0.014 A 
ATOM     81  C   UNL A   1      44.259  27.491  35.229  1.00  0.00     0.009 A 
ATOM     82  C   UNL A   1      45.815  28.850  33.975  1.00  0.00     0.009 A 
ATOM     83  C   UNL A   1      45.326  26.835  35.846  1.00  0.00     0.001 A 
ATOM     84  C   UNL A   1      46.881  28.167  34.567  1.00  0.00     0.001 A 
ATOM     85  C   UNL A   1      46.635  27.171  35.512  1.00  0.00     0.000 A 
ENDBRANCH  67  80
ENDBRANCH  41  42
ENDBRANCH  34  36
ENDBRANCH  33  34
ENDBRANCH  32  33
ENDBRANCH  31  32
ENDBRANCH  30  31
ENDBRANCH   1  30
TORSDOF 18
ENDMDL
