MODEL 1
REMARK VINA RESULT:     -10.8      0.000      0.000
REMARK SMILES COc1ccc2[nH]c(C(=O)c3cc(C)ccn3)c(CC(=O)OCCOCCOC(=O)c3ccc(-c4c5nc(c(-c6ccccc6)c6ccc([nH]6)c(-c6ccccc6)c6nc(c(-c7ccccc7)c7ccc4[nH]7)C=C6)C=C5)cc3)c2c1
REMARK SMILES IDX 24 1 23 2 22 3 20 4 21 5 19 6 18 7 3 8 4 9 80 10 5 11 79 12
REMARK SMILES IDX 6 13 7 14 8 15 2 17 1 18 9 19 10 20 11 21 12 22 17 23 13 24
REMARK SMILES IDX 16 25 14 26 15 27 25 28 26 29 27 30 28 31 29 32 30 33 31 34
REMARK SMILES IDX 32 35 78 36 33 37 77 38 34 39 35 40 36 41 71 42 37 43 76 44
REMARK SMILES IDX 70 45 72 46 38 47 75 48 69 49 68 50 39 52 61 53 46 54 60 55
REMARK SMILES IDX 47 56 50 57 59 58 73 59 48 60 49 61 58 63 74 64 51 65 40 66
REMARK SMILES IDX 41 67 45 68 42 69 44 70 43 71 62 72 63 73 67 74 64 75 66 76
REMARK SMILES IDX 65 77 52 78 53 79 57 80 54 81 56 82 55 83
REMARK H PARENT 7 16 72 51 50 62
REMARK Flexibility Score: inf
ROOT
ATOM      1  C   UNL A   1      37.568  23.788  26.118  1.00  0.00     0.202 C 
ENDROOT
BRANCH   1   2
ATOM      2  C   UNL A   1      36.377  23.819  25.148  1.00  0.00     0.261 C 
BRANCH   2   3
ATOM      3  O   UNL A   1      35.162  24.348  25.723  1.00  0.00    -0.463 OA
BRANCH   3   4
ATOM      4  C   UNL A   1      34.379  25.054  24.858  1.00  0.00     0.310 C 
ATOM      5  O   UNL A   1      34.354  24.855  23.644  1.00  0.00    -0.252 OA
BRANCH   4   6
ATOM      6  C   UNL A   1      33.423  26.037  25.506  1.00  0.00     0.161 C 
BRANCH   6   7
ATOM      7  C   UNL A   1      31.946  25.803  25.334  1.00  0.00     0.000 A 
ATOM      8  C   UNL A   1      30.194  28.448  23.171  1.00  0.00     0.119 A 
ATOM      9  C   UNL A   1      28.939  27.845  23.200  1.00  0.00     0.048 A 
ATOM     10  C   UNL A   1      31.260  27.876  23.880  1.00  0.00     0.057 A 
ATOM     11  C   UNL A   1      28.717  26.669  23.930  1.00  0.00     0.030 A 
ATOM     12  C   UNL A   1      31.072  26.676  24.600  1.00  0.00     0.008 A 
ATOM     13  C   UNL A   1      29.805  26.104  24.606  1.00  0.00     0.046 A 
ATOM     14  N   UNL A   1      29.889  24.952  25.348  1.00  0.00    -0.352 N 
ATOM     15  C   UNL A   1      31.202  24.661  25.664  1.00  0.00     0.093 A 
ATOM     16  H   UNL A   1      29.117  24.406  25.620  1.00  0.00     0.167 HD
BRANCH   8  17
ATOM     17  O   UNL A   1      30.531  29.568  22.459  1.00  0.00    -0.497 OA
ATOM     18  C   UNL A   1      29.466  30.315  21.885  1.00  0.00     0.278 C 
ENDBRANCH   8  17
BRANCH  15  19
ATOM     19  C   UNL A   1      31.661  23.387  26.222  1.00  0.00     0.227 C 
ATOM     20  O   UNL A   1      31.812  23.193  27.427  1.00  0.00    -0.285 OA
BRANCH  19  21
ATOM     21  C   UNL A   1      31.929  22.236  25.306  1.00  0.00     0.113 A 
ATOM     22  C   UNL A   1      32.258  20.979  25.791  1.00  0.00     0.036 A 
ATOM     23  N   UNL A   1      31.836  22.524  23.983  1.00  0.00    -0.253 NA
ATOM     24  C   UNL A   1      32.526  19.968  24.859  1.00  0.00    -0.047 A 
ATOM     25  C   UNL A   1      32.103  21.542  23.106  1.00  0.00     0.112 A 
ATOM     26  C   UNL A   1      32.870  18.573  25.287  1.00  0.00     0.044 C 
ATOM     27  C   UNL A   1      32.453  20.263  23.493  1.00  0.00     0.023 A 
ENDBRANCH  19  21
ENDBRANCH  15  19
ENDBRANCH   6   7
ENDBRANCH   4   6
ENDBRANCH   3   4
ENDBRANCH   2   3
ENDBRANCH   1   2
BRANCH   1  28
ATOM     28  O   UNL A   1      38.450  22.669  26.045  1.00  0.00    -0.374 OA
BRANCH  28  29
ATOM     29  C   UNL A   1      38.048  21.579  25.220  1.00  0.00     0.202 C 
BRANCH  29  30
ATOM     30  C   UNL A   1      38.831  20.273  25.371  1.00  0.00     0.261 C 
BRANCH  30  31
ATOM     31  O   UNL A   1      39.677  20.207  26.519  1.00  0.00    -0.460 OA
BRANCH  31  32
ATOM     32  C   UNL A   1      40.972  19.969  26.242  1.00  0.00     0.338 C 
ATOM     33  O   UNL A   1      41.474  18.994  25.695  1.00  0.00    -0.246 OA
BRANCH  32  34
ATOM     34  C   UNL A   1      41.750  21.139  26.643  1.00  0.00     0.060 A 
ATOM     35  C   UNL A   1      41.836  21.442  28.004  1.00  0.00     0.016 A 
ATOM     36  C   UNL A   1      42.288  21.985  25.671  1.00  0.00     0.016 A 
ATOM     37  C   UNL A   1      42.415  22.643  28.396  1.00  0.00     0.010 A 
ATOM     38  C   UNL A   1      42.877  23.184  26.068  1.00  0.00     0.010 A 
ATOM     39  C   UNL A   1      42.899  23.537  27.428  1.00  0.00    -0.014 A 
BRANCH  39  40
ATOM     40  C   UNL A   1      43.291  24.899  27.847  1.00  0.00     0.031 A 
ATOM     41  C   UNL A   1      42.218  25.921  28.103  1.00  0.00     0.074 A 
ATOM     42  C   UNL A   1      44.585  25.193  28.056  1.00  0.00     0.049 A 
ATOM     43  N   UNL A   1      42.330  27.139  28.564  1.00  0.00    -0.248 NA
ATOM     44  C   UNL A   1      40.835  25.516  27.800  1.00  0.00     0.031 C 
ATOM     45  C   UNL A   1      45.702  24.272  27.853  1.00  0.00     0.029 A 
ATOM     46  N   UNL A   1      45.174  26.347  28.502  1.00  0.00    -0.354 N 
ATOM     47  C   UNL A   1      41.037  27.644  28.611  1.00  0.00     0.074 A 
ATOM     48  C   UNL A   1      40.159  26.616  28.096  1.00  0.00     0.031 C 
ATOM     49  C   UNL A   1      46.846  24.894  28.190  1.00  0.00     0.029 A 
ATOM     50  C   UNL A   1      46.539  26.258  28.612  1.00  0.00     0.049 A 
ATOM     51  H   UNL A   1      44.666  27.161  28.722  1.00  0.00     0.167 HD
ATOM     52  C   UNL A   1      40.617  28.851  29.055  1.00  0.00     0.031 A 
ATOM     53  C   UNL A   1      47.436  27.177  29.012  1.00  0.00     0.031 A 
ATOM     54  C   UNL A   1      41.497  29.873  29.557  1.00  0.00     0.049 A 
ATOM     55  C   UNL A   1      46.948  28.526  29.461  1.00  0.00     0.074 A 
ATOM     56  C   UNL A   1      41.175  31.123  30.053  1.00  0.00     0.029 A 
ATOM     57  N   UNL A   1      42.877  29.759  29.615  1.00  0.00    -0.354 N 
ATOM     58  N   UNL A   1      45.718  28.974  29.548  1.00  0.00    -0.248 NA
ATOM     59  C   UNL A   1      47.972  29.493  29.880  1.00  0.00     0.031 C 
ATOM     60  C   UNL A   1      42.368  31.787  30.365  1.00  0.00     0.029 A 
ATOM     61  C   UNL A   1      43.426  30.928  30.111  1.00  0.00     0.049 A 
ATOM     62  H   UNL A   1      43.391  28.964  29.344  1.00  0.00     0.167 HD
ATOM     63  C   UNL A   1      45.818  30.264  30.049  1.00  0.00     0.074 A 
ATOM     64  C   UNL A   1      47.228  30.521  30.266  1.00  0.00     0.031 C 
ATOM     65  C   UNL A   1      44.834  31.160  30.307  1.00  0.00     0.031 A 
BRANCH  52  66
ATOM     66  C   UNL A   1      39.144  29.138  28.990  1.00  0.00    -0.014 A 
ATOM     67  C   UNL A   1      38.545  29.623  27.816  1.00  0.00     0.009 A 
ATOM     68  C   UNL A   1      38.337  28.899  30.114  1.00  0.00     0.009 A 
ATOM     69  C   UNL A   1      37.175  29.892  27.779  1.00  0.00     0.001 A 
ATOM     70  C   UNL A   1      36.964  29.146  30.066  1.00  0.00     0.001 A 
ATOM     71  C   UNL A   1      36.386  29.650  28.903  1.00  0.00     0.000 A 
ENDBRANCH  52  66
BRANCH  53  72
ATOM     72  C   UNL A   1      48.886  26.850  29.004  1.00  0.00    -0.014 A 
ATOM     73  C   UNL A   1      49.674  27.106  27.872  1.00  0.00     0.009 A 
ATOM     74  C   UNL A   1      49.489  26.282  30.136  1.00  0.00     0.009 A 
ATOM     75  C   UNL A   1      51.032  26.777  27.868  1.00  0.00     0.001 A 
ATOM     76  C   UNL A   1      50.852  25.980  30.139  1.00  0.00     0.001 A 
ATOM     77  C   UNL A   1      51.620  26.220  29.002  1.00  0.00     0.000 A 
ENDBRANCH  53  72
BRANCH  65  78
ATOM     78  C   UNL A   1      45.252  32.490  30.863  1.00  0.00    -0.014 A 
ATOM     79  C   UNL A   1      45.532  33.574  30.015  1.00  0.00     0.009 A 
ATOM     80  C   UNL A   1      45.332  32.672  32.252  1.00  0.00     0.009 A 
ATOM     81  C   UNL A   1      45.917  34.805  30.550  1.00  0.00     0.001 A 
ATOM     82  C   UNL A   1      45.691  33.911  32.784  1.00  0.00     0.001 A 
ATOM     83  C   UNL A   1      45.991  34.972  31.933  1.00  0.00     0.000 A 
ENDBRANCH  65  78
ENDBRANCH  39  40
ENDBRANCH  32  34
ENDBRANCH  31  32
ENDBRANCH  30  31
ENDBRANCH  29  30
ENDBRANCH  28  29
ENDBRANCH   1  28
TORSDOF 18
ENDMDL
MODEL 2
REMARK VINA RESULT:     -10.8      3.425      8.772
REMARK SMILES COc1ccc2[nH]c(C(=O)c3cc(C)ccn3)c(CC(=O)OCCOCCOC(=O)c3ccc(-c4c5nc(c(-c6ccccc6)c6ccc([nH]6)c(-c6ccccc6)c6nc(c(-c7ccccc7)c7ccc4[nH]7)C=C6)C=C5)cc3)c2c1
REMARK SMILES IDX 24 1 23 2 22 3 20 4 21 5 19 6 18 7 3 8 4 9 80 10 5 11 79 12
REMARK SMILES IDX 6 13 7 14 8 15 2 17 1 18 9 19 10 20 11 21 12 22 17 23 13 24
REMARK SMILES IDX 16 25 14 26 15 27 25 28 26 29 27 30 28 31 29 32 30 33 31 34
REMARK SMILES IDX 32 35 78 36 33 37 77 38 34 39 35 40 36 41 71 42 37 43 76 44
REMARK SMILES IDX 70 45 72 46 38 47 75 48 69 49 68 50 39 52 61 53 46 54 60 55
REMARK SMILES IDX 47 56 50 57 59 58 73 59 48 60 49 61 58 63 74 64 51 65 40 66
REMARK SMILES IDX 41 67 45 68 42 69 44 70 43 71 62 72 63 73 67 74 64 75 66 76
REMARK SMILES IDX 65 77 52 78 53 79 57 80 54 81 56 82 55 83
REMARK H PARENT 7 16 72 51 50 62
REMARK Flexibility Score: inf
ROOT
ATOM      1  C   UNL A   1      32.279  28.375  27.442  1.00  0.00     0.202 C 
ENDROOT
BRANCH   1   2
ATOM      2  C   UNL A   1      31.843  27.278  26.460  1.00  0.00     0.261 C 
BRANCH   2   3
ATOM      3  O   UNL A   1      32.939  26.533  25.885  1.00  0.00    -0.463 OA
BRANCH   3   4
ATOM      4  C   UNL A   1      32.825  25.178  25.984  1.00  0.00     0.310 C 
ATOM      5  O   UNL A   1      31.916  24.613  26.591  1.00  0.00    -0.252 OA
BRANCH   4   6
ATOM      6  C   UNL A   1      33.834  24.383  25.177  1.00  0.00     0.161 C 
BRANCH   6   7
ATOM      7  C   UNL A   1      33.339  23.634  23.969  1.00  0.00     0.000 A 
ATOM      8  C   UNL A   1      32.610  19.923  24.633  1.00  0.00     0.119 A 
ATOM      9  C   UNL A   1      32.129  19.643  23.356  1.00  0.00     0.048 A 
ATOM     10  C   UNL A   1      33.078  21.209  24.936  1.00  0.00     0.057 A 
ATOM     11  C   UNL A   1      32.102  20.629  22.360  1.00  0.00     0.030 A 
ATOM     12  C   UNL A   1      33.036  22.229  23.960  1.00  0.00     0.008 A 
ATOM     13  C   UNL A   1      32.549  21.912  22.698  1.00  0.00     0.046 A 
ATOM     14  N   UNL A   1      32.593  23.064  21.951  1.00  0.00    -0.352 N 
ATOM     15  C   UNL A   1      32.912  24.153  22.738  1.00  0.00     0.093 A 
ATOM     16  H   UNL A   1      32.419  23.107  20.983  1.00  0.00     0.167 HD
BRANCH   8  17
ATOM     17  O   UNL A   1      32.641  19.051  25.688  1.00  0.00    -0.497 OA
ATOM     18  C   UNL A   1      32.626  17.662  25.382  1.00  0.00     0.278 C 
ENDBRANCH   8  17
BRANCH  15  19
ATOM     19  C   UNL A   1      32.796  25.549  22.313  1.00  0.00     0.227 C 
ATOM     20  O   UNL A   1      33.666  26.134  21.671  1.00  0.00    -0.285 OA
BRANCH  19  21
ATOM     21  C   UNL A   1      31.551  26.313  22.629  1.00  0.00     0.113 A 
ATOM     22  C   UNL A   1      31.395  27.641  22.258  1.00  0.00     0.036 A 
ATOM     23  N   UNL A   1      30.606  25.613  23.308  1.00  0.00    -0.253 NA
ATOM     24  C   UNL A   1      30.209  28.288  22.626  1.00  0.00    -0.047 A 
ATOM     25  C   UNL A   1      29.479  26.255  23.656  1.00  0.00     0.112 A 
ATOM     26  C   UNL A   1      29.942  29.716  22.254  1.00  0.00     0.044 C 
ATOM     27  C   UNL A   1      29.240  27.579  23.345  1.00  0.00     0.023 A 
ENDBRANCH  19  21
ENDBRANCH  15  19
ENDBRANCH   6   7
ENDBRANCH   4   6
ENDBRANCH   3   4
ENDBRANCH   2   3
ENDBRANCH   1   2
BRANCH   1  28
ATOM     28  O   UNL A   1      31.746  29.685  27.248  1.00  0.00    -0.374 OA
BRANCH  28  29
ATOM     29  C   UNL A   1      32.678  30.739  27.026  1.00  0.00     0.202 C 
BRANCH  29  30
ATOM     30  C   UNL A   1      32.158  32.168  27.193  1.00  0.00     0.261 C 
BRANCH  30  31
ATOM     31  O   UNL A   1      33.153  33.187  27.094  1.00  0.00    -0.460 OA
BRANCH  31  32
ATOM     32  C   UNL A   1      33.253  33.975  28.180  1.00  0.00     0.338 C 
ATOM     33  O   UNL A   1      32.453  34.797  28.609  1.00  0.00    -0.246 OA
BRANCH  32  34
ATOM     34  C   UNL A   1      34.499  33.648  28.870  1.00  0.00     0.060 A 
ATOM     35  C   UNL A   1      35.701  34.098  28.317  1.00  0.00     0.016 A 
ATOM     36  C   UNL A   1      34.478  32.811  29.987  1.00  0.00     0.016 A 
ATOM     37  C   UNL A   1      36.903  33.651  28.852  1.00  0.00     0.010 A 
ATOM     38  C   UNL A   1      35.686  32.372  30.528  1.00  0.00     0.010 A 
ATOM     39  C   UNL A   1      36.899  32.754  29.931  1.00  0.00    -0.014 A 
BRANCH  39  40
ATOM     40  C   UNL A   1      38.170  32.112  30.329  1.00  0.00     0.031 A 
ATOM     41  C   UNL A   1      38.989  32.734  31.425  1.00  0.00     0.074 A 
ATOM     42  C   UNL A   1      38.548  30.956  29.758  1.00  0.00     0.049 A 
ATOM     43  N   UNL A   1      40.081  32.292  31.993  1.00  0.00    -0.248 NA
ATOM     44  C   UNL A   1      38.514  34.024  31.954  1.00  0.00     0.031 C 
ATOM     45  C   UNL A   1      37.819  30.261  28.698  1.00  0.00     0.029 A 
ATOM     46  N   UNL A   1      39.632  30.155  30.006  1.00  0.00    -0.354 N 
ATOM     47  C   UNL A   1      40.420  33.244  32.946  1.00  0.00     0.074 A 
ATOM     48  C   UNL A   1      39.444  34.306  32.854  1.00  0.00     0.031 C 
ATOM     49  C   UNL A   1      38.471  29.125  28.394  1.00  0.00     0.029 A 
ATOM     50  C   UNL A   1      39.668  29.027  29.226  1.00  0.00     0.049 A 
ATOM     51  H   UNL A   1      40.318  30.369  30.678  1.00  0.00     0.167 HD
ATOM     52  C   UNL A   1      41.449  33.229  33.826  1.00  0.00     0.031 A 
ATOM     53  C   UNL A   1      40.567  28.027  29.192  1.00  0.00     0.031 A 
ATOM     54  C   UNL A   1      42.423  32.174  33.904  1.00  0.00     0.049 A 
ATOM     55  C   UNL A   1      41.725  28.054  30.152  1.00  0.00     0.074 A 
ATOM     56  C   UNL A   1      43.492  32.047  34.773  1.00  0.00     0.029 A 
ATOM     57  N   UNL A   1      42.449  31.067  33.070  1.00  0.00    -0.354 N 
ATOM     58  N   UNL A   1      42.007  28.934  31.082  1.00  0.00    -0.248 NA
ATOM     59  C   UNL A   1      42.680  26.940  30.067  1.00  0.00     0.031 C 
ATOM     60  C   UNL A   1      44.195  30.886  34.430  1.00  0.00     0.029 A 
ATOM     61  C   UNL A   1      43.532  30.265  33.383  1.00  0.00     0.049 A 
ATOM     62  H   UNL A   1      41.793  30.878  32.360  1.00  0.00     0.167 HD
ATOM     63  C   UNL A   1      43.158  28.474  31.704  1.00  0.00     0.074 A 
ATOM     64  C   UNL A   1      43.511  27.224  31.060  1.00  0.00     0.031 C 
ATOM     65  C   UNL A   1      43.865  29.032  32.718  1.00  0.00     0.031 A 
BRANCH  52  66
ATOM     66  C   UNL A   1      41.583  34.403  34.753  1.00  0.00    -0.014 A 
ATOM     67  C   UNL A   1      40.880  34.458  35.968  1.00  0.00     0.009 A 
ATOM     68  C   UNL A   1      42.443  35.461  34.419  1.00  0.00     0.009 A 
ATOM     69  C   UNL A   1      41.011  35.563  36.812  1.00  0.00     0.001 A 
ATOM     70  C   UNL A   1      42.591  36.552  35.277  1.00  0.00     0.001 A 
ATOM     71  C   UNL A   1      41.869  36.607  36.467  1.00  0.00     0.000 A 
ENDBRANCH  52  66
BRANCH  53  72
ATOM     72  C   UNL A   1      40.408  26.919  28.215  1.00  0.00    -0.014 A 
ATOM     73  C   UNL A   1      40.970  27.005  26.932  1.00  0.00     0.009 A 
ATOM     74  C   UNL A   1      39.693  25.763  28.566  1.00  0.00     0.009 A 
ATOM     75  C   UNL A   1      40.798  25.965  26.015  1.00  0.00     0.001 A 
ATOM     76  C   UNL A   1      39.546  24.715  27.656  1.00  0.00     0.001 A 
ATOM     77  C   UNL A   1      40.091  24.820  26.379  1.00  0.00     0.000 A 
ENDBRANCH  53  72
BRANCH  65  78
ATOM     78  C   UNL A   1      45.077  28.286  33.195  1.00  0.00    -0.014 A 
ATOM     79  C   UNL A   1      44.980  27.310  34.199  1.00  0.00     0.009 A 
ATOM     80  C   UNL A   1      46.327  28.538  32.606  1.00  0.00     0.009 A 
ATOM     81  C   UNL A   1      46.117  26.625  34.628  1.00  0.00     0.001 A 
ATOM     82  C   UNL A   1      47.458  27.832  33.019  1.00  0.00     0.001 A 
ATOM     83  C   UNL A   1      47.353  26.883  34.035  1.00  0.00     0.000 A 
ENDBRANCH  65  78
ENDBRANCH  39  40
ENDBRANCH  32  34
ENDBRANCH  31  32
ENDBRANCH  30  31
ENDBRANCH  29  30
ENDBRANCH  28  29
ENDBRANCH   1  28
TORSDOF 18
ENDMDL
MODEL 3
REMARK VINA RESULT:     -10.7      3.629      8.856
REMARK SMILES COc1ccc2[nH]c(C(=O)c3cc(C)ccn3)c(CC(=O)OCCOCCOC(=O)c3ccc(-c4c5nc(c(-c6ccccc6)c6ccc([nH]6)c(-c6ccccc6)c6nc(c(-c7ccccc7)c7ccc4[nH]7)C=C6)C=C5)cc3)c2c1
REMARK SMILES IDX 24 1 23 2 22 3 20 4 21 5 19 6 18 7 3 8 4 9 80 10 5 11 79 12
REMARK SMILES IDX 6 13 7 14 8 15 2 17 1 18 9 19 10 20 11 21 12 22 17 23 13 24
REMARK SMILES IDX 16 25 14 26 15 27 25 28 26 29 27 30 28 31 29 32 30 33 31 34
REMARK SMILES IDX 32 35 78 36 33 37 77 38 34 39 35 40 36 41 71 42 37 43 76 44
REMARK SMILES IDX 70 45 72 46 38 47 75 48 69 49 68 50 39 52 61 53 46 54 60 55
REMARK SMILES IDX 47 56 50 57 59 58 73 59 48 60 49 61 58 63 74 64 51 65 40 66
REMARK SMILES IDX 41 67 45 68 42 69 44 70 43 71 62 72 63 73 67 74 64 75 66 76
REMARK SMILES IDX 65 77 52 78 53 79 57 80 54 81 56 82 55 83
REMARK H PARENT 7 16 72 51 50 62
REMARK Flexibility Score: inf
ROOT
ATOM      1  C   UNL A   1      32.288  28.422  27.549  1.00  0.00     0.202 C 
ENDROOT
BRANCH   1   2
ATOM      2  C   UNL A   1      31.899  27.403  26.468  1.00  0.00     0.261 C 
BRANCH   2   3
ATOM      3  O   UNL A   1      33.023  26.727  25.863  1.00  0.00    -0.463 OA
BRANCH   3   4
ATOM      4  C   UNL A   1      32.962  25.366  25.901  1.00  0.00     0.310 C 
ATOM      5  O   UNL A   1      32.099  24.740  26.515  1.00  0.00    -0.252 OA
BRANCH   4   6
ATOM      6  C   UNL A   1      33.964  24.648  25.018  1.00  0.00     0.161 C 
BRANCH   6   7
ATOM      7  C   UNL A   1      33.444  23.915  23.810  1.00  0.00     0.000 A 
ATOM      8  C   UNL A   1      32.558  20.240  24.484  1.00  0.00     0.119 A 
ATOM      9  C   UNL A   1      32.071  19.976  23.205  1.00  0.00     0.048 A 
ATOM     10  C   UNL A   1      33.078  21.508  24.784  1.00  0.00     0.057 A 
ATOM     11  C   UNL A   1      32.090  20.959  22.205  1.00  0.00     0.030 A 
ATOM     12  C   UNL A   1      33.083  22.525  23.805  1.00  0.00     0.008 A 
ATOM     13  C   UNL A   1      32.589  22.223  22.541  1.00  0.00     0.046 A 
ATOM     14  N   UNL A   1      32.684  23.370  21.791  1.00  0.00    -0.352 N 
ATOM     15  C   UNL A   1      33.045  24.447  22.576  1.00  0.00     0.093 A 
ATOM     16  H   UNL A   1      32.517  23.417  20.822  1.00  0.00     0.167 HD
BRANCH   8  17
ATOM     17  O   UNL A   1      32.548  19.372  25.542  1.00  0.00    -0.497 OA
ATOM     18  C   UNL A   1      32.905  18.021  25.275  1.00  0.00     0.278 C 
ENDBRANCH   8  17
BRANCH  15  19
ATOM     19  C   UNL A   1      32.989  25.846  22.145  1.00  0.00     0.227 C 
ATOM     20  O   UNL A   1      33.811  26.351  21.383  1.00  0.00    -0.285 OA
BRANCH  19  21
ATOM     21  C   UNL A   1      31.864  26.714  22.609  1.00  0.00     0.113 A 
ATOM     22  C   UNL A   1      30.670  26.178  23.068  1.00  0.00     0.036 A 
ATOM     23  N   UNL A   1      32.102  28.049  22.533  1.00  0.00    -0.253 NA
ATOM     24  C   UNL A   1      29.657  27.068  23.451  1.00  0.00    -0.047 A 
ATOM     25  C   UNL A   1      31.115  28.884  22.899  1.00  0.00     0.112 A 
ATOM     26  C   UNL A   1      28.340  26.583  23.977  1.00  0.00     0.044 C 
ATOM     27  C   UNL A   1      29.888  28.445  23.354  1.00  0.00     0.023 A 
ENDBRANCH  19  21
ENDBRANCH  15  19
ENDBRANCH   6   7
ENDBRANCH   4   6
ENDBRANCH   3   4
ENDBRANCH   2   3
ENDBRANCH   1   2
BRANCH   1  28
ATOM     28  O   UNL A   1      31.850  29.769  27.375  1.00  0.00    -0.374 OA
BRANCH  28  29
ATOM     29  C   UNL A   1      32.858  30.762  27.200  1.00  0.00     0.202 C 
BRANCH  29  30
ATOM     30  C   UNL A   1      32.416  32.222  27.310  1.00  0.00     0.261 C 
BRANCH  30  31
ATOM     31  O   UNL A   1      33.477  33.176  27.278  1.00  0.00    -0.460 OA
BRANCH  31  32
ATOM     32  C   UNL A   1      33.499  34.018  28.327  1.00  0.00     0.338 C 
ATOM     33  O   UNL A   1      32.681  34.872  28.646  1.00  0.00    -0.246 OA
BRANCH  32  34
ATOM     34  C   UNL A   1      34.678  33.712  29.135  1.00  0.00     0.060 A 
ATOM     35  C   UNL A   1      35.936  34.050  28.627  1.00  0.00     0.016 A 
ATOM     36  C   UNL A   1      34.540  32.998  30.327  1.00  0.00     0.016 A 
ATOM     37  C   UNL A   1      37.075  33.610  29.290  1.00  0.00     0.010 A 
ATOM     38  C   UNL A   1      35.685  32.567  30.994  1.00  0.00     0.010 A 
ATOM     39  C   UNL A   1      36.954  32.831  30.451  1.00  0.00    -0.014 A 
BRANCH  39  40
ATOM     40  C   UNL A   1      38.161  32.180  31.003  1.00  0.00     0.031 A 
ATOM     41  C   UNL A   1      38.674  30.926  30.352  1.00  0.00     0.074 A 
ATOM     42  C   UNL A   1      38.819  32.742  32.030  1.00  0.00     0.049 A 
ATOM     43  N   UNL A   1      39.761  30.246  30.611  1.00  0.00    -0.248 NA
ATOM     44  C   UNL A   1      37.856  30.363  29.265  1.00  0.00     0.031 C 
ATOM     45  C   UNL A   1      38.416  33.965  32.722  1.00  0.00     0.029 A 
ATOM     46  N   UNL A   1      39.978  32.364  32.657  1.00  0.00    -0.354 N 
ATOM     47  C   UNL A   1      39.760  29.181  29.718  1.00  0.00     0.074 A 
ATOM     48  C   UNL A   1      38.547  29.281  28.938  1.00  0.00     0.031 C 
ATOM     49  C   UNL A   1      39.324  34.246  33.673  1.00  0.00     0.029 A 
ATOM     50  C   UNL A   1      40.357  33.214  33.664  1.00  0.00     0.049 A 
ATOM     51  H   UNL A   1      40.488  31.559  32.408  1.00  0.00     0.167 HD
ATOM     52  C   UNL A   1      40.692  28.214  29.557  1.00  0.00     0.031 A 
ATOM     53  C   UNL A   1      41.423  33.164  34.484  1.00  0.00     0.031 A 
ATOM     54  C   UNL A   1      41.891  28.114  30.346  1.00  0.00     0.049 A 
ATOM     55  C   UNL A   1      42.423  32.054  34.312  1.00  0.00     0.074 A 
ATOM     56  C   UNL A   1      42.913  27.187  30.250  1.00  0.00     0.029 A 
ATOM     57  N   UNL A   1      42.220  28.972  31.383  1.00  0.00    -0.354 N 
ATOM     58  N   UNL A   1      42.437  31.082  33.431  1.00  0.00    -0.248 NA
ATOM     59  C   UNL A   1      43.564  32.043  35.239  1.00  0.00     0.031 C 
ATOM     60  C   UNL A   1      43.838  27.455  31.266  1.00  0.00     0.029 A 
ATOM     61  C   UNL A   1      43.416  28.580  31.958  1.00  0.00     0.049 A 
ATOM     62  H   UNL A   1      41.683  29.746  31.669  1.00  0.00     0.167 HD
ATOM     63  C   UNL A   1      43.592  30.356  33.684  1.00  0.00     0.074 A 
ATOM     64  C   UNL A   1      44.265  31.012  34.788  1.00  0.00     0.031 C 
ATOM     65  C   UNL A   1      44.057  29.245  33.062  1.00  0.00     0.031 A 
BRANCH  52  66
ATOM     66  C   UNL A   1      40.433  27.172  28.505  1.00  0.00    -0.014 A 
ATOM     67  C   UNL A   1      40.894  27.334  27.189  1.00  0.00     0.009 A 
ATOM     68  C   UNL A   1      39.737  26.001  28.841  1.00  0.00     0.009 A 
ATOM     69  C   UNL A   1      40.636  26.359  26.223  1.00  0.00     0.001 A 
ATOM     70  C   UNL A   1      39.502  25.016  27.880  1.00  0.00     0.001 A 
ATOM     71  C   UNL A   1      39.943  25.200  26.571  1.00  0.00     0.000 A 
ENDBRANCH  52  66
BRANCH  53  72
ATOM     72  C   UNL A   1      41.596  34.194  35.540  1.00  0.00    -0.014 A 
ATOM     73  C   UNL A   1      41.023  34.026  36.810  1.00  0.00     0.009 A 
ATOM     74  C   UNL A   1      42.342  35.354  35.281  1.00  0.00     0.009 A 
ATOM     75  C   UNL A   1      41.176  35.010  37.790  1.00  0.00     0.001 A 
ATOM     76  C   UNL A   1      42.516  36.323  36.271  1.00  0.00     0.001 A 
ATOM     77  C   UNL A   1      41.926  36.154  37.521  1.00  0.00     0.000 A 
ENDBRANCH  53  72
BRANCH  65  78
ATOM     78  C   UNL A   1      45.359  28.683  33.556  1.00  0.00    -0.014 A 
ATOM     79  C   UNL A   1      46.585  29.125  33.032  1.00  0.00     0.009 A 
ATOM     80  C   UNL A   1      45.361  27.726  34.583  1.00  0.00     0.009 A 
ATOM     81  C   UNL A   1      47.785  28.594  33.505  1.00  0.00     0.001 A 
ATOM     82  C   UNL A   1      46.565  27.217  35.072  1.00  0.00     0.001 A 
ATOM     83  C   UNL A   1      47.774  27.644  34.526  1.00  0.00     0.000 A 
ENDBRANCH  65  78
ENDBRANCH  39  40
ENDBRANCH  32  34
ENDBRANCH  31  32
ENDBRANCH  30  31
ENDBRANCH  29  30
ENDBRANCH  28  29
ENDBRANCH   1  28
TORSDOF 18
ENDMDL
