MODEL 1
REMARK VINA RESULT:     -10.8      0.000      0.000
REMARK SMILES Cc1cc(C)cc(C2(C(=O)OCCOCCOC(=O)c3ccc(-c4c5nc(c(-c6ccccc6)c6ccc([nH]6)c(-c6ccccc6)c6nc(c(-c7ccccc7)c7ccc4[nH]7)C=C6)C=C5)cc3)CCOCC2)c1
REMARK SMILES IDX 15 1 14 2 13 3 12 4 11 5 9 6 10 7 8 8 68 9 72 10 69 11 71 12
REMARK SMILES IDX 70 13 7 14 1 15 2 16 3 17 73 18 4 19 5 20 6 21 16 22 17 23
REMARK SMILES IDX 18 24 19 25 20 26 21 27 67 28 22 29 66 30 23 31 24 32 25 33
REMARK SMILES IDX 60 34 26 35 65 36 59 37 61 38 27 39 64 40 58 41 57 42 28 44
REMARK SMILES IDX 50 45 35 46 49 47 36 48 39 49 48 50 62 51 37 52 38 53 47 55
REMARK SMILES IDX 63 56 40 57 29 58 30 59 34 60 31 61 33 62 32 63 51 64 52 65
REMARK SMILES IDX 56 66 53 67 55 68 54 69 41 70 42 71 46 72 43 73 45 74 44 75
REMARK H PARENT 61 43 39 54
REMARK Flexibility Score: inf
ROOT
ATOM      1  C   UNL A   1      35.277  20.841  24.962  1.00  0.00     0.202 C 
ENDROOT
BRANCH   1   2
ATOM      2  O   UNL A   1      34.689  21.323  26.170  1.00  0.00    -0.374 OA
BRANCH   2   3
ATOM      3  C   UNL A   1      34.676  22.731  26.393  1.00  0.00     0.202 C 
BRANCH   3   4
ATOM      4  C   UNL A   1      33.340  23.453  26.196  1.00  0.00     0.261 C 
BRANCH   4   5
ATOM      5  O   UNL A   1      33.510  24.877  26.142  1.00  0.00    -0.463 OA
BRANCH   5   6
ATOM      6  C   UNL A   1      32.350  25.589  26.136  1.00  0.00     0.316 C 
ATOM      7  O   UNL A   1      31.394  25.330  26.861  1.00  0.00    -0.251 OA
BRANCH   6   8
ATOM      8  C   UNL A   1      32.391  26.809  25.179  1.00  0.00     0.097 C 
ATOM      9  C   UNL A   1      33.398  26.667  24.006  1.00  0.00     0.052 C 
ATOM     10  C   UNL A   1      30.971  26.855  24.552  1.00  0.00     0.052 C 
ATOM     11  C   UNL A   1      33.053  25.529  23.058  1.00  0.00     0.161 C 
ATOM     12  C   UNL A   1      30.755  25.649  23.636  1.00  0.00     0.161 C 
ATOM     13  O   UNL A   1      31.716  25.653  22.584  1.00  0.00    -0.381 OA
BRANCH   8  14
ATOM     14  C   UNL A   1      32.772  28.094  25.964  1.00  0.00    -0.030 A 
ATOM     15  C   UNL A   1      31.422  31.629  26.572  1.00  0.00     0.044 C 
ATOM     16  C   UNL A   1      32.327  30.431  26.571  1.00  0.00    -0.051 A 
ATOM     17  C   UNL A   1      33.586  30.523  27.174  1.00  0.00     0.006 A 
ATOM     18  C   UNL A   1      31.932  29.223  25.971  1.00  0.00     0.008 A 
ATOM     19  C   UNL A   1      34.449  29.427  27.180  1.00  0.00    -0.051 A 
ATOM     20  C   UNL A   1      35.807  29.543  27.809  1.00  0.00     0.044 C 
ATOM     21  C   UNL A   1      34.027  28.222  26.599  1.00  0.00     0.008 A 
ENDBRANCH   8  14
ENDBRANCH   6   8
ENDBRANCH   5   6
ENDBRANCH   4   5
ENDBRANCH   3   4
ENDBRANCH   2   3
ENDBRANCH   1   2
BRANCH   1  22
ATOM     22  C   UNL A   1      36.725  20.341  25.017  1.00  0.00     0.261 C 
BRANCH  22  23
ATOM     23  O   UNL A   1      37.690  21.410  25.074  1.00  0.00    -0.460 OA
BRANCH  23  24
ATOM     24  C   UNL A   1      38.799  21.126  25.798  1.00  0.00     0.338 C 
ATOM     25  O   UNL A   1      39.417  20.071  25.827  1.00  0.00    -0.246 OA
BRANCH  24  26
ATOM     26  C   UNL A   1      39.315  22.339  26.453  1.00  0.00     0.060 A 
ATOM     27  C   UNL A   1      38.720  23.561  26.113  1.00  0.00     0.016 A 
ATOM     28  C   UNL A   1      40.442  22.298  27.276  1.00  0.00     0.016 A 
ATOM     29  C   UNL A   1      39.282  24.756  26.555  1.00  0.00     0.010 A 
ATOM     30  C   UNL A   1      41.014  23.502  27.706  1.00  0.00     0.010 A 
ATOM     31  C   UNL A   1      40.459  24.734  27.313  1.00  0.00    -0.014 A 
BRANCH  31  32
ATOM     32  C   UNL A   1      41.191  26.002  27.545  1.00  0.00     0.031 A 
ATOM     33  C   UNL A   1      40.561  27.056  28.414  1.00  0.00     0.074 A 
ATOM     34  C   UNL A   1      42.417  26.192  27.032  1.00  0.00     0.049 A 
ATOM     35  N   UNL A   1      41.024  28.232  28.757  1.00  0.00    -0.248 NA
ATOM     36  C   UNL A   1      39.238  26.742  28.975  1.00  0.00     0.031 C 
ATOM     37  C   UNL A   1      43.154  25.225  26.219  1.00  0.00     0.029 A 
ATOM     38  N   UNL A   1      43.262  27.268  27.127  1.00  0.00    -0.354 N 
ATOM     39  C   UNL A   1      40.049  28.797  29.570  1.00  0.00     0.074 A 
ATOM     40  C   UNL A   1      38.958  27.849  29.647  1.00  0.00     0.031 C 
ATOM     41  C   UNL A   1      44.343  25.757  25.884  1.00  0.00     0.029 A 
ATOM     42  C   UNL A   1      44.436  27.108  26.434  1.00  0.00     0.049 A 
ATOM     43  H   UNL A   1      43.047  28.080  27.642  1.00  0.00     0.167 HD
ATOM     44  C   UNL A   1      40.061  29.996  30.199  1.00  0.00     0.031 A 
ATOM     45  C   UNL A   1      45.462  27.961  26.252  1.00  0.00     0.031 A 
ATOM     46  C   UNL A   1      41.136  30.947  30.110  1.00  0.00     0.049 A 
ATOM     47  C   UNL A   1      45.414  29.322  26.893  1.00  0.00     0.074 A 
ATOM     48  C   UNL A   1      41.245  32.184  30.720  1.00  0.00     0.029 A 
ATOM     49  N   UNL A   1      42.283  30.768  29.355  1.00  0.00    -0.354 N 
ATOM     50  N   UNL A   1      44.497  29.835  27.677  1.00  0.00    -0.248 NA
ATOM     51  C   UNL A   1      46.547  30.219  26.625  1.00  0.00     0.031 C 
ATOM     52  C   UNL A   1      42.438  32.777  30.290  1.00  0.00     0.029 A 
ATOM     53  C   UNL A   1      43.094  31.885  29.457  1.00  0.00     0.049 A 
ATOM     54  H   UNL A   1      42.491  29.965  28.824  1.00  0.00     0.167 HD
ATOM     55  C   UNL A   1      44.952  31.103  28.014  1.00  0.00     0.074 A 
ATOM     56  C   UNL A   1      46.233  31.276  27.362  1.00  0.00     0.031 C 
ATOM     57  C   UNL A   1      44.363  32.042  28.795  1.00  0.00     0.031 A 
BRANCH  44  58
ATOM     58  C   UNL A   1      38.851  30.358  31.013  1.00  0.00    -0.014 A 
ATOM     59  C   UNL A   1      38.746  29.998  32.366  1.00  0.00     0.009 A 
ATOM     60  C   UNL A   1      37.810  31.092  30.423  1.00  0.00     0.009 A 
ATOM     61  C   UNL A   1      37.610  30.340  33.101  1.00  0.00     0.001 A 
ATOM     62  C   UNL A   1      36.686  31.453  31.166  1.00  0.00     0.001 A 
ATOM     63  C   UNL A   1      36.582  31.069  32.503  1.00  0.00     0.000 A 
ENDBRANCH  44  58
BRANCH  45  64
ATOM     64  C   UNL A   1      46.616  27.566  25.405  1.00  0.00    -0.014 A 
ATOM     65  C   UNL A   1      46.695  27.969  24.064  1.00  0.00     0.009 A 
ATOM     66  C   UNL A   1      47.641  26.765  25.935  1.00  0.00     0.009 A 
ATOM     67  C   UNL A   1      47.765  27.560  23.265  1.00  0.00     0.001 A 
ATOM     68  C   UNL A   1      48.723  26.380  25.141  1.00  0.00     0.001 A 
ATOM     69  C   UNL A   1      48.780  26.771  23.804  1.00  0.00     0.000 A 
ENDBRANCH  45  64
BRANCH  57  70
ATOM     70  C   UNL A   1      45.110  33.327  29.007  1.00  0.00    -0.014 A 
ATOM     71  C   UNL A   1      44.907  34.433  28.167  1.00  0.00     0.009 A 
ATOM     72  C   UNL A   1      46.000  33.446  30.087  1.00  0.00     0.009 A 
ATOM     73  C   UNL A   1      45.603  35.624  28.388  1.00  0.00     0.001 A 
ATOM     74  C   UNL A   1      46.674  34.646  30.320  1.00  0.00     0.001 A 
ATOM     75  C   UNL A   1      46.481  35.730  29.466  1.00  0.00     0.000 A 
ENDBRANCH  57  70
ENDBRANCH  31  32
ENDBRANCH  24  26
ENDBRANCH  23  24
ENDBRANCH  22  23
ENDBRANCH   1  22
TORSDOF 15
ENDMDL
MODEL 2
REMARK VINA RESULT:     -10.6      3.517      6.881
REMARK SMILES Cc1cc(C)cc(C2(C(=O)OCCOCCOC(=O)c3ccc(-c4c5nc(c(-c6ccccc6)c6ccc([nH]6)c(-c6ccccc6)c6nc(c(-c7ccccc7)c7ccc4[nH]7)C=C6)C=C5)cc3)CCOCC2)c1
REMARK SMILES IDX 15 1 14 2 13 3 12 4 11 5 9 6 10 7 8 8 68 9 72 10 69 11 71 12
REMARK SMILES IDX 70 13 7 14 1 15 2 16 3 17 73 18 4 19 5 20 6 21 16 22 17 23
REMARK SMILES IDX 18 24 19 25 20 26 21 27 67 28 22 29 66 30 23 31 24 32 25 33
REMARK SMILES IDX 60 34 26 35 65 36 59 37 61 38 27 39 64 40 58 41 57 42 28 44
REMARK SMILES IDX 50 45 35 46 49 47 36 48 39 49 48 50 62 51 37 52 38 53 47 55
REMARK SMILES IDX 63 56 40 57 29 58 30 59 34 60 31 61 33 62 32 63 51 64 52 65
REMARK SMILES IDX 56 66 53 67 55 68 54 69 41 70 42 71 46 72 43 73 45 74 44 75
REMARK H PARENT 61 43 39 54
REMARK Flexibility Score: inf
ROOT
ATOM      1  C   UNL A   1      32.040  29.601  25.081  1.00  0.00     0.202 C 
ENDROOT
BRANCH   1   2
ATOM      2  O   UNL A   1      33.397  29.300  24.754  1.00  0.00    -0.374 OA
BRANCH   2   3
ATOM      3  C   UNL A   1      33.642  28.273  23.796  1.00  0.00     0.202 C 
BRANCH   3   4
ATOM      4  C   UNL A   1      33.007  26.906  24.066  1.00  0.00     0.261 C 
BRANCH   4   5
ATOM      5  O   UNL A   1      33.952  25.985  24.630  1.00  0.00    -0.463 OA
BRANCH   5   6
ATOM      6  C   UNL A   1      34.088  24.817  23.944  1.00  0.00     0.316 C 
ATOM      7  O   UNL A   1      34.233  24.762  22.727  1.00  0.00    -0.251 OA
BRANCH   6   8
ATOM      8  C   UNL A   1      34.124  23.571  24.867  1.00  0.00     0.097 C 
ATOM      9  C   UNL A   1      33.501  23.797  26.270  1.00  0.00     0.052 C 
ATOM     10  C   UNL A   1      33.234  22.527  24.140  1.00  0.00     0.052 C 
ATOM     11  C   UNL A   1      32.013  24.113  26.218  1.00  0.00     0.161 C 
ATOM     12  C   UNL A   1      31.772  22.976  24.150  1.00  0.00     0.161 C 
ATOM     13  O   UNL A   1      31.309  23.112  25.491  1.00  0.00    -0.381 OA
BRANCH   8  14
ATOM     14  C   UNL A   1      35.591  23.105  25.082  1.00  0.00    -0.030 A 
ATOM     15  C   UNL A   1      37.725  19.951  24.644  1.00  0.00     0.044 C 
ATOM     16  C   UNL A   1      37.293  21.337  25.030  1.00  0.00    -0.051 A 
ATOM     17  C   UNL A   1      38.189  22.168  25.712  1.00  0.00     0.006 A 
ATOM     18  C   UNL A   1      36.006  21.808  24.724  1.00  0.00     0.008 A 
ATOM     19  C   UNL A   1      37.810  23.456  26.090  1.00  0.00    -0.051 A 
ATOM     20  C   UNL A   1      38.771  24.332  26.842  1.00  0.00     0.044 C 
ATOM     21  C   UNL A   1      36.530  23.918  25.752  1.00  0.00     0.008 A 
ENDBRANCH   8  14
ENDBRANCH   6   8
ENDBRANCH   5   6
ENDBRANCH   4   5
ENDBRANCH   3   4
ENDBRANCH   2   3
ENDBRANCH   1   2
BRANCH   1  22
ATOM     22  C   UNL A   1      31.777  30.712  26.105  1.00  0.00     0.261 C 
BRANCH  22  23
ATOM     23  O   UNL A   1      32.603  30.602  27.281  1.00  0.00    -0.460 OA
BRANCH  23  24
ATOM     24  C   UNL A   1      33.428  31.656  27.487  1.00  0.00     0.338 C 
ATOM     25  O   UNL A   1      33.120  32.838  27.562  1.00  0.00    -0.246 OA
BRANCH  24  26
ATOM     26  C   UNL A   1      34.790  31.195  27.798  1.00  0.00     0.060 A 
ATOM     27  C   UNL A   1      34.974  29.824  28.024  1.00  0.00     0.016 A 
ATOM     28  C   UNL A   1      35.836  32.097  28.002  1.00  0.00     0.016 A 
ATOM     29  C   UNL A   1      36.193  29.354  28.502  1.00  0.00     0.010 A 
ATOM     30  C   UNL A   1      37.057  31.624  28.497  1.00  0.00     0.010 A 
ATOM     31  C   UNL A   1      37.225  30.257  28.787  1.00  0.00    -0.014 A 
BRANCH  31  32
ATOM     32  C   UNL A   1      38.409  29.783  29.543  1.00  0.00     0.031 A 
ATOM     33  C   UNL A   1      38.580  30.219  30.973  1.00  0.00     0.074 A 
ATOM     34  C   UNL A   1      39.290  28.939  28.983  1.00  0.00     0.049 A 
ATOM     35  N   UNL A   1      39.531  29.920  31.822  1.00  0.00    -0.248 NA
ATOM     36  C   UNL A   1      37.539  31.103  31.521  1.00  0.00     0.031 C 
ATOM     37  C   UNL A   1      39.205  28.404  27.625  1.00  0.00     0.029 A 
ATOM     38  N   UNL A   1      40.432  28.379  29.497  1.00  0.00    -0.354 N 
ATOM     39  C   UNL A   1      39.204  30.581  32.999  1.00  0.00     0.074 A 
ATOM     40  C   UNL A   1      37.984  31.318  32.750  1.00  0.00     0.031 C 
ATOM     41  C   UNL A   1      40.257  27.595  27.410  1.00  0.00     0.029 A 
ATOM     42  C   UNL A   1      41.101  27.579  28.603  1.00  0.00     0.049 A 
ATOM     43  H   UNL A   1      40.744  28.537  30.417  1.00  0.00     0.167 HD
ATOM     44  C   UNL A   1      39.859  30.573  34.185  1.00  0.00     0.031 A 
ATOM     45  C   UNL A   1      42.269  26.922  28.731  1.00  0.00     0.031 A 
ATOM     46  C   UNL A   1      41.081  29.856  34.431  1.00  0.00     0.049 A 
ATOM     47  C   UNL A   1      43.022  26.997  30.032  1.00  0.00     0.074 A 
ATOM     48  C   UNL A   1      41.814  29.777  35.602  1.00  0.00     0.029 A 
ATOM     49  N   UNL A   1      41.753  29.101  33.484  1.00  0.00    -0.354 N 
ATOM     50  N   UNL A   1      42.691  27.607  31.145  1.00  0.00    -0.248 NA
ATOM     51  C   UNL A   1      44.308  26.288  30.094  1.00  0.00     0.031 C 
ATOM     52  C   UNL A   1      42.959  29.015  35.347  1.00  0.00     0.029 A 
ATOM     53  C   UNL A   1      42.910  28.576  34.034  1.00  0.00     0.049 A 
ATOM     54  H   UNL A   1      41.453  28.958  32.558  1.00  0.00     0.167 HD
ATOM     55  C   UNL A   1      43.715  27.337  32.044  1.00  0.00     0.074 A 
ATOM     56  C   UNL A   1      44.670  26.497  31.352  1.00  0.00     0.031 C 
ATOM     57  C   UNL A   1      43.852  27.747  33.329  1.00  0.00     0.031 A 
BRANCH  44  58
ATOM     58  C   UNL A   1      39.278  31.400  35.297  1.00  0.00    -0.014 A 
ATOM     59  C   UNL A   1      39.635  32.746  35.470  1.00  0.00     0.009 A 
ATOM     60  C   UNL A   1      38.341  30.828  36.172  1.00  0.00     0.009 A 
ATOM     61  C   UNL A   1      39.088  33.494  36.515  1.00  0.00     0.001 A 
ATOM     62  C   UNL A   1      37.778  31.584  37.200  1.00  0.00     0.001 A 
ATOM     63  C   UNL A   1      38.158  32.913  37.377  1.00  0.00     0.000 A 
ENDBRANCH  44  58
BRANCH  45  64
ATOM     64  C   UNL A   1      42.817  26.151  27.586  1.00  0.00    -0.014 A 
ATOM     65  C   UNL A   1      42.494  24.796  27.411  1.00  0.00     0.009 A 
ATOM     66  C   UNL A   1      43.682  26.766  26.666  1.00  0.00     0.009 A 
ATOM     67  C   UNL A   1      43.045  24.069  26.354  1.00  0.00     0.001 A 
ATOM     68  C   UNL A   1      44.210  26.043  25.595  1.00  0.00     0.001 A 
ATOM     69  C   UNL A   1      43.897  24.694  25.444  1.00  0.00     0.000 A 
ENDBRANCH  45  64
BRANCH  57  70
ATOM     70  C   UNL A   1      45.065  27.272  34.076  1.00  0.00    -0.014 A 
ATOM     71  C   UNL A   1      45.082  26.021  34.713  1.00  0.00     0.009 A 
ATOM     72  C   UNL A   1      46.221  28.069  34.107  1.00  0.00     0.009 A 
ATOM     73  C   UNL A   1      46.224  25.592  35.393  1.00  0.00     0.001 A 
ATOM     74  C   UNL A   1      47.369  27.625  34.766  1.00  0.00     0.001 A 
ATOM     75  C   UNL A   1      47.367  26.392  35.414  1.00  0.00     0.000 A 
ENDBRANCH  57  70
ENDBRANCH  31  32
ENDBRANCH  24  26
ENDBRANCH  23  24
ENDBRANCH  22  23
ENDBRANCH   1  22
TORSDOF 15
ENDMDL
MODEL 3
REMARK VINA RESULT:     -10.4      4.375      8.948
REMARK SMILES Cc1cc(C)cc(C2(C(=O)OCCOCCOC(=O)c3ccc(-c4c5nc(c(-c6ccccc6)c6ccc([nH]6)c(-c6ccccc6)c6nc(c(-c7ccccc7)c7ccc4[nH]7)C=C6)C=C5)cc3)CCOCC2)c1
REMARK SMILES IDX 15 1 14 2 13 3 12 4 11 5 9 6 10 7 8 8 68 9 72 10 69 11 71 12
REMARK SMILES IDX 70 13 7 14 1 15 2 16 3 17 73 18 4 19 5 20 6 21 16 22 17 23
REMARK SMILES IDX 18 24 19 25 20 26 21 27 67 28 22 29 66 30 23 31 24 32 25 33
REMARK SMILES IDX 60 34 26 35 65 36 59 37 61 38 27 39 64 40 58 41 57 42 28 44
REMARK SMILES IDX 50 45 35 46 49 47 36 48 39 49 48 50 62 51 37 52 38 53 47 55
REMARK SMILES IDX 63 56 40 57 29 58 30 59 34 60 31 61 33 62 32 63 51 64 52 65
REMARK SMILES IDX 56 66 53 67 55 68 54 69 41 70 42 71 46 72 43 73 45 74 44 75
REMARK H PARENT 61 43 39 54
REMARK Flexibility Score: inf
ROOT
ATOM      1  C   UNL A   1      35.500  34.297  29.070  1.00  0.00     0.202 C 
ENDROOT
BRANCH   1   2
ATOM      2  O   UNL A   1      36.658  33.791  29.735  1.00  0.00    -0.374 OA
BRANCH   2   3
ATOM      3  C   UNL A   1      36.864  34.162  31.096  1.00  0.00     0.202 C 
BRANCH   3   4
ATOM      4  C   UNL A   1      38.308  34.423  31.534  1.00  0.00     0.261 C 
BRANCH   4   5
ATOM      5  O   UNL A   1      38.897  33.260  32.136  1.00  0.00    -0.463 OA
BRANCH   5   6
ATOM      6  C   UNL A   1      39.126  33.366  33.474  1.00  0.00     0.316 C 
ATOM      7  O   UNL A   1      39.623  34.358  33.997  1.00  0.00    -0.251 OA
BRANCH   6   8
ATOM      8  C   UNL A   1      38.618  32.139  34.276  1.00  0.00     0.097 C 
ATOM      9  C   UNL A   1      38.806  32.258  35.812  1.00  0.00     0.052 C 
ATOM     10  C   UNL A   1      37.089  32.109  34.009  1.00  0.00     0.052 C 
ATOM     11  C   UNL A   1      38.002  33.394  36.425  1.00  0.00     0.161 C 
ATOM     12  C   UNL A   1      36.411  33.312  34.667  1.00  0.00     0.161 C 
ATOM     13  O   UNL A   1      36.626  33.286  36.076  1.00  0.00    -0.381 OA
BRANCH   8  14
ATOM     14  C   UNL A   1      39.361  30.854  33.817  1.00  0.00    -0.030 A 
ATOM     15  C   UNL A   1      38.565  27.451  32.242  1.00  0.00     0.044 C 
ATOM     16  C   UNL A   1      39.310  28.578  32.898  1.00  0.00    -0.051 A 
ATOM     17  C   UNL A   1      40.661  28.409  33.219  1.00  0.00     0.006 A 
ATOM     18  C   UNL A   1      38.672  29.792  33.201  1.00  0.00     0.008 A 
ATOM     19  C   UNL A   1      41.375  29.436  33.836  1.00  0.00    -0.051 A 
ATOM     20  C   UNL A   1      42.819  29.238  34.197  1.00  0.00     0.044 C 
ATOM     21  C   UNL A   1      40.727  30.651  34.106  1.00  0.00     0.008 A 
ENDBRANCH   8  14
ENDBRANCH   6   8
ENDBRANCH   5   6
ENDBRANCH   4   5
ENDBRANCH   3   4
ENDBRANCH   2   3
ENDBRANCH   1   2
BRANCH   1  22
ATOM     22  C   UNL A   1      34.301  33.357  28.901  1.00  0.00     0.261 C 
BRANCH  22  23
ATOM     23  O   UNL A   1      34.583  32.003  29.308  1.00  0.00    -0.460 OA
BRANCH  23  24
ATOM     24  C   UNL A   1      34.603  31.106  28.293  1.00  0.00     0.338 C 
ATOM     25  O   UNL A   1      33.824  31.031  27.352  1.00  0.00    -0.246 OA
BRANCH  24  26
ATOM     26  C   UNL A   1      35.824  30.287  28.349  1.00  0.00     0.060 A 
ATOM     27  C   UNL A   1      36.181  29.738  29.588  1.00  0.00     0.016 A 
ATOM     28  C   UNL A   1      36.674  30.173  27.247  1.00  0.00     0.016 A 
ATOM     29  C   UNL A   1      37.415  29.114  29.744  1.00  0.00     0.010 A 
ATOM     30  C   UNL A   1      37.921  29.558  27.411  1.00  0.00     0.010 A 
ATOM     31  C   UNL A   1      38.311  29.064  28.670  1.00  0.00    -0.014 A 
BRANCH  31  32
ATOM     32  C   UNL A   1      39.711  28.645  28.919  1.00  0.00     0.031 A 
ATOM     33  C   UNL A   1      40.651  29.611  29.586  1.00  0.00     0.074 A 
ATOM     34  C   UNL A   1      40.126  27.408  28.601  1.00  0.00     0.049 A 
ATOM     35  N   UNL A   1      41.911  29.454  29.908  1.00  0.00    -0.248 NA
ATOM     36  C   UNL A   1      40.097  30.927  29.945  1.00  0.00     0.031 C 
ATOM     37  C   UNL A   1      39.297  26.365  28.000  1.00  0.00     0.029 A 
ATOM     38  N   UNL A   1      41.356  26.819  28.750  1.00  0.00    -0.354 N 
ATOM     39  C   UNL A   1      42.298  30.649  30.502  1.00  0.00     0.074 A 
ATOM     40  C   UNL A   1      41.151  31.531  30.472  1.00  0.00     0.031 C 
ATOM     41  C   UNL A   1      40.046  25.262  27.824  1.00  0.00     0.029 A 
ATOM     42  C   UNL A   1      41.410  25.532  28.274  1.00  0.00     0.049 A 
ATOM     43  H   UNL A   1      42.128  27.276  29.157  1.00  0.00     0.167 HD
ATOM     44  C   UNL A   1      43.501  30.982  31.028  1.00  0.00     0.031 A 
ATOM     45  C   UNL A   1      42.447  24.676  28.198  1.00  0.00     0.031 A 
ATOM     46  C   UNL A   1      44.647  30.115  31.043  1.00  0.00     0.049 A 
ATOM     47  C   UNL A   1      43.796  25.101  28.713  1.00  0.00     0.074 A 
ATOM     48  C   UNL A   1      45.906  30.357  31.564  1.00  0.00     0.029 A 
ATOM     49  N   UNL A   1      44.674  28.839  30.504  1.00  0.00    -0.354 N 
ATOM     50  N   UNL A   1      44.143  26.225  29.293  1.00  0.00    -0.248 NA
ATOM     51  C   UNL A   1      44.893  24.135  28.566  1.00  0.00     0.031 C 
ATOM     52  C   UNL A   1      46.711  29.246  31.291  1.00  0.00     0.029 A 
ATOM     53  C   UNL A   1      45.937  28.292  30.650  1.00  0.00     0.049 A 
ATOM     54  H   UNL A   1      43.909  28.388  30.079  1.00  0.00     0.167 HD
ATOM     55  C   UNL A   1      45.491  26.092  29.599  1.00  0.00     0.074 A 
ATOM     56  C   UNL A   1      45.894  24.773  29.156  1.00  0.00     0.031 C 
ATOM     57  C   UNL A   1      46.322  26.981  30.197  1.00  0.00     0.031 A 
BRANCH  44  58
ATOM     58  C   UNL A   1      43.642  32.364  31.600  1.00  0.00    -0.014 A 
ATOM     59  C   UNL A   1      44.059  33.445  30.807  1.00  0.00     0.009 A 
ATOM     60  C   UNL A   1      43.331  32.593  32.950  1.00  0.00     0.009 A 
ATOM     61  C   UNL A   1      44.190  34.720  31.361  1.00  0.00     0.001 A 
ATOM     62  C   UNL A   1      43.439  33.873  33.495  1.00  0.00     0.001 A 
ATOM     63  C   UNL A   1      43.878  34.934  32.704  1.00  0.00     0.000 A 
ENDBRANCH  44  58
BRANCH  45  64
ATOM     64  C   UNL A   1      42.260  23.336  27.587  1.00  0.00    -0.014 A 
ATOM     65  C   UNL A   1      42.607  23.101  26.248  1.00  0.00     0.009 A 
ATOM     66  C   UNL A   1      41.715  22.283  28.341  1.00  0.00     0.009 A 
ATOM     67  C   UNL A   1      42.392  21.848  25.671  1.00  0.00     0.001 A 
ATOM     68  C   UNL A   1      41.526  21.024  27.769  1.00  0.00     0.001 A 
ATOM     69  C   UNL A   1      41.856  20.810  26.432  1.00  0.00     0.000 A 
ENDBRANCH  45  64
BRANCH  57  70
ATOM     70  C   UNL A   1      47.742  26.547  30.427  1.00  0.00    -0.014 A 
ATOM     71  C   UNL A   1      48.132  25.950  31.636  1.00  0.00     0.009 A 
ATOM     72  C   UNL A   1      48.691  26.701  29.404  1.00  0.00     0.009 A 
ATOM     73  C   UNL A   1      49.454  25.544  31.826  1.00  0.00     0.001 A 
ATOM     74  C   UNL A   1      50.006  26.270  29.589  1.00  0.00     0.001 A 
ATOM     75  C   UNL A   1      50.388  25.699  30.801  1.00  0.00     0.000 A 
ENDBRANCH  57  70
ENDBRANCH  31  32
ENDBRANCH  24  26
ENDBRANCH  23  24
ENDBRANCH  22  23
ENDBRANCH   1  22
TORSDOF 15
ENDMDL
