MODEL 1
REMARK VINA RESULT:     -11.7      0.000      0.000
REMARK SMILES Cc1ccc(-c2ncc(C(=O)OCCOCCOC(=O)c3ccc(-c4c5nc(c(-c6ccccc6)c6ccc([nH]6)c(-c6ccccc6)c6nc(c(-c7ccccc7)c7ccc4[nH]7)C=C6)C=C5)cc3)c(Nc3ccccc3)n2)cc1
REMARK SMILES IDX 15 1 14 2 13 3 12 4 10 5 11 6 9 7 6 8 7 9 77 10 8 11 69 12
REMARK SMILES IDX 5 13 1 14 2 15 3 16 79 17 4 18 78 19 70 20 71 22 72 23 76 24
REMARK SMILES IDX 73 25 75 26 74 27 16 28 17 29 18 30 19 31 20 32 21 33 22 34
REMARK SMILES IDX 68 35 23 36 67 37 24 38 25 39 26 40 61 41 27 42 66 43 60 44
REMARK SMILES IDX 62 45 28 46 65 47 59 48 58 49 29 51 51 52 36 53 50 54 37 55
REMARK SMILES IDX 40 56 49 57 63 58 38 59 39 60 48 62 64 63 41 64 30 65 31 66
REMARK SMILES IDX 35 67 32 68 34 69 33 70 52 71 53 72 57 73 54 74 56 75 55 76
REMARK SMILES IDX 42 77 43 78 47 79 44 80 46 81 45 82
REMARK H PARENT 70 21 62 50 40 61
REMARK Flexibility Score: inf
ROOT
ATOM      1  O   UNL A   1      32.023  29.835  27.064  1.00  0.00    -0.374 OA
ENDROOT
BRANCH   1   2
ATOM      2  C   UNL A   1      31.778  28.551  27.614  1.00  0.00     0.202 C 
BRANCH   2   3
ATOM      3  C   UNL A   1      31.541  27.693  26.426  1.00  0.00     0.261 C 
BRANCH   3   4
ATOM      4  O   UNL A   1      32.296  26.488  26.535  1.00  0.00    -0.460 OA
BRANCH   4   5
ATOM      5  C   UNL A   1      33.167  26.235  25.517  1.00  0.00     0.343 C 
ATOM      6  O   UNL A   1      33.999  26.954  25.029  1.00  0.00    -0.246 OA
BRANCH   5   7
ATOM      7  C   UNL A   1      33.054  24.806  25.265  1.00  0.00     0.121 A 
ATOM      8  C   UNL A   1      33.261  22.226  24.676  1.00  0.00     0.161 A 
ATOM      9  N   UNL A   1      33.614  22.589  25.922  1.00  0.00    -0.236 NA
ATOM     10  N   UNL A   1      32.764  23.040  23.728  1.00  0.00    -0.210 NA
ATOM     11  C   UNL A   1      33.504  23.891  26.189  1.00  0.00     0.133 A 
ATOM     12  C   UNL A   1      32.637  24.345  24.031  1.00  0.00     0.149 A 
BRANCH   8  13
ATOM     13  C   UNL A   1      33.359  20.810  24.378  1.00  0.00     0.019 A 
ATOM     14  C   UNL A   1      33.752  16.591  23.654  1.00  0.00     0.044 C 
ATOM     15  C   UNL A   1      33.612  18.065  23.870  1.00  0.00    -0.051 A 
ATOM     16  C   UNL A   1      34.605  18.740  24.586  1.00  0.00     0.004 A 
ATOM     17  C   UNL A   1      32.500  18.769  23.392  1.00  0.00     0.004 A 
ATOM     18  C   UNL A   1      34.482  20.101  24.827  1.00  0.00     0.012 A 
ATOM     19  C   UNL A   1      32.371  20.133  23.651  1.00  0.00     0.012 A 
ENDBRANCH   8  13
BRANCH  12  20
ATOM     20  N   UNL A   1      32.155  25.230  23.049  1.00  0.00    -0.339 N 
ATOM     21  H   UNL A   1      32.645  25.239  22.194  1.00  0.00     0.168 HD
BRANCH  20  22
ATOM     22  C   UNL A   1      31.061  26.101  23.140  1.00  0.00     0.040 A 
ATOM     23  C   UNL A   1      29.881  25.664  23.749  1.00  0.00     0.026 A 
ATOM     24  C   UNL A   1      31.096  27.377  22.568  1.00  0.00     0.026 A 
ATOM     25  C   UNL A   1      28.778  26.514  23.847  1.00  0.00     0.002 A 
ATOM     26  C   UNL A   1      29.989  28.220  22.644  1.00  0.00     0.002 A 
ATOM     27  C   UNL A   1      28.834  27.795  23.298  1.00  0.00     0.000 A 
ENDBRANCH  20  22
ENDBRANCH  12  20
ENDBRANCH   5   7
ENDBRANCH   4   5
ENDBRANCH   3   4
ENDBRANCH   2   3
ENDBRANCH   1   2
BRANCH   1  28
ATOM     28  C   UNL A   1      33.381  30.137  26.828  1.00  0.00     0.202 C 
BRANCH  28  29
ATOM     29  C   UNL A   1      33.864  31.379  27.593  1.00  0.00     0.261 C 
BRANCH  29  30
ATOM     30  O   UNL A   1      34.710  30.970  28.692  1.00  0.00    -0.460 OA
BRANCH  30  31
ATOM     31  C   UNL A   1      36.036  31.281  28.613  1.00  0.00     0.338 C 
ATOM     32  O   UNL A   1      36.497  32.360  28.278  1.00  0.00    -0.246 OA
BRANCH  31  33
ATOM     33  C   UNL A   1      36.843  30.022  28.675  1.00  0.00     0.060 A 
ATOM     34  C   UNL A   1      36.934  29.296  29.881  1.00  0.00     0.016 A 
ATOM     35  C   UNL A   1      37.768  29.793  27.660  1.00  0.00     0.016 A 
ATOM     36  C   UNL A   1      38.042  28.465  30.131  1.00  0.00     0.010 A 
ATOM     37  C   UNL A   1      38.899  29.060  27.950  1.00  0.00     0.010 A 
ATOM     38  C   UNL A   1      39.068  28.411  29.188  1.00  0.00    -0.014 A 
BRANCH  38  39
ATOM     39  C   UNL A   1      40.422  27.878  29.401  1.00  0.00     0.031 A 
ATOM     40  C   UNL A   1      40.796  26.628  28.712  1.00  0.00     0.074 A 
ATOM     41  C   UNL A   1      41.399  28.635  29.961  1.00  0.00     0.049 A 
ATOM     42  N   UNL A   1      41.841  25.943  29.008  1.00  0.00    -0.248 NA
ATOM     43  C   UNL A   1      40.011  26.021  27.641  1.00  0.00     0.031 C 
ATOM     44  C   UNL A   1      42.853  28.550  29.806  1.00  0.00     0.029 A 
ATOM     45  N   UNL A   1      41.251  29.699  30.831  1.00  0.00    -0.354 N 
ATOM     46  C   UNL A   1      42.059  25.060  27.980  1.00  0.00     0.074 A 
ATOM     47  C   UNL A   1      40.844  25.075  27.205  1.00  0.00     0.031 C 
ATOM     48  C   UNL A   1      43.460  29.360  30.697  1.00  0.00     0.029 A 
ATOM     49  C   UNL A   1      42.431  29.967  31.525  1.00  0.00     0.049 A 
ATOM     50  H   UNL A   1      40.415  30.206  30.947  1.00  0.00     0.167 HD
ATOM     51  C   UNL A   1      43.307  24.537  27.825  1.00  0.00     0.031 A 
ATOM     52  C   UNL A   1      42.358  30.048  32.879  1.00  0.00     0.031 A 
ATOM     53  C   UNL A   1      44.215  25.031  28.878  1.00  0.00     0.049 A 
ATOM     54  C   UNL A   1      42.892  28.734  33.382  1.00  0.00     0.074 A 
ATOM     55  C   UNL A   1      45.240  25.964  28.885  1.00  0.00     0.029 A 
ATOM     56  N   UNL A   1      43.865  24.844  30.223  1.00  0.00    -0.354 N 
ATOM     57  N   UNL A   1      42.987  27.683  32.606  1.00  0.00    -0.248 NA
ATOM     58  C   UNL A   1      43.524  28.526  34.680  1.00  0.00     0.031 C 
ATOM     59  C   UNL A   1      45.414  26.417  30.231  1.00  0.00     0.029 A 
ATOM     60  C   UNL A   1      44.519  25.744  31.051  1.00  0.00     0.049 A 
ATOM     61  H   UNL A   1      43.234  24.158  30.539  1.00  0.00     0.167 HD
ATOM     62  C   UNL A   1      43.824  26.781  33.167  1.00  0.00     0.074 A 
ATOM     63  C   UNL A   1      44.068  27.305  34.506  1.00  0.00     0.031 C 
ATOM     64  C   UNL A   1      44.325  25.701  32.505  1.00  0.00     0.031 A 
BRANCH  51  65
ATOM     65  C   UNL A   1      43.733  23.817  26.561  1.00  0.00    -0.014 A 
ATOM     66  C   UNL A   1      43.378  22.473  26.358  1.00  0.00     0.009 A 
ATOM     67  C   UNL A   1      44.508  24.398  25.538  1.00  0.00     0.009 A 
ATOM     68  C   UNL A   1      43.824  21.746  25.241  1.00  0.00     0.001 A 
ATOM     69  C   UNL A   1      44.998  23.668  24.444  1.00  0.00     0.001 A 
ATOM     70  C   UNL A   1      44.653  22.336  24.295  1.00  0.00     0.000 A 
ENDBRANCH  51  65
BRANCH  52  71
ATOM     71  C   UNL A   1      41.183  30.894  33.293  1.00  0.00    -0.014 A 
ATOM     72  C   UNL A   1      41.241  32.258  32.903  1.00  0.00     0.009 A 
ATOM     73  C   UNL A   1      39.909  30.362  33.559  1.00  0.00     0.009 A 
ATOM     74  C   UNL A   1      40.083  33.017  32.671  1.00  0.00     0.001 A 
ATOM     75  C   UNL A   1      38.746  31.127  33.327  1.00  0.00     0.001 A 
ATOM     76  C   UNL A   1      38.830  32.442  32.862  1.00  0.00     0.000 A 
ENDBRANCH  52  71
BRANCH  64  77
ATOM     77  C   UNL A   1      44.734  24.474  33.251  1.00  0.00    -0.014 A 
ATOM     78  C   UNL A   1      46.041  24.296  33.728  1.00  0.00     0.009 A 
ATOM     79  C   UNL A   1      43.750  23.566  33.681  1.00  0.00     0.009 A 
ATOM     80  C   UNL A   1      46.367  23.217  34.546  1.00  0.00     0.001 A 
ATOM     81  C   UNL A   1      44.060  22.525  34.550  1.00  0.00     0.001 A 
ATOM     82  C   UNL A   1      45.372  22.340  34.967  1.00  0.00     0.000 A 
ENDBRANCH  64  77
ENDBRANCH  38  39
ENDBRANCH  31  33
ENDBRANCH  30  31
ENDBRANCH  29  30
ENDBRANCH  28  29
ENDBRANCH   1  28
TORSDOF 17
ENDMDL
MODEL 2
REMARK VINA RESULT:     -11.5      2.052      4.624
REMARK SMILES Cc1ccc(-c2ncc(C(=O)OCCOCCOC(=O)c3ccc(-c4c5nc(c(-c6ccccc6)c6ccc([nH]6)c(-c6ccccc6)c6nc(c(-c7ccccc7)c7ccc4[nH]7)C=C6)C=C5)cc3)c(Nc3ccccc3)n2)cc1
REMARK SMILES IDX 15 1 14 2 13 3 12 4 10 5 11 6 9 7 6 8 7 9 77 10 8 11 69 12
REMARK SMILES IDX 5 13 1 14 2 15 3 16 79 17 4 18 78 19 70 20 71 22 72 23 76 24
REMARK SMILES IDX 73 25 75 26 74 27 16 28 17 29 18 30 19 31 20 32 21 33 22 34
REMARK SMILES IDX 68 35 23 36 67 37 24 38 25 39 26 40 61 41 27 42 66 43 60 44
REMARK SMILES IDX 62 45 28 46 65 47 59 48 58 49 29 51 51 52 36 53 50 54 37 55
REMARK SMILES IDX 40 56 49 57 63 58 38 59 39 60 48 62 64 63 41 64 30 65 31 66
REMARK SMILES IDX 35 67 32 68 34 69 33 70 52 71 53 72 57 73 54 74 56 75 55 76
REMARK SMILES IDX 42 77 43 78 47 79 44 80 46 81 45 82
REMARK H PARENT 70 21 62 50 40 61
REMARK Flexibility Score: inf
ROOT
ATOM      1  O   UNL A   1      32.404  25.259  25.745  1.00  0.00    -0.374 OA
ENDROOT
BRANCH   1   2
ATOM      2  C   UNL A   1      31.090  24.843  25.414  1.00  0.00     0.202 C 
BRANCH   2   3
ATOM      3  C   UNL A   1      31.235  24.241  24.064  1.00  0.00     0.261 C 
BRANCH   3   4
ATOM      4  O   UNL A   1      31.904  22.987  24.158  1.00  0.00    -0.460 OA
BRANCH   4   5
ATOM      5  C   UNL A   1      32.931  22.791  23.282  1.00  0.00     0.343 C 
ATOM      6  O   UNL A   1      32.913  22.771  22.079  1.00  0.00    -0.246 OA
BRANCH   5   7
ATOM      7  C   UNL A   1      34.138  22.832  24.094  1.00  0.00     0.121 A 
ATOM      8  C   UNL A   1      36.536  22.736  25.227  1.00  0.00     0.161 A 
ATOM      9  N   UNL A   1      36.243  23.850  24.533  1.00  0.00    -0.236 NA
ATOM     10  N   UNL A   1      35.708  21.698  25.442  1.00  0.00    -0.210 NA
ATOM     11  C   UNL A   1      35.034  23.869  23.972  1.00  0.00     0.133 A 
ATOM     12  C   UNL A   1      34.483  21.754  24.886  1.00  0.00     0.149 A 
BRANCH   8  13
ATOM     13  C   UNL A   1      37.842  22.709  25.859  1.00  0.00     0.019 A 
ATOM     14  C   UNL A   1      41.647  22.758  27.859  1.00  0.00     0.044 C 
ATOM     15  C   UNL A   1      40.340  22.732  27.132  1.00  0.00    -0.051 A 
ATOM     16  C   UNL A   1      39.526  23.868  27.162  1.00  0.00     0.004 A 
ATOM     17  C   UNL A   1      39.909  21.589  26.448  1.00  0.00     0.004 A 
ATOM     18  C   UNL A   1      38.295  23.858  26.523  1.00  0.00     0.012 A 
ATOM     19  C   UNL A   1      38.664  21.575  25.820  1.00  0.00     0.012 A 
ENDBRANCH   8  13
BRANCH  12  20
ATOM     20  N   UNL A   1      33.605  20.668  25.061  1.00  0.00    -0.339 N 
ATOM     21  H   UNL A   1      32.893  20.789  25.731  1.00  0.00     0.168 HD
BRANCH  20  22
ATOM     22  C   UNL A   1      33.621  19.435  24.396  1.00  0.00     0.040 A 
ATOM     23  C   UNL A   1      32.581  19.109  23.521  1.00  0.00     0.026 A 
ATOM     24  C   UNL A   1      34.619  18.487  24.645  1.00  0.00     0.026 A 
ATOM     25  C   UNL A   1      32.576  17.885  22.851  1.00  0.00     0.002 A 
ATOM     26  C   UNL A   1      34.605  17.253  23.995  1.00  0.00     0.002 A 
ATOM     27  C   UNL A   1      33.591  16.958  23.086  1.00  0.00     0.000 A 
ENDBRANCH  20  22
ENDBRANCH  12  20
ENDBRANCH   5   7
ENDBRANCH   4   5
ENDBRANCH   3   4
ENDBRANCH   2   3
ENDBRANCH   1   2
BRANCH   1  28
ATOM     28  C   UNL A   1      32.486  26.461  26.479  1.00  0.00     0.202 C 
BRANCH  28  29
ATOM     29  C   UNL A   1      33.344  27.532  25.788  1.00  0.00     0.261 C 
BRANCH  29  30
ATOM     30  O   UNL A   1      34.345  28.019  26.711  1.00  0.00    -0.460 OA
BRANCH  30  31
ATOM     31  C   UNL A   1      34.037  29.127  27.445  1.00  0.00     0.338 C 
ATOM     32  O   UNL A   1      32.962  29.704  27.449  1.00  0.00    -0.246 OA
BRANCH  31  33
ATOM     33  C   UNL A   1      35.297  29.725  27.987  1.00  0.00     0.060 A 
ATOM     34  C   UNL A   1      36.359  30.053  27.117  1.00  0.00     0.016 A 
ATOM     35  C   UNL A   1      35.537  29.608  29.354  1.00  0.00     0.016 A 
ATOM     36  C   UNL A   1      37.682  30.103  27.594  1.00  0.00     0.010 A 
ATOM     37  C   UNL A   1      36.842  29.557  29.794  1.00  0.00     0.010 A 
ATOM     38  C   UNL A   1      37.929  29.774  28.927  1.00  0.00    -0.014 A 
BRANCH  38  39
ATOM     39  C   UNL A   1      39.237  29.454  29.518  1.00  0.00     0.031 A 
ATOM     40  C   UNL A   1      40.006  28.333  28.946  1.00  0.00     0.074 A 
ATOM     41  C   UNL A   1      39.863  30.319  30.356  1.00  0.00     0.049 A 
ATOM     42  N   UNL A   1      41.026  27.808  29.523  1.00  0.00    -0.248 NA
ATOM     43  C   UNL A   1      39.681  27.682  27.680  1.00  0.00     0.031 C 
ATOM     44  C   UNL A   1      41.292  30.483  30.634  1.00  0.00     0.029 A 
ATOM     45  N   UNL A   1      39.288  31.281  31.164  1.00  0.00    -0.354 N 
ATOM     46  C   UNL A   1      41.681  27.046  28.588  1.00  0.00     0.074 A 
ATOM     47  C   UNL A   1      40.757  26.918  27.491  1.00  0.00     0.031 C 
ATOM     48  C   UNL A   1      41.466  31.316  31.679  1.00  0.00     0.029 A 
ATOM     49  C   UNL A   1      40.152  31.688  32.179  1.00  0.00     0.049 A 
ATOM     50  H   UNL A   1      38.378  31.636  31.039  1.00  0.00     0.167 HD
ATOM     51  C   UNL A   1      42.993  26.746  28.797  1.00  0.00     0.031 A 
ATOM     52  C   UNL A   1      39.682  31.662  33.453  1.00  0.00     0.031 A 
ATOM     53  C   UNL A   1      43.460  27.305  30.080  1.00  0.00     0.049 A 
ATOM     54  C   UNL A   1      40.272  30.420  34.066  1.00  0.00     0.074 A 
ATOM     55  C   UNL A   1      44.259  28.390  30.406  1.00  0.00     0.029 A 
ATOM     56  N   UNL A   1      42.778  26.971  31.259  1.00  0.00    -0.354 N 
ATOM     57  N   UNL A   1      40.768  29.455  33.332  1.00  0.00    -0.248 NA
ATOM     58  C   UNL A   1      40.532  30.227  35.488  1.00  0.00     0.031 C 
ATOM     59  C   UNL A   1      43.958  28.770  31.752  1.00  0.00     0.029 A 
ATOM     60  C   UNL A   1      42.998  27.904  32.260  1.00  0.00     0.049 A 
ATOM     61  H   UNL A   1      42.214  26.171  31.362  1.00  0.00     0.167 HD
ATOM     62  C   UNL A   1      41.555  28.664  34.097  1.00  0.00     0.074 A 
ATOM     63  C   UNL A   1      41.309  29.127  35.458  1.00  0.00     0.031 C 
ATOM     64  C   UNL A   1      42.407  27.729  33.591  1.00  0.00     0.031 A 
BRANCH  51  65
ATOM     65  C   UNL A   1      43.883  26.194  27.701  1.00  0.00    -0.014 A 
ATOM     66  C   UNL A   1      44.534  24.961  27.870  1.00  0.00     0.009 A 
ATOM     67  C   UNL A   1      44.143  26.852  26.482  1.00  0.00     0.009 A 
ATOM     68  C   UNL A   1      45.432  24.456  26.914  1.00  0.00     0.001 A 
ATOM     69  C   UNL A   1      45.073  26.380  25.544  1.00  0.00     0.001 A 
ATOM     70  C   UNL A   1      45.721  25.176  25.761  1.00  0.00     0.000 A 
ENDBRANCH  51  65
BRANCH  52  71
ATOM     71  C   UNL A   1      38.308  32.274  33.520  1.00  0.00    -0.014 A 
ATOM     72  C   UNL A   1      38.239  33.660  33.221  1.00  0.00     0.009 A 
ATOM     73  C   UNL A   1      37.126  31.529  33.360  1.00  0.00     0.009 A 
ATOM     74  C   UNL A   1      37.087  34.249  32.674  1.00  0.00     0.001 A 
ATOM     75  C   UNL A   1      35.968  32.123  32.813  1.00  0.00     0.001 A 
ATOM     76  C   UNL A   1      35.955  33.472  32.448  1.00  0.00     0.000 A 
ENDBRANCH  52  71
BRANCH  64  77
ATOM     77  C   UNL A   1      42.794  26.536  34.401  1.00  0.00    -0.014 A 
ATOM     78  C   UNL A   1      41.861  25.825  35.169  1.00  0.00     0.009 A 
ATOM     79  C   UNL A   1      44.071  25.971  34.232  1.00  0.00     0.009 A 
ATOM     80  C   UNL A   1      42.208  24.633  35.799  1.00  0.00     0.001 A 
ATOM     81  C   UNL A   1      44.399  24.747  34.807  1.00  0.00     0.001 A 
ATOM     82  C   UNL A   1      43.473  24.088  35.605  1.00  0.00     0.000 A 
ENDBRANCH  64  77
ENDBRANCH  38  39
ENDBRANCH  31  33
ENDBRANCH  30  31
ENDBRANCH  29  30
ENDBRANCH  28  29
ENDBRANCH   1  28
TORSDOF 17
ENDMDL
MODEL 3
REMARK VINA RESULT:     -11.5      4.194      9.218
REMARK SMILES Cc1ccc(-c2ncc(C(=O)OCCOCCOC(=O)c3ccc(-c4c5nc(c(-c6ccccc6)c6ccc([nH]6)c(-c6ccccc6)c6nc(c(-c7ccccc7)c7ccc4[nH]7)C=C6)C=C5)cc3)c(Nc3ccccc3)n2)cc1
REMARK SMILES IDX 15 1 14 2 13 3 12 4 10 5 11 6 9 7 6 8 7 9 77 10 8 11 69 12
REMARK SMILES IDX 5 13 1 14 2 15 3 16 79 17 4 18 78 19 70 20 71 22 72 23 76 24
REMARK SMILES IDX 73 25 75 26 74 27 16 28 17 29 18 30 19 31 20 32 21 33 22 34
REMARK SMILES IDX 68 35 23 36 67 37 24 38 25 39 26 40 61 41 27 42 66 43 60 44
REMARK SMILES IDX 62 45 28 46 65 47 59 48 58 49 29 51 51 52 36 53 50 54 37 55
REMARK SMILES IDX 40 56 49 57 63 58 38 59 39 60 48 62 64 63 41 64 30 65 31 66
REMARK SMILES IDX 35 67 32 68 34 69 33 70 52 71 53 72 57 73 54 74 56 75 55 76
REMARK SMILES IDX 42 77 43 78 47 79 44 80 46 81 45 82
REMARK H PARENT 70 21 62 50 40 61
REMARK Flexibility Score: inf
ROOT
ATOM      1  O   UNL A   1      41.354  22.230  26.810  1.00  0.00    -0.374 OA
ENDROOT
BRANCH   1   2
ATOM      2  C   UNL A   1      40.035  22.747  26.742  1.00  0.00     0.202 C 
BRANCH   2   3
ATOM      3  C   UNL A   1      39.248  21.640  26.144  1.00  0.00     0.261 C 
BRANCH   3   4
ATOM      4  O   UNL A   1      38.019  22.140  25.623  1.00  0.00    -0.460 OA
BRANCH   4   5
ATOM      5  C   UNL A   1      37.307  21.279  24.841  1.00  0.00     0.343 C 
ATOM      6  O   UNL A   1      37.513  20.118  24.602  1.00  0.00    -0.246 OA
BRANCH   5   7
ATOM      7  C   UNL A   1      36.080  21.990  24.511  1.00  0.00     0.121 A 
ATOM      8  C   UNL A   1      33.879  23.458  24.306  1.00  0.00     0.161 A 
ATOM      9  N   UNL A   1      35.030  24.045  23.934  1.00  0.00    -0.236 NA
ATOM     10  N   UNL A   1      33.738  22.185  24.717  1.00  0.00    -0.210 NA
ATOM     11  C   UNL A   1      36.120  23.286  24.050  1.00  0.00     0.133 A 
ATOM     12  C   UNL A   1      34.850  21.431  24.801  1.00  0.00     0.149 A 
BRANCH   8  13
ATOM     13  C   UNL A   1      32.682  24.266  24.167  1.00  0.00     0.019 A 
ATOM     14  C   UNL A   1      29.247  26.818  23.759  1.00  0.00     0.044 C 
ATOM     15  C   UNL A   1      30.421  25.905  23.917  1.00  0.00    -0.051 A 
ATOM     16  C   UNL A   1      31.560  26.377  24.576  1.00  0.00     0.004 A 
ATOM     17  C   UNL A   1      30.408  24.605  23.399  1.00  0.00     0.004 A 
ATOM     18  C   UNL A   1      32.674  25.560  24.707  1.00  0.00     0.012 A 
ATOM     19  C   UNL A   1      31.535  23.791  23.518  1.00  0.00     0.012 A 
ENDBRANCH   8  13
BRANCH  12  20
ATOM     20  N   UNL A   1      34.743  20.106  25.263  1.00  0.00    -0.339 N 
ATOM     21  H   UNL A   1      35.028  19.946  26.193  1.00  0.00     0.168 HD
BRANCH  20  22
ATOM     22  C   UNL A   1      34.281  18.986  24.560  1.00  0.00     0.040 A 
ATOM     23  C   UNL A   1      33.054  19.049  23.894  1.00  0.00     0.026 A 
ATOM     24  C   UNL A   1      34.986  17.778  24.571  1.00  0.00     0.026 A 
ATOM     25  C   UNL A   1      32.573  17.943  23.190  1.00  0.00     0.002 A 
ATOM     26  C   UNL A   1      34.498  16.665  23.887  1.00  0.00     0.002 A 
ATOM     27  C   UNL A   1      33.299  16.752  23.184  1.00  0.00     0.000 A 
ENDBRANCH  20  22
ENDBRANCH  12  20
ENDBRANCH   5   7
ENDBRANCH   4   5
ENDBRANCH   3   4
ENDBRANCH   2   3
ENDBRANCH   1   2
BRANCH   1  28
ATOM     28  C   UNL A   1      41.460  20.833  26.644  1.00  0.00     0.202 C 
BRANCH  28  29
ATOM     29  C   UNL A   1      42.822  20.394  26.086  1.00  0.00     0.261 C 
BRANCH  29  30
ATOM     30  O   UNL A   1      43.216  21.284  25.019  1.00  0.00    -0.460 OA
BRANCH  30  31
ATOM     31  C   UNL A   1      44.540  21.326  24.690  1.00  0.00     0.338 C 
ATOM     32  O   UNL A   1      45.195  20.394  24.252  1.00  0.00    -0.246 OA
BRANCH  31  33
ATOM     33  C   UNL A   1      45.149  22.572  25.251  1.00  0.00     0.060 A 
ATOM     34  C   UNL A   1      45.595  22.604  26.589  1.00  0.00     0.016 A 
ATOM     35  C   UNL A   1      44.933  23.765  24.567  1.00  0.00     0.016 A 
ATOM     36  C   UNL A   1      45.666  23.824  27.288  1.00  0.00     0.010 A 
ATOM     37  C   UNL A   1      44.906  24.943  25.284  1.00  0.00     0.010 A 
ATOM     38  C   UNL A   1      45.242  24.990  26.650  1.00  0.00    -0.014 A 
BRANCH  38  39
ATOM     39  C   UNL A   1      44.935  26.275  27.295  1.00  0.00     0.031 A 
ATOM     40  C   UNL A   1      43.520  26.669  27.428  1.00  0.00     0.074 A 
ATOM     41  C   UNL A   1      45.873  26.947  28.010  1.00  0.00     0.049 A 
ATOM     42  N   UNL A   1      43.143  27.856  27.741  1.00  0.00    -0.248 NA
ATOM     43  C   UNL A   1      42.397  25.766  27.195  1.00  0.00     0.031 C 
ATOM     44  C   UNL A   1      45.706  27.893  29.117  1.00  0.00     0.029 A 
ATOM     45  N   UNL A   1      47.247  26.894  27.865  1.00  0.00    -0.354 N 
ATOM     46  C   UNL A   1      41.820  27.787  28.099  1.00  0.00     0.074 A 
ATOM     47  C   UNL A   1      41.375  26.493  27.648  1.00  0.00     0.031 C 
ATOM     48  C   UNL A   1      46.885  28.480  29.403  1.00  0.00     0.029 A 
ATOM     49  C   UNL A   1      47.871  27.995  28.452  1.00  0.00     0.049 A 
ATOM     50  H   UNL A   1      47.727  26.168  27.405  1.00  0.00     0.167 HD
ATOM     51  C   UNL A   1      41.303  28.780  28.874  1.00  0.00     0.031 A 
ATOM     52  C   UNL A   1      48.746  28.700  27.690  1.00  0.00     0.031 A 
ATOM     53  C   UNL A   1      42.324  29.806  29.160  1.00  0.00     0.049 A 
ATOM     54  C   UNL A   1      47.991  29.929  27.257  1.00  0.00     0.074 A 
ATOM     55  C   UNL A   1      43.071  30.112  30.286  1.00  0.00     0.029 A 
ATOM     56  N   UNL A   1      42.980  30.432  28.090  1.00  0.00    -0.354 N 
ATOM     57  N   UNL A   1      46.684  29.994  27.317  1.00  0.00    -0.248 NA
ATOM     58  C   UNL A   1      48.597  31.211  26.918  1.00  0.00     0.031 C 
ATOM     59  C   UNL A   1      44.238  30.822  29.861  1.00  0.00     0.029 A 
ATOM     60  C   UNL A   1      44.193  30.977  28.482  1.00  0.00     0.049 A 
ATOM     61  H   UNL A   1      42.622  30.479  27.174  1.00  0.00     0.167 HD
ATOM     62  C   UNL A   1      46.293  31.287  27.244  1.00  0.00     0.074 A 
ATOM     63  C   UNL A   1      47.512  32.010  26.903  1.00  0.00     0.031 C 
ATOM     64  C   UNL A   1      45.029  31.711  27.525  1.00  0.00     0.031 A 
BRANCH  51  65
ATOM     65  C   UNL A   1      39.967  28.645  29.579  1.00  0.00    -0.014 A 
ATOM     66  C   UNL A   1      38.842  29.339  29.103  1.00  0.00     0.009 A 
ATOM     67  C   UNL A   1      39.754  27.868  30.735  1.00  0.00     0.009 A 
ATOM     68  C   UNL A   1      37.609  29.308  29.777  1.00  0.00     0.001 A 
ATOM     69  C   UNL A   1      38.542  27.868  31.441  1.00  0.00     0.001 A 
ATOM     70  C   UNL A   1      37.464  28.591  30.959  1.00  0.00     0.000 A 
ENDBRANCH  51  65
BRANCH  52  71
ATOM     71  C   UNL A   1      49.677  27.770  26.958  1.00  0.00    -0.014 A 
ATOM     72  C   UNL A   1      49.741  27.948  25.551  1.00  0.00     0.009 A 
ATOM     73  C   UNL A   1      50.777  27.145  27.571  1.00  0.00     0.009 A 
ATOM     74  C   UNL A   1      50.892  27.632  24.811  1.00  0.00     0.001 A 
ATOM     75  C   UNL A   1      51.932  26.825  26.825  1.00  0.00     0.001 A 
ATOM     76  C   UNL A   1      52.000  27.089  25.455  1.00  0.00     0.000 A 
ENDBRANCH  52  71
BRANCH  64  77
ATOM     77  C   UNL A   1      44.489  32.957  26.905  1.00  0.00    -0.014 A 
ATOM     78  C   UNL A   1      44.239  33.054  25.529  1.00  0.00     0.009 A 
ATOM     79  C   UNL A   1      44.015  33.992  27.732  1.00  0.00     0.009 A 
ATOM     80  C   UNL A   1      43.601  34.169  24.991  1.00  0.00     0.001 A 
ATOM     81  C   UNL A   1      43.320  35.075  27.204  1.00  0.00     0.001 A 
ATOM     82  C   UNL A   1      43.130  35.171  25.832  1.00  0.00     0.000 A 
ENDBRANCH  64  77
ENDBRANCH  38  39
ENDBRANCH  31  33
ENDBRANCH  30  31
ENDBRANCH  29  30
ENDBRANCH  28  29
ENDBRANCH   1  28
TORSDOF 17
ENDMDL
