MODEL 1
REMARK VINA RESULT:      -8.1      0.000      0.000
REMARK SMILES C[C@H](C(=O)OCCOCCOC(=O)c1ccc(-c2c3nc(c(-c4ccccc4)c4ccc([nH]4)c(-c4ccccc4)c4nc(c(-c5ccccc5)c5ccc2[nH]5)C=C4)C=C3)cc1)c1ccc(C[C@@H]2CCC[C@H]2O)cc1
REMARK SMILES IDX 7 1 6 2 5 3 3 4 4 5 2 6 1 7 62 8 63 9 74 10 64 11 73 12
REMARK SMILES IDX 65 13 66 14 67 15 68 16 71 17 69 18 70 19 72 20 8 22 9 23
REMARK SMILES IDX 10 24 11 25 12 26 13 27 14 28 15 29 61 30 16 31 60 32 17 33
REMARK SMILES IDX 18 34 19 35 54 36 20 37 59 38 53 39 55 40 21 41 58 42 52 43
REMARK SMILES IDX 51 44 22 46 44 47 29 48 43 49 30 50 33 51 42 52 56 53 31 54
REMARK SMILES IDX 32 55 41 57 57 58 34 59 23 60 24 61 28 62 25 63 27 64 26 65
REMARK SMILES IDX 45 66 46 67 50 68 47 69 49 70 48 71 35 72 36 73 40 74 37 75
REMARK SMILES IDX 39 76 38 77
REMARK H PARENT 72 21 55 45 33 56
REMARK Flexibility Score: inf
ROOT
ATOM      1  C   UNL A   1      45.913  22.770  24.760  1.00  0.00     0.202 C 
ENDROOT
BRANCH   1   2
ATOM      2  C   UNL A   1      46.411  23.937  25.611  1.00  0.00     0.261 C 
BRANCH   2   3
ATOM      3  O   UNL A   1      45.750  25.144  25.188  1.00  0.00    -0.463 OA
BRANCH   3   4
ATOM      4  C   UNL A   1      46.525  26.248  25.050  1.00  0.00     0.313 C 
ATOM      5  O   UNL A   1      46.914  26.671  23.965  1.00  0.00    -0.252 OA
BRANCH   4   6
ATOM      6  C   UNL A   1      46.780  27.005  26.358  1.00  0.00     0.126 C 
ATOM      7  C   UNL A   1      48.309  26.942  26.565  1.00  0.00     0.025 C 
BRANCH   6   8
ATOM      8  C   UNL A   1      46.140  28.388  26.566  1.00  0.00    -0.034 A 
ATOM      9  C   UNL A   1      44.753  28.585  26.448  1.00  0.00     0.005 A 
ATOM     10  C   UNL A   1      46.880  29.469  27.080  1.00  0.00     0.005 A 
ATOM     11  C   UNL A   1      44.147  29.803  26.800  1.00  0.00     0.004 A 
ATOM     12  C   UNL A   1      46.277  30.683  27.437  1.00  0.00     0.004 A 
ATOM     13  C   UNL A   1      44.901  30.869  27.301  1.00  0.00    -0.048 A 
BRANCH  13  14
ATOM     14  C   UNL A   1      44.269  32.175  27.726  1.00  0.00     0.041 C 
BRANCH  14  15
ATOM     15  C   UNL A   1      44.791  33.490  27.112  1.00  0.00     0.022 C 
ATOM     16  C   UNL A   1      43.782  34.630  27.216  1.00  0.00     0.007 C 
ATOM     17  C   UNL A   1      45.128  33.427  25.615  1.00  0.00     0.117 C 
ATOM     18  C   UNL A   1      43.135  34.732  25.846  1.00  0.00     0.003 C 
ATOM     19  C   UNL A   1      43.823  33.749  24.907  1.00  0.00     0.032 C 
BRANCH  17  20
ATOM     20  O   UNL A   1      46.089  34.435  25.291  1.00  0.00    -0.393 OA
ATOM     21  H   UNL A   1      46.817  34.407  25.931  1.00  0.00     0.210 HD
ENDBRANCH  17  20
ENDBRANCH  14  15
ENDBRANCH  13  14
ENDBRANCH   6   8
ENDBRANCH   4   6
ENDBRANCH   3   4
ENDBRANCH   2   3
ENDBRANCH   1   2
BRANCH   1  22
ATOM     22  O   UNL A   1      46.081  21.473  25.339  1.00  0.00    -0.374 OA
BRANCH  22  23
ATOM     23  C   UNL A   1      45.733  20.357  24.522  1.00  0.00     0.202 C 
BRANCH  23  24
ATOM     24  C   UNL A   1      44.636  19.427  25.051  1.00  0.00     0.261 C 
BRANCH  24  25
ATOM     25  O   UNL A   1      43.322  19.991  24.969  1.00  0.00    -0.460 OA
BRANCH  25  26
ATOM     26  C   UNL A   1      42.618  20.004  26.130  1.00  0.00     0.338 C 
ATOM     27  O   UNL A   1      42.116  19.063  26.718  1.00  0.00    -0.246 OA
BRANCH  26  28
ATOM     28  C   UNL A   1      42.627  21.386  26.630  1.00  0.00     0.060 A 
ATOM     29  C   UNL A   1      42.663  22.478  25.760  1.00  0.00     0.016 A 
ATOM     30  C   UNL A   1      42.566  21.591  27.999  1.00  0.00     0.016 A 
ATOM     31  C   UNL A   1      42.631  23.782  26.275  1.00  0.00     0.010 A 
ATOM     32  C   UNL A   1      42.441  22.886  28.500  1.00  0.00     0.010 A 
ATOM     33  C   UNL A   1      42.523  24.004  27.657  1.00  0.00    -0.014 A 
BRANCH  33  34
ATOM     34  C   UNL A   1      42.618  25.361  28.273  1.00  0.00     0.031 A 
ATOM     35  C   UNL A   1      43.945  25.823  28.844  1.00  0.00     0.074 A 
ATOM     36  C   UNL A   1      41.541  26.165  28.390  1.00  0.00     0.049 A 
ATOM     37  N   UNL A   1      44.229  26.911  29.517  1.00  0.00    -0.248 NA
ATOM     38  C   UNL A   1      45.091  24.909  28.688  1.00  0.00     0.031 C 
ATOM     39  C   UNL A   1      40.182  25.846  27.952  1.00  0.00     0.029 A 
ATOM     40  N   UNL A   1      41.428  27.429  28.921  1.00  0.00    -0.354 N 
ATOM     41  C   UNL A   1      45.560  26.777  29.901  1.00  0.00     0.074 A 
ATOM     42  C   UNL A   1      45.995  25.469  29.475  1.00  0.00     0.031 C 
ATOM     43  C   UNL A   1      39.385  26.904  28.187  1.00  0.00     0.029 A 
ATOM     44  C   UNL A   1      40.163  27.959  28.831  1.00  0.00     0.049 A 
ATOM     45  H   UNL A   1      42.184  27.909  29.329  1.00  0.00     0.167 HD
ATOM     46  C   UNL A   1      46.376  27.672  30.507  1.00  0.00     0.031 A 
ATOM     47  C   UNL A   1      39.685  29.160  29.216  1.00  0.00     0.031 A 
ATOM     48  C   UNL A   1      45.979  29.003  30.869  1.00  0.00     0.049 A 
ATOM     49  C   UNL A   1      40.612  30.158  29.860  1.00  0.00     0.074 A 
ATOM     50  C   UNL A   1      46.753  30.019  31.401  1.00  0.00     0.029 A 
ATOM     51  N   UNL A   1      44.698  29.508  30.722  1.00  0.00    -0.354 N 
ATOM     52  N   UNL A   1      41.887  30.043  30.142  1.00  0.00    -0.248 NA
ATOM     53  C   UNL A   1      40.034  31.461  30.224  1.00  0.00     0.031 C 
ATOM     54  C   UNL A   1      45.928  31.124  31.623  1.00  0.00     0.029 A 
ATOM     55  C   UNL A   1      44.655  30.816  31.171  1.00  0.00     0.049 A 
ATOM     56  H   UNL A   1      43.932  29.011  30.353  1.00  0.00     0.167 HD
ATOM     57  C   UNL A   1      42.269  31.265  30.684  1.00  0.00     0.074 A 
ATOM     58  C   UNL A   1      41.096  32.112  30.676  1.00  0.00     0.031 C 
ATOM     59  C   UNL A   1      43.483  31.652  31.149  1.00  0.00     0.031 A 
BRANCH  46  60
ATOM     60  C   UNL A   1      47.791  27.239  30.790  1.00  0.00    -0.014 A 
ATOM     61  C   UNL A   1      48.110  26.480  31.930  1.00  0.00     0.009 A 
ATOM     62  C   UNL A   1      48.819  27.583  29.900  1.00  0.00     0.009 A 
ATOM     63  C   UNL A   1      49.433  26.130  32.202  1.00  0.00     0.001 A 
ATOM     64  C   UNL A   1      50.136  27.195  30.153  1.00  0.00     0.001 A 
ATOM     65  C   UNL A   1      50.445  26.483  31.311  1.00  0.00     0.000 A 
ENDBRANCH  46  60
BRANCH  47  66
ATOM     66  C   UNL A   1      38.257  29.509  28.976  1.00  0.00    -0.014 A 
ATOM     67  C   UNL A   1      37.312  29.394  30.010  1.00  0.00     0.009 A 
ATOM     68  C   UNL A   1      37.825  29.937  27.712  1.00  0.00     0.009 A 
ATOM     69  C   UNL A   1      35.964  29.672  29.774  1.00  0.00     0.001 A 
ATOM     70  C   UNL A   1      36.480  30.246  27.488  1.00  0.00     0.001 A 
ATOM     71  C   UNL A   1      35.550  30.102  28.515  1.00  0.00     0.000 A 
ENDBRANCH  47  66
BRANCH  59  72
ATOM     72  C   UNL A   1      43.624  33.064  31.644  1.00  0.00    -0.014 A 
ATOM     73  C   UNL A   1      43.927  34.120  30.770  1.00  0.00     0.009 A 
ATOM     74  C   UNL A   1      43.392  33.349  33.000  1.00  0.00     0.009 A 
ATOM     75  C   UNL A   1      44.027  35.427  31.251  1.00  0.00     0.001 A 
ATOM     76  C   UNL A   1      43.459  34.661  33.470  1.00  0.00     0.001 A 
ATOM     77  C   UNL A   1      43.786  35.697  32.599  1.00  0.00     0.000 A 
ENDBRANCH  59  72
ENDBRANCH  33  34
ENDBRANCH  26  28
ENDBRANCH  25  26
ENDBRANCH  24  25
ENDBRANCH  23  24
ENDBRANCH  22  23
ENDBRANCH   1  22
TORSDOF 18
ENDMDL
MODEL 2
REMARK VINA RESULT:      -7.8      4.985     11.245
REMARK SMILES C[C@H](C(=O)OCCOCCOC(=O)c1ccc(-c2c3nc(c(-c4ccccc4)c4ccc([nH]4)c(-c4ccccc4)c4nc(c(-c5ccccc5)c5ccc2[nH]5)C=C4)C=C3)cc1)c1ccc(C[C@@H]2CCC[C@H]2O)cc1
REMARK SMILES IDX 7 1 6 2 5 3 3 4 4 5 2 6 1 7 62 8 63 9 74 10 64 11 73 12
REMARK SMILES IDX 65 13 66 14 67 15 68 16 71 17 69 18 70 19 72 20 8 22 9 23
REMARK SMILES IDX 10 24 11 25 12 26 13 27 14 28 15 29 61 30 16 31 60 32 17 33
REMARK SMILES IDX 18 34 19 35 54 36 20 37 59 38 53 39 55 40 21 41 58 42 52 43
REMARK SMILES IDX 51 44 22 46 44 47 29 48 43 49 30 50 33 51 42 52 56 53 31 54
REMARK SMILES IDX 32 55 41 57 57 58 34 59 23 60 24 61 28 62 25 63 27 64 26 65
REMARK SMILES IDX 45 66 46 67 50 68 47 69 49 70 48 71 35 72 36 73 40 74 37 75
REMARK SMILES IDX 39 76 38 77
REMARK H PARENT 72 21 55 45 33 56
REMARK Flexibility Score: inf
ROOT
ATOM      1  C   UNL A   1      33.768  34.387  29.205  1.00  0.00     0.202 C 
ENDROOT
BRANCH   1   2
ATOM      2  C   UNL A   1      34.460  33.057  28.907  1.00  0.00     0.261 C 
BRANCH   2   3
ATOM      3  O   UNL A   1      33.758  32.390  27.842  1.00  0.00    -0.463 OA
BRANCH   3   4
ATOM      4  C   UNL A   1      33.998  31.064  27.690  1.00  0.00     0.313 C 
ATOM      5  O   UNL A   1      35.112  30.561  27.801  1.00  0.00    -0.252 OA
BRANCH   4   6
ATOM      6  C   UNL A   1      32.738  30.215  27.485  1.00  0.00     0.126 C 
ATOM      7  C   UNL A   1      31.805  31.087  26.617  1.00  0.00     0.025 C 
BRANCH   6   8
ATOM      8  C   UNL A   1      32.881  28.750  27.039  1.00  0.00    -0.034 A 
ATOM      9  C   UNL A   1      31.826  27.831  27.179  1.00  0.00     0.005 A 
ATOM     10  C   UNL A   1      33.990  28.316  26.291  1.00  0.00     0.005 A 
ATOM     11  C   UNL A   1      31.892  26.542  26.622  1.00  0.00     0.004 A 
ATOM     12  C   UNL A   1      34.055  27.032  25.730  1.00  0.00     0.004 A 
ATOM     13  C   UNL A   1      33.007  26.125  25.888  1.00  0.00    -0.048 A 
BRANCH  13  14
ATOM     14  C   UNL A   1      33.086  24.760  25.244  1.00  0.00     0.041 C 
BRANCH  14  15
ATOM     15  C   UNL A   1      32.888  24.642  23.720  1.00  0.00     0.022 C 
ATOM     16  C   UNL A   1      31.912  25.679  23.170  1.00  0.00     0.007 C 
ATOM     17  C   UNL A   1      32.319  23.302  23.233  1.00  0.00     0.117 C 
ATOM     18  C   UNL A   1      30.596  24.944  22.980  1.00  0.00     0.003 C 
ATOM     19  C   UNL A   1      30.810  23.470  23.299  1.00  0.00     0.032 C 
BRANCH  17  20
ATOM     20  O   UNL A   1      32.698  23.079  21.872  1.00  0.00    -0.393 OA
ATOM     21  H   UNL A   1      32.043  22.505  21.444  1.00  0.00     0.210 HD
ENDBRANCH  17  20
ENDBRANCH  14  15
ENDBRANCH  13  14
ENDBRANCH   6   8
ENDBRANCH   4   6
ENDBRANCH   3   4
ENDBRANCH   2   3
ENDBRANCH   1   2
BRANCH   1  22
ATOM     22  O   UNL A   1      33.373  34.581  30.566  1.00  0.00    -0.374 OA
BRANCH  22  23
ATOM     23  C   UNL A   1      34.404  34.506  31.548  1.00  0.00     0.202 C 
BRANCH  23  24
ATOM     24  C   UNL A   1      34.204  33.502  32.688  1.00  0.00     0.261 C 
BRANCH  24  25
ATOM     25  O   UNL A   1      35.062  32.359  32.596  1.00  0.00    -0.460 OA
BRANCH  25  26
ATOM     26  C   UNL A   1      36.179  32.403  33.366  1.00  0.00     0.338 C 
ATOM     27  O   UNL A   1      36.292  32.805  34.511  1.00  0.00    -0.246 OA
BRANCH  26  28
ATOM     28  C   UNL A   1      37.266  31.784  32.593  1.00  0.00     0.060 A 
ATOM     29  C   UNL A   1      38.161  30.887  33.180  1.00  0.00     0.016 A 
ATOM     30  C   UNL A   1      37.369  32.086  31.245  1.00  0.00     0.016 A 
ATOM     31  C   UNL A   1      39.160  30.287  32.400  1.00  0.00     0.010 A 
ATOM     32  C   UNL A   1      38.305  31.418  30.457  1.00  0.00     0.010 A 
ATOM     33  C   UNL A   1      39.248  30.548  31.024  1.00  0.00    -0.014 A 
BRANCH  33  34
ATOM     34  C   UNL A   1      40.366  30.047  30.170  1.00  0.00     0.031 A 
ATOM     35  C   UNL A   1      41.538  30.962  29.873  1.00  0.00     0.074 A 
ATOM     36  C   UNL A   1      40.334  28.822  29.606  1.00  0.00     0.049 A 
ATOM     37  N   UNL A   1      42.559  30.776  29.074  1.00  0.00    -0.248 NA
ATOM     38  C   UNL A   1      41.526  32.288  30.516  1.00  0.00     0.031 C 
ATOM     39  C   UNL A   1      39.253  27.845  29.738  1.00  0.00     0.029 A 
ATOM     40  N   UNL A   1      41.253  28.190  28.799  1.00  0.00    -0.354 N 
ATOM     41  C   UNL A   1      43.268  31.974  29.085  1.00  0.00     0.074 A 
ATOM     42  C   UNL A   1      42.511  32.906  29.886  1.00  0.00     0.031 C 
ATOM     43  C   UNL A   1      39.592  26.723  29.079  1.00  0.00     0.029 A 
ATOM     44  C   UNL A   1      40.892  26.913  28.441  1.00  0.00     0.049 A 
ATOM     45  H   UNL A   1      42.090  28.615  28.504  1.00  0.00     0.167 HD
ATOM     46  C   UNL A   1      44.466  32.272  28.528  1.00  0.00     0.031 A 
ATOM     47  C   UNL A   1      41.538  25.996  27.691  1.00  0.00     0.031 A 
ATOM     48  C   UNL A   1      45.264  31.333  27.792  1.00  0.00     0.049 A 
ATOM     49  C   UNL A   1      42.885  26.331  27.105  1.00  0.00     0.074 A 
ATOM     50  C   UNL A   1      46.533  31.505  27.268  1.00  0.00     0.029 A 
ATOM     51  N   UNL A   1      44.875  30.039  27.489  1.00  0.00    -0.354 N 
ATOM     52  N   UNL A   1      43.575  27.442  27.193  1.00  0.00    -0.248 NA
ATOM     53  C   UNL A   1      43.550  25.274  26.326  1.00  0.00     0.031 C 
ATOM     54  C   UNL A   1      46.891  30.330  26.603  1.00  0.00     0.029 A 
ATOM     55  C   UNL A   1      45.872  29.406  26.768  1.00  0.00     0.049 A 
ATOM     56  H   UNL A   1      44.018  29.630  27.749  1.00  0.00     0.167 HD
ATOM     57  C   UNL A   1      44.765  27.206  26.513  1.00  0.00     0.074 A 
ATOM     58  C   UNL A   1      44.709  25.843  26.032  1.00  0.00     0.031 C 
ATOM     59  C   UNL A   1      45.809  28.045  26.303  1.00  0.00     0.031 A 
BRANCH  46  60
ATOM     60  C   UNL A   1      44.992  33.670  28.721  1.00  0.00    -0.014 A 
ATOM     61  C   UNL A   1      44.681  34.700  27.817  1.00  0.00     0.009 A 
ATOM     62  C   UNL A   1      45.799  33.967  29.829  1.00  0.00     0.009 A 
ATOM     63  C   UNL A   1      45.217  35.978  27.984  1.00  0.00     0.001 A 
ATOM     64  C   UNL A   1      46.299  35.257  30.018  1.00  0.00     0.001 A 
ATOM     65  C   UNL A   1      46.021  36.257  29.088  1.00  0.00     0.000 A 
ENDBRANCH  46  60
BRANCH  47  66
ATOM     66  C   UNL A   1      40.938  24.651  27.472  1.00  0.00    -0.014 A 
ATOM     67  C   UNL A   1      41.478  23.519  28.104  1.00  0.00     0.009 A 
ATOM     68  C   UNL A   1      39.838  24.485  26.616  1.00  0.00     0.009 A 
ATOM     69  C   UNL A   1      40.950  22.249  27.862  1.00  0.00     0.001 A 
ATOM     70  C   UNL A   1      39.292  23.217  26.401  1.00  0.00     0.001 A 
ATOM     71  C   UNL A   1      39.854  22.100  27.015  1.00  0.00     0.000 A 
ENDBRANCH  47  66
BRANCH  59  72
ATOM     72  C   UNL A   1      47.001  27.505  25.563  1.00  0.00    -0.014 A 
ATOM     73  C   UNL A   1      47.118  27.632  24.170  1.00  0.00     0.009 A 
ATOM     74  C   UNL A   1      48.052  26.912  26.282  1.00  0.00     0.009 A 
ATOM     75  C   UNL A   1      48.249  27.145  23.510  1.00  0.00     0.001 A 
ATOM     76  C   UNL A   1      49.195  26.457  25.624  1.00  0.00     0.001 A 
ATOM     77  C   UNL A   1      49.288  26.565  24.238  1.00  0.00     0.000 A 
ENDBRANCH  59  72
ENDBRANCH  33  34
ENDBRANCH  26  28
ENDBRANCH  25  26
ENDBRANCH  24  25
ENDBRANCH  23  24
ENDBRANCH  22  23
ENDBRANCH   1  22
TORSDOF 18
ENDMDL
MODEL 3
REMARK VINA RESULT:      -7.8      5.748     11.538
REMARK SMILES C[C@H](C(=O)OCCOCCOC(=O)c1ccc(-c2c3nc(c(-c4ccccc4)c4ccc([nH]4)c(-c4ccccc4)c4nc(c(-c5ccccc5)c5ccc2[nH]5)C=C4)C=C3)cc1)c1ccc(C[C@@H]2CCC[C@H]2O)cc1
REMARK SMILES IDX 7 1 6 2 5 3 3 4 4 5 2 6 1 7 62 8 63 9 74 10 64 11 73 12
REMARK SMILES IDX 65 13 66 14 67 15 68 16 71 17 69 18 70 19 72 20 8 22 9 23
REMARK SMILES IDX 10 24 11 25 12 26 13 27 14 28 15 29 61 30 16 31 60 32 17 33
REMARK SMILES IDX 18 34 19 35 54 36 20 37 59 38 53 39 55 40 21 41 58 42 52 43
REMARK SMILES IDX 51 44 22 46 44 47 29 48 43 49 30 50 33 51 42 52 56 53 31 54
REMARK SMILES IDX 32 55 41 57 57 58 34 59 23 60 24 61 28 62 25 63 27 64 26 65
REMARK SMILES IDX 45 66 46 67 50 68 47 69 49 70 48 71 35 72 36 73 40 74 37 75
REMARK SMILES IDX 39 76 38 77
REMARK H PARENT 72 21 55 45 33 56
REMARK Flexibility Score: inf
ROOT
ATOM      1  C   UNL A   1      31.011  28.150  23.810  1.00  0.00     0.202 C 
ENDROOT
BRANCH   1   2
ATOM      2  C   UNL A   1      31.555  27.071  22.874  1.00  0.00     0.261 C 
BRANCH   2   3
ATOM      3  O   UNL A   1      32.979  26.965  23.056  1.00  0.00    -0.463 OA
BRANCH   3   4
ATOM      4  C   UNL A   1      33.552  25.788  22.705  1.00  0.00     0.313 C 
ATOM      5  O   UNL A   1      33.532  25.338  21.563  1.00  0.00    -0.252 OA
BRANCH   4   6
ATOM      6  C   UNL A   1      34.341  25.111  23.832  1.00  0.00     0.126 C 
ATOM      7  C   UNL A   1      33.996  25.918  25.102  1.00  0.00     0.025 C 
BRANCH   6   8
ATOM      8  C   UNL A   1      34.279  23.581  23.983  1.00  0.00    -0.034 A 
ATOM      9  C   UNL A   1      35.390  22.837  24.416  1.00  0.00     0.005 A 
ATOM     10  C   UNL A   1      33.060  22.883  23.891  1.00  0.00     0.005 A 
ATOM     11  C   UNL A   1      35.290  21.467  24.716  1.00  0.00     0.004 A 
ATOM     12  C   UNL A   1      32.958  21.519  24.195  1.00  0.00     0.004 A 
ATOM     13  C   UNL A   1      34.072  20.789  24.610  1.00  0.00    -0.048 A 
BRANCH  13  14
ATOM     14  C   UNL A   1      33.928  19.327  24.965  1.00  0.00     0.041 C 
BRANCH  14  15
ATOM     15  C   UNL A   1      32.813  18.503  24.291  1.00  0.00     0.022 C 
ATOM     16  C   UNL A   1      32.398  17.287  25.116  1.00  0.00     0.007 C 
ATOM     17  C   UNL A   1      33.169  17.916  22.918  1.00  0.00     0.117 C 
ATOM     18  C   UNL A   1      33.093  16.099  24.473  1.00  0.00     0.003 C 
ATOM     19  C   UNL A   1      33.816  16.576  23.221  1.00  0.00     0.032 C 
BRANCH  17  20
ATOM     20  O   UNL A   1      31.975  17.690  22.162  1.00  0.00    -0.393 OA
ATOM     21  H   UNL A   1      31.921  18.337  21.442  1.00  0.00     0.210 HD
ENDBRANCH  17  20
ENDBRANCH  14  15
ENDBRANCH  13  14
ENDBRANCH   6   8
ENDBRANCH   4   6
ENDBRANCH   3   4
ENDBRANCH   2   3
ENDBRANCH   1   2
BRANCH   1  22
ATOM     22  O   UNL A   1      31.848  28.474  24.924  1.00  0.00    -0.374 OA
BRANCH  22  23
ATOM     23  C   UNL A   1      31.866  29.840  25.334  1.00  0.00     0.202 C 
BRANCH  23  24
ATOM     24  C   UNL A   1      32.400  30.134  26.741  1.00  0.00     0.261 C 
BRANCH  24  25
ATOM     25  O   UNL A   1      33.821  30.303  26.785  1.00  0.00    -0.460 OA
BRANCH  25  26
ATOM     26  C   UNL A   1      34.272  31.225  27.675  1.00  0.00     0.338 C 
ATOM     27  O   UNL A   1      33.716  32.237  28.061  1.00  0.00    -0.246 OA
BRANCH  26  28
ATOM     28  C   UNL A   1      35.564  30.741  28.186  1.00  0.00     0.060 A 
ATOM     29  C   UNL A   1      36.759  31.400  27.890  1.00  0.00     0.016 A 
ATOM     30  C   UNL A   1      35.571  29.623  29.005  1.00  0.00     0.016 A 
ATOM     31  C   UNL A   1      37.966  30.930  28.429  1.00  0.00     0.010 A 
ATOM     32  C   UNL A   1      36.759  29.217  29.610  1.00  0.00     0.010 A 
ATOM     33  C   UNL A   1      37.982  29.827  29.296  1.00  0.00    -0.014 A 
BRANCH  33  34
ATOM     34  C   UNL A   1      39.244  29.201  29.793  1.00  0.00     0.031 A 
ATOM     35  C   UNL A   1      39.883  29.730  31.063  1.00  0.00     0.074 A 
ATOM     36  C   UNL A   1      39.864  28.217  29.111  1.00  0.00     0.049 A 
ATOM     37  N   UNL A   1      41.027  29.413  31.615  1.00  0.00    -0.248 NA
ATOM     38  C   UNL A   1      39.163  30.804  31.771  1.00  0.00     0.031 C 
ATOM     39  C   UNL A   1      39.418  27.639  27.843  1.00  0.00     0.029 A 
ATOM     40  N   UNL A   1      41.019  27.525  29.400  1.00  0.00    -0.354 N 
ATOM     41  C   UNL A   1      41.177  30.280  32.692  1.00  0.00     0.074 A 
ATOM     42  C   UNL A   1      40.063  31.197  32.657  1.00  0.00     0.031 C 
ATOM     43  C   UNL A   1      40.259  26.651  27.490  1.00  0.00     0.029 A 
ATOM     44  C   UNL A   1      41.328  26.551  28.481  1.00  0.00     0.049 A 
ATOM     45  H   UNL A   1      41.572  27.712  30.192  1.00  0.00     0.167 HD
ATOM     46  C   UNL A   1      42.122  30.294  33.662  1.00  0.00     0.031 A 
ATOM     47  C   UNL A   1      42.351  25.673  28.443  1.00  0.00     0.031 A 
ATOM     48  C   UNL A   1      43.194  29.343  33.753  1.00  0.00     0.049 A 
ATOM     49  C   UNL A   1      43.377  25.679  29.546  1.00  0.00     0.074 A 
ATOM     50  C   UNL A   1      44.148  29.212  34.746  1.00  0.00     0.029 A 
ATOM     51  N   UNL A   1      43.443  28.350  32.820  1.00  0.00    -0.354 N 
ATOM     52  N   UNL A   1      43.458  26.455  30.599  1.00  0.00    -0.248 NA
ATOM     53  C   UNL A   1      44.447  24.672  29.462  1.00  0.00     0.031 C 
ATOM     54  C   UNL A   1      45.007  28.170  34.388  1.00  0.00     0.029 A 
ATOM     55  C   UNL A   1      44.549  27.613  33.204  1.00  0.00     0.049 A 
ATOM     56  H   UNL A   1      42.913  28.193  32.005  1.00  0.00     0.167 HD
ATOM     57  C   UNL A   1      44.563  26.011  31.317  1.00  0.00     0.074 A 
ATOM     58  C   UNL A   1      45.111  24.887  30.588  1.00  0.00     0.031 C 
ATOM     59  C   UNL A   1      45.079  26.491  32.475  1.00  0.00     0.031 A 
BRANCH  46  60
ATOM     60  C   UNL A   1      42.016  31.364  34.718  1.00  0.00    -0.014 A 
ATOM     61  C   UNL A   1      42.644  32.612  34.562  1.00  0.00     0.009 A 
ATOM     62  C   UNL A   1      41.268  31.127  35.881  1.00  0.00     0.009 A 
ATOM     63  C   UNL A   1      42.576  33.573  35.572  1.00  0.00     0.001 A 
ATOM     64  C   UNL A   1      41.167  32.106  36.871  1.00  0.00     0.001 A 
ATOM     65  C   UNL A   1      41.833  33.322  36.724  1.00  0.00     0.000 A 
ENDBRANCH  46  60
BRANCH  47  66
ATOM     66  C   UNL A   1      42.447  24.683  27.335  1.00  0.00    -0.014 A 
ATOM     67  C   UNL A   1      41.690  23.500  27.370  1.00  0.00     0.009 A 
ATOM     68  C   UNL A   1      43.309  24.899  26.249  1.00  0.00     0.009 A 
ATOM     69  C   UNL A   1      41.815  22.545  26.359  1.00  0.00     0.001 A 
ATOM     70  C   UNL A   1      43.407  23.957  25.222  1.00  0.00     0.001 A 
ATOM     71  C   UNL A   1      42.670  22.777  25.283  1.00  0.00     0.000 A 
ENDBRANCH  47  66
BRANCH  59  72
ATOM     72  C   UNL A   1      46.268  25.780  33.058  1.00  0.00    -0.014 A 
ATOM     73  C   UNL A   1      47.577  26.237  32.836  1.00  0.00     0.009 A 
ATOM     74  C   UNL A   1      46.069  24.667  33.893  1.00  0.00     0.009 A 
ATOM     75  C   UNL A   1      48.663  25.572  33.411  1.00  0.00     0.001 A 
ATOM     76  C   UNL A   1      47.154  24.027  34.493  1.00  0.00     0.001 A 
ATOM     77  C   UNL A   1      48.450  24.474  34.244  1.00  0.00     0.000 A 
ENDBRANCH  59  72
ENDBRANCH  33  34
ENDBRANCH  26  28
ENDBRANCH  25  26
ENDBRANCH  24  25
ENDBRANCH  23  24
ENDBRANCH  22  23
ENDBRANCH   1  22
TORSDOF 18
ENDMDL
