MODEL 1
REMARK VINA RESULT:     -11.0      0.000      0.000
REMARK SMILES Cc1cc2c(c(C)c1Cl)C=C(C(=O)OCCOCCOC(=O)c1ccc(-c3c4nc(c(-c5ccccc5)c5ccc([nH]5)c(-c5ccccc5)c5nc(c(-c6ccccc6)c6ccc3[nH]6)C=C5)C=C4)cc1)[C@H](C(F)(F)F)O2
REMARK SMILES IDX 18 1 17 2 16 3 15 4 14 5 12 6 13 7 11 8 1 9 2 10 3 11 8 12
REMARK SMILES IDX 4 13 6 14 9 15 5 16 76 17 7 18 10 19 71 20 72 21 73 22 74 23
REMARK SMILES IDX 75 24 19 25 20 26 21 27 22 28 23 29 24 30 70 31 25 32 69 33
REMARK SMILES IDX 26 34 27 35 28 36 63 37 29 38 68 39 62 40 64 41 30 42 67 43
REMARK SMILES IDX 61 44 60 45 31 47 53 48 38 49 52 50 39 51 42 52 51 53 65 54
REMARK SMILES IDX 40 55 41 56 50 58 66 59 43 60 32 61 33 62 37 63 34 64 36 65
REMARK SMILES IDX 35 66 54 67 55 68 59 69 56 70 58 71 57 72 44 73 45 74 49 75
REMARK SMILES IDX 46 76 48 77 47 78
REMARK H PARENT 64 46 42 57
REMARK Flexibility Score: inf
ROOT
ATOM      1  C   UNL A   1      35.572  20.862  25.313  1.00  0.00     0.202 C 
ENDROOT
BRANCH   1   2
ATOM      2  O   UNL A   1      35.424  21.597  26.530  1.00  0.00    -0.374 OA
BRANCH   2   3
ATOM      3  C   UNL A   1      34.091  21.820  26.990  1.00  0.00     0.202 C 
BRANCH   3   4
ATOM      4  C   UNL A   1      33.264  22.821  26.181  1.00  0.00     0.261 C 
BRANCH   4   5
ATOM      5  O   UNL A   1      33.796  24.148  26.339  1.00  0.00    -0.460 OA
BRANCH   5   6
ATOM      6  C   UNL A   1      34.208  24.722  25.192  1.00  0.00     0.338 C 
ATOM      7  O   UNL A   1      34.871  24.182  24.320  1.00  0.00    -0.246 OA
BRANCH   6   8
ATOM      8  C   UNL A   1      33.653  26.084  25.063  1.00  0.00     0.087 C 
ATOM      9  C   UNL A   1      31.342  31.962  26.506  1.00  0.00     0.046 C 
ATOM     10  C   UNL A   1      32.162  30.708  26.355  1.00  0.00    -0.028 A 
ATOM     11  C   UNL A   1      31.668  29.702  25.509  1.00  0.00     0.052 A 
ATOM     12  C   UNL A   1      33.403  30.518  26.997  1.00  0.00     0.047 A 
ATOM     13  C   UNL A   1      32.359  28.505  25.345  1.00  0.00     0.128 A 
ATOM     14  C   UNL A   1      34.120  29.309  26.843  1.00  0.00    -0.021 A 
ATOM     15  Cl  UNL A   1      34.035  31.788  28.001  1.00  0.00    -0.084 Cl
ATOM     16  C   UNL A   1      33.571  28.297  26.015  1.00  0.00     0.022 A 
ATOM     17  O   UNL A   1      31.735  27.554  24.577  1.00  0.00    -0.475 OA
ATOM     18  C   UNL A   1      35.433  29.061  27.551  1.00  0.00     0.047 C 
ATOM     19  C   UNL A   1      34.170  26.973  25.920  1.00  0.00     0.027 C 
ATOM     20  C   UNL A   1      32.527  26.415  24.125  1.00  0.00     0.316 C 
BRANCH  20  21
ATOM     21  C   UNL A   1      32.927  26.652  22.653  1.00  0.00     0.430 C 
ATOM     22  F   UNL A   1      31.874  27.019  21.886  1.00  0.00    -0.167 F 
ATOM     23  F   UNL A   1      33.872  27.605  22.500  1.00  0.00    -0.167 F 
ATOM     24  F   UNL A   1      33.443  25.519  22.111  1.00  0.00    -0.167 F 
ENDBRANCH  20  21
ENDBRANCH   6   8
ENDBRANCH   5   6
ENDBRANCH   4   5
ENDBRANCH   3   4
ENDBRANCH   2   3
ENDBRANCH   1   2
BRANCH   1  25
ATOM     25  C   UNL A   1      36.971  20.307  25.007  1.00  0.00     0.261 C 
BRANCH  25  26
ATOM     26  O   UNL A   1      37.973  21.339  25.048  1.00  0.00    -0.460 OA
BRANCH  26  27
ATOM     27  C   UNL A   1      39.030  21.080  25.851  1.00  0.00     0.338 C 
ATOM     28  O   UNL A   1      39.659  20.035  25.932  1.00  0.00    -0.246 OA
BRANCH  27  29
ATOM     29  C   UNL A   1      39.487  22.331  26.489  1.00  0.00     0.060 A 
ATOM     30  C   UNL A   1      38.834  23.515  26.119  1.00  0.00     0.016 A 
ATOM     31  C   UNL A   1      40.544  22.363  27.400  1.00  0.00     0.016 A 
ATOM     32  C   UNL A   1      39.270  24.741  26.614  1.00  0.00     0.010 A 
ATOM     33  C   UNL A   1      40.990  23.596  27.888  1.00  0.00     0.010 A 
ATOM     34  C   UNL A   1      40.380  24.793  27.467  1.00  0.00    -0.014 A 
BRANCH  34  35
ATOM     35  C   UNL A   1      40.997  26.106  27.775  1.00  0.00     0.031 A 
ATOM     36  C   UNL A   1      42.363  26.412  27.225  1.00  0.00     0.074 A 
ATOM     37  C   UNL A   1      40.330  27.039  28.478  1.00  0.00     0.049 A 
ATOM     38  N   UNL A   1      43.086  27.495  27.358  1.00  0.00    -0.248 NA
ATOM     39  C   UNL A   1      42.998  25.361  26.412  1.00  0.00     0.031 C 
ATOM     40  C   UNL A   1      38.977  26.891  29.011  1.00  0.00     0.029 A 
ATOM     41  N   UNL A   1      40.706  28.306  28.854  1.00  0.00    -0.354 N 
ATOM     42  C   UNL A   1      44.256  27.256  26.648  1.00  0.00     0.074 A 
ATOM     43  C   UNL A   1      44.165  25.913  26.117  1.00  0.00     0.031 C 
ATOM     44  C   UNL A   1      38.631  28.029  29.638  1.00  0.00     0.029 A 
ATOM     45  C   UNL A   1      39.749  28.970  29.582  1.00  0.00     0.049 A 
ATOM     46  H   UNL A   1      41.577  28.700  28.623  1.00  0.00     0.167 HD
ATOM     47  C   UNL A   1      45.306  28.084  26.441  1.00  0.00     0.031 A 
ATOM     48  C   UNL A   1      39.777  30.191  30.149  1.00  0.00     0.031 A 
ATOM     49  C   UNL A   1      45.406  29.415  26.975  1.00  0.00     0.049 A 
ATOM     50  C   UNL A   1      41.001  31.054  29.995  1.00  0.00     0.074 A 
ATOM     51  C   UNL A   1      46.433  30.329  26.819  1.00  0.00     0.029 A 
ATOM     52  N   UNL A   1      44.447  30.019  27.772  1.00  0.00    -0.354 N 
ATOM     53  N   UNL A   1      42.096  30.821  29.312  1.00  0.00    -0.248 NA
ATOM     54  C   UNL A   1      40.993  32.351  30.689  1.00  0.00     0.031 C 
ATOM     55  C   UNL A   1      46.125  31.464  27.574  1.00  0.00     0.029 A 
ATOM     56  C   UNL A   1      44.874  31.284  28.142  1.00  0.00     0.049 A 
ATOM     57  H   UNL A   1      43.591  29.612  28.036  1.00  0.00     0.167 HD
ATOM     58  C   UNL A   1      42.893  31.949  29.471  1.00  0.00     0.074 A 
ATOM     59  C   UNL A   1      42.149  32.873  30.302  1.00  0.00     0.031 C 
ATOM     60  C   UNL A   1      44.128  32.195  28.971  1.00  0.00     0.031 A 
BRANCH  47  61
ATOM     61  C   UNL A   1      46.450  27.568  25.613  1.00  0.00    -0.014 A 
ATOM     62  C   UNL A   1      46.568  27.895  24.253  1.00  0.00     0.009 A 
ATOM     63  C   UNL A   1      47.457  26.799  26.218  1.00  0.00     0.009 A 
ATOM     64  C   UNL A   1      47.662  27.445  23.510  1.00  0.00     0.001 A 
ATOM     65  C   UNL A   1      48.564  26.376  25.480  1.00  0.00     0.001 A 
ATOM     66  C   UNL A   1      48.663  26.694  24.126  1.00  0.00     0.000 A 
ENDBRANCH  47  61
BRANCH  48  67
ATOM     67  C   UNL A   1      38.601  30.676  30.922  1.00  0.00    -0.014 A 
ATOM     68  C   UNL A   1      38.518  30.461  32.305  1.00  0.00     0.009 A 
ATOM     69  C   UNL A   1      37.556  31.357  30.278  1.00  0.00     0.009 A 
ATOM     70  C   UNL A   1      37.406  30.906  33.026  1.00  0.00     0.001 A 
ATOM     71  C   UNL A   1      36.460  31.826  31.005  1.00  0.00     0.001 A 
ATOM     72  C   UNL A   1      36.382  31.594  32.377  1.00  0.00     0.000 A 
ENDBRANCH  48  67
BRANCH  60  73
ATOM     73  C   UNL A   1      44.760  33.525  29.283  1.00  0.00    -0.014 A 
ATOM     74  C   UNL A   1      45.632  33.679  30.372  1.00  0.00     0.009 A 
ATOM     75  C   UNL A   1      44.548  34.616  28.424  1.00  0.00     0.009 A 
ATOM     76  C   UNL A   1      46.261  34.903  30.606  1.00  0.00     0.001 A 
ATOM     77  C   UNL A   1      45.203  35.830  28.642  1.00  0.00     0.001 A 
ATOM     78  C   UNL A   1      46.054  35.974  29.737  1.00  0.00     0.000 A 
ENDBRANCH  60  73
ENDBRANCH  34  35
ENDBRANCH  27  29
ENDBRANCH  26  27
ENDBRANCH  25  26
ENDBRANCH   1  25
TORSDOF 15
ENDMDL
MODEL 2
REMARK VINA RESULT:     -10.9      0.331      5.881
REMARK SMILES Cc1cc2c(c(C)c1Cl)C=C(C(=O)OCCOCCOC(=O)c1ccc(-c3c4nc(c(-c5ccccc5)c5ccc([nH]5)c(-c5ccccc5)c5nc(c(-c6ccccc6)c6ccc3[nH]6)C=C5)C=C4)cc1)[C@H](C(F)(F)F)O2
REMARK SMILES IDX 18 1 17 2 16 3 15 4 14 5 12 6 13 7 11 8 1 9 2 10 3 11 8 12
REMARK SMILES IDX 4 13 6 14 9 15 5 16 76 17 7 18 10 19 71 20 72 21 73 22 74 23
REMARK SMILES IDX 75 24 19 25 20 26 21 27 22 28 23 29 24 30 70 31 25 32 69 33
REMARK SMILES IDX 26 34 27 35 28 36 63 37 29 38 68 39 62 40 64 41 30 42 67 43
REMARK SMILES IDX 61 44 60 45 31 47 53 48 38 49 52 50 39 51 42 52 51 53 65 54
REMARK SMILES IDX 40 55 41 56 50 58 66 59 43 60 32 61 33 62 37 63 34 64 36 65
REMARK SMILES IDX 35 66 54 67 55 68 59 69 56 70 58 71 57 72 44 73 45 74 49 75
REMARK SMILES IDX 46 76 48 77 47 78
REMARK H PARENT 64 46 42 57
REMARK Flexibility Score: inf
ROOT
ATOM      1  C   UNL A   1      35.206  20.578  25.185  1.00  0.00     0.202 C 
ENDROOT
BRANCH   1   2
ATOM      2  O   UNL A   1      34.860  21.479  26.239  1.00  0.00    -0.374 OA
BRANCH   2   3
ATOM      3  C   UNL A   1      33.470  21.744  26.431  1.00  0.00     0.202 C 
BRANCH   3   4
ATOM      4  C   UNL A   1      32.941  23.032  25.797  1.00  0.00     0.261 C 
BRANCH   4   5
ATOM      5  O   UNL A   1      33.606  24.174  26.365  1.00  0.00    -0.460 OA
BRANCH   5   6
ATOM      6  C   UNL A   1      34.319  24.898  25.482  1.00  0.00     0.338 C 
ATOM      7  O   UNL A   1      35.269  24.496  24.828  1.00  0.00    -0.246 OA
BRANCH   6   8
ATOM      8  C   UNL A   1      33.730  26.242  25.313  1.00  0.00     0.087 C 
ATOM      9  C   UNL A   1      31.271  32.099  26.585  1.00  0.00     0.046 C 
ATOM     10  C   UNL A   1      32.122  30.862  26.470  1.00  0.00    -0.028 A 
ATOM     11  C   UNL A   1      31.654  29.820  25.654  1.00  0.00     0.052 A 
ATOM     12  C   UNL A   1      33.368  30.723  27.115  1.00  0.00     0.047 A 
ATOM     13  C   UNL A   1      32.374  28.636  25.525  1.00  0.00     0.128 A 
ATOM     14  C   UNL A   1      34.115  29.528  26.996  1.00  0.00    -0.021 A 
ATOM     15  Cl  UNL A   1      33.968  32.037  28.081  1.00  0.00    -0.084 Cl
ATOM     16  C   UNL A   1      33.592  28.479  26.200  1.00  0.00     0.022 A 
ATOM     17  O   UNL A   1      31.774  27.647  24.786  1.00  0.00    -0.475 OA
ATOM     18  C   UNL A   1      35.435  29.335  27.709  1.00  0.00     0.047 C 
ATOM     19  C   UNL A   1      34.224  27.168  26.143  1.00  0.00     0.027 C 
ATOM     20  C   UNL A   1      32.595  26.516  24.367  1.00  0.00     0.316 C 
BRANCH  20  21
ATOM     21  C   UNL A   1      32.988  26.720  22.888  1.00  0.00     0.430 C 
ATOM     22  F   UNL A   1      33.384  25.568  22.298  1.00  0.00    -0.167 F 
ATOM     23  F   UNL A   1      31.988  27.224  22.132  1.00  0.00    -0.167 F 
ATOM     24  F   UNL A   1      34.017  27.599  22.786  1.00  0.00    -0.167 F 
ENDBRANCH  20  21
ENDBRANCH   6   8
ENDBRANCH   5   6
ENDBRANCH   4   5
ENDBRANCH   3   4
ENDBRANCH   2   3
ENDBRANCH   1   2
BRANCH   1  25
ATOM     25  C   UNL A   1      36.704  20.344  24.940  1.00  0.00     0.261 C 
BRANCH  25  26
ATOM     26  O   UNL A   1      37.489  21.492  25.311  1.00  0.00    -0.460 OA
BRANCH  26  27
ATOM     27  C   UNL A   1      38.693  21.211  25.858  1.00  0.00     0.338 C 
ATOM     28  O   UNL A   1      39.323  20.168  25.761  1.00  0.00    -0.246 OA
BRANCH  27  29
ATOM     29  C   UNL A   1      39.278  22.440  26.430  1.00  0.00     0.060 A 
ATOM     30  C   UNL A   1      38.720  23.662  26.029  1.00  0.00     0.016 A 
ATOM     31  C   UNL A   1      40.361  22.413  27.310  1.00  0.00     0.016 A 
ATOM     32  C   UNL A   1      39.278  24.863  26.460  1.00  0.00     0.010 A 
ATOM     33  C   UNL A   1      40.928  23.621  27.734  1.00  0.00     0.010 A 
ATOM     34  C   UNL A   1      40.413  24.849  27.280  1.00  0.00    -0.014 A 
BRANCH  34  35
ATOM     35  C   UNL A   1      41.152  26.113  27.516  1.00  0.00     0.031 A 
ATOM     36  C   UNL A   1      40.518  27.176  28.372  1.00  0.00     0.074 A 
ATOM     37  C   UNL A   1      42.394  26.292  27.032  1.00  0.00     0.049 A 
ATOM     38  N   UNL A   1      40.984  28.348  28.717  1.00  0.00    -0.248 NA
ATOM     39  C   UNL A   1      39.182  26.874  28.915  1.00  0.00     0.031 C 
ATOM     40  C   UNL A   1      43.145  25.316  26.245  1.00  0.00     0.029 A 
ATOM     41  N   UNL A   1      43.247  27.363  27.147  1.00  0.00    -0.354 N 
ATOM     42  C   UNL A   1      40.003  28.922  29.516  1.00  0.00     0.074 A 
ATOM     43  C   UNL A   1      38.900  27.988  29.574  1.00  0.00     0.031 C 
ATOM     44  C   UNL A   1      44.353  25.830  25.955  1.00  0.00     0.029 A 
ATOM     45  C   UNL A   1      44.447  27.182  26.503  1.00  0.00     0.049 A 
ATOM     46  H   UNL A   1      43.021  28.182  27.643  1.00  0.00     0.167 HD
ATOM     47  C   UNL A   1      40.022  30.114  30.158  1.00  0.00     0.031 A 
ATOM     48  C   UNL A   1      45.496  28.016  26.362  1.00  0.00     0.031 A 
ATOM     49  C   UNL A   1      41.111  31.050  30.095  1.00  0.00     0.049 A 
ATOM     50  C   UNL A   1      45.450  29.380  26.997  1.00  0.00     0.074 A 
ATOM     51  C   UNL A   1      41.221  32.284  30.712  1.00  0.00     0.029 A 
ATOM     52  N   UNL A   1      42.275  30.860  29.368  1.00  0.00    -0.354 N 
ATOM     53  N   UNL A   1      44.521  29.907  27.759  1.00  0.00    -0.248 NA
ATOM     54  C   UNL A   1      46.599  30.266  26.755  1.00  0.00     0.031 C 
ATOM     55  C   UNL A   1      42.425  32.868  30.308  1.00  0.00     0.029 A 
ATOM     56  C   UNL A   1      43.096  31.968  29.496  1.00  0.00     0.049 A 
ATOM     57  H   UNL A   1      42.488  30.057  28.839  1.00  0.00     0.167 HD
ATOM     58  C   UNL A   1      44.985  31.170  28.108  1.00  0.00     0.074 A 
ATOM     59  C   UNL A   1      46.285  31.325  27.488  1.00  0.00     0.031 C 
ATOM     60  C   UNL A   1      44.386  32.114  28.874  1.00  0.00     0.031 A 
BRANCH  47  61
ATOM     61  C   UNL A   1      38.817  30.487  30.975  1.00  0.00    -0.014 A 
ATOM     62  C   UNL A   1      37.716  31.134  30.392  1.00  0.00     0.009 A 
ATOM     63  C   UNL A   1      38.756  30.129  32.331  1.00  0.00     0.009 A 
ATOM     64  C   UNL A   1      36.586  31.432  31.157  1.00  0.00     0.001 A 
ATOM     65  C   UNL A   1      37.614  30.401  33.086  1.00  0.00     0.001 A 
ATOM     66  C   UNL A   1      36.532  31.057  32.500  1.00  0.00     0.000 A 
ENDBRANCH  47  61
BRANCH  48  67
ATOM     67  C   UNL A   1      46.686  27.584  25.581  1.00  0.00    -0.014 A 
ATOM     68  C   UNL A   1      47.728  26.878  26.200  1.00  0.00     0.009 A 
ATOM     69  C   UNL A   1      46.785  27.875  24.211  1.00  0.00     0.009 A 
ATOM     70  C   UNL A   1      48.852  26.485  25.466  1.00  0.00     0.001 A 
ATOM     71  C   UNL A   1      47.894  27.455  23.474  1.00  0.00     0.001 A 
ATOM     72  C   UNL A   1      48.930  26.767  24.103  1.00  0.00     0.000 A 
ENDBRANCH  48  67
BRANCH  60  73
ATOM     73  C   UNL A   1      45.130  33.400  29.114  1.00  0.00    -0.014 A 
ATOM     74  C   UNL A   1      44.939  34.517  28.286  1.00  0.00     0.009 A 
ATOM     75  C   UNL A   1      45.968  33.522  30.235  1.00  0.00     0.009 A 
ATOM     76  C   UNL A   1      45.587  35.722  28.564  1.00  0.00     0.001 A 
ATOM     77  C   UNL A   1      46.590  34.737  30.528  1.00  0.00     0.001 A 
ATOM     78  C   UNL A   1      46.404  35.834  29.689  1.00  0.00     0.000 A 
ENDBRANCH  60  73
ENDBRANCH  34  35
ENDBRANCH  27  29
ENDBRANCH  26  27
ENDBRANCH  25  26
ENDBRANCH   1  25
TORSDOF 15
ENDMDL
MODEL 3
REMARK VINA RESULT:     -10.7      1.663      6.195
REMARK SMILES Cc1cc2c(c(C)c1Cl)C=C(C(=O)OCCOCCOC(=O)c1ccc(-c3c4nc(c(-c5ccccc5)c5ccc([nH]5)c(-c5ccccc5)c5nc(c(-c6ccccc6)c6ccc3[nH]6)C=C5)C=C4)cc1)[C@H](C(F)(F)F)O2
REMARK SMILES IDX 18 1 17 2 16 3 15 4 14 5 12 6 13 7 11 8 1 9 2 10 3 11 8 12
REMARK SMILES IDX 4 13 6 14 9 15 5 16 76 17 7 18 10 19 71 20 72 21 73 22 74 23
REMARK SMILES IDX 75 24 19 25 20 26 21 27 22 28 23 29 24 30 70 31 25 32 69 33
REMARK SMILES IDX 26 34 27 35 28 36 63 37 29 38 68 39 62 40 64 41 30 42 67 43
REMARK SMILES IDX 61 44 60 45 31 47 53 48 38 49 52 50 39 51 42 52 51 53 65 54
REMARK SMILES IDX 40 55 41 56 50 58 66 59 43 60 32 61 33 62 37 63 34 64 36 65
REMARK SMILES IDX 35 66 54 67 55 68 59 69 56 70 58 71 57 72 44 73 45 74 49 75
REMARK SMILES IDX 46 76 48 77 47 78
REMARK H PARENT 64 46 42 57
REMARK Flexibility Score: inf
ROOT
ATOM      1  C   UNL A   1      35.184  21.152  25.000  1.00  0.00     0.202 C 
ENDROOT
BRANCH   1   2
ATOM      2  O   UNL A   1      34.321  21.073  26.138  1.00  0.00    -0.374 OA
BRANCH   2   3
ATOM      3  C   UNL A   1      34.123  22.275  26.882  1.00  0.00     0.202 C 
BRANCH   3   4
ATOM      4  C   UNL A   1      32.923  22.284  27.832  1.00  0.00     0.261 C 
BRANCH   4   5
ATOM      5  O   UNL A   1      31.949  23.246  27.391  1.00  0.00    -0.460 OA
BRANCH   5   6
ATOM      6  C   UNL A   1      31.286  22.895  26.274  1.00  0.00     0.338 C 
ATOM      7  O   UNL A   1      30.651  21.863  26.113  1.00  0.00    -0.246 OA
BRANCH   6   8
ATOM      8  C   UNL A   1      31.328  23.984  25.278  1.00  0.00     0.087 C 
ATOM      9  C   UNL A   1      30.239  29.598  22.233  1.00  0.00     0.046 C 
ATOM     10  C   UNL A   1      30.597  28.505  23.206  1.00  0.00    -0.028 A 
ATOM     11  C   UNL A   1      30.555  27.180  22.745  1.00  0.00     0.052 A 
ATOM     12  C   UNL A   1      30.996  28.758  24.534  1.00  0.00     0.047 A 
ATOM     13  C   UNL A   1      30.845  26.119  23.597  1.00  0.00     0.128 A 
ATOM     14  C   UNL A   1      31.296  27.694  25.415  1.00  0.00    -0.021 A 
ATOM     15  Cl  UNL A   1      31.098  30.404  25.084  1.00  0.00    -0.084 Cl
ATOM     16  C   UNL A   1      31.201  26.366  24.929  1.00  0.00     0.022 A 
ATOM     17  O   UNL A   1      30.674  24.863  23.070  1.00  0.00    -0.475 OA
ATOM     18  C   UNL A   1      31.687  27.934  26.857  1.00  0.00     0.047 C 
ATOM     19  C   UNL A   1      31.349  25.213  25.807  1.00  0.00     0.027 C 
ATOM     20  C   UNL A   1      31.242  23.734  23.799  1.00  0.00     0.316 C 
BRANCH  20  21
ATOM     21  C   UNL A   1      32.560  23.321  23.110  1.00  0.00     0.430 C 
ATOM     22  F   UNL A   1      32.664  23.821  21.857  1.00  0.00    -0.167 F 
ATOM     23  F   UNL A   1      33.663  23.716  23.782  1.00  0.00    -0.167 F 
ATOM     24  F   UNL A   1      32.643  21.970  23.012  1.00  0.00    -0.167 F 
ENDBRANCH  20  21
ENDBRANCH   6   8
ENDBRANCH   5   6
ENDBRANCH   4   5
ENDBRANCH   3   4
ENDBRANCH   2   3
ENDBRANCH   1   2
BRANCH   1  25
ATOM     25  C   UNL A   1      36.424  20.247  25.009  1.00  0.00     0.261 C 
BRANCH  25  26
ATOM     26  O   UNL A   1      37.631  20.997  24.776  1.00  0.00    -0.460 OA
BRANCH  26  27
ATOM     27  C   UNL A   1      38.680  20.650  25.556  1.00  0.00     0.338 C 
ATOM     28  O   UNL A   1      39.198  19.547  25.651  1.00  0.00    -0.246 OA
BRANCH  27  29
ATOM     29  C   UNL A   1      39.286  21.864  26.140  1.00  0.00     0.060 A 
ATOM     30  C   UNL A   1      38.643  23.084  25.892  1.00  0.00     0.016 A 
ATOM     31  C   UNL A   1      40.467  21.825  26.883  1.00  0.00     0.016 A 
ATOM     32  C   UNL A   1      39.207  24.277  26.338  1.00  0.00     0.010 A 
ATOM     33  C   UNL A   1      41.039  23.025  27.321  1.00  0.00     0.010 A 
ATOM     34  C   UNL A   1      40.432  24.258  27.017  1.00  0.00    -0.014 A 
BRANCH  34  35
ATOM     35  C   UNL A   1      41.150  25.534  27.252  1.00  0.00     0.031 A 
ATOM     36  C   UNL A   1      40.543  26.547  28.184  1.00  0.00     0.074 A 
ATOM     37  C   UNL A   1      42.354  25.765  26.699  1.00  0.00     0.049 A 
ATOM     38  N   UNL A   1      40.998  27.721  28.542  1.00  0.00    -0.248 NA
ATOM     39  C   UNL A   1      39.253  26.189  28.797  1.00  0.00     0.031 C 
ATOM     40  C   UNL A   1      43.080  24.839  25.832  1.00  0.00     0.029 A 
ATOM     41  N   UNL A   1      43.184  26.856  26.799  1.00  0.00    -0.354 N 
ATOM     42  C   UNL A   1      40.054  28.238  29.420  1.00  0.00     0.074 A 
ATOM     43  C   UNL A   1      38.982  27.270  29.512  1.00  0.00     0.031 C 
ATOM     44  C   UNL A   1      44.253  25.397  25.486  1.00  0.00     0.029 A 
ATOM     45  C   UNL A   1      44.345  26.732  26.077  1.00  0.00     0.049 A 
ATOM     46  H   UNL A   1      42.967  27.650  27.338  1.00  0.00     0.167 HD
ATOM     47  C   UNL A   1      40.082  29.407  30.102  1.00  0.00     0.031 A 
ATOM     48  C   UNL A   1      45.360  27.600  25.901  1.00  0.00     0.031 A 
ATOM     49  C   UNL A   1      41.139  30.376  30.005  1.00  0.00     0.049 A 
ATOM     50  C   UNL A   1      45.317  28.940  26.587  1.00  0.00     0.074 A 
ATOM     51  C   UNL A   1      41.254  31.590  30.659  1.00  0.00     0.029 A 
ATOM     52  N   UNL A   1      42.260  30.245  29.201  1.00  0.00    -0.354 N 
ATOM     53  N   UNL A   1      44.425  29.413  27.423  1.00  0.00    -0.248 NA
ATOM     54  C   UNL A   1      46.426  29.867  26.306  1.00  0.00     0.031 C 
ATOM     55  C   UNL A   1      42.414  32.222  30.203  1.00  0.00     0.029 A 
ATOM     56  C   UNL A   1      43.057  31.371  29.319  1.00  0.00     0.049 A 
ATOM     57  H   UNL A   1      42.460  29.466  28.632  1.00  0.00     0.167 HD
ATOM     58  C   UNL A   1      44.876  30.677  27.788  1.00  0.00     0.074 A 
ATOM     59  C   UNL A   1      46.129  30.891  27.095  1.00  0.00     0.031 C 
ATOM     60  C   UNL A   1      44.301  31.576  28.623  1.00  0.00     0.031 A 
BRANCH  47  61
ATOM     61  C   UNL A   1      38.921  29.717  31.005  1.00  0.00    -0.014 A 
ATOM     62  C   UNL A   1      38.943  29.365  32.363  1.00  0.00     0.009 A 
ATOM     63  C   UNL A   1      37.818  30.427  30.504  1.00  0.00     0.009 A 
ATOM     64  C   UNL A   1      37.875  29.702  33.199  1.00  0.00     0.001 A 
ATOM     65  C   UNL A   1      36.766  30.788  31.347  1.00  0.00     0.001 A 
ATOM     66  C   UNL A   1      36.792  30.421  32.692  1.00  0.00     0.000 A 
ENDBRANCH  47  61
BRANCH  48  67
ATOM     67  C   UNL A   1      46.510  27.230  25.033  1.00  0.00    -0.014 A 
ATOM     68  C   UNL A   1      47.392  26.208  25.413  1.00  0.00     0.009 A 
ATOM     69  C   UNL A   1      46.731  27.898  23.818  1.00  0.00     0.009 A 
ATOM     70  C   UNL A   1      48.479  25.871  24.602  1.00  0.00     0.001 A 
ATOM     71  C   UNL A   1      47.800  27.539  22.995  1.00  0.00     0.001 A 
ATOM     72  C   UNL A   1      48.678  26.532  23.391  1.00  0.00     0.000 A 
ENDBRANCH  48  67
BRANCH  60  73
ATOM     73  C   UNL A   1      45.024  32.874  28.863  1.00  0.00    -0.014 A 
ATOM     74  C   UNL A   1      46.006  32.987  29.860  1.00  0.00     0.009 A 
ATOM     75  C   UNL A   1      44.782  33.972  28.022  1.00  0.00     0.009 A 
ATOM     76  C   UNL A   1      46.713  34.179  30.023  1.00  0.00     0.001 A 
ATOM     77  C   UNL A   1      45.513  35.153  28.167  1.00  0.00     0.001 A 
ATOM     78  C   UNL A   1      46.473  35.258  29.171  1.00  0.00     0.000 A 
ENDBRANCH  60  73
ENDBRANCH  34  35
ENDBRANCH  27  29
ENDBRANCH  26  27
ENDBRANCH  25  26
ENDBRANCH   1  25
TORSDOF 15
ENDMDL
