MODEL 1
REMARK VINA RESULT:     -10.8      0.000      0.000
REMARK SMILES Nc1nccc(N2CCC[C@@](Cc3ccc(F)cc3F)(C(=O)OCCOCCOC(=O)c3ccc(-c4c5nc(c(-c6ccccc6)c6ccc([nH]6)c(-c6ccccc6)c6nc(c(-c7ccccc7)c7ccc4[nH]7)C=C6)C=C5)cc3)C2)n1
REMARK SMILES IDX 26 1 25 2 24 3 23 4 21 5 22 6 11 7 7 8 8 9 80 10 9 11 10 12
REMARK SMILES IDX 6 13 2 14 3 15 81 16 4 17 5 18 1 19 12 22 13 23 14 24 19 25
REMARK SMILES IDX 15 26 18 27 20 28 16 29 17 30 27 31 28 32 29 33 30 34 31 35
REMARK SMILES IDX 32 36 33 37 79 38 34 39 78 40 35 41 36 42 37 43 72 44 38 45
REMARK SMILES IDX 77 46 71 47 73 48 39 49 76 50 70 51 69 52 40 54 62 55 47 56
REMARK SMILES IDX 61 57 48 58 51 59 60 60 74 61 49 62 50 63 59 65 75 66 52 67
REMARK SMILES IDX 41 68 42 69 46 70 43 71 45 72 44 73 63 74 64 75 68 76 65 77
REMARK SMILES IDX 67 78 66 79 53 80 54 81 58 82 55 83 57 84 56 85
REMARK H PARENT 1 20 1 21 73 53 51 64
REMARK Flexibility Score: inf
ROOT
ATOM      1  O   UNL A   1      38.435  22.487  25.998  1.00  0.00    -0.374 OA
ENDROOT
BRANCH   1   2
ATOM      2  C   UNL A   1      37.575  23.618  26.036  1.00  0.00     0.202 C 
BRANCH   2   3
ATOM      3  C   UNL A   1      36.091  23.396  25.724  1.00  0.00     0.261 C 
BRANCH   3   4
ATOM      4  O   UNL A   1      35.463  24.484  25.025  1.00  0.00    -0.463 OA
BRANCH   4   5
ATOM      5  C   UNL A   1      34.879  24.142  23.844  1.00  0.00     0.314 C 
ATOM      6  O   UNL A   1      35.416  23.434  22.997  1.00  0.00    -0.252 OA
BRANCH   5   7
ATOM      7  C   UNL A   1      33.515  24.791  23.620  1.00  0.00     0.090 C 
ATOM      8  N   UNL A   1      32.396  26.907  24.138  1.00  0.00    -0.355 N 
ATOM      9  C   UNL A   1      32.021  27.248  22.774  1.00  0.00     0.118 C 
ATOM     10  C   UNL A   1      33.649  26.176  24.299  1.00  0.00     0.137 C 
ATOM     11  C   UNL A   1      31.908  25.952  21.964  1.00  0.00     0.023 C 
ATOM     12  C   UNL A   1      33.131  25.035  22.136  1.00  0.00     0.023 C 
BRANCH   8  13
ATOM     13  C   UNL A   1      32.155  27.859  25.123  1.00  0.00     0.134 A 
ATOM     14  C   UNL A   1      31.586  29.988  25.739  1.00  0.00     0.221 A 
ATOM     15  N   UNL A   1      31.974  29.816  27.006  1.00  0.00    -0.222 NA
ATOM     16  N   UNL A   1      31.666  29.063  24.779  1.00  0.00    -0.196 NA
ATOM     17  C   UNL A   1      32.460  28.603  27.316  1.00  0.00     0.119 A 
ATOM     18  C   UNL A   1      32.555  27.577  26.412  1.00  0.00     0.067 A 
BRANCH  14  19
ATOM     19  N   UNL A   1      31.093  31.214  25.399  1.00  0.00    -0.368 N 
ATOM     20  H   UNL A   1      30.145  31.426  25.559  1.00  0.00     0.159 HD
ATOM     21  H   UNL A   1      31.686  31.887  24.993  1.00  0.00     0.159 HD
ENDBRANCH  14  19
ENDBRANCH   8  13
BRANCH   7  22
ATOM     22  C   UNL A   1      32.465  23.939  24.394  1.00  0.00     0.059 C 
BRANCH  22  23
ATOM     23  C   UNL A   1      32.466  22.458  24.077  1.00  0.00    -0.011 A 
ATOM     24  C   UNL A   1      32.146  21.996  22.792  1.00  0.00     0.010 A 
ATOM     25  C   UNL A   1      32.779  21.516  25.067  1.00  0.00     0.129 A 
ATOM     26  C   UNL A   1      32.090  20.626  22.530  1.00  0.00     0.040 A 
ATOM     27  C   UNL A   1      32.734  20.151  24.812  1.00  0.00     0.078 A 
ATOM     28  F   UNL A   1      33.128  21.922  26.294  1.00  0.00    -0.207 F 
ATOM     29  C   UNL A   1      32.376  19.718  23.544  1.00  0.00     0.126 A 
ATOM     30  F   UNL A   1      32.314  18.405  23.288  1.00  0.00    -0.207 F 
ENDBRANCH  22  23
ENDBRANCH   7  22
ENDBRANCH   5   7
ENDBRANCH   4   5
ENDBRANCH   3   4
ENDBRANCH   2   3
ENDBRANCH   1   2
BRANCH   1  31
ATOM     31  C   UNL A   1      38.054  21.384  25.175  1.00  0.00     0.202 C 
BRANCH  31  32
ATOM     32  C   UNL A   1      38.875  20.093  25.295  1.00  0.00     0.261 C 
BRANCH  32  33
ATOM     33  O   UNL A   1      39.715  20.069  26.468  1.00  0.00    -0.460 OA
BRANCH  33  34
ATOM     34  C   UNL A   1      41.025  19.828  26.215  1.00  0.00     0.338 C 
ATOM     35  O   UNL A   1      41.503  18.861  25.640  1.00  0.00    -0.246 OA
BRANCH  34  36
ATOM     36  C   UNL A   1      41.857  20.982  26.593  1.00  0.00     0.060 A 
ATOM     37  C   UNL A   1      42.011  21.261  27.957  1.00  0.00     0.016 A 
ATOM     38  C   UNL A   1      42.331  21.873  25.628  1.00  0.00     0.016 A 
ATOM     39  C   UNL A   1      42.598  22.459  28.363  1.00  0.00     0.010 A 
ATOM     40  C   UNL A   1      42.912  23.079  26.037  1.00  0.00     0.010 A 
ATOM     41  C   UNL A   1      43.011  23.395  27.405  1.00  0.00    -0.014 A 
BRANCH  41  42
ATOM     42  C   UNL A   1      43.414  24.755  27.839  1.00  0.00     0.031 A 
ATOM     43  C   UNL A   1      42.356  25.787  28.115  1.00  0.00     0.074 A 
ATOM     44  C   UNL A   1      44.711  25.062  28.017  1.00  0.00     0.049 A 
ATOM     45  N   UNL A   1      42.491  27.032  28.499  1.00  0.00    -0.248 NA
ATOM     46  C   UNL A   1      40.958  25.359  27.937  1.00  0.00     0.031 C 
ATOM     47  C   UNL A   1      45.832  24.148  27.816  1.00  0.00     0.029 A 
ATOM     48  N   UNL A   1      45.298  26.241  28.405  1.00  0.00    -0.354 N 
ATOM     49  C   UNL A   1      41.201  27.535  28.609  1.00  0.00     0.074 A 
ATOM     50  C   UNL A   1      40.297  26.471  28.225  1.00  0.00     0.031 C 
ATOM     51  C   UNL A   1      46.977  24.804  28.072  1.00  0.00     0.029 A 
ATOM     52  C   UNL A   1      46.668  26.188  28.429  1.00  0.00     0.049 A 
ATOM     53  H   UNL A   1      44.785  27.046  28.644  1.00  0.00     0.167 HD
ATOM     54  C   UNL A   1      40.800  28.770  28.999  1.00  0.00     0.031 A 
ATOM     55  C   UNL A   1      47.574  27.150  28.688  1.00  0.00     0.031 A 
ATOM     56  C   UNL A   1      41.691  29.840  29.360  1.00  0.00     0.049 A 
ATOM     57  C   UNL A   1      47.109  28.535  29.047  1.00  0.00     0.074 A 
ATOM     58  C   UNL A   1      41.376  31.122  29.777  1.00  0.00     0.029 A 
ATOM     59  N   UNL A   1      43.073  29.756  29.334  1.00  0.00    -0.354 N 
ATOM     60  N   UNL A   1      45.887  28.989  29.173  1.00  0.00    -0.248 NA
ATOM     61  C   UNL A   1      48.154  29.539  29.303  1.00  0.00     0.031 C 
ATOM     62  C   UNL A   1      42.571  31.828  29.959  1.00  0.00     0.029 A 
ATOM     63  C   UNL A   1      43.628  30.970  29.701  1.00  0.00     0.049 A 
ATOM     64  H   UNL A   1      43.586  28.951  29.091  1.00  0.00     0.167 HD
ATOM     65  C   UNL A   1      46.013  30.324  29.537  1.00  0.00     0.074 A 
ATOM     66  C   UNL A   1      47.432  30.602  29.628  1.00  0.00     0.031 C 
ATOM     67  C   UNL A   1      45.040  31.237  29.776  1.00  0.00     0.031 A 
BRANCH  54  68
ATOM     68  C   UNL A   1      39.321  29.033  29.023  1.00  0.00    -0.014 A 
ATOM     69  C   UNL A   1      38.650  29.505  27.884  1.00  0.00     0.009 A 
ATOM     70  C   UNL A   1      38.588  28.789  30.194  1.00  0.00     0.009 A 
ATOM     71  C   UNL A   1      37.278  29.761  27.930  1.00  0.00     0.001 A 
ATOM     72  C   UNL A   1      37.212  29.024  30.229  1.00  0.00     0.001 A 
ATOM     73  C   UNL A   1      36.560  29.518  29.100  1.00  0.00     0.000 A 
ENDBRANCH  54  68
BRANCH  55  74
ATOM     74  C   UNL A   1      49.023  26.840  28.587  1.00  0.00    -0.014 A 
ATOM     75  C   UNL A   1      49.702  26.975  27.367  1.00  0.00     0.009 A 
ATOM     76  C   UNL A   1      49.733  26.410  29.719  1.00  0.00     0.009 A 
ATOM     77  C   UNL A   1      51.062  26.669  27.281  1.00  0.00     0.001 A 
ATOM     78  C   UNL A   1      51.097  26.129  29.635  1.00  0.00     0.001 A 
ATOM     79  C   UNL A   1      51.759  26.252  28.415  1.00  0.00     0.000 A 
ENDBRANCH  55  74
BRANCH  67  80
ATOM     80  C   UNL A   1      45.477  32.619  30.173  1.00  0.00    -0.014 A 
ATOM     81  C   UNL A   1      45.615  33.638  29.217  1.00  0.00     0.009 A 
ATOM     82  C   UNL A   1      45.712  32.915  31.524  1.00  0.00     0.009 A 
ATOM     83  C   UNL A   1      46.008  34.920  29.606  1.00  0.00     0.001 A 
ATOM     84  C   UNL A   1      46.082  34.204  31.912  1.00  0.00     0.001 A 
ATOM     85  C   UNL A   1      46.237  35.203  30.953  1.00  0.00     0.000 A 
ENDBRANCH  67  80
ENDBRANCH  41  42
ENDBRANCH  34  36
ENDBRANCH  33  34
ENDBRANCH  32  33
ENDBRANCH  31  32
ENDBRANCH   1  31
TORSDOF 18
ENDMDL
MODEL 2
REMARK VINA RESULT:     -10.6      1.118      5.830
REMARK SMILES Nc1nccc(N2CCC[C@@](Cc3ccc(F)cc3F)(C(=O)OCCOCCOC(=O)c3ccc(-c4c5nc(c(-c6ccccc6)c6ccc([nH]6)c(-c6ccccc6)c6nc(c(-c7ccccc7)c7ccc4[nH]7)C=C6)C=C5)cc3)C2)n1
REMARK SMILES IDX 26 1 25 2 24 3 23 4 21 5 22 6 11 7 7 8 8 9 80 10 9 11 10 12
REMARK SMILES IDX 6 13 2 14 3 15 81 16 4 17 5 18 1 19 12 22 13 23 14 24 19 25
REMARK SMILES IDX 15 26 18 27 20 28 16 29 17 30 27 31 28 32 29 33 30 34 31 35
REMARK SMILES IDX 32 36 33 37 79 38 34 39 78 40 35 41 36 42 37 43 72 44 38 45
REMARK SMILES IDX 77 46 71 47 73 48 39 49 76 50 70 51 69 52 40 54 62 55 47 56
REMARK SMILES IDX 61 57 48 58 51 59 60 60 74 61 49 62 50 63 59 65 75 66 52 67
REMARK SMILES IDX 41 68 42 69 46 70 43 71 45 72 44 73 63 74 64 75 68 76 65 77
REMARK SMILES IDX 67 78 66 79 53 80 54 81 58 82 55 83 57 84 56 85
REMARK H PARENT 1 20 1 21 73 53 51 64
REMARK Flexibility Score: inf
ROOT
ATOM      1  O   UNL A   1      38.731  21.598  25.527  1.00  0.00    -0.374 OA
ENDROOT
BRANCH   1   2
ATOM      2  C   UNL A   1      37.462  22.192  25.766  1.00  0.00     0.202 C 
BRANCH   2   3
ATOM      3  C   UNL A   1      37.227  23.609  25.233  1.00  0.00     0.261 C 
BRANCH   3   4
ATOM      4  O   UNL A   1      35.842  23.974  25.110  1.00  0.00    -0.463 OA
BRANCH   4   5
ATOM      5  C   UNL A   1      35.300  23.754  23.881  1.00  0.00     0.314 C 
ATOM      6  O   UNL A   1      35.901  23.213  22.957  1.00  0.00    -0.252 OA
BRANCH   5   7
ATOM      7  C   UNL A   1      33.891  24.318  23.718  1.00  0.00     0.090 C 
ATOM      8  N   UNL A   1      32.711  26.425  24.131  1.00  0.00    -0.355 N 
ATOM      9  C   UNL A   1      32.206  26.613  22.779  1.00  0.00     0.118 C 
ATOM     10  C   UNL A   1      34.010  25.768  24.248  1.00  0.00     0.137 C 
ATOM     11  C   UNL A   1      32.093  25.240  22.109  1.00  0.00     0.023 C 
ATOM     12  C   UNL A   1      33.371  24.397  22.258  1.00  0.00     0.023 C 
BRANCH   8  13
ATOM     13  C   UNL A   1      32.506  27.459  25.038  1.00  0.00     0.134 A 
ATOM     14  C   UNL A   1      31.757  28.210  27.065  1.00  0.00     0.221 A 
ATOM     15  N   UNL A   1      31.815  29.496  26.706  1.00  0.00    -0.222 NA
ATOM     16  N   UNL A   1      32.074  27.178  26.279  1.00  0.00    -0.196 NA
ATOM     17  C   UNL A   1      32.249  29.742  25.459  1.00  0.00     0.119 A 
ATOM     18  C   UNL A   1      32.627  28.755  24.586  1.00  0.00     0.067 A 
BRANCH  14  19
ATOM     19  N   UNL A   1      31.314  27.934  28.326  1.00  0.00    -0.368 N 
ATOM     20  H   UNL A   1      31.064  27.014  28.570  1.00  0.00     0.159 HD
ATOM     21  H   UNL A   1      31.244  28.656  28.992  1.00  0.00     0.159 HD
ENDBRANCH  14  19
ENDBRANCH   8  13
BRANCH   7  22
ATOM     22  C   UNL A   1      32.954  23.502  24.660  1.00  0.00     0.059 C 
BRANCH  22  23
ATOM     23  C   UNL A   1      32.929  22.008  24.417  1.00  0.00    -0.011 A 
ATOM     24  C   UNL A   1      32.296  21.472  23.286  1.00  0.00     0.010 A 
ATOM     25  C   UNL A   1      33.531  21.126  25.325  1.00  0.00     0.129 A 
ATOM     26  C   UNL A   1      32.224  20.089  23.108  1.00  0.00     0.040 A 
ATOM     27  C   UNL A   1      33.472  19.749  25.150  1.00  0.00     0.078 A 
ATOM     28  F   UNL A   1      34.179  21.604  26.396  1.00  0.00    -0.207 F 
ATOM     29  C   UNL A   1      32.806  19.243  24.044  1.00  0.00     0.126 A 
ATOM     30  F   UNL A   1      32.729  17.917  23.870  1.00  0.00    -0.207 F 
ENDBRANCH  22  23
ENDBRANCH   7  22
ENDBRANCH   5   7
ENDBRANCH   4   5
ENDBRANCH   3   4
ENDBRANCH   2   3
ENDBRANCH   1   2
BRANCH   1  31
ATOM     31  C   UNL A   1      38.772  20.205  25.218  1.00  0.00     0.202 C 
BRANCH  31  32
ATOM     32  C   UNL A   1      39.821  19.349  25.939  1.00  0.00     0.261 C 
BRANCH  32  33
ATOM     33  O   UNL A   1      41.091  19.323  25.254  1.00  0.00    -0.460 OA
BRANCH  33  34
ATOM     34  C   UNL A   1      42.150  19.680  26.021  1.00  0.00     0.338 C 
ATOM     35  O   UNL A   1      43.188  19.058  26.186  1.00  0.00    -0.246 OA
BRANCH  34  36
ATOM     36  C   UNL A   1      41.981  21.042  26.553  1.00  0.00     0.060 A 
ATOM     37  C   UNL A   1      42.261  22.119  25.702  1.00  0.00     0.016 A 
ATOM     38  C   UNL A   1      41.724  21.258  27.909  1.00  0.00     0.016 A 
ATOM     39  C   UNL A   1      42.333  23.414  26.214  1.00  0.00     0.010 A 
ATOM     40  C   UNL A   1      41.806  22.557  28.423  1.00  0.00     0.010 A 
ATOM     41  C   UNL A   1      42.150  23.634  27.586  1.00  0.00    -0.014 A 
BRANCH  41  42
ATOM     42  C   UNL A   1      42.457  24.968  28.158  1.00  0.00     0.031 A 
ATOM     43  C   UNL A   1      43.868  25.287  28.572  1.00  0.00     0.074 A 
ATOM     44  C   UNL A   1      41.497  25.900  28.282  1.00  0.00     0.049 A 
ATOM     45  N   UNL A   1      44.350  26.387  29.096  1.00  0.00    -0.248 NA
ATOM     46  C   UNL A   1      44.869  24.228  28.365  1.00  0.00     0.031 C 
ATOM     47  C   UNL A   1      40.100  25.731  27.891  1.00  0.00     0.029 A 
ATOM     48  N   UNL A   1      41.559  27.177  28.780  1.00  0.00    -0.354 N 
ATOM     49  C   UNL A   1      45.707  26.153  29.281  1.00  0.00     0.074 A 
ATOM     50  C   UNL A   1      45.967  24.799  28.840  1.00  0.00     0.031 C 
ATOM     51  C   UNL A   1      39.430  26.862  28.175  1.00  0.00     0.029 A 
ATOM     52  C   UNL A   1      40.348  27.821  28.790  1.00  0.00     0.049 A 
ATOM     53  H   UNL A   1      42.393  27.592  29.099  1.00  0.00     0.167 HD
ATOM     54  C   UNL A   1      46.655  26.990  29.769  1.00  0.00     0.031 A 
ATOM     55  C   UNL A   1      40.010  29.037  29.260  1.00  0.00     0.031 A 
ATOM     56  C   UNL A   1      46.402  28.328  30.231  1.00  0.00     0.049 A 
ATOM     57  C   UNL A   1      41.064  29.922  29.866  1.00  0.00     0.074 A 
ATOM     58  C   UNL A   1      47.301  29.253  30.733  1.00  0.00     0.029 A 
ATOM     59  N   UNL A   1      45.153  28.928  30.258  1.00  0.00    -0.354 N 
ATOM     60  N   UNL A   1      42.347  29.698  30.010  1.00  0.00    -0.248 NA
ATOM     61  C   UNL A   1      40.621  31.230  30.372  1.00  0.00     0.031 C 
ATOM     62  C   UNL A   1      46.587  30.397  31.108  1.00  0.00     0.029 A 
ATOM     63  C   UNL A   1      45.253  30.201  30.794  1.00  0.00     0.049 A 
ATOM     64  H   UNL A   1      44.319  28.511  29.943  1.00  0.00     0.167 HD
ATOM     65  C   UNL A   1      42.867  30.840  30.607  1.00  0.00     0.074 A 
ATOM     66  C   UNL A   1      41.763  31.762  30.783  1.00  0.00     0.031 C 
ATOM     67  C   UNL A   1      44.145  31.102  30.975  1.00  0.00     0.031 A 
BRANCH  54  68
ATOM     68  C   UNL A   1      48.057  26.458  29.855  1.00  0.00    -0.014 A 
ATOM     69  C   UNL A   1      48.966  26.635  28.801  1.00  0.00     0.009 A 
ATOM     70  C   UNL A   1      48.479  25.785  31.013  1.00  0.00     0.009 A 
ATOM     71  C   UNL A   1      50.260  26.118  28.890  1.00  0.00     0.001 A 
ATOM     72  C   UNL A   1      49.780  25.290  31.108  1.00  0.00     0.001 A 
ATOM     73  C   UNL A   1      50.667  25.449  30.045  1.00  0.00     0.000 A 
ENDBRANCH  54  68
BRANCH  55  74
ATOM     74  C   UNL A   1      38.594  29.478  29.200  1.00  0.00    -0.014 A 
ATOM     75  C   UNL A   1      37.730  29.265  30.285  1.00  0.00     0.009 A 
ATOM     76  C   UNL A   1      38.102  30.121  28.054  1.00  0.00     0.009 A 
ATOM     77  C   UNL A   1      36.396  29.674  30.214  1.00  0.00     0.001 A 
ATOM     78  C   UNL A   1      36.775  30.550  27.995  1.00  0.00     0.001 A 
ATOM     79  C   UNL A   1      35.922  30.320  29.073  1.00  0.00     0.000 A 
ENDBRANCH  55  74
BRANCH  67  80
ATOM     80  C   UNL A   1      44.422  32.444  31.592  1.00  0.00    -0.014 A 
ATOM     81  C   UNL A   1      44.735  33.557  30.796  1.00  0.00     0.009 A 
ATOM     82  C   UNL A   1      44.325  32.606  32.983  1.00  0.00     0.009 A 
ATOM     83  C   UNL A   1      44.975  34.800  31.385  1.00  0.00     0.001 A 
ATOM     84  C   UNL A   1      44.543  33.855  33.567  1.00  0.00     0.001 A 
ATOM     85  C   UNL A   1      44.875  34.949  32.768  1.00  0.00     0.000 A 
ENDBRANCH  67  80
ENDBRANCH  41  42
ENDBRANCH  34  36
ENDBRANCH  33  34
ENDBRANCH  32  33
ENDBRANCH  31  32
ENDBRANCH   1  31
TORSDOF 18
ENDMDL
MODEL 3
REMARK VINA RESULT:     -10.5      4.004      7.446
REMARK SMILES Nc1nccc(N2CCC[C@@](Cc3ccc(F)cc3F)(C(=O)OCCOCCOC(=O)c3ccc(-c4c5nc(c(-c6ccccc6)c6ccc([nH]6)c(-c6ccccc6)c6nc(c(-c7ccccc7)c7ccc4[nH]7)C=C6)C=C5)cc3)C2)n1
REMARK SMILES IDX 26 1 25 2 24 3 23 4 21 5 22 6 11 7 7 8 8 9 80 10 9 11 10 12
REMARK SMILES IDX 6 13 2 14 3 15 81 16 4 17 5 18 1 19 12 22 13 23 14 24 19 25
REMARK SMILES IDX 15 26 18 27 20 28 16 29 17 30 27 31 28 32 29 33 30 34 31 35
REMARK SMILES IDX 32 36 33 37 79 38 34 39 78 40 35 41 36 42 37 43 72 44 38 45
REMARK SMILES IDX 77 46 71 47 73 48 39 49 76 50 70 51 69 52 40 54 62 55 47 56
REMARK SMILES IDX 61 57 48 58 51 59 60 60 74 61 49 62 50 63 59 65 75 66 52 67
REMARK SMILES IDX 41 68 42 69 46 70 43 71 45 72 44 73 63 74 64 75 68 76 65 77
REMARK SMILES IDX 67 78 66 79 53 80 54 81 58 82 55 83 57 84 56 85
REMARK H PARENT 1 20 1 21 73 53 51 64
REMARK Flexibility Score: inf
ROOT
ATOM      1  O   UNL A   1      39.615  21.833  26.875  1.00  0.00    -0.374 OA
ENDROOT
BRANCH   1   2
ATOM      2  C   UNL A   1      38.919  22.830  26.138  1.00  0.00     0.202 C 
BRANCH   2   3
ATOM      3  C   UNL A   1      37.736  22.380  25.274  1.00  0.00     0.261 C 
BRANCH   3   4
ATOM      4  O   UNL A   1      36.777  23.414  24.997  1.00  0.00    -0.463 OA
BRANCH   4   5
ATOM      5  C   UNL A   1      36.034  23.218  23.873  1.00  0.00     0.314 C 
ATOM      6  O   UNL A   1      36.502  22.842  22.803  1.00  0.00    -0.252 OA
BRANCH   5   7
ATOM      7  C   UNL A   1      34.562  23.591  24.035  1.00  0.00     0.090 C 
ATOM      8  N   UNL A   1      33.232  25.579  24.564  1.00  0.00    -0.355 N 
ATOM      9  C   UNL A   1      32.389  25.548  23.379  1.00  0.00     0.118 C 
ATOM     10  C   UNL A   1      34.600  25.096  24.395  1.00  0.00     0.137 C 
ATOM     11  C   UNL A   1      32.312  24.103  22.876  1.00  0.00     0.023 C 
ATOM     12  C   UNL A   1      33.694  23.439  22.758  1.00  0.00     0.023 C 
BRANCH   8  13
ATOM     13  C   UNL A   1      33.110  26.679  25.406  1.00  0.00     0.134 A 
ATOM     14  C   UNL A   1      31.991  27.821  27.043  1.00  0.00     0.221 A 
ATOM     15  N   UNL A   1      32.678  28.949  26.843  1.00  0.00    -0.222 NA
ATOM     16  N   UNL A   1      32.160  26.688  26.356  1.00  0.00    -0.196 NA
ATOM     17  C   UNL A   1      33.619  28.907  25.886  1.00  0.00     0.119 A 
ATOM     18  C   UNL A   1      33.890  27.786  25.146  1.00  0.00     0.067 A 
BRANCH  14  19
ATOM     19  N   UNL A   1      31.026  27.840  28.007  1.00  0.00    -0.368 N 
ATOM     20  H   UNL A   1      30.310  28.514  27.974  1.00  0.00     0.159 HD
ATOM     21  H   UNL A   1      31.046  27.179  28.737  1.00  0.00     0.159 HD
ENDBRANCH  14  19
ENDBRANCH   8  13
BRANCH   7  22
ATOM     22  C   UNL A   1      34.012  22.785  25.251  1.00  0.00     0.059 C 
BRANCH  22  23
ATOM     23  C   UNL A   1      33.736  21.320  24.989  1.00  0.00    -0.011 A 
ATOM     24  C   UNL A   1      34.781  20.385  24.950  1.00  0.00     0.010 A 
ATOM     25  C   UNL A   1      32.427  20.867  24.771  1.00  0.00     0.129 A 
ATOM     26  C   UNL A   1      34.520  19.048  24.645  1.00  0.00     0.040 A 
ATOM     27  C   UNL A   1      32.158  19.536  24.476  1.00  0.00     0.078 A 
ATOM     28  F   UNL A   1      31.400  21.723  24.840  1.00  0.00    -0.207 F 
ATOM     29  C   UNL A   1      33.213  18.639  24.404  1.00  0.00     0.126 A 
ATOM     30  F   UNL A   1      32.970  17.357  24.106  1.00  0.00    -0.207 F 
ENDBRANCH  22  23
ENDBRANCH   7  22
ENDBRANCH   5   7
ENDBRANCH   4   5
ENDBRANCH   3   4
ENDBRANCH   2   3
ENDBRANCH   1   2
BRANCH   1  31
ATOM     31  C   UNL A   1      40.649  21.108  26.210  1.00  0.00     0.202 C 
BRANCH  31  32
ATOM     32  C   UNL A   1      41.962  21.847  25.922  1.00  0.00     0.261 C 
BRANCH  32  33
ATOM     33  O   UNL A   1      42.198  22.946  26.828  1.00  0.00    -0.460 OA
BRANCH  33  34
ATOM     34  C   UNL A   1      42.453  24.130  26.219  1.00  0.00     0.338 C 
ATOM     35  O   UNL A   1      42.973  24.305  25.128  1.00  0.00    -0.246 OA
BRANCH  34  36
ATOM     36  C   UNL A   1      41.875  25.250  26.980  1.00  0.00     0.060 A 
ATOM     37  C   UNL A   1      42.524  26.489  26.917  1.00  0.00     0.016 A 
ATOM     38  C   UNL A   1      40.822  25.044  27.873  1.00  0.00     0.016 A 
ATOM     39  C   UNL A   1      42.153  27.516  27.785  1.00  0.00     0.010 A 
ATOM     40  C   UNL A   1      40.457  26.074  28.749  1.00  0.00     0.010 A 
ATOM     41  C   UNL A   1      41.147  27.299  28.736  1.00  0.00    -0.014 A 
BRANCH  41  42
ATOM     42  C   UNL A   1      40.921  28.306  29.802  1.00  0.00     0.031 A 
ATOM     43  C   UNL A   1      41.800  28.301  31.022  1.00  0.00     0.074 A 
ATOM     44  C   UNL A   1      39.961  29.238  29.673  1.00  0.00     0.049 A 
ATOM     45  N   UNL A   1      41.770  29.087  32.069  1.00  0.00    -0.248 NA
ATOM     46  C   UNL A   1      42.855  27.275  31.068  1.00  0.00     0.031 C 
ATOM     47  C   UNL A   1      39.062  29.373  28.529  1.00  0.00     0.029 A 
ATOM     48  N   UNL A   1      39.583  30.246  30.524  1.00  0.00    -0.354 N 
ATOM     49  C   UNL A   1      42.798  28.653  32.896  1.00  0.00     0.074 A 
ATOM     50  C   UNL A   1      43.416  27.518  32.244  1.00  0.00     0.031 C 
ATOM     51  C   UNL A   1      38.226  30.402  28.755  1.00  0.00     0.029 A 
ATOM     52  C   UNL A   1      38.516  30.976  30.068  1.00  0.00     0.049 A 
ATOM     53  H   UNL A   1      40.034  30.427  31.380  1.00  0.00     0.167 HD
ATOM     54  C   UNL A   1      43.198  29.156  34.090  1.00  0.00     0.031 A 
ATOM     55  C   UNL A   1      37.834  31.982  30.650  1.00  0.00     0.031 A 
ATOM     56  C   UNL A   1      42.577  30.268  34.756  1.00  0.00     0.049 A 
ATOM     57  C   UNL A   1      38.248  32.476  32.008  1.00  0.00     0.074 A 
ATOM     58  C   UNL A   1      42.920  30.853  35.964  1.00  0.00     0.029 A 
ATOM     59  N   UNL A   1      41.474  30.956  34.277  1.00  0.00    -0.354 N 
ATOM     60  N   UNL A   1      39.238  32.074  32.766  1.00  0.00    -0.248 NA
ATOM     61  C   UNL A   1      37.450  33.567  32.589  1.00  0.00     0.031 C 
ATOM     62  C   UNL A   1      41.994  31.866  36.236  1.00  0.00     0.029 A 
ATOM     63  C   UNL A   1      41.106  31.943  35.176  1.00  0.00     0.049 A 
ATOM     64  H   UNL A   1      41.021  30.772  33.423  1.00  0.00     0.167 HD
ATOM     65  C   UNL A   1      39.193  32.870  33.904  1.00  0.00     0.074 A 
ATOM     66  C   UNL A   1      38.087  33.790  33.730  1.00  0.00     0.031 C 
ATOM     67  C   UNL A   1      39.997  32.842  34.996  1.00  0.00     0.031 A 
BRANCH  54  68
ATOM     68  C   UNL A   1      44.354  28.473  34.765  1.00  0.00    -0.014 A 
ATOM     69  C   UNL A   1      44.150  27.396  35.640  1.00  0.00     0.009 A 
ATOM     70  C   UNL A   1      45.666  28.904  34.508  1.00  0.00     0.009 A 
ATOM     71  C   UNL A   1      45.235  26.786  36.273  1.00  0.00     0.001 A 
ATOM     72  C   UNL A   1      46.749  28.277  35.125  1.00  0.00     0.001 A 
ATOM     73  C   UNL A   1      46.534  27.224  36.013  1.00  0.00     0.000 A 
ENDBRANCH  54  68
BRANCH  55  74
ATOM     74  C   UNL A   1      36.662  32.572  29.955  1.00  0.00    -0.014 A 
ATOM     75  C   UNL A   1      36.816  33.670  29.095  1.00  0.00     0.009 A 
ATOM     76  C   UNL A   1      35.381  32.033  30.149  1.00  0.00     0.009 A 
ATOM     77  C   UNL A   1      35.705  34.224  28.455  1.00  0.00     0.001 A 
ATOM     78  C   UNL A   1      34.276  32.574  29.490  1.00  0.00     0.001 A 
ATOM     79  C   UNL A   1      34.438  33.674  28.649  1.00  0.00     0.000 A 
ENDBRANCH  55  74
BRANCH  67  80
ATOM     80  C   UNL A   1      39.719  33.845  36.080  1.00  0.00    -0.014 A 
ATOM     81  C   UNL A   1      38.934  33.509  37.194  1.00  0.00     0.009 A 
ATOM     82  C   UNL A   1      40.284  35.128  36.006  1.00  0.00     0.009 A 
ATOM     83  C   UNL A   1      38.698  34.449  38.199  1.00  0.00     0.001 A 
ATOM     84  C   UNL A   1      40.064  36.058  37.024  1.00  0.00     0.001 A 
ATOM     85  C   UNL A   1      39.266  35.720  38.115  1.00  0.00     0.000 A 
ENDBRANCH  67  80
ENDBRANCH  41  42
ENDBRANCH  34  36
ENDBRANCH  33  34
ENDBRANCH  32  33
ENDBRANCH  31  32
ENDBRANCH   1  31
TORSDOF 18
ENDMDL
