MODEL 1
REMARK VINA RESULT:     -11.6      0.000      0.000
REMARK SMILES O=C(Cc1c(C(=O)c2cc3c(cn2)CCCC3)[nH]c2cc(Cl)ccc12)OCCOCCOC(=O)c1ccc(-c2c3nc(c(-c4ccccc4)c4ccc([nH]4)c(-c4ccccc4)c4nc(c(-c5ccccc5)c5ccc2[nH]5)C=C4)C=C3)cc1
REMARK SMILES IDX 28 1 27 2 26 3 2 4 1 5 3 6 4 7 5 8 25 9 18 10 19 11 24 12
REMARK SMILES IDX 20 14 23 15 21 16 22 17 6 18 7 19 8 20 9 21 13 22 10 23
REMARK SMILES IDX 12 24 11 25 17 26 14 27 16 28 15 29 29 30 30 31 31 32 32 33
REMARK SMILES IDX 33 34 34 35 35 36 36 37 82 38 37 39 81 40 38 41 39 42 40 43
REMARK SMILES IDX 75 44 41 45 80 46 74 47 76 48 42 49 79 50 73 51 72 52 43 54
REMARK SMILES IDX 65 55 50 56 64 57 51 58 54 59 63 60 77 61 52 62 53 63 62 65
REMARK SMILES IDX 78 66 55 67 44 68 45 69 49 70 46 71 48 72 47 73 66 74 67 75
REMARK SMILES IDX 71 76 68 77 70 78 69 79 56 80 57 81 61 82 58 83 60 84 59 85
REMARK H PARENT 18 13 76 53 54 64
REMARK Flexibility Score: inf
ROOT
ATOM      1  C   UNL A   1      38.741  22.239  26.181  1.00  0.00     0.202 C 
ENDROOT
BRANCH   1   2
ATOM      2  C   UNL A   1      37.470  22.687  25.434  1.00  0.00     0.261 C 
BRANCH   2   3
ATOM      3  O   UNL A   1      36.779  23.832  25.935  1.00  0.00    -0.463 OA
BRANCH   3   4
ATOM      4  C   UNL A   1      35.484  23.980  25.563  1.00  0.00     0.310 C 
ATOM      5  O   UNL A   1      35.150  24.808  24.725  1.00  0.00    -0.252 OA
BRANCH   4   6
ATOM      6  C   UNL A   1      34.525  23.245  26.449  1.00  0.00     0.161 C 
BRANCH   6   7
ATOM      7  C   UNL A   1      33.609  22.256  25.789  1.00  0.00     0.000 A 
ATOM      8  C   UNL A   1      32.242  22.505  25.709  1.00  0.00     0.093 A 
ATOM      9  C   UNL A   1      33.806  20.923  25.269  1.00  0.00     0.004 A 
ATOM     10  N   UNL A   1      31.727  21.588  24.826  1.00  0.00    -0.351 N 
ATOM     11  C   UNL A   1      32.623  20.568  24.619  1.00  0.00     0.048 A 
ATOM     12  C   UNL A   1      34.836  19.954  25.273  1.00  0.00     0.012 A 
ATOM     13  H   UNL A   1      30.841  21.652  24.401  1.00  0.00     0.167 HD
ATOM     14  C   UNL A   1      32.454  19.364  23.917  1.00  0.00     0.047 A 
ATOM     15  C   UNL A   1      34.675  18.721  24.623  1.00  0.00     0.021 A 
ATOM     16  C   UNL A   1      33.505  18.448  23.932  1.00  0.00     0.043 A 
ATOM     17  Cl  UNL A   1      33.340  16.949  23.102  1.00  0.00    -0.084 Cl
BRANCH   8  18
ATOM     18  C   UNL A   1      31.503  23.548  26.412  1.00  0.00     0.227 C 
ATOM     19  O   UNL A   1      30.866  23.366  27.448  1.00  0.00    -0.285 OA
BRANCH  18  20
ATOM     20  C   UNL A   1      31.431  24.884  25.803  1.00  0.00     0.113 A 
ATOM     21  C   UNL A   1      31.883  25.974  26.532  1.00  0.00     0.036 A 
ATOM     22  N   UNL A   1      30.886  24.943  24.567  1.00  0.00    -0.252 NA
ATOM     23  C   UNL A   1      31.755  27.234  25.957  1.00  0.00    -0.041 A 
ATOM     24  C   UNL A   1      30.803  26.168  24.022  1.00  0.00     0.115 A 
ATOM     25  C   UNL A   1      31.192  27.335  24.674  1.00  0.00    -0.026 A 
ATOM     26  C   UNL A   1      32.159  28.447  26.750  1.00  0.00     0.036 C 
ATOM     27  C   UNL A   1      31.062  28.657  23.971  1.00  0.00     0.037 C 
ATOM     28  C   UNL A   1      32.288  29.702  25.892  1.00  0.00     0.005 C 
ATOM     29  C   UNL A   1      31.100  29.833  24.944  1.00  0.00     0.005 C 
ENDBRANCH  18  20
ENDBRANCH   8  18
ENDBRANCH   6   7
ENDBRANCH   4   6
ENDBRANCH   3   4
ENDBRANCH   2   3
ENDBRANCH   1   2
BRANCH   1  30
ATOM     30  O   UNL A   1      39.557  21.173  25.704  1.00  0.00    -0.374 OA
BRANCH  30  31
ATOM     31  C   UNL A   1      40.457  20.503  26.570  1.00  0.00     0.202 C 
BRANCH  31  32
ATOM     32  C   UNL A   1      41.923  20.535  26.131  1.00  0.00     0.261 C 
BRANCH  32  33
ATOM     33  O   UNL A   1      42.653  21.641  26.679  1.00  0.00    -0.460 OA
BRANCH  33  34
ATOM     34  C   UNL A   1      42.785  22.719  25.866  1.00  0.00     0.338 C 
ATOM     35  O   UNL A   1      43.080  22.723  24.683  1.00  0.00    -0.246 OA
BRANCH  34  36
ATOM     36  C   UNL A   1      42.347  23.930  26.597  1.00  0.00     0.060 A 
ATOM     37  C   UNL A   1      41.430  23.842  27.647  1.00  0.00     0.016 A 
ATOM     38  C   UNL A   1      42.872  25.174  26.220  1.00  0.00     0.016 A 
ATOM     39  C   UNL A   1      41.082  24.995  28.352  1.00  0.00     0.010 A 
ATOM     40  C   UNL A   1      42.528  26.327  26.930  1.00  0.00     0.010 A 
ATOM     41  C   UNL A   1      41.662  26.236  28.026  1.00  0.00    -0.014 A 
BRANCH  41  42
ATOM     42  C   UNL A   1      41.537  27.355  28.989  1.00  0.00     0.031 A 
ATOM     43  C   UNL A   1      40.444  28.372  28.913  1.00  0.00     0.074 A 
ATOM     44  C   UNL A   1      42.449  27.416  29.978  1.00  0.00     0.049 A 
ATOM     45  N   UNL A   1      40.109  29.272  29.801  1.00  0.00    -0.248 NA
ATOM     46  C   UNL A   1      39.632  28.394  27.689  1.00  0.00     0.031 C 
ATOM     47  C   UNL A   1      43.593  26.510  30.109  1.00  0.00     0.029 A 
ATOM     48  N   UNL A   1      42.545  28.240  31.069  1.00  0.00    -0.354 N 
ATOM     49  C   UNL A   1      39.024  29.949  29.264  1.00  0.00     0.074 A 
ATOM     50  C   UNL A   1      38.800  29.398  27.942  1.00  0.00     0.031 C 
ATOM     51  C   UNL A   1      44.238  26.785  31.250  1.00  0.00     0.029 A 
ATOM     52  C   UNL A   1      43.574  27.902  31.914  1.00  0.00     0.049 A 
ATOM     53  H   UNL A   1      41.937  28.997  31.231  1.00  0.00     0.167 HD
ATOM     54  C   UNL A   1      38.276  30.924  29.836  1.00  0.00     0.031 A 
ATOM     55  C   UNL A   1      43.934  28.412  33.106  1.00  0.00     0.031 A 
ATOM     56  C   UNL A   1      38.542  31.490  31.137  1.00  0.00     0.049 A 
ATOM     57  C   UNL A   1      43.102  29.503  33.713  1.00  0.00     0.074 A 
ATOM     58  C   UNL A   1      37.818  32.452  31.820  1.00  0.00     0.029 A 
ATOM     59  N   UNL A   1      39.623  31.161  31.943  1.00  0.00    -0.354 N 
ATOM     60  N   UNL A   1      42.012  30.062  33.244  1.00  0.00    -0.248 NA
ATOM     61  C   UNL A   1      43.532  30.019  35.018  1.00  0.00     0.031 C 
ATOM     62  C   UNL A   1      38.502  32.763  32.998  1.00  0.00     0.029 A 
ATOM     63  C   UNL A   1      39.608  31.934  33.096  1.00  0.00     0.049 A 
ATOM     64  H   UNL A   1      40.302  30.481  31.729  1.00  0.00     0.167 HD
ATOM     65  C   UNL A   1      41.623  30.994  34.197  1.00  0.00     0.074 A 
ATOM     66  C   UNL A   1      42.573  30.895  35.288  1.00  0.00     0.031 C 
ATOM     67  C   UNL A   1      40.577  31.856  34.164  1.00  0.00     0.031 A 
BRANCH  54  68
ATOM     68  C   UNL A   1      37.084  31.439  29.073  1.00  0.00    -0.014 A 
ATOM     69  C   UNL A   1      37.059  32.764  28.606  1.00  0.00     0.009 A 
ATOM     70  C   UNL A   1      35.937  30.645  28.906  1.00  0.00     0.009 A 
ATOM     71  C   UNL A   1      35.912  33.284  28.003  1.00  0.00     0.001 A 
ATOM     72  C   UNL A   1      34.803  31.157  28.271  1.00  0.00     0.001 A 
ATOM     73  C   UNL A   1      34.787  32.479  27.831  1.00  0.00     0.000 A 
ENDBRANCH  54  68
BRANCH  55  74
ATOM     74  C   UNL A   1      45.109  27.831  33.808  1.00  0.00    -0.014 A 
ATOM     75  C   UNL A   1      44.939  26.783  34.729  1.00  0.00     0.009 A 
ATOM     76  C   UNL A   1      46.387  28.385  33.643  1.00  0.00     0.009 A 
ATOM     77  C   UNL A   1      46.013  26.330  35.498  1.00  0.00     0.001 A 
ATOM     78  C   UNL A   1      47.467  27.906  34.388  1.00  0.00     0.001 A 
ATOM     79  C   UNL A   1      47.276  26.890  35.324  1.00  0.00     0.000 A 
ENDBRANCH  55  74
BRANCH  67  80
ATOM     80  C   UNL A   1      40.411  32.795  35.330  1.00  0.00    -0.014 A 
ATOM     81  C   UNL A   1      41.027  34.058  35.312  1.00  0.00     0.009 A 
ATOM     82  C   UNL A   1      39.714  32.401  36.484  1.00  0.00     0.009 A 
ATOM     83  C   UNL A   1      40.962  34.898  36.425  1.00  0.00     0.001 A 
ATOM     84  C   UNL A   1      39.618  33.258  37.583  1.00  0.00     0.001 A 
ATOM     85  C   UNL A   1      40.251  34.500  37.557  1.00  0.00     0.000 A 
ENDBRANCH  67  80
ENDBRANCH  41  42
ENDBRANCH  34  36
ENDBRANCH  33  34
ENDBRANCH  32  33
ENDBRANCH  31  32
ENDBRANCH  30  31
ENDBRANCH   1  30
TORSDOF 17
ENDMDL
MODEL 2
REMARK VINA RESULT:     -11.5      3.087      7.422
REMARK SMILES O=C(Cc1c(C(=O)c2cc3c(cn2)CCCC3)[nH]c2cc(Cl)ccc12)OCCOCCOC(=O)c1ccc(-c2c3nc(c(-c4ccccc4)c4ccc([nH]4)c(-c4ccccc4)c4nc(c(-c5ccccc5)c5ccc2[nH]5)C=C4)C=C3)cc1
REMARK SMILES IDX 28 1 27 2 26 3 2 4 1 5 3 6 4 7 5 8 25 9 18 10 19 11 24 12
REMARK SMILES IDX 20 14 23 15 21 16 22 17 6 18 7 19 8 20 9 21 13 22 10 23
REMARK SMILES IDX 12 24 11 25 17 26 14 27 16 28 15 29 29 30 30 31 31 32 32 33
REMARK SMILES IDX 33 34 34 35 35 36 36 37 82 38 37 39 81 40 38 41 39 42 40 43
REMARK SMILES IDX 75 44 41 45 80 46 74 47 76 48 42 49 79 50 73 51 72 52 43 54
REMARK SMILES IDX 65 55 50 56 64 57 51 58 54 59 63 60 77 61 52 62 53 63 62 65
REMARK SMILES IDX 78 66 55 67 44 68 45 69 49 70 46 71 48 72 47 73 66 74 67 75
REMARK SMILES IDX 71 76 68 77 70 78 69 79 56 80 57 81 61 82 58 83 60 84 59 85
REMARK H PARENT 18 13 76 53 54 64
REMARK Flexibility Score: inf
ROOT
ATOM      1  C   UNL A   1      33.874  29.640  26.762  1.00  0.00     0.202 C 
ENDROOT
BRANCH   1   2
ATOM      2  C   UNL A   1      33.874  28.118  26.520  1.00  0.00     0.261 C 
BRANCH   2   3
ATOM      3  O   UNL A   1      32.737  27.555  25.862  1.00  0.00    -0.463 OA
BRANCH   3   4
ATOM      4  C   UNL A   1      31.793  26.983  26.648  1.00  0.00     0.310 C 
ATOM      5  O   UNL A   1      31.318  27.575  27.610  1.00  0.00    -0.252 OA
BRANCH   4   6
ATOM      6  C   UNL A   1      31.608  25.520  26.385  1.00  0.00     0.161 C 
BRANCH   6   7
ATOM      7  C   UNL A   1      32.550  24.879  25.409  1.00  0.00     0.000 A 
ATOM      8  C   UNL A   1      32.213  24.785  24.061  1.00  0.00     0.093 A 
ATOM      9  C   UNL A   1      33.793  24.161  25.563  1.00  0.00     0.004 A 
ATOM     10  N   UNL A   1      33.358  24.424  23.395  1.00  0.00    -0.351 N 
ATOM     11  C   UNL A   1      34.296  23.951  24.277  1.00  0.00     0.048 A 
ATOM     12  C   UNL A   1      34.562  23.643  26.630  1.00  0.00     0.012 A 
ATOM     13  H   UNL A   1      33.487  24.494  22.421  1.00  0.00     0.167 HD
ATOM     14  C   UNL A   1      35.537  23.347  24.019  1.00  0.00     0.047 A 
ATOM     15  C   UNL A   1      35.781  22.989  26.397  1.00  0.00     0.021 A 
ATOM     16  C   UNL A   1      36.269  22.871  25.105  1.00  0.00     0.043 A 
ATOM     17  Cl  UNL A   1      37.787  22.104  24.838  1.00  0.00    -0.084 Cl
BRANCH   8  18
ATOM     18  C   UNL A   1      30.903  25.039  23.471  1.00  0.00     0.227 C 
ATOM     19  O   UNL A   1      30.120  24.157  23.120  1.00  0.00    -0.285 OA
BRANCH  18  20
ATOM     20  C   UNL A   1      30.523  26.429  23.185  1.00  0.00     0.113 A 
ATOM     21  C   UNL A   1      29.223  26.834  23.454  1.00  0.00     0.036 A 
ATOM     22  N   UNL A   1      31.485  27.207  22.640  1.00  0.00    -0.252 NA
ATOM     23  C   UNL A   1      28.872  28.138  23.126  1.00  0.00    -0.041 A 
ATOM     24  C   UNL A   1      31.129  28.471  22.361  1.00  0.00     0.115 A 
ATOM     25  C   UNL A   1      29.845  28.976  22.556  1.00  0.00    -0.026 A 
ATOM     26  C   UNL A   1      27.450  28.588  23.327  1.00  0.00     0.036 C 
ATOM     27  C   UNL A   1      29.552  30.409  22.216  1.00  0.00     0.037 C 
ATOM     28  C   UNL A   1      27.291  30.104  23.254  1.00  0.00     0.005 C 
ATOM     29  C   UNL A   1      28.056  30.671  22.062  1.00  0.00     0.005 C 
ENDBRANCH  18  20
ENDBRANCH   8  18
ENDBRANCH   6   7
ENDBRANCH   4   6
ENDBRANCH   3   4
ENDBRANCH   2   3
ENDBRANCH   1   2
BRANCH   1  30
ATOM     30  O   UNL A   1      32.977  30.510  26.076  1.00  0.00    -0.374 OA
BRANCH  30  31
ATOM     31  C   UNL A   1      31.806  30.994  26.711  1.00  0.00     0.202 C 
BRANCH  31  32
ATOM     32  C   UNL A   1      31.800  32.496  26.999  1.00  0.00     0.261 C 
BRANCH  32  33
ATOM     33  O   UNL A   1      33.114  33.053  27.133  1.00  0.00    -0.460 OA
BRANCH  33  34
ATOM     34  C   UNL A   1      33.287  33.908  28.170  1.00  0.00     0.338 C 
ATOM     35  O   UNL A   1      32.527  34.788  28.540  1.00  0.00    -0.246 OA
BRANCH  34  36
ATOM     36  C   UNL A   1      34.498  33.511  28.926  1.00  0.00     0.060 A 
ATOM     37  C   UNL A   1      34.394  32.867  30.160  1.00  0.00     0.016 A 
ATOM     38  C   UNL A   1      35.758  33.790  28.378  1.00  0.00     0.016 A 
ATOM     39  C   UNL A   1      35.553  32.455  30.819  1.00  0.00     0.010 A 
ATOM     40  C   UNL A   1      36.918  33.373  29.035  1.00  0.00     0.010 A 
ATOM     41  C   UNL A   1      36.819  32.667  30.240  1.00  0.00    -0.014 A 
BRANCH  41  42
ATOM     42  C   UNL A   1      37.983  31.931  30.787  1.00  0.00     0.031 A 
ATOM     43  C   UNL A   1      38.477  30.647  30.204  1.00  0.00     0.074 A 
ATOM     44  C   UNL A   1      38.617  32.484  31.839  1.00  0.00     0.049 A 
ATOM     45  N   UNL A   1      39.594  30.015  30.459  1.00  0.00    -0.248 NA
ATOM     46  C   UNL A   1      37.611  29.979  29.223  1.00  0.00     0.031 C 
ATOM     47  C   UNL A   1      38.182  33.704  32.524  1.00  0.00     0.029 A 
ATOM     48  N   UNL A   1      39.767  32.124  32.492  1.00  0.00    -0.354 N 
ATOM     49  C   UNL A   1      39.587  28.891  29.647  1.00  0.00     0.074 A 
ATOM     50  C   UNL A   1      38.322  28.893  28.939  1.00  0.00     0.031 C 
ATOM     51  C   UNL A   1      39.086  34.026  33.457  1.00  0.00     0.029 A 
ATOM     52  C   UNL A   1      40.147  33.024  33.458  1.00  0.00     0.049 A 
ATOM     53  H   UNL A   1      40.270  31.302  32.289  1.00  0.00     0.167 HD
ATOM     54  C   UNL A   1      40.560  27.959  29.496  1.00  0.00     0.031 A 
ATOM     55  C   UNL A   1      41.239  33.061  34.243  1.00  0.00     0.031 A 
ATOM     56  C   UNL A   1      41.795  27.950  30.243  1.00  0.00     0.049 A 
ATOM     57  C   UNL A   1      42.295  32.010  34.070  1.00  0.00     0.074 A 
ATOM     58  C   UNL A   1      42.860  27.072  30.133  1.00  0.00     0.029 A 
ATOM     59  N   UNL A   1      42.124  28.847  31.250  1.00  0.00    -0.354 N 
ATOM     60  N   UNL A   1      42.329  31.010  33.222  1.00  0.00    -0.248 NA
ATOM     61  C   UNL A   1      43.471  32.100  34.945  1.00  0.00     0.031 C 
ATOM     62  C   UNL A   1      43.794  27.387  31.122  1.00  0.00     0.029 A 
ATOM     63  C   UNL A   1      43.356  28.516  31.797  1.00  0.00     0.049 A 
ATOM     64  H   UNL A   1      41.566  29.606  31.536  1.00  0.00     0.167 HD
ATOM     65  C   UNL A   1      43.529  30.353  33.456  1.00  0.00     0.074 A 
ATOM     66  C   UNL A   1      44.211  31.092  34.500  1.00  0.00     0.031 C 
ATOM     67  C   UNL A   1      44.015  29.235  32.861  1.00  0.00     0.031 A 
BRANCH  54  68
ATOM     68  C   UNL A   1      40.346  26.874  28.474  1.00  0.00    -0.014 A 
ATOM     69  C   UNL A   1      40.860  27.011  27.174  1.00  0.00     0.009 A 
ATOM     70  C   UNL A   1      39.543  25.758  28.766  1.00  0.00     0.009 A 
ATOM     71  C   UNL A   1      40.565  26.067  26.188  1.00  0.00     0.001 A 
ATOM     72  C   UNL A   1      39.277  24.797  27.787  1.00  0.00     0.001 A 
ATOM     73  C   UNL A   1      39.779  24.958  26.497  1.00  0.00     0.000 A 
ENDBRANCH  54  68
BRANCH  55  74
ATOM     74  C   UNL A   1      41.389  34.181  35.209  1.00  0.00    -0.014 A 
ATOM     75  C   UNL A   1      40.862  34.074  36.508  1.00  0.00     0.009 A 
ATOM     76  C   UNL A   1      41.964  35.396  34.811  1.00  0.00     0.009 A 
ATOM     77  C   UNL A   1      40.869  35.170  37.371  1.00  0.00     0.001 A 
ATOM     78  C   UNL A   1      42.003  36.482  35.690  1.00  0.00     0.001 A 
ATOM     79  C   UNL A   1      41.443  36.372  36.962  1.00  0.00     0.000 A 
ENDBRANCH  55  74
BRANCH  67  80
ATOM     80  C   UNL A   1      45.342  28.711  33.344  1.00  0.00    -0.014 A 
ATOM     81  C   UNL A   1      46.534  29.135  32.733  1.00  0.00     0.009 A 
ATOM     82  C   UNL A   1      45.412  27.733  34.351  1.00  0.00     0.009 A 
ATOM     83  C   UNL A   1      47.761  28.584  33.107  1.00  0.00     0.001 A 
ATOM     84  C   UNL A   1      46.644  27.211  34.749  1.00  0.00     0.001 A 
ATOM     85  C   UNL A   1      47.815  27.628  34.119  1.00  0.00     0.000 A 
ENDBRANCH  67  80
ENDBRANCH  41  42
ENDBRANCH  34  36
ENDBRANCH  33  34
ENDBRANCH  32  33
ENDBRANCH  31  32
ENDBRANCH  30  31
ENDBRANCH   1  30
TORSDOF 17
ENDMDL
MODEL 3
REMARK VINA RESULT:     -11.4      2.802      7.919
REMARK SMILES O=C(Cc1c(C(=O)c2cc3c(cn2)CCCC3)[nH]c2cc(Cl)ccc12)OCCOCCOC(=O)c1ccc(-c2c3nc(c(-c4ccccc4)c4ccc([nH]4)c(-c4ccccc4)c4nc(c(-c5ccccc5)c5ccc2[nH]5)C=C4)C=C3)cc1
REMARK SMILES IDX 28 1 27 2 26 3 2 4 1 5 3 6 4 7 5 8 25 9 18 10 19 11 24 12
REMARK SMILES IDX 20 14 23 15 21 16 22 17 6 18 7 19 8 20 9 21 13 22 10 23
REMARK SMILES IDX 12 24 11 25 17 26 14 27 16 28 15 29 29 30 30 31 31 32 32 33
REMARK SMILES IDX 33 34 34 35 35 36 36 37 82 38 37 39 81 40 38 41 39 42 40 43
REMARK SMILES IDX 75 44 41 45 80 46 74 47 76 48 42 49 79 50 73 51 72 52 43 54
REMARK SMILES IDX 65 55 50 56 64 57 51 58 54 59 63 60 77 61 52 62 53 63 62 65
REMARK SMILES IDX 78 66 55 67 44 68 45 69 49 70 46 71 48 72 47 73 66 74 67 75
REMARK SMILES IDX 71 76 68 77 70 78 69 79 56 80 57 81 61 82 58 83 60 84 59 85
REMARK H PARENT 18 13 76 53 54 64
REMARK Flexibility Score: inf
ROOT
ATOM      1  C   UNL A   1      32.214  30.552  25.797  1.00  0.00     0.202 C 
ENDROOT
BRANCH   1   2
ATOM      2  C   UNL A   1      32.797  29.179  26.184  1.00  0.00     0.261 C 
BRANCH   2   3
ATOM      3  O   UNL A   1      31.940  28.269  26.875  1.00  0.00    -0.463 OA
BRANCH   3   4
ATOM      4  C   UNL A   1      32.179  26.947  26.701  1.00  0.00     0.310 C 
ATOM      5  O   UNL A   1      31.446  26.095  27.190  1.00  0.00    -0.252 OA
BRANCH   4   6
ATOM      6  C   UNL A   1      33.524  26.660  26.108  1.00  0.00     0.161 C 
BRANCH   6   7
ATOM      7  C   UNL A   1      33.612  25.518  25.137  1.00  0.00     0.000 A 
ATOM      8  C   UNL A   1      33.553  25.752  23.766  1.00  0.00     0.093 A 
ATOM      9  C   UNL A   1      33.628  24.084  25.300  1.00  0.00     0.004 A 
ATOM     10  N   UNL A   1      33.939  24.586  23.152  1.00  0.00    -0.351 N 
ATOM     11  C   UNL A   1      33.898  23.542  24.042  1.00  0.00     0.048 A 
ATOM     12  C   UNL A   1      33.436  23.161  26.354  1.00  0.00     0.012 A 
ATOM     13  H   UNL A   1      34.205  24.509  22.208  1.00  0.00     0.167 HD
ATOM     14  C   UNL A   1      34.069  22.167  23.810  1.00  0.00     0.047 A 
ATOM     15  C   UNL A   1      33.549  21.780  26.139  1.00  0.00     0.021 A 
ATOM     16  C   UNL A   1      33.889  21.297  24.885  1.00  0.00     0.043 A 
ATOM     17  Cl  UNL A   1      34.068  19.602  24.647  1.00  0.00    -0.084 Cl
BRANCH   8  18
ATOM     18  C   UNL A   1      33.174  26.999  23.110  1.00  0.00     0.227 C 
ATOM     19  O   UNL A   1      33.976  27.814  22.656  1.00  0.00    -0.285 OA
BRANCH  18  20
ATOM     20  C   UNL A   1      31.750  27.361  23.068  1.00  0.00     0.113 A 
ATOM     21  C   UNL A   1      31.392  28.596  22.546  1.00  0.00     0.036 A 
ATOM     22  N   UNL A   1      30.892  26.452  23.583  1.00  0.00    -0.252 NA
ATOM     23  C   UNL A   1      30.044  28.938  22.566  1.00  0.00    -0.041 A 
ATOM     24  C   UNL A   1      29.594  26.795  23.562  1.00  0.00     0.115 A 
ATOM     25  C   UNL A   1      29.122  28.020  23.095  1.00  0.00    -0.026 A 
ATOM     26  C   UNL A   1      29.626  30.301  22.083  1.00  0.00     0.036 C 
ATOM     27  C   UNL A   1      27.647  28.302  23.110  1.00  0.00     0.037 C 
ATOM     28  C   UNL A   1      28.124  30.411  21.842  1.00  0.00     0.005 C 
ATOM     29  C   UNL A   1      27.344  29.794  22.999  1.00  0.00     0.005 C 
ENDBRANCH  18  20
ENDBRANCH   8  18
ENDBRANCH   6   7
ENDBRANCH   4   6
ENDBRANCH   3   4
ENDBRANCH   2   3
ENDBRANCH   1   2
BRANCH   1  30
ATOM     30  O   UNL A   1      31.382  31.292  26.687  1.00  0.00    -0.374 OA
BRANCH  30  31
ATOM     31  C   UNL A   1      31.534  32.695  26.825  1.00  0.00     0.202 C 
BRANCH  31  32
ATOM     32  C   UNL A   1      32.763  33.137  27.623  1.00  0.00     0.261 C 
BRANCH  32  33
ATOM     33  O   UNL A   1      32.685  34.495  28.076  1.00  0.00    -0.460 OA
BRANCH  33  34
ATOM     34  C   UNL A   1      33.163  34.727  29.324  1.00  0.00     0.338 C 
ATOM     35  O   UNL A   1      32.614  35.337  30.226  1.00  0.00    -0.246 OA
BRANCH  34  36
ATOM     36  C   UNL A   1      34.423  33.970  29.506  1.00  0.00     0.060 A 
ATOM     37  C   UNL A   1      35.562  34.283  28.760  1.00  0.00     0.016 A 
ATOM     38  C   UNL A   1      34.458  32.930  30.446  1.00  0.00     0.016 A 
ATOM     39  C   UNL A   1      36.749  33.590  28.998  1.00  0.00     0.010 A 
ATOM     40  C   UNL A   1      35.648  32.239  30.686  1.00  0.00     0.010 A 
ATOM     41  C   UNL A   1      36.810  32.593  29.991  1.00  0.00    -0.014 A 
BRANCH  41  42
ATOM     42  C   UNL A   1      38.139  32.122  30.445  1.00  0.00     0.031 A 
ATOM     43  C   UNL A   1      38.887  32.764  31.569  1.00  0.00     0.074 A 
ATOM     44  C   UNL A   1      38.658  31.051  29.814  1.00  0.00     0.049 A 
ATOM     45  N   UNL A   1      39.954  32.329  32.189  1.00  0.00    -0.248 NA
ATOM     46  C   UNL A   1      38.389  34.058  32.052  1.00  0.00     0.031 C 
ATOM     47  C   UNL A   1      38.040  30.385  28.664  1.00  0.00     0.029 A 
ATOM     48  N   UNL A   1      39.787  30.315  30.061  1.00  0.00    -0.354 N 
ATOM     49  C   UNL A   1      40.239  33.276  33.161  1.00  0.00     0.074 A 
ATOM     50  C   UNL A   1      39.270  34.343  33.004  1.00  0.00     0.031 C 
ATOM     51  C   UNL A   1      38.762  29.304  28.346  1.00  0.00     0.029 A 
ATOM     52  C   UNL A   1      39.907  29.215  29.248  1.00  0.00     0.049 A 
ATOM     53  H   UNL A   1      40.447  30.552  30.753  1.00  0.00     0.167 HD
ATOM     54  C   UNL A   1      41.208  33.239  34.109  1.00  0.00     0.031 A 
ATOM     55  C   UNL A   1      40.819  28.226  29.238  1.00  0.00     0.031 A 
ATOM     56  C   UNL A   1      42.191  32.189  34.221  1.00  0.00     0.049 A 
ATOM     57  C   UNL A   1      41.893  28.215  30.284  1.00  0.00     0.074 A 
ATOM     58  C   UNL A   1      43.187  32.042  35.171  1.00  0.00     0.029 A 
ATOM     59  N   UNL A   1      42.315  31.116  33.348  1.00  0.00    -0.354 N 
ATOM     60  N   UNL A   1      42.089  29.059  31.268  1.00  0.00    -0.248 NA
ATOM     61  C   UNL A   1      42.857  27.109  30.235  1.00  0.00     0.031 C 
ATOM     62  C   UNL A   1      43.961  30.930  34.829  1.00  0.00     0.029 A 
ATOM     63  C   UNL A   1      43.398  30.329  33.714  1.00  0.00     0.049 A 
ATOM     64  H   UNL A   1      41.723  30.940  32.582  1.00  0.00     0.167 HD
ATOM     65  C   UNL A   1      43.197  28.586  31.959  1.00  0.00     0.074 A 
ATOM     66  C   UNL A   1      43.604  27.360  31.303  1.00  0.00     0.031 C 
ATOM     67  C   UNL A   1      43.821  29.127  33.036  1.00  0.00     0.031 A 
BRANCH  54  68
ATOM     68  C   UNL A   1      41.253  34.359  35.115  1.00  0.00    -0.014 A 
ATOM     69  C   UNL A   1      40.451  34.310  36.268  1.00  0.00     0.009 A 
ATOM     70  C   UNL A   1      42.013  35.516  34.873  1.00  0.00     0.009 A 
ATOM     71  C   UNL A   1      40.398  35.395  37.145  1.00  0.00     0.001 A 
ATOM     72  C   UNL A   1      41.984  36.587  35.770  1.00  0.00     0.001 A 
ATOM     73  C   UNL A   1      41.169  36.531  36.898  1.00  0.00     0.000 A 
ENDBRANCH  54  68
BRANCH  55  74
ATOM     74  C   UNL A   1      40.689  27.143  28.227  1.00  0.00    -0.014 A 
ATOM     75  C   UNL A   1      41.277  27.282  26.958  1.00  0.00     0.009 A 
ATOM     76  C   UNL A   1      39.895  26.016  28.485  1.00  0.00     0.009 A 
ATOM     77  C   UNL A   1      41.039  26.338  25.957  1.00  0.00     0.001 A 
ATOM     78  C   UNL A   1      39.688  25.055  27.492  1.00  0.00     0.001 A 
ATOM     79  C   UNL A   1      40.247  25.225  26.226  1.00  0.00     0.000 A 
ENDBRANCH  55  74
BRANCH  67  80
ATOM     80  C   UNL A   1      45.039  28.416  33.564  1.00  0.00    -0.014 A 
ATOM     81  C   UNL A   1      44.909  27.438  34.564  1.00  0.00     0.009 A 
ATOM     82  C   UNL A   1      46.328  28.770  33.131  1.00  0.00     0.009 A 
ATOM     83  C   UNL A   1      46.038  26.843  35.129  1.00  0.00     0.001 A 
ATOM     84  C   UNL A   1      47.455  28.145  33.671  1.00  0.00     0.001 A 
ATOM     85  C   UNL A   1      47.309  27.191  34.677  1.00  0.00     0.000 A 
ENDBRANCH  67  80
ENDBRANCH  41  42
ENDBRANCH  34  36
ENDBRANCH  33  34
ENDBRANCH  32  33
ENDBRANCH  31  32
ENDBRANCH  30  31
ENDBRANCH   1  30
TORSDOF 17
ENDMDL
