MODEL 1
REMARK VINA RESULT:     -11.0      0.000      0.000
REMARK SMILES CS(=O)(=O)c1ccc(N2N=C(C(=O)OCCOCCOC(=O)c3ccc(-c4c5nc(c(-c6ccccc6)c6ccc([nH]6)c(-c6ccccc6)c6nc(c(-c7ccccc7)c7ccc4[nH]7)C=C6)C=C5)cc3)C[C@H]2c2ccco2)cc1
REMARK SMILES IDX 17 1 16 2 15 3 14 4 12 5 13 6 11 7 9 8 10 9 72 10 71 11 8 12
REMARK SMILES IDX 5 13 6 14 79 15 7 16 78 17 2 18 1 19 3 20 4 21 73 22 74 23
REMARK SMILES IDX 77 24 75 25 76 26 18 27 19 28 20 29 21 30 22 31 23 32 24 33
REMARK SMILES IDX 70 34 25 35 69 36 26 37 27 38 28 39 63 40 29 41 68 42 62 43
REMARK SMILES IDX 64 44 30 45 67 46 61 47 60 48 31 50 53 51 38 52 52 53 39 54
REMARK SMILES IDX 42 55 51 56 65 57 40 58 41 59 50 61 66 62 43 63 32 64 33 65
REMARK SMILES IDX 37 66 34 67 36 68 35 69 54 70 55 71 59 72 56 73 58 74 57 75
REMARK SMILES IDX 44 76 45 77 49 78 46 79 48 80 47 81
REMARK H PARENT 64 49 42 60
REMARK Flexibility Score: inf
ROOT
ATOM      1  O   UNL A   1      33.269  34.314  29.671  1.00  0.00    -0.374 OA
ENDROOT
BRANCH   1   2
ATOM      2  C   UNL A   1      33.282  33.709  28.371  1.00  0.00     0.202 C 
BRANCH   2   3
ATOM      3  C   UNL A   1      34.274  32.548  28.292  1.00  0.00     0.261 C 
BRANCH   3   4
ATOM      4  O   UNL A   1      33.615  31.458  27.633  1.00  0.00    -0.459 OA
BRANCH   4   5
ATOM      5  C   UNL A   1      34.416  30.446  27.244  1.00  0.00     0.354 C 
ATOM      6  O   UNL A   1      35.627  30.399  27.252  1.00  0.00    -0.245 OA
BRANCH   5   7
ATOM      7  C   UNL A   1      33.520  29.281  26.916  1.00  0.00     0.148 C 
ATOM      8  N   UNL A   1      32.854  27.312  26.553  1.00  0.00    -0.254 N 
ATOM      9  N   UNL A   1      33.968  28.072  26.758  1.00  0.00    -0.169 NA
ATOM     10  C   UNL A   1      31.674  28.122  26.219  1.00  0.00     0.180 C 
ATOM     11  C   UNL A   1      32.031  29.440  26.917  1.00  0.00     0.101 C 
BRANCH   8  12
ATOM     12  C   UNL A   1      32.994  25.987  26.173  1.00  0.00     0.060 A 
ATOM     13  C   UNL A   1      33.299  23.326  25.348  1.00  0.00     0.067 A 
ATOM     14  C   UNL A   1      34.322  24.246  25.107  1.00  0.00     0.022 A 
ATOM     15  C   UNL A   1      32.132  23.716  26.005  1.00  0.00     0.022 A 
ATOM     16  C   UNL A   1      34.164  25.570  25.523  1.00  0.00     0.029 A 
ATOM     17  C   UNL A   1      31.982  25.046  26.402  1.00  0.00     0.029 A 
BRANCH  13  18
ATOM     18  S   UNL A   1      33.504  21.644  24.819  1.00  0.00     0.175 S 
ATOM     19  C   UNL A   1      35.258  21.461  24.627  1.00  0.00     0.163 C 
ATOM     20  O   UNL A   1      32.905  21.515  23.503  1.00  0.00    -0.224 OA
ATOM     21  O   UNL A   1      33.074  20.804  25.920  1.00  0.00    -0.224 OA
ENDBRANCH  13  18
ENDBRANCH   8  12
BRANCH  10  22
ATOM     22  C   UNL A   1      31.404  28.329  24.754  1.00  0.00     0.128 A 
ATOM     23  C   UNL A   1      30.376  27.931  23.921  1.00  0.00     0.048 A 
ATOM     24  O   UNL A   1      32.329  29.033  24.033  1.00  0.00    -0.467 OA
ATOM     25  C   UNL A   1      30.691  28.419  22.630  1.00  0.00     0.042 A 
ATOM     26  C   UNL A   1      31.887  29.083  22.752  1.00  0.00     0.195 A 
ENDBRANCH  10  22
ENDBRANCH   5   7
ENDBRANCH   4   5
ENDBRANCH   3   4
ENDBRANCH   2   3
ENDBRANCH   1   2
BRANCH   1  27
ATOM     27  C   UNL A   1      34.521  34.326  30.361  1.00  0.00     0.202 C 
BRANCH  27  28
ATOM     28  C   UNL A   1      34.403  33.810  31.797  1.00  0.00     0.261 C 
BRANCH  28  29
ATOM     29  O   UNL A   1      34.790  32.425  31.853  1.00  0.00    -0.460 OA
BRANCH  29  30
ATOM     30  C   UNL A   1      35.872  32.160  32.623  1.00  0.00     0.338 C 
ATOM     31  O   UNL A   1      35.979  32.340  33.825  1.00  0.00    -0.246 OA
BRANCH  30  32
ATOM     32  C   UNL A   1      36.919  31.489  31.818  1.00  0.00     0.060 A 
ATOM     33  C   UNL A   1      37.894  30.762  32.512  1.00  0.00     0.016 A 
ATOM     34  C   UNL A   1      36.976  31.580  30.422  1.00  0.00     0.016 A 
ATOM     35  C   UNL A   1      38.947  30.165  31.821  1.00  0.00     0.010 A 
ATOM     36  C   UNL A   1      38.035  30.984  29.728  1.00  0.00     0.010 A 
ATOM     37  C   UNL A   1      39.040  30.300  30.430  1.00  0.00    -0.014 A 
BRANCH  37  38
ATOM     38  C   UNL A   1      40.272  29.840  29.751  1.00  0.00     0.031 A 
ATOM     39  C   UNL A   1      40.278  28.489  29.094  1.00  0.00     0.074 A 
ATOM     40  C   UNL A   1      41.352  30.636  29.663  1.00  0.00     0.049 A 
ATOM     41  N   UNL A   1      41.190  27.949  28.327  1.00  0.00    -0.248 NA
ATOM     42  C   UNL A   1      39.100  27.639  29.328  1.00  0.00     0.031 C 
ATOM     43  C   UNL A   1      41.477  31.968  30.252  1.00  0.00     0.029 A 
ATOM     44  N   UNL A   1      42.549  30.432  29.025  1.00  0.00    -0.354 N 
ATOM     45  C   UNL A   1      40.685  26.706  27.966  1.00  0.00     0.074 A 
ATOM     46  C   UNL A   1      39.406  26.557  28.626  1.00  0.00     0.031 C 
ATOM     47  C   UNL A   1      42.687  32.467  29.942  1.00  0.00     0.029 A 
ATOM     48  C   UNL A   1      43.414  31.491  29.130  1.00  0.00     0.049 A 
ATOM     49  H   UNL A   1      42.767  29.604  28.538  1.00  0.00     0.167 HD
ATOM     50  C   UNL A   1      41.228  25.776  27.148  1.00  0.00     0.031 A 
ATOM     51  C   UNL A   1      44.647  31.660  28.619  1.00  0.00     0.031 A 
ATOM     52  C   UNL A   1      42.505  25.900  26.501  1.00  0.00     0.049 A 
ATOM     53  C   UNL A   1      45.250  30.593  27.749  1.00  0.00     0.074 A 
ATOM     54  C   UNL A   1      43.124  25.019  25.633  1.00  0.00     0.029 A 
ATOM     55  N   UNL A   1      43.364  26.972  26.667  1.00  0.00    -0.354 N 
ATOM     56  N   UNL A   1      44.731  29.453  27.363  1.00  0.00    -0.248 NA
ATOM     57  C   UNL A   1      46.604  30.847  27.234  1.00  0.00     0.031 C 
ATOM     58  C   UNL A   1      44.376  25.546  25.295  1.00  0.00     0.029 A 
ATOM     59  C   UNL A   1      44.521  26.765  25.936  1.00  0.00     0.049 A 
ATOM     60  H   UNL A   1      43.180  27.764  27.222  1.00  0.00     0.167 HD
ATOM     61  C   UNL A   1      45.688  28.863  26.546  1.00  0.00     0.074 A 
ATOM     62  C   UNL A   1      46.815  29.769  26.489  1.00  0.00     0.031 C 
ATOM     63  C   UNL A   1      45.633  27.676  25.896  1.00  0.00     0.031 A 
BRANCH  50  64
ATOM     64  C   UNL A   1      40.428  24.532  26.916  1.00  0.00    -0.014 A 
ATOM     65  C   UNL A   1      39.206  24.588  26.229  1.00  0.00     0.009 A 
ATOM     66  C   UNL A   1      40.901  23.296  27.380  1.00  0.00     0.009 A 
ATOM     67  C   UNL A   1      38.458  23.427  26.031  1.00  0.00     0.001 A 
ATOM     68  C   UNL A   1      40.155  22.135  27.170  1.00  0.00     0.001 A 
ATOM     69  C   UNL A   1      38.933  22.202  26.501  1.00  0.00     0.000 A 
ENDBRANCH  50  64
BRANCH  51  70
ATOM     70  C   UNL A   1      45.400  32.903  28.903  1.00  0.00    -0.014 A 
ATOM     71  C   UNL A   1      45.290  34.013  28.053  1.00  0.00     0.009 A 
ATOM     72  C   UNL A   1      46.244  32.976  30.021  1.00  0.00     0.009 A 
ATOM     73  C   UNL A   1      46.029  35.171  28.309  1.00  0.00     0.001 A 
ATOM     74  C   UNL A   1      46.970  34.140  30.281  1.00  0.00     0.001 A 
ATOM     75  C   UNL A   1      46.865  35.234  29.422  1.00  0.00     0.000 A 
ENDBRANCH  51  70
BRANCH  63  76
ATOM     76  C   UNL A   1      46.819  27.298  25.062  1.00  0.00    -0.014 A 
ATOM     77  C   UNL A   1      47.771  26.385  25.541  1.00  0.00     0.009 A 
ATOM     78  C   UNL A   1      46.965  27.828  23.771  1.00  0.00     0.009 A 
ATOM     79  C   UNL A   1      48.861  26.025  24.747  1.00  0.00     0.001 A 
ATOM     80  C   UNL A   1      48.049  27.455  22.976  1.00  0.00     0.001 A 
ATOM     81  C   UNL A   1      48.998  26.558  23.466  1.00  0.00     0.000 A 
ENDBRANCH  63  76
ENDBRANCH  37  38
ENDBRANCH  30  32
ENDBRANCH  29  30
ENDBRANCH  28  29
ENDBRANCH  27  28
ENDBRANCH   1  27
TORSDOF 17
ENDMDL
MODEL 2
REMARK VINA RESULT:     -10.8      3.612      7.524
REMARK SMILES CS(=O)(=O)c1ccc(N2N=C(C(=O)OCCOCCOC(=O)c3ccc(-c4c5nc(c(-c6ccccc6)c6ccc([nH]6)c(-c6ccccc6)c6nc(c(-c7ccccc7)c7ccc4[nH]7)C=C6)C=C5)cc3)C[C@H]2c2ccco2)cc1
REMARK SMILES IDX 17 1 16 2 15 3 14 4 12 5 13 6 11 7 9 8 10 9 72 10 71 11 8 12
REMARK SMILES IDX 5 13 6 14 79 15 7 16 78 17 2 18 1 19 3 20 4 21 73 22 74 23
REMARK SMILES IDX 77 24 75 25 76 26 18 27 19 28 20 29 21 30 22 31 23 32 24 33
REMARK SMILES IDX 70 34 25 35 69 36 26 37 27 38 28 39 63 40 29 41 68 42 62 43
REMARK SMILES IDX 64 44 30 45 67 46 61 47 60 48 31 50 53 51 38 52 52 53 39 54
REMARK SMILES IDX 42 55 51 56 65 57 40 58 41 59 50 61 66 62 43 63 32 64 33 65
REMARK SMILES IDX 37 66 34 67 36 68 35 69 54 70 55 71 59 72 56 73 58 74 57 75
REMARK SMILES IDX 44 76 45 77 49 78 46 79 48 80 47 81
REMARK H PARENT 64 49 42 60
REMARK Flexibility Score: inf
ROOT
ATOM      1  O   UNL A   1      30.607  28.982  23.757  1.00  0.00    -0.374 OA
ENDROOT
BRANCH   1   2
ATOM      2  C   UNL A   1      30.747  28.301  22.503  1.00  0.00     0.202 C 
BRANCH   2   3
ATOM      3  C   UNL A   1      30.925  26.793  22.690  1.00  0.00     0.261 C 
BRANCH   3   4
ATOM      4  O   UNL A   1      31.895  26.348  21.732  1.00  0.00    -0.459 OA
BRANCH   4   5
ATOM      5  C   UNL A   1      33.179  26.412  22.134  1.00  0.00     0.354 C 
ATOM      6  O   UNL A   1      34.014  27.246  21.857  1.00  0.00    -0.245 OA
BRANCH   5   7
ATOM      7  C   UNL A   1      33.378  25.309  23.139  1.00  0.00     0.148 C 
ATOM      8  N   UNL A   1      33.675  23.393  23.972  1.00  0.00    -0.254 N 
ATOM      9  N   UNL A   1      33.399  24.053  22.810  1.00  0.00    -0.169 NA
ATOM     10  C   UNL A   1      33.476  24.237  25.159  1.00  0.00     0.180 C 
ATOM     11  C   UNL A   1      33.727  25.627  24.561  1.00  0.00     0.101 C 
BRANCH   8  12
ATOM     12  C   UNL A   1      33.595  22.010  24.005  1.00  0.00     0.060 A 
ATOM     13  C   UNL A   1      33.371  19.218  24.086  1.00  0.00     0.067 A 
ATOM     14  C   UNL A   1      32.409  19.969  23.406  1.00  0.00     0.022 A 
ATOM     15  C   UNL A   1      34.448  19.843  24.715  1.00  0.00     0.022 A 
ATOM     16  C   UNL A   1      32.528  21.360  23.369  1.00  0.00     0.029 A 
ATOM     17  C   UNL A   1      34.546  21.235  24.681  1.00  0.00     0.029 A 
BRANCH  13  18
ATOM     18  S   UNL A   1      33.217  17.449  24.130  1.00  0.00     0.175 S 
ATOM     19  C   UNL A   1      34.775  16.895  24.771  1.00  0.00     0.163 C 
ATOM     20  O   UNL A   1      33.114  16.978  22.762  1.00  0.00    -0.224 OA
ATOM     21  O   UNL A   1      32.187  17.143  25.104  1.00  0.00    -0.224 OA
ENDBRANCH  13  18
ENDBRANCH   8  12
BRANCH  10  22
ATOM     22  C   UNL A   1      32.124  24.153  25.813  1.00  0.00     0.128 A 
ATOM     23  C   UNL A   1      31.494  23.167  26.548  1.00  0.00     0.048 A 
ATOM     24  O   UNL A   1      31.291  25.231  25.685  1.00  0.00    -0.467 OA
ATOM     25  C   UNL A   1      30.215  23.671  26.884  1.00  0.00     0.042 A 
ATOM     26  C   UNL A   1      30.141  24.930  26.338  1.00  0.00     0.195 A 
ENDBRANCH  10  22
ENDBRANCH   5   7
ENDBRANCH   4   5
ENDBRANCH   3   4
ENDBRANCH   2   3
ENDBRANCH   1   2
BRANCH   1  27
ATOM     27  C   UNL A   1      31.807  29.123  24.522  1.00  0.00     0.202 C 
BRANCH  27  28
ATOM     28  C   UNL A   1      31.699  30.223  25.581  1.00  0.00     0.261 C 
BRANCH  28  29
ATOM     29  O   UNL A   1      32.700  30.025  26.596  1.00  0.00    -0.460 OA
BRANCH  29  30
ATOM     30  C   UNL A   1      33.236  31.159  27.106  1.00  0.00     0.338 C 
ATOM     31  O   UNL A   1      32.678  32.234  27.251  1.00  0.00    -0.246 OA
BRANCH  30  32
ATOM     32  C   UNL A   1      34.611  30.899  27.593  1.00  0.00     0.060 A 
ATOM     33  C   UNL A   1      35.018  29.563  27.685  1.00  0.00     0.016 A 
ATOM     34  C   UNL A   1      35.484  31.924  27.980  1.00  0.00     0.016 A 
ATOM     35  C   UNL A   1      36.273  29.246  28.201  1.00  0.00     0.010 A 
ATOM     36  C   UNL A   1      36.743  31.606  28.502  1.00  0.00     0.010 A 
ATOM     37  C   UNL A   1      37.128  30.264  28.642  1.00  0.00    -0.014 A 
BRANCH  37  38
ATOM     38  C   UNL A   1      38.359  29.892  29.376  1.00  0.00     0.031 A 
ATOM     39  C   UNL A   1      38.522  30.348  30.798  1.00  0.00     0.074 A 
ATOM     40  C   UNL A   1      39.291  29.106  28.810  1.00  0.00     0.049 A 
ATOM     41  N   UNL A   1      39.442  30.021  31.669  1.00  0.00    -0.248 NA
ATOM     42  C   UNL A   1      37.513  31.291  31.306  1.00  0.00     0.031 C 
ATOM     43  C   UNL A   1      39.254  28.593  27.442  1.00  0.00     0.029 A 
ATOM     44  N   UNL A   1      40.450  28.594  29.335  1.00  0.00    -0.354 N 
ATOM     45  C   UNL A   1      39.109  30.698  32.835  1.00  0.00     0.074 A 
ATOM     46  C   UNL A   1      37.926  31.481  32.551  1.00  0.00     0.031 C 
ATOM     47  C   UNL A   1      40.343  27.831  27.236  1.00  0.00     0.029 A 
ATOM     48  C   UNL A   1      41.145  27.801  28.458  1.00  0.00     0.049 A 
ATOM     49  H   UNL A   1      40.754  28.778  30.253  1.00  0.00     0.167 HD
ATOM     50  C   UNL A   1      39.724  30.663  34.040  1.00  0.00     0.031 A 
ATOM     51  C   UNL A   1      42.292  27.118  28.626  1.00  0.00     0.031 A 
ATOM     52  C   UNL A   1      40.909  29.907  34.332  1.00  0.00     0.049 A 
ATOM     53  C   UNL A   1      42.981  27.129  29.961  1.00  0.00     0.074 A 
ATOM     54  C   UNL A   1      41.586  29.789  35.533  1.00  0.00     0.029 A 
ATOM     55  N   UNL A   1      41.602  29.149  33.404  1.00  0.00    -0.354 N 
ATOM     56  N   UNL A   1      42.618  27.720  31.073  1.00  0.00    -0.248 NA
ATOM     57  C   UNL A   1      44.234  26.365  30.065  1.00  0.00     0.031 C 
ATOM     58  C   UNL A   1      42.710  28.981  35.323  1.00  0.00     0.029 A 
ATOM     59  C   UNL A   1      42.715  28.579  33.998  1.00  0.00     0.049 A 
ATOM     60  H   UNL A   1      41.342  29.032  32.461  1.00  0.00     0.167 HD
ATOM     61  C   UNL A   1      43.586  27.385  32.011  1.00  0.00     0.074 A 
ATOM     62  C   UNL A   1      44.550  26.537  31.342  1.00  0.00     0.031 C 
ATOM     63  C   UNL A   1      43.664  27.743  33.315  1.00  0.00     0.031 A 
BRANCH  50  64
ATOM     64  C   UNL A   1      39.111  31.481  35.134  1.00  0.00    -0.014 A 
ATOM     65  C   UNL A   1      39.362  32.859  35.220  1.00  0.00     0.009 A 
ATOM     66  C   UNL A   1      38.273  30.873  36.080  1.00  0.00     0.009 A 
ATOM     67  C   UNL A   1      38.801  33.611  36.253  1.00  0.00     0.001 A 
ATOM     68  C   UNL A   1      37.705  31.632  37.105  1.00  0.00     0.001 A 
ATOM     69  C   UNL A   1      37.973  32.997  37.193  1.00  0.00     0.000 A 
ENDBRANCH  50  64
BRANCH  51  70
ATOM     70  C   UNL A   1      42.863  26.344  27.499  1.00  0.00    -0.014 A 
ATOM     71  C   UNL A   1      43.743  26.952  26.592  1.00  0.00     0.009 A 
ATOM     72  C   UNL A   1      42.514  24.998  27.319  1.00  0.00     0.009 A 
ATOM     73  C   UNL A   1      44.251  26.226  25.512  1.00  0.00     0.001 A 
ATOM     74  C   UNL A   1      43.034  24.272  26.246  1.00  0.00     0.001 A 
ATOM     75  C   UNL A   1      43.898  24.888  25.342  1.00  0.00     0.000 A 
ENDBRANCH  51  70
BRANCH  63  76
ATOM     76  C   UNL A   1      44.824  27.212  34.101  1.00  0.00    -0.014 A 
ATOM     77  C   UNL A   1      44.739  25.972  34.754  1.00  0.00     0.009 A 
ATOM     78  C   UNL A   1      46.023  27.937  34.158  1.00  0.00     0.009 A 
ATOM     79  C   UNL A   1      45.833  25.479  35.467  1.00  0.00     0.001 A 
ATOM     80  C   UNL A   1      47.118  27.433  34.861  1.00  0.00     0.001 A 
ATOM     81  C   UNL A   1      47.020  26.207  35.519  1.00  0.00     0.000 A 
ENDBRANCH  63  76
ENDBRANCH  37  38
ENDBRANCH  30  32
ENDBRANCH  29  30
ENDBRANCH  28  29
ENDBRANCH  27  28
ENDBRANCH   1  27
TORSDOF 17
ENDMDL
MODEL 3
REMARK VINA RESULT:     -10.7      1.998      8.182
REMARK SMILES CS(=O)(=O)c1ccc(N2N=C(C(=O)OCCOCCOC(=O)c3ccc(-c4c5nc(c(-c6ccccc6)c6ccc([nH]6)c(-c6ccccc6)c6nc(c(-c7ccccc7)c7ccc4[nH]7)C=C6)C=C5)cc3)C[C@H]2c2ccco2)cc1
REMARK SMILES IDX 17 1 16 2 15 3 14 4 12 5 13 6 11 7 9 8 10 9 72 10 71 11 8 12
REMARK SMILES IDX 5 13 6 14 79 15 7 16 78 17 2 18 1 19 3 20 4 21 73 22 74 23
REMARK SMILES IDX 77 24 75 25 76 26 18 27 19 28 20 29 21 30 22 31 23 32 24 33
REMARK SMILES IDX 70 34 25 35 69 36 26 37 27 38 28 39 63 40 29 41 68 42 62 43
REMARK SMILES IDX 64 44 30 45 67 46 61 47 60 48 31 50 53 51 38 52 52 53 39 54
REMARK SMILES IDX 42 55 51 56 65 57 40 58 41 59 50 61 66 62 43 63 32 64 33 65
REMARK SMILES IDX 37 66 34 67 36 68 35 69 54 70 55 71 59 72 56 73 58 74 57 75
REMARK SMILES IDX 44 76 45 77 49 78 46 79 48 80 47 81
REMARK H PARENT 64 49 42 60
REMARK Flexibility Score: inf
ROOT
ATOM      1  O   UNL A   1      34.636  21.139  25.840  1.00  0.00    -0.374 OA
ENDROOT
BRANCH   1   2
ATOM      2  C   UNL A   1      33.692  21.467  24.812  1.00  0.00     0.202 C 
BRANCH   2   3
ATOM      3  C   UNL A   1      32.430  22.117  25.381  1.00  0.00     0.261 C 
BRANCH   3   4
ATOM      4  O   UNL A   1      32.843  23.149  26.287  1.00  0.00    -0.459 OA
BRANCH   4   5
ATOM      5  C   UNL A   1      31.914  24.085  26.564  1.00  0.00     0.354 C 
ATOM      6  O   UNL A   1      30.876  23.956  27.178  1.00  0.00    -0.245 OA
BRANCH   5   7
ATOM      7  C   UNL A   1      32.464  25.402  26.088  1.00  0.00     0.148 C 
ATOM      8  N   UNL A   1      33.244  27.363  26.097  1.00  0.00    -0.254 N 
ATOM      9  N   UNL A   1      32.683  26.403  26.886  1.00  0.00    -0.169 NA
ATOM     10  C   UNL A   1      33.055  27.094  24.664  1.00  0.00     0.180 C 
ATOM     11  C   UNL A   1      32.942  25.565  24.678  1.00  0.00     0.101 C 
BRANCH   8  12
ATOM     12  C   UNL A   1      33.441  28.636  26.607  1.00  0.00     0.060 A 
ATOM     13  C   UNL A   1      33.874  31.185  27.688  1.00  0.00     0.067 A 
ATOM     14  C   UNL A   1      34.941  30.291  27.579  1.00  0.00     0.022 A 
ATOM     15  C   UNL A   1      32.597  30.826  27.254  1.00  0.00     0.022 A 
ATOM     16  C   UNL A   1      34.718  29.023  27.038  1.00  0.00     0.029 A 
ATOM     17  C   UNL A   1      32.387  29.550  26.728  1.00  0.00     0.029 A 
BRANCH  13  18
ATOM     18  S   UNL A   1      34.161  32.797  28.375  1.00  0.00     0.175 S 
ATOM     19  C   UNL A   1      35.863  33.130  28.003  1.00  0.00     0.163 C 
ATOM     20  O   UNL A   1      34.042  32.693  29.818  1.00  0.00    -0.224 OA
ATOM     21  O   UNL A   1      33.338  33.725  27.624  1.00  0.00    -0.224 OA
ENDBRANCH  13  18
ENDBRANCH   8  12
BRANCH  10  22
ATOM     22  C   UNL A   1      31.852  27.730  24.023  1.00  0.00     0.128 A 
ATOM     23  C   UNL A   1      30.513  27.392  23.991  1.00  0.00     0.048 A 
ATOM     24  O   UNL A   1      32.052  28.872  23.295  1.00  0.00    -0.467 OA
ATOM     25  C   UNL A   1      29.867  28.378  23.207  1.00  0.00     0.042 A 
ATOM     26  C   UNL A   1      30.846  29.255  22.809  1.00  0.00     0.195 A 
ENDBRANCH  10  22
ENDBRANCH   5   7
ENDBRANCH   4   5
ENDBRANCH   3   4
ENDBRANCH   2   3
ENDBRANCH   1   2
BRANCH   1  27
ATOM     27  C   UNL A   1      35.917  21.765  25.727  1.00  0.00     0.202 C 
BRANCH  27  28
ATOM     28  C   UNL A   1      36.968  20.837  25.113  1.00  0.00     0.261 C 
BRANCH  28  29
ATOM     29  O   UNL A   1      38.217  21.539  24.971  1.00  0.00    -0.460 OA
BRANCH  29  30
ATOM     30  C   UNL A   1      39.159  21.231  25.893  1.00  0.00     0.338 C 
ATOM     31  O   UNL A   1      39.628  20.128  26.122  1.00  0.00    -0.246 OA
BRANCH  30  32
ATOM     32  C   UNL A   1      39.660  22.464  26.544  1.00  0.00     0.060 A 
ATOM     33  C   UNL A   1      39.090  23.679  26.142  1.00  0.00     0.016 A 
ATOM     34  C   UNL A   1      40.677  22.454  27.505  1.00  0.00     0.016 A 
ATOM     35  C   UNL A   1      39.562  24.881  26.663  1.00  0.00     0.010 A 
ATOM     36  C   UNL A   1      41.155  23.662  28.026  1.00  0.00     0.010 A 
ATOM     37  C   UNL A   1      40.619  24.881  27.583  1.00  0.00    -0.014 A 
BRANCH  37  38
ATOM     38  C   UNL A   1      41.239  26.172  27.957  1.00  0.00     0.031 A 
ATOM     39  C   UNL A   1      42.585  26.523  27.392  1.00  0.00     0.074 A 
ATOM     40  C   UNL A   1      40.586  27.052  28.737  1.00  0.00     0.049 A 
ATOM     41  N   UNL A   1      43.244  27.650  27.468  1.00  0.00    -0.248 NA
ATOM     42  C   UNL A   1      43.277  25.465  26.637  1.00  0.00     0.031 C 
ATOM     43  C   UNL A   1      39.275  26.839  29.347  1.00  0.00     0.029 A 
ATOM     44  N   UNL A   1      40.946  28.314  29.135  1.00  0.00    -0.354 N 
ATOM     45  C   UNL A   1      44.416  27.446  26.751  1.00  0.00     0.074 A 
ATOM     46  C   UNL A   1      44.396  26.079  26.279  1.00  0.00     0.031 C 
ATOM     47  C   UNL A   1      38.936  27.940  30.041  1.00  0.00     0.029 A 
ATOM     48  C   UNL A   1      40.004  28.932  29.917  1.00  0.00     0.049 A 
ATOM     49  H   UNL A   1      41.800  28.736  28.884  1.00  0.00     0.167 HD
ATOM     50  C   UNL A   1      45.416  28.321  26.496  1.00  0.00     0.031 A 
ATOM     51  C   UNL A   1      39.998  30.162  30.461  1.00  0.00     0.031 A 
ATOM     52  C   UNL A   1      45.460  29.675  26.973  1.00  0.00     0.049 A 
ATOM     53  C   UNL A   1      41.140  31.102  30.200  1.00  0.00     0.074 A 
ATOM     54  C   UNL A   1      46.421  30.643  26.740  1.00  0.00     0.029 A 
ATOM     55  N   UNL A   1      44.504  30.247  27.794  1.00  0.00    -0.354 N 
ATOM     56  N   UNL A   1      42.209  30.918  29.465  1.00  0.00    -0.248 NA
ATOM     57  C   UNL A   1      41.065  32.427  30.836  1.00  0.00     0.031 C 
ATOM     58  C   UNL A   1      46.060  31.796  27.448  1.00  0.00     0.029 A 
ATOM     59  C   UNL A   1      44.863  31.548  28.099  1.00  0.00     0.049 A 
ATOM     60  H   UNL A   1      43.690  29.795  28.114  1.00  0.00     0.167 HD
ATOM     61  C   UNL A   1      42.924  32.107  29.535  1.00  0.00     0.074 A 
ATOM     62  C   UNL A   1      42.168  33.007  30.380  1.00  0.00     0.031 C 
ATOM     63  C   UNL A   1      44.101  32.426  28.945  1.00  0.00     0.031 A 
BRANCH  50  64
ATOM     64  C   UNL A   1      46.551  27.823  25.656  1.00  0.00    -0.014 A 
ATOM     65  C   UNL A   1      46.509  27.938  24.259  1.00  0.00     0.009 A 
ATOM     66  C   UNL A   1      47.671  27.239  26.265  1.00  0.00     0.009 A 
ATOM     67  C   UNL A   1      47.563  27.455  23.482  1.00  0.00     0.001 A 
ATOM     68  C   UNL A   1      48.728  26.768  25.485  1.00  0.00     0.001 A 
ATOM     69  C   UNL A   1      48.671  26.872  24.096  1.00  0.00     0.000 A 
ENDBRANCH  50  64
BRANCH  51  70
ATOM     70  C   UNL A   1      38.856  30.591  31.303  1.00  0.00    -0.014 A 
ATOM     71  C   UNL A   1      38.865  30.360  32.686  1.00  0.00     0.009 A 
ATOM     72  C   UNL A   1      37.747  31.220  30.719  1.00  0.00     0.009 A 
ATOM     73  C   UNL A   1      37.771  30.737  33.469  1.00  0.00     0.001 A 
ATOM     74  C   UNL A   1      36.661  31.608  31.506  1.00  0.00     0.001 A 
ATOM     75  C   UNL A   1      36.673  31.362  32.878  1.00  0.00     0.000 A 
ENDBRANCH  51  70
BRANCH  63  76
ATOM     76  C   UNL A   1      44.634  33.806  29.185  1.00  0.00    -0.014 A 
ATOM     77  C   UNL A   1      45.515  34.059  30.247  1.00  0.00     0.009 A 
ATOM     78  C   UNL A   1      44.283  34.852  28.319  1.00  0.00     0.009 A 
ATOM     79  C   UNL A   1      46.020  35.344  30.449  1.00  0.00     0.001 A 
ATOM     80  C   UNL A   1      44.802  36.133  28.516  1.00  0.00     0.001 A 
ATOM     81  C   UNL A   1      45.666  36.378  29.584  1.00  0.00     0.000 A 
ENDBRANCH  63  76
ENDBRANCH  37  38
ENDBRANCH  30  32
ENDBRANCH  29  30
ENDBRANCH  28  29
ENDBRANCH  27  28
ENDBRANCH   1  27
TORSDOF 17
ENDMDL
