MODEL 1
REMARK VINA RESULT:     -11.1      0.000      0.000
REMARK SMILES O=C(OCCOCCOC(=O)c1ccc(F)cc1-c1ccc(F)c(Cl)c1)c1ccc(-c2c3nc(c(-c4ccccc4)c4ccc([nH]4)c(-c4ccccc4)c4nc(c(-c5ccccc5)c5ccc2[nH]5)C=C4)C=C3)cc1
REMARK SMILES IDX 5 1 4 2 3 3 2 4 1 5 27 6 28 7 74 8 29 9 73 10 30 11 31 12
REMARK SMILES IDX 32 13 67 14 33 15 72 16 66 17 68 18 34 19 71 20 65 21 64 22
REMARK SMILES IDX 35 24 57 25 42 26 56 27 43 28 46 29 55 30 69 31 44 32 45 33
REMARK SMILES IDX 54 35 70 36 47 37 36 38 37 39 41 40 38 41 40 42 39 43 58 44
REMARK SMILES IDX 59 45 63 46 60 47 62 48 61 49 48 50 49 51 53 52 50 53 52 54
REMARK SMILES IDX 51 55 6 56 7 57 8 58 9 59 10 60 11 61 12 62 13 63 18 64
REMARK SMILES IDX 14 65 17 66 15 67 16 68 19 69 20 70 26 71 21 72 24 73 22 74
REMARK SMILES IDX 25 75 23 76
REMARK H PARENT 68 23 46 34
REMARK Flexibility Score: inf
ROOT
ATOM      1  C   UNL A   1      31.344  31.791  26.511  1.00  0.00     0.202 C 
ENDROOT
BRANCH   1   2
ATOM      2  C   UNL A   1      32.525  32.485  27.197  1.00  0.00     0.261 C 
BRANCH   2   3
ATOM      3  O   UNL A   1      32.182  33.802  27.669  1.00  0.00    -0.460 OA
BRANCH   3   4
ATOM      4  C   UNL A   1      32.961  34.548  28.501  1.00  0.00     0.338 C 
ATOM      5  O   UNL A   1      32.629  35.685  28.815  1.00  0.00    -0.246 OA
BRANCH   4   6
ATOM      6  C   UNL A   1      34.231  33.990  29.031  1.00  0.00     0.060 A 
ATOM      7  C   UNL A   1      34.217  32.992  29.992  1.00  0.00     0.016 A 
ATOM      8  C   UNL A   1      35.467  34.386  28.524  1.00  0.00     0.016 A 
ATOM      9  C   UNL A   1      35.348  32.526  30.608  1.00  0.00     0.010 A 
ATOM     10  C   UNL A   1      36.635  33.769  28.998  1.00  0.00     0.010 A 
ATOM     11  C   UNL A   1      36.569  32.834  30.046  1.00  0.00    -0.014 A 
BRANCH  11  12
ATOM     12  C   UNL A   1      37.736  32.132  30.602  1.00  0.00     0.031 A 
ATOM     13  C   UNL A   1      38.329  32.638  31.871  1.00  0.00     0.074 A 
ATOM     14  C   UNL A   1      38.152  30.984  30.025  1.00  0.00     0.049 A 
ATOM     15  N   UNL A   1      39.430  32.274  32.464  1.00  0.00    -0.248 NA
ATOM     16  C   UNL A   1      37.585  33.704  32.564  1.00  0.00     0.031 C 
ATOM     17  C   UNL A   1      37.529  30.333  28.862  1.00  0.00     0.029 A 
ATOM     18  N   UNL A   1      39.172  30.135  30.358  1.00  0.00    -0.354 N 
ATOM     19  C   UNL A   1      39.539  33.098  33.572  1.00  0.00     0.074 A 
ATOM     20  C   UNL A   1      38.402  33.991  33.564  1.00  0.00     0.031 C 
ATOM     21  C   UNL A   1      38.152  29.172  28.611  1.00  0.00     0.029 A 
ATOM     22  C   UNL A   1      39.286  29.056  29.511  1.00  0.00     0.049 A 
ATOM     23  H   UNL A   1      39.767  30.282  31.128  1.00  0.00     0.167 HD
ATOM     24  C   UNL A   1      40.516  33.102  34.505  1.00  0.00     0.031 A 
ATOM     25  C   UNL A   1      40.244  28.115  29.438  1.00  0.00     0.031 A 
ATOM     26  C   UNL A   1      41.629  32.195  34.469  1.00  0.00     0.049 A 
ATOM     27  C   UNL A   1      41.381  28.222  30.413  1.00  0.00     0.074 A 
ATOM     28  C   UNL A   1      42.735  32.144  35.295  1.00  0.00     0.029 A 
ATOM     29  N   UNL A   1      41.760  31.162  33.549  1.00  0.00    -0.354 N 
ATOM     30  N   UNL A   1      41.546  29.074  31.398  1.00  0.00    -0.248 NA
ATOM     31  C   UNL A   1      42.471  27.255  30.258  1.00  0.00     0.031 C 
ATOM     32  C   UNL A   1      43.559  31.107  34.843  1.00  0.00     0.029 A 
ATOM     33  C   UNL A   1      42.935  30.472  33.779  1.00  0.00     0.049 A 
ATOM     34  H   UNL A   1      41.113  30.953  32.837  1.00  0.00     0.167 HD
ATOM     35  C   UNL A   1      42.748  28.734  31.996  1.00  0.00     0.074 A 
ATOM     36  C   UNL A   1      43.254  27.578  31.278  1.00  0.00     0.031 C 
ATOM     37  C   UNL A   1      43.387  29.321  33.038  1.00  0.00     0.031 A 
BRANCH  24  38
ATOM     38  C   UNL A   1      40.437  34.164  35.561  1.00  0.00    -0.014 A 
ATOM     39  C   UNL A   1      39.808  33.931  36.794  1.00  0.00     0.009 A 
ATOM     40  C   UNL A   1      40.951  35.442  35.291  1.00  0.00     0.009 A 
ATOM     41  C   UNL A   1      39.657  34.968  37.717  1.00  0.00     0.001 A 
ATOM     42  C   UNL A   1      40.826  36.468  36.229  1.00  0.00     0.001 A 
ATOM     43  C   UNL A   1      40.168  36.234  37.436  1.00  0.00     0.000 A 
ENDBRANCH  24  38
BRANCH  25  44
ATOM     44  C   UNL A   1      40.226  27.079  28.368  1.00  0.00    -0.014 A 
ATOM     45  C   UNL A   1      40.859  27.300  27.135  1.00  0.00     0.009 A 
ATOM     46  C   UNL A   1      39.536  25.869  28.557  1.00  0.00     0.009 A 
ATOM     47  C   UNL A   1      40.764  26.357  26.107  1.00  0.00     0.001 A 
ATOM     48  C   UNL A   1      39.474  24.911  27.543  1.00  0.00     0.001 A 
ATOM     49  C   UNL A   1      40.072  25.163  26.312  1.00  0.00     0.000 A 
ENDBRANCH  25  44
BRANCH  37  50
ATOM     50  C   UNL A   1      44.668  28.679  33.480  1.00  0.00    -0.014 A 
ATOM     51  C   UNL A   1      45.901  29.044  32.921  1.00  0.00     0.009 A 
ATOM     52  C   UNL A   1      44.634  27.718  34.502  1.00  0.00     0.009 A 
ATOM     53  C   UNL A   1      47.075  28.428  33.352  1.00  0.00     0.001 A 
ATOM     54  C   UNL A   1      45.814  27.132  34.956  1.00  0.00     0.001 A 
ATOM     55  C   UNL A   1      47.031  27.479  34.374  1.00  0.00     0.000 A 
ENDBRANCH  37  50
ENDBRANCH  11  12
ENDBRANCH   4   6
ENDBRANCH   3   4
ENDBRANCH   2   3
ENDBRANCH   1   2
BRANCH   1  56
ATOM     56  O   UNL A   1      31.610  30.535  25.917  1.00  0.00    -0.374 OA
BRANCH  56  57
ATOM     57  C   UNL A   1      32.805  29.883  26.306  1.00  0.00     0.202 C 
BRANCH  57  58
ATOM     58  C   UNL A   1      33.147  28.880  25.214  1.00  0.00     0.261 C 
BRANCH  58  59
ATOM     59  O   UNL A   1      32.471  29.268  24.003  1.00  0.00    -0.460 OA
BRANCH  59  60
ATOM     60  C   UNL A   1      32.113  28.299  23.113  1.00  0.00     0.338 C 
ATOM     61  O   UNL A   1      32.845  27.569  22.470  1.00  0.00    -0.246 OA
BRANCH  60  62
ATOM     62  C   UNL A   1      30.625  28.248  23.111  1.00  0.00     0.068 A 
ATOM     63  C   UNL A   1      29.979  29.420  22.656  1.00  0.00     0.019 A 
ATOM     64  C   UNL A   1      29.861  27.147  23.578  1.00  0.00    -0.001 A 
ATOM     65  C   UNL A   1      28.594  29.527  22.673  1.00  0.00     0.040 A 
ATOM     66  C   UNL A   1      28.456  27.283  23.551  1.00  0.00     0.048 A 
ATOM     67  C   UNL A   1      27.845  28.454  23.115  1.00  0.00     0.123 A 
ATOM     68  F   UNL A   1      26.511  28.545  23.140  1.00  0.00    -0.207 F 
BRANCH  64  69
ATOM     69  C   UNL A   1      30.367  25.892  24.173  1.00  0.00    -0.016 A 
ATOM     70  C   UNL A   1      30.226  25.670  25.563  1.00  0.00     0.012 A 
ATOM     71  C   UNL A   1      30.844  24.830  23.389  1.00  0.00     0.032 A 
ATOM     72  C   UNL A   1      30.621  24.467  26.158  1.00  0.00     0.041 A 
ATOM     73  C   UNL A   1      31.190  23.605  23.978  1.00  0.00     0.077 A 
ATOM     74  C   UNL A   1      31.096  23.437  25.358  1.00  0.00     0.141 A 
ATOM     75  Cl  UNL A   1      31.678  22.289  22.980  1.00  0.00    -0.081 Cl
ATOM     76  F   UNL A   1      31.441  22.278  25.941  1.00  0.00    -0.205 F 
ENDBRANCH  64  69
ENDBRANCH  60  62
ENDBRANCH  59  60
ENDBRANCH  58  59
ENDBRANCH  57  58
ENDBRANCH  56  57
ENDBRANCH   1  56
TORSDOF 15
ENDMDL
MODEL 2
REMARK VINA RESULT:     -11.0      1.540      2.828
REMARK SMILES O=C(OCCOCCOC(=O)c1ccc(F)cc1-c1ccc(F)c(Cl)c1)c1ccc(-c2c3nc(c(-c4ccccc4)c4ccc([nH]4)c(-c4ccccc4)c4nc(c(-c5ccccc5)c5ccc2[nH]5)C=C4)C=C3)cc1
REMARK SMILES IDX 5 1 4 2 3 3 2 4 1 5 27 6 28 7 74 8 29 9 73 10 30 11 31 12
REMARK SMILES IDX 32 13 67 14 33 15 72 16 66 17 68 18 34 19 71 20 65 21 64 22
REMARK SMILES IDX 35 24 57 25 42 26 56 27 43 28 46 29 55 30 69 31 44 32 45 33
REMARK SMILES IDX 54 35 70 36 47 37 36 38 37 39 41 40 38 41 40 42 39 43 58 44
REMARK SMILES IDX 59 45 63 46 60 47 62 48 61 49 48 50 49 51 53 52 50 53 52 54
REMARK SMILES IDX 51 55 6 56 7 57 8 58 9 59 10 60 11 61 12 62 13 63 18 64
REMARK SMILES IDX 14 65 17 66 15 67 16 68 19 69 20 70 26 71 21 72 24 73 22 74
REMARK SMILES IDX 25 75 23 76
REMARK H PARENT 68 23 46 34
REMARK Flexibility Score: inf
ROOT
ATOM      1  C   UNL A   1      31.343  32.023  26.516  1.00  0.00     0.202 C 
ENDROOT
BRANCH   1   2
ATOM      2  C   UNL A   1      32.510  32.718  27.224  1.00  0.00     0.261 C 
BRANCH   2   3
ATOM      3  O   UNL A   1      32.153  34.029  27.702  1.00  0.00    -0.460 OA
BRANCH   3   4
ATOM      4  C   UNL A   1      32.891  34.752  28.590  1.00  0.00     0.338 C 
ATOM      5  O   UNL A   1      32.532  35.871  28.937  1.00  0.00    -0.246 OA
BRANCH   4   6
ATOM      6  C   UNL A   1      34.150  34.189  29.144  1.00  0.00     0.060 A 
ATOM      7  C   UNL A   1      34.115  33.234  30.147  1.00  0.00     0.016 A 
ATOM      8  C   UNL A   1      35.393  34.537  28.621  1.00  0.00     0.016 A 
ATOM      9  C   UNL A   1      35.236  32.771  30.782  1.00  0.00     0.010 A 
ATOM     10  C   UNL A   1      36.548  33.916  29.120  1.00  0.00     0.010 A 
ATOM     11  C   UNL A   1      36.463  33.028  30.208  1.00  0.00    -0.014 A 
BRANCH  11  12
ATOM     12  C   UNL A   1      37.615  32.325  30.793  1.00  0.00     0.031 A 
ATOM     13  C   UNL A   1      38.153  32.810  32.094  1.00  0.00     0.074 A 
ATOM     14  C   UNL A   1      38.065  31.195  30.209  1.00  0.00     0.049 A 
ATOM     15  N   UNL A   1      39.234  32.443  32.722  1.00  0.00    -0.248 NA
ATOM     16  C   UNL A   1      37.372  33.853  32.781  1.00  0.00     0.031 C 
ATOM     17  C   UNL A   1      37.495  30.563  29.008  1.00  0.00     0.029 A 
ATOM     18  N   UNL A   1      39.080  30.349  30.562  1.00  0.00    -0.354 N 
ATOM     19  C   UNL A   1      39.291  33.244  33.851  1.00  0.00     0.074 A 
ATOM     20  C   UNL A   1      38.146  34.126  33.818  1.00  0.00     0.031 C 
ATOM     21  C   UNL A   1      38.139  29.414  28.757  1.00  0.00     0.029 A 
ATOM     22  C   UNL A   1      39.239  29.289  29.698  1.00  0.00     0.049 A 
ATOM     23  H   UNL A   1      39.644  30.484  31.358  1.00  0.00     0.167 HD
ATOM     24  C   UNL A   1      40.232  33.237  34.820  1.00  0.00     0.031 A 
ATOM     25  C   UNL A   1      40.208  28.360  29.641  1.00  0.00     0.031 A 
ATOM     26  C   UNL A   1      41.355  32.343  34.809  1.00  0.00     0.049 A 
ATOM     27  C   UNL A   1      41.306  28.456  30.662  1.00  0.00     0.074 A 
ATOM     28  C   UNL A   1      42.428  32.284  35.675  1.00  0.00     0.029 A 
ATOM     29  N   UNL A   1      41.533  31.331  33.872  1.00  0.00    -0.354 N 
ATOM     30  N   UNL A   1      41.423  29.288  31.670  1.00  0.00    -0.248 NA
ATOM     31  C   UNL A   1      42.412  27.504  30.529  1.00  0.00     0.031 C 
ATOM     32  C   UNL A   1      43.281  31.265  35.234  1.00  0.00     0.029 A 
ATOM     33  C   UNL A   1      42.705  30.648  34.133  1.00  0.00     0.049 A 
ATOM     34  H   UNL A   1      40.915  31.131  33.132  1.00  0.00     0.167 HD
ATOM     35  C   UNL A   1      42.605  28.947  32.307  1.00  0.00     0.074 A 
ATOM     36  C   UNL A   1      43.151  27.812  31.585  1.00  0.00     0.031 C 
ATOM     37  C   UNL A   1      43.197  29.518  33.386  1.00  0.00     0.031 A 
BRANCH  24  38
ATOM     38  C   UNL A   1      40.101  34.275  35.895  1.00  0.00    -0.014 A 
ATOM     39  C   UNL A   1      40.664  35.554  35.756  1.00  0.00     0.009 A 
ATOM     40  C   UNL A   1      39.452  33.946  37.095  1.00  0.00     0.009 A 
ATOM     41  C   UNL A   1      40.617  36.466  36.813  1.00  0.00     0.001 A 
ATOM     42  C   UNL A   1      39.380  34.870  38.139  1.00  0.00     0.001 A 
ATOM     43  C   UNL A   1      39.973  36.124  38.002  1.00  0.00     0.000 A 
ENDBRANCH  24  38
BRANCH  25  44
ATOM     44  C   UNL A   1      40.243  27.347  28.549  1.00  0.00    -0.014 A 
ATOM     45  C   UNL A   1      40.876  27.621  27.327  1.00  0.00     0.009 A 
ATOM     46  C   UNL A   1      39.603  26.106  28.707  1.00  0.00     0.009 A 
ATOM     47  C   UNL A   1      40.829  26.697  26.278  1.00  0.00     0.001 A 
ATOM     48  C   UNL A   1      39.589  25.168  27.672  1.00  0.00     0.001 A 
ATOM     49  C   UNL A   1      40.186  25.472  26.452  1.00  0.00     0.000 A 
ENDBRANCH  25  44
BRANCH  37  50
ATOM     50  C   UNL A   1      44.467  28.878  33.863  1.00  0.00    -0.014 A 
ATOM     51  C   UNL A   1      45.720  29.310  33.406  1.00  0.00     0.009 A 
ATOM     52  C   UNL A   1      44.399  27.851  34.816  1.00  0.00     0.009 A 
ATOM     53  C   UNL A   1      46.884  28.695  33.868  1.00  0.00     0.001 A 
ATOM     54  C   UNL A   1      45.566  27.264  35.303  1.00  0.00     0.001 A 
ATOM     55  C   UNL A   1      46.805  27.679  34.821  1.00  0.00     0.000 A 
ENDBRANCH  37  50
ENDBRANCH  11  12
ENDBRANCH   4   6
ENDBRANCH   3   4
ENDBRANCH   2   3
ENDBRANCH   1   2
BRANCH   1  56
ATOM     56  O   UNL A   1      31.622  30.766  25.927  1.00  0.00    -0.374 OA
BRANCH  56  57
ATOM     57  C   UNL A   1      32.302  29.820  26.731  1.00  0.00     0.202 C 
BRANCH  57  58
ATOM     58  C   UNL A   1      33.154  28.969  25.801  1.00  0.00     0.261 C 
BRANCH  58  59
ATOM     59  O   UNL A   1      33.436  27.715  26.451  1.00  0.00    -0.460 OA
BRANCH  59  60
ATOM     60  C   UNL A   1      32.492  26.732  26.414  1.00  0.00     0.338 C 
ATOM     61  O   UNL A   1      31.494  26.628  27.105  1.00  0.00    -0.246 OA
BRANCH  60  62
ATOM     62  C   UNL A   1      32.873  25.812  25.307  1.00  0.00     0.068 A 
ATOM     63  C   UNL A   1      34.078  25.097  25.501  1.00  0.00     0.019 A 
ATOM     64  C   UNL A   1      32.148  25.672  24.096  1.00  0.00    -0.001 A 
ATOM     65  C   UNL A   1      34.582  24.261  24.513  1.00  0.00     0.040 A 
ATOM     66  C   UNL A   1      32.678  24.790  23.128  1.00  0.00     0.048 A 
ATOM     67  C   UNL A   1      33.872  24.112  23.337  1.00  0.00     0.123 A 
ATOM     68  F   UNL A   1      34.349  23.313  22.376  1.00  0.00    -0.207 F 
BRANCH  64  69
ATOM     69  C   UNL A   1      30.933  26.409  23.687  1.00  0.00    -0.016 A 
ATOM     70  C   UNL A   1      29.667  25.983  24.152  1.00  0.00     0.012 A 
ATOM     71  C   UNL A   1      30.995  27.620  22.981  1.00  0.00     0.032 A 
ATOM     72  C   UNL A   1      28.499  26.693  23.854  1.00  0.00     0.041 A 
ATOM     73  C   UNL A   1      29.830  28.360  22.728  1.00  0.00     0.077 A 
ATOM     74  C   UNL A   1      28.589  27.884  23.147  1.00  0.00     0.141 A 
ATOM     75  Cl  UNL A   1      29.947  29.890  21.945  1.00  0.00    -0.081 Cl
ATOM     76  F   UNL A   1      27.462  28.569  22.897  1.00  0.00    -0.205 F 
ENDBRANCH  64  69
ENDBRANCH  60  62
ENDBRANCH  59  60
ENDBRANCH  58  59
ENDBRANCH  57  58
ENDBRANCH  56  57
ENDBRANCH   1  56
TORSDOF 15
ENDMDL
MODEL 3
REMARK VINA RESULT:     -11.0      4.912      9.647
REMARK SMILES O=C(OCCOCCOC(=O)c1ccc(F)cc1-c1ccc(F)c(Cl)c1)c1ccc(-c2c3nc(c(-c4ccccc4)c4ccc([nH]4)c(-c4ccccc4)c4nc(c(-c5ccccc5)c5ccc2[nH]5)C=C4)C=C3)cc1
REMARK SMILES IDX 5 1 4 2 3 3 2 4 1 5 27 6 28 7 74 8 29 9 73 10 30 11 31 12
REMARK SMILES IDX 32 13 67 14 33 15 72 16 66 17 68 18 34 19 71 20 65 21 64 22
REMARK SMILES IDX 35 24 57 25 42 26 56 27 43 28 46 29 55 30 69 31 44 32 45 33
REMARK SMILES IDX 54 35 70 36 47 37 36 38 37 39 41 40 38 41 40 42 39 43 58 44
REMARK SMILES IDX 59 45 63 46 60 47 62 48 61 49 48 50 49 51 53 52 50 53 52 54
REMARK SMILES IDX 51 55 6 56 7 57 8 58 9 59 10 60 11 61 12 62 13 63 18 64
REMARK SMILES IDX 14 65 17 66 15 67 16 68 19 69 20 70 26 71 21 72 24 73 22 74
REMARK SMILES IDX 25 75 23 76
REMARK H PARENT 68 23 46 34
REMARK Flexibility Score: inf
ROOT
ATOM      1  C   UNL A   1      38.039  19.763  24.941  1.00  0.00     0.202 C 
ENDROOT
BRANCH   1   2
ATOM      2  C   UNL A   1      39.251  20.098  25.815  1.00  0.00     0.261 C 
BRANCH   2   3
ATOM      3  O   UNL A   1      40.289  19.104  25.711  1.00  0.00    -0.460 OA
BRANCH   3   4
ATOM      4  C   UNL A   1      41.604  19.332  25.985  1.00  0.00     0.338 C 
ATOM      5  O   UNL A   1      42.431  18.435  25.870  1.00  0.00    -0.246 OA
BRANCH   4   6
ATOM      6  C   UNL A   1      42.048  20.676  26.436  1.00  0.00     0.060 A 
ATOM      7  C   UNL A   1      42.200  21.711  25.527  1.00  0.00     0.016 A 
ATOM      8  C   UNL A   1      42.242  20.962  27.785  1.00  0.00     0.016 A 
ATOM      9  C   UNL A   1      42.724  22.931  25.860  1.00  0.00     0.010 A 
ATOM     10  C   UNL A   1      42.580  22.269  28.170  1.00  0.00     0.010 A 
ATOM     11  C   UNL A   1      42.821  23.256  27.197  1.00  0.00    -0.014 A 
BRANCH  11  12
ATOM     12  C   UNL A   1      43.172  24.650  27.504  1.00  0.00     0.031 A 
ATOM     13  C   UNL A   1      44.587  25.080  27.326  1.00  0.00     0.074 A 
ATOM     14  C   UNL A   1      42.191  25.526  27.810  1.00  0.00     0.049 A 
ATOM     15  N   UNL A   1      45.150  26.204  27.664  1.00  0.00    -0.248 NA
ATOM     16  C   UNL A   1      45.492  24.111  26.683  1.00  0.00     0.031 C 
ATOM     17  C   UNL A   1      40.752  25.220  27.859  1.00  0.00     0.029 A 
ATOM     18  N   UNL A   1      42.243  26.862  28.100  1.00  0.00    -0.354 N 
ATOM     19  C   UNL A   1      46.486  26.061  27.324  1.00  0.00     0.074 A 
ATOM     20  C   UNL A   1      46.654  24.739  26.765  1.00  0.00     0.031 C 
ATOM     21  C   UNL A   1      40.064  26.342  28.115  1.00  0.00     0.029 A 
ATOM     22  C   UNL A   1      41.011  27.414  28.368  1.00  0.00     0.049 A 
ATOM     23  H   UNL A   1      43.081  27.379  28.115  1.00  0.00     0.167 HD
ATOM     24  C   UNL A   1      47.478  26.964  27.478  1.00  0.00     0.031 A 
ATOM     25  C   UNL A   1      40.697  28.637  28.830  1.00  0.00     0.031 A 
ATOM     26  C   UNL A   1      47.264  28.268  28.042  1.00  0.00     0.049 A 
ATOM     27  C   UNL A   1      41.836  29.575  29.107  1.00  0.00     0.074 A 
ATOM     28  C   UNL A   1      48.188  29.249  28.339  1.00  0.00     0.029 A 
ATOM     29  N   UNL A   1      46.013  28.771  28.382  1.00  0.00    -0.354 N 
ATOM     30  N   UNL A   1      43.119  29.401  28.891  1.00  0.00    -0.248 NA
ATOM     31  C   UNL A   1      41.492  30.867  29.708  1.00  0.00     0.031 C 
ATOM     32  C   UNL A   1      47.500  30.330  28.902  1.00  0.00     0.029 A 
ATOM     33  C   UNL A   1      46.142  30.047  28.895  1.00  0.00     0.049 A 
ATOM     34  H   UNL A   1      45.161  28.289  28.273  1.00  0.00     0.167 HD
ATOM     35  C   UNL A   1      43.735  30.570  29.308  1.00  0.00     0.074 A 
ATOM     36  C   UNL A   1      42.679  31.454  29.764  1.00  0.00     0.031 C 
ATOM     37  C   UNL A   1      45.054  30.888  29.326  1.00  0.00     0.031 A 
BRANCH  24  38
ATOM     38  C   UNL A   1      48.861  26.519  27.104  1.00  0.00    -0.014 A 
ATOM     39  C   UNL A   1      49.392  26.764  25.828  1.00  0.00     0.009 A 
ATOM     40  C   UNL A   1      49.623  25.788  28.029  1.00  0.00     0.009 A 
ATOM     41  C   UNL A   1      50.641  26.248  25.472  1.00  0.00     0.001 A 
ATOM     42  C   UNL A   1      50.883  25.300  27.680  1.00  0.00     0.001 A 
ATOM     43  C   UNL A   1      51.386  25.519  26.399  1.00  0.00     0.000 A 
ENDBRANCH  24  38
BRANCH  25  44
ATOM     44  C   UNL A   1      39.288  29.002  29.150  1.00  0.00    -0.014 A 
ATOM     45  C   UNL A   1      38.721  28.679  30.392  1.00  0.00     0.009 A 
ATOM     46  C   UNL A   1      38.482  29.643  28.193  1.00  0.00     0.009 A 
ATOM     47  C   UNL A   1      37.373  28.948  30.650  1.00  0.00     0.001 A 
ATOM     48  C   UNL A   1      37.147  29.946  28.466  1.00  0.00     0.001 A 
ATOM     49  C   UNL A   1      36.588  29.582  29.688  1.00  0.00     0.000 A 
ENDBRANCH  25  44
BRANCH  37  50
ATOM     50  C   UNL A   1      45.398  32.267  29.804  1.00  0.00    -0.014 A 
ATOM     51  C   UNL A   1      45.621  32.536  31.162  1.00  0.00     0.009 A 
ATOM     52  C   UNL A   1      45.538  33.302  28.866  1.00  0.00     0.009 A 
ATOM     53  C   UNL A   1      45.939  33.830  31.576  1.00  0.00     0.001 A 
ATOM     54  C   UNL A   1      45.892  34.584  29.280  1.00  0.00     0.001 A 
ATOM     55  C   UNL A   1      46.081  34.849  30.634  1.00  0.00     0.000 A 
ENDBRANCH  37  50
ENDBRANCH  11  12
ENDBRANCH   4   6
ENDBRANCH   3   4
ENDBRANCH   2   3
ENDBRANCH   1   2
BRANCH   1  56
ATOM     56  O   UNL A   1      37.182  20.840  24.612  1.00  0.00    -0.374 OA
BRANCH  56  57
ATOM     57  C   UNL A   1      36.811  21.707  25.668  1.00  0.00     0.202 C 
BRANCH  57  58
ATOM     58  C   UNL A   1      37.080  23.129  25.198  1.00  0.00     0.261 C 
BRANCH  58  59
ATOM     59  O   UNL A   1      35.868  23.896  25.332  1.00  0.00    -0.460 OA
BRANCH  59  60
ATOM     60  C   UNL A   1      35.074  24.062  24.235  1.00  0.00     0.338 C 
ATOM     61  O   UNL A   1      35.337  23.797  23.076  1.00  0.00    -0.246 OA
BRANCH  60  62
ATOM     62  C   UNL A   1      33.769  24.582  24.726  1.00  0.00     0.068 A 
ATOM     63  C   UNL A   1      33.811  25.868  25.313  1.00  0.00     0.019 A 
ATOM     64  C   UNL A   1      32.551  23.855  24.688  1.00  0.00    -0.001 A 
ATOM     65  C   UNL A   1      32.675  26.437  25.874  1.00  0.00     0.040 A 
ATOM     66  C   UNL A   1      31.412  24.480  25.242  1.00  0.00     0.048 A 
ATOM     67  C   UNL A   1      31.484  25.738  25.828  1.00  0.00     0.123 A 
ATOM     68  F   UNL A   1      30.383  26.273  26.369  1.00  0.00    -0.207 F 
BRANCH  64  69
ATOM     69  C   UNL A   1      32.346  22.473  24.205  1.00  0.00    -0.016 A 
ATOM     70  C   UNL A   1      32.150  22.236  22.825  1.00  0.00     0.012 A 
ATOM     71  C   UNL A   1      32.499  21.357  25.043  1.00  0.00     0.032 A 
ATOM     72  C   UNL A   1      32.028  20.939  22.312  1.00  0.00     0.041 A 
ATOM     73  C   UNL A   1      32.430  20.057  24.521  1.00  0.00     0.077 A 
ATOM     74  C   UNL A   1      32.176  19.855  23.166  1.00  0.00     0.141 A 
ATOM     75  Cl  UNL A   1      32.718  18.710  25.555  1.00  0.00    -0.081 Cl
ATOM     76  F   UNL A   1      32.088  18.618  22.653  1.00  0.00    -0.205 F 
ENDBRANCH  64  69
ENDBRANCH  60  62
ENDBRANCH  59  60
ENDBRANCH  58  59
ENDBRANCH  57  58
ENDBRANCH  56  57
ENDBRANCH   1  56
TORSDOF 15
ENDMDL
