MODEL 1
REMARK VINA RESULT:     -11.1      0.000      0.000
REMARK SMILES Cc1cc(F)cc(NC(=O)N[C@@H]2COC[C@H]2C(=O)OCCOCCOC(=O)c2ccc(-c3c4nc(c(-c5ccccc5)c5ccc([nH]5)c(-c5ccccc5)c5nc(c(-c6ccccc6)c6ccc3[nH]6)C=C5)C=C4)cc2)c1
REMARK SMILES IDX 22 1 21 2 20 3 19 4 17 5 18 6 16 7 12 8 13 9 14 10 15 11
REMARK SMILES IDX 11 12 8 13 9 14 10 16 7 18 1 19 2 20 3 21 76 22 4 23 5 24
REMARK SMILES IDX 6 25 23 26 24 27 25 28 26 29 27 30 28 31 29 32 75 33 30 34
REMARK SMILES IDX 74 35 31 36 32 37 33 38 68 39 34 40 73 41 67 42 69 43 35 44
REMARK SMILES IDX 72 45 66 46 65 47 36 49 58 50 43 51 57 52 44 53 47 54 56 55
REMARK SMILES IDX 70 56 45 57 46 58 55 60 71 61 48 62 37 63 38 64 42 65 39 66
REMARK SMILES IDX 41 67 40 68 59 69 60 70 64 71 61 72 63 73 62 74 49 75 50 76
REMARK SMILES IDX 54 77 51 78 53 79 52 80
REMARK H PARENT 8 15 11 17 69 48 47 59
REMARK Flexibility Score: inf
ROOT
ATOM      1  O   UNL A   1      36.993  22.324  24.866  1.00  0.00    -0.374 OA
ENDROOT
BRANCH   1   2
ATOM      2  C   UNL A   1      35.607  22.230  25.179  1.00  0.00     0.202 C 
BRANCH   2   3
ATOM      3  C   UNL A   1      35.249  21.470  26.460  1.00  0.00     0.261 C 
BRANCH   3   4
ATOM      4  O   UNL A   1      33.874  21.050  26.493  1.00  0.00    -0.463 OA
BRANCH   4   5
ATOM      5  C   UNL A   1      33.450  20.339  25.415  1.00  0.00     0.313 C 
ATOM      6  O   UNL A   1      34.039  19.378  24.937  1.00  0.00    -0.252 OA
BRANCH   5   7
ATOM      7  C   UNL A   1      32.194  20.888  24.783  1.00  0.00     0.150 C 
ATOM      8  C   UNL A   1      31.757  22.294  25.128  1.00  0.00     0.126 C 
ATOM      9  C   UNL A   1      31.355  22.952  23.815  1.00  0.00     0.186 C 
ATOM     10  O   UNL A   1      31.707  22.064  22.752  1.00  0.00    -0.378 OA
ATOM     11  C   UNL A   1      32.443  20.958  23.286  1.00  0.00     0.177 C 
BRANCH   8  12
ATOM     12  N   UNL A   1      30.781  22.490  26.208  1.00  0.00    -0.332 N 
ATOM     13  N   UNL A   1      29.801  24.661  26.612  1.00  0.00    -0.308 N 
ATOM     14  C   UNL A   1      30.016  23.370  26.832  1.00  0.00     0.319 C 
ATOM     15  H   UNL A   1      29.025  24.951  27.143  1.00  0.00     0.171 HD
ATOM     16  O   UNL A   1      29.331  22.872  27.741  1.00  0.00    -0.248 OA
ATOM     17  H   UNL A   1      30.637  21.618  26.638  1.00  0.00     0.165 HD
BRANCH  13  18
ATOM     18  C   UNL A   1      30.290  25.757  25.889  1.00  0.00     0.046 A 
ATOM     19  C   UNL A   1      33.265  28.145  26.316  1.00  0.00     0.044 C 
ATOM     20  C   UNL A   1      32.021  27.503  25.776  1.00  0.00    -0.046 A 
ATOM     21  C   UNL A   1      31.402  28.030  24.645  1.00  0.00     0.042 A 
ATOM     22  C   UNL A   1      31.446  26.382  26.400  1.00  0.00     0.029 A 
ATOM     23  C   UNL A   1      30.296  27.384  24.115  1.00  0.00     0.125 A 
ATOM     24  F   UNL A   1      29.720  27.871  23.007  1.00  0.00    -0.207 F 
ATOM     25  C   UNL A   1      29.774  26.235  24.702  1.00  0.00     0.065 A 
ENDBRANCH  13  18
ENDBRANCH   8  12
ENDBRANCH   5   7
ENDBRANCH   4   5
ENDBRANCH   3   4
ENDBRANCH   2   3
ENDBRANCH   1   2
BRANCH   1  26
ATOM     26  C   UNL A   1      37.790  21.143  24.972  1.00  0.00     0.202 C 
BRANCH  26  27
ATOM     27  C   UNL A   1      39.129  21.286  25.708  1.00  0.00     0.261 C 
BRANCH  27  28
ATOM     28  O   UNL A   1      39.619  20.006  26.166  1.00  0.00    -0.460 OA
BRANCH  28  29
ATOM     29  C   UNL A   1      40.963  19.857  26.071  1.00  0.00     0.338 C 
ATOM     30  O   UNL A   1      41.571  18.963  25.508  1.00  0.00    -0.246 OA
BRANCH  29  31
ATOM     31  C   UNL A   1      41.653  21.041  26.612  1.00  0.00     0.060 A 
ATOM     32  C   UNL A   1      41.540  21.292  27.985  1.00  0.00     0.016 A 
ATOM     33  C   UNL A   1      42.254  21.975  25.765  1.00  0.00     0.016 A 
ATOM     34  C   UNL A   1      41.986  22.505  28.511  1.00  0.00     0.010 A 
ATOM     35  C   UNL A   1      42.695  23.193  26.295  1.00  0.00     0.010 A 
ATOM     36  C   UNL A   1      42.527  23.481  27.663  1.00  0.00    -0.014 A 
BRANCH  36  37
ATOM     37  C   UNL A   1      42.768  24.849  28.187  1.00  0.00     0.031 A 
ATOM     38  C   UNL A   1      44.168  25.259  28.561  1.00  0.00     0.074 A 
ATOM     39  C   UNL A   1      41.764  25.738  28.286  1.00  0.00     0.049 A 
ATOM     40  N   UNL A   1      44.601  26.407  29.022  1.00  0.00    -0.248 NA
ATOM     41  C   UNL A   1      45.220  24.244  28.390  1.00  0.00     0.031 C 
ATOM     42  C   UNL A   1      40.373  25.489  27.913  1.00  0.00     0.029 A 
ATOM     43  N   UNL A   1      41.768  27.037  28.728  1.00  0.00    -0.354 N 
ATOM     44  C   UNL A   1      45.970  26.251  29.197  1.00  0.00     0.074 A 
ATOM     45  C   UNL A   1      46.294  24.892  28.818  1.00  0.00     0.031 C 
ATOM     46  C   UNL A   1      39.655  26.602  28.143  1.00  0.00     0.029 A 
ATOM     47  C   UNL A   1      40.530  27.630  28.704  1.00  0.00     0.049 A 
ATOM     48  H   UNL A   1      42.581  27.501  29.034  1.00  0.00     0.167 HD
ATOM     49  C   UNL A   1      46.881  27.156  29.628  1.00  0.00     0.031 A 
ATOM     50  C   UNL A   1      40.143  28.858  29.102  1.00  0.00     0.031 A 
ATOM     51  C   UNL A   1      46.569  28.506  30.016  1.00  0.00     0.049 A 
ATOM     52  C   UNL A   1      41.160  29.818  29.655  1.00  0.00     0.074 A 
ATOM     53  C   UNL A   1      47.431  29.499  30.449  1.00  0.00     0.029 A 
ATOM     54  N   UNL A   1      45.294  29.047  30.029  1.00  0.00    -0.354 N 
ATOM     55  N   UNL A   1      42.455  29.666  29.787  1.00  0.00    -0.248 NA
ATOM     56  C   UNL A   1      40.659  31.124  30.111  1.00  0.00     0.031 C 
ATOM     57  C   UNL A   1      46.670  30.629  30.769  1.00  0.00     0.029 A 
ATOM     58  C   UNL A   1      45.341  30.352  30.489  1.00  0.00     0.049 A 
ATOM     59  H   UNL A   1      44.476  28.575  29.751  1.00  0.00     0.167 HD
ATOM     60  C   UNL A   1      42.925  30.863  30.315  1.00  0.00     0.074 A 
ATOM     61  C   UNL A   1      41.779  31.734  30.468  1.00  0.00     0.031 C 
ATOM     62  C   UNL A   1      44.195  31.209  30.639  1.00  0.00     0.031 A 
BRANCH  49  63
ATOM     63  C   UNL A   1      48.308  26.702  29.736  1.00  0.00    -0.014 A 
ATOM     64  C   UNL A   1      49.219  26.910  28.689  1.00  0.00     0.009 A 
ATOM     65  C   UNL A   1      48.756  26.091  30.918  1.00  0.00     0.009 A 
ATOM     66  C   UNL A   1      50.545  26.487  28.813  1.00  0.00     0.001 A 
ATOM     67  C   UNL A   1      50.087  25.690  31.047  1.00  0.00     0.001 A 
ATOM     68  C   UNL A   1      50.978  25.882  29.992  1.00  0.00     0.000 A 
ENDBRANCH  49  63
BRANCH  50  69
ATOM     69  C   UNL A   1      38.713  29.251  29.011  1.00  0.00    -0.014 A 
ATOM     70  C   UNL A   1      37.857  29.099  30.113  1.00  0.00     0.009 A 
ATOM     71  C   UNL A   1      38.192  29.758  27.811  1.00  0.00     0.009 A 
ATOM     72  C   UNL A   1      36.503  29.425  30.005  1.00  0.00     0.001 A 
ATOM     73  C   UNL A   1      36.844  30.107  27.713  1.00  0.00     0.001 A 
ATOM     74  C   UNL A   1      35.999  29.932  28.808  1.00  0.00     0.000 A 
ENDBRANCH  50  69
BRANCH  62  75
ATOM     75  C   UNL A   1      44.418  32.599  31.165  1.00  0.00    -0.014 A 
ATOM     76  C   UNL A   1      44.361  32.874  32.539  1.00  0.00     0.009 A 
ATOM     77  C   UNL A   1      44.729  33.637  30.273  1.00  0.00     0.009 A 
ATOM     78  C   UNL A   1      44.584  34.172  33.007  1.00  0.00     0.001 A 
ATOM     79  C   UNL A   1      44.975  34.927  30.747  1.00  0.00     0.001 A 
ATOM     80  C   UNL A   1      44.894  35.195  32.112  1.00  0.00     0.000 A 
ENDBRANCH  62  75
ENDBRANCH  36  37
ENDBRANCH  29  31
ENDBRANCH  28  29
ENDBRANCH  27  28
ENDBRANCH  26  27
ENDBRANCH   1  26
TORSDOF 16
ENDMDL
MODEL 2
REMARK VINA RESULT:     -10.9      1.471      2.090
REMARK SMILES Cc1cc(F)cc(NC(=O)N[C@@H]2COC[C@H]2C(=O)OCCOCCOC(=O)c2ccc(-c3c4nc(c(-c5ccccc5)c5ccc([nH]5)c(-c5ccccc5)c5nc(c(-c6ccccc6)c6ccc3[nH]6)C=C5)C=C4)cc2)c1
REMARK SMILES IDX 22 1 21 2 20 3 19 4 17 5 18 6 16 7 12 8 13 9 14 10 15 11
REMARK SMILES IDX 11 12 8 13 9 14 10 16 7 18 1 19 2 20 3 21 76 22 4 23 5 24
REMARK SMILES IDX 6 25 23 26 24 27 25 28 26 29 27 30 28 31 29 32 75 33 30 34
REMARK SMILES IDX 74 35 31 36 32 37 33 38 68 39 34 40 73 41 67 42 69 43 35 44
REMARK SMILES IDX 72 45 66 46 65 47 36 49 58 50 43 51 57 52 44 53 47 54 56 55
REMARK SMILES IDX 70 56 45 57 46 58 55 60 71 61 48 62 37 63 38 64 42 65 39 66
REMARK SMILES IDX 41 67 40 68 59 69 60 70 64 71 61 72 63 73 62 74 49 75 50 76
REMARK SMILES IDX 54 77 51 78 53 79 52 80
REMARK H PARENT 8 15 11 17 69 48 47 59
REMARK Flexibility Score: inf
ROOT
ATOM      1  O   UNL A   1      37.908  21.533  25.097  1.00  0.00    -0.374 OA
ENDROOT
BRANCH   1   2
ATOM      2  C   UNL A   1      36.784  22.190  25.674  1.00  0.00     0.202 C 
BRANCH   2   3
ATOM      3  C   UNL A   1      35.428  21.502  25.497  1.00  0.00     0.261 C 
BRANCH   3   4
ATOM      4  O   UNL A   1      34.323  22.421  25.565  1.00  0.00    -0.463 OA
BRANCH   4   5
ATOM      5  C   UNL A   1      33.494  22.425  24.489  1.00  0.00     0.313 C 
ATOM      6  O   UNL A   1      33.376  21.499  23.696  1.00  0.00    -0.252 OA
BRANCH   5   7
ATOM      7  C   UNL A   1      32.759  23.728  24.294  1.00  0.00     0.150 C 
ATOM      8  C   UNL A   1      31.819  23.867  23.116  1.00  0.00     0.126 C 
ATOM      9  C   UNL A   1      30.561  24.540  23.650  1.00  0.00     0.186 C 
ATOM     10  O   UNL A   1      30.675  24.620  25.072  1.00  0.00    -0.378 OA
ATOM     11  C   UNL A   1      31.845  23.909  25.492  1.00  0.00     0.177 C 
BRANCH   8  12
ATOM     12  N   UNL A   1      32.321  24.462  21.872  1.00  0.00    -0.332 N 
ATOM     13  N   UNL A   1      32.801  26.826  21.735  1.00  0.00    -0.308 N 
ATOM     14  C   UNL A   1      32.696  25.584  21.280  1.00  0.00     0.319 C 
ATOM     15  H   UNL A   1      33.298  27.366  21.079  1.00  0.00     0.171 HD
ATOM     16  O   UNL A   1      33.080  25.420  20.110  1.00  0.00    -0.248 OA
ATOM     17  H   UNL A   1      32.420  23.736  21.215  1.00  0.00     0.165 HD
BRANCH  13  18
ATOM     18  C   UNL A   1      32.455  27.639  22.822  1.00  0.00     0.046 A 
ATOM     19  C   UNL A   1      34.002  28.317  26.269  1.00  0.00     0.044 C 
ATOM     20  C   UNL A   1      33.066  28.352  25.097  1.00  0.00    -0.046 A 
ATOM     21  C   UNL A   1      31.912  29.129  25.154  1.00  0.00     0.042 A 
ATOM     22  C   UNL A   1      33.316  27.597  23.937  1.00  0.00     0.029 A 
ATOM     23  C   UNL A   1      31.093  29.209  24.037  1.00  0.00     0.125 A 
ATOM     24  F   UNL A   1      30.000  29.983  24.079  1.00  0.00    -0.207 F 
ATOM     25  C   UNL A   1      31.386  28.510  22.869  1.00  0.00     0.065 A 
ENDBRANCH  13  18
ENDBRANCH   8  12
ENDBRANCH   5   7
ENDBRANCH   4   5
ENDBRANCH   3   4
ENDBRANCH   2   3
ENDBRANCH   1   2
BRANCH   1  26
ATOM     26  C   UNL A   1      37.799  20.135  24.814  1.00  0.00     0.202 C 
BRANCH  26  27
ATOM     27  C   UNL A   1      38.954  19.249  25.297  1.00  0.00     0.261 C 
BRANCH  27  28
ATOM     28  O   UNL A   1      39.733  19.909  26.320  1.00  0.00    -0.460 OA
BRANCH  28  29
ATOM     29  C   UNL A   1      41.075  19.781  26.167  1.00  0.00     0.338 C 
ATOM     30  O   UNL A   1      41.674  18.877  25.611  1.00  0.00    -0.246 OA
BRANCH  29  31
ATOM     31  C   UNL A   1      41.765  20.998  26.630  1.00  0.00     0.060 A 
ATOM     32  C   UNL A   1      41.857  21.212  28.011  1.00  0.00     0.016 A 
ATOM     33  C   UNL A   1      42.160  21.988  25.729  1.00  0.00     0.016 A 
ATOM     34  C   UNL A   1      42.302  22.440  28.498  1.00  0.00     0.010 A 
ATOM     35  C   UNL A   1      42.601  23.223  26.222  1.00  0.00     0.010 A 
ATOM     36  C   UNL A   1      42.636  23.469  27.607  1.00  0.00    -0.014 A 
BRANCH  36  37
ATOM     37  C   UNL A   1      42.869  24.839  28.130  1.00  0.00     0.031 A 
ATOM     38  C   UNL A   1      44.271  25.266  28.481  1.00  0.00     0.074 A 
ATOM     39  C   UNL A   1      41.857  25.716  28.248  1.00  0.00     0.049 A 
ATOM     40  N   UNL A   1      44.697  26.418  28.936  1.00  0.00    -0.248 NA
ATOM     41  C   UNL A   1      45.331  24.264  28.289  1.00  0.00     0.031 C 
ATOM     42  C   UNL A   1      40.462  25.450  27.899  1.00  0.00     0.029 A 
ATOM     43  N   UNL A   1      41.852  27.014  28.693  1.00  0.00    -0.354 N 
ATOM     44  C   UNL A   1      46.071  26.279  29.087  1.00  0.00     0.074 A 
ATOM     45  C   UNL A   1      46.405  24.924  28.699  1.00  0.00     0.031 C 
ATOM     46  C   UNL A   1      39.735  26.553  28.144  1.00  0.00     0.029 A 
ATOM     47  C   UNL A   1      40.606  27.591  28.692  1.00  0.00     0.049 A 
ATOM     48  H   UNL A   1      42.664  27.486  28.986  1.00  0.00     0.167 HD
ATOM     49  C   UNL A   1      46.978  27.194  29.504  1.00  0.00     0.031 A 
ATOM     50  C   UNL A   1      40.211  28.813  29.099  1.00  0.00     0.031 A 
ATOM     51  C   UNL A   1      46.656  28.539  29.901  1.00  0.00     0.049 A 
ATOM     52  C   UNL A   1      41.226  29.785  29.637  1.00  0.00     0.074 A 
ATOM     53  C   UNL A   1      47.513  29.542  30.320  1.00  0.00     0.029 A 
ATOM     54  N   UNL A   1      45.375  29.064  29.937  1.00  0.00    -0.354 N 
ATOM     55  N   UNL A   1      42.525  29.649  29.746  1.00  0.00    -0.248 NA
ATOM     56  C   UNL A   1      40.717  31.083  30.104  1.00  0.00     0.031 C 
ATOM     57  C   UNL A   1      46.744  30.661  30.657  1.00  0.00     0.029 A 
ATOM     58  C   UNL A   1      45.414  30.369  30.399  1.00  0.00     0.049 A 
ATOM     59  H   UNL A   1      44.559  28.583  29.672  1.00  0.00     0.167 HD
ATOM     60  C   UNL A   1      42.989  30.850  30.268  1.00  0.00     0.074 A 
ATOM     61  C   UNL A   1      41.836  31.707  30.444  1.00  0.00     0.031 C 
ATOM     62  C   UNL A   1      44.260  31.212  30.571  1.00  0.00     0.031 A 
BRANCH  49  63
ATOM     63  C   UNL A   1      48.412  26.758  29.586  1.00  0.00    -0.014 A 
ATOM     64  C   UNL A   1      49.299  26.968  28.519  1.00  0.00     0.009 A 
ATOM     65  C   UNL A   1      48.892  26.161  30.763  1.00  0.00     0.009 A 
ATOM     66  C   UNL A   1      50.632  26.561  28.619  1.00  0.00     0.001 A 
ATOM     67  C   UNL A   1      50.229  25.777  30.868  1.00  0.00     0.001 A 
ATOM     68  C   UNL A   1      51.096  25.971  29.794  1.00  0.00     0.000 A 
ENDBRANCH  49  63
BRANCH  50  69
ATOM     69  C   UNL A   1      38.775  29.189  29.034  1.00  0.00    -0.014 A 
ATOM     70  C   UNL A   1      38.238  29.766  27.873  1.00  0.00     0.009 A 
ATOM     71  C   UNL A   1      37.941  28.997  30.146  1.00  0.00     0.009 A 
ATOM     72  C   UNL A   1      36.899  30.162  27.837  1.00  0.00     0.001 A 
ATOM     73  C   UNL A   1      36.597  29.371  30.098  1.00  0.00     0.001 A 
ATOM     74  C   UNL A   1      36.079  29.961  28.946  1.00  0.00     0.000 A 
ENDBRANCH  50  69
BRANCH  62  75
ATOM     75  C   UNL A   1      44.476  32.602  31.096  1.00  0.00    -0.014 A 
ATOM     76  C   UNL A   1      44.473  32.869  32.473  1.00  0.00     0.009 A 
ATOM     77  C   UNL A   1      44.723  33.653  30.198  1.00  0.00     0.009 A 
ATOM     78  C   UNL A   1      44.687  34.168  32.940  1.00  0.00     0.001 A 
ATOM     79  C   UNL A   1      44.961  34.946  30.669  1.00  0.00     0.001 A 
ATOM     80  C   UNL A   1      44.935  35.204  32.039  1.00  0.00     0.000 A 
ENDBRANCH  62  75
ENDBRANCH  36  37
ENDBRANCH  29  31
ENDBRANCH  28  29
ENDBRANCH  27  28
ENDBRANCH  26  27
ENDBRANCH   1  26
TORSDOF 16
ENDMDL
MODEL 3
REMARK VINA RESULT:     -10.9      2.368      6.026
REMARK SMILES Cc1cc(F)cc(NC(=O)N[C@@H]2COC[C@H]2C(=O)OCCOCCOC(=O)c2ccc(-c3c4nc(c(-c5ccccc5)c5ccc([nH]5)c(-c5ccccc5)c5nc(c(-c6ccccc6)c6ccc3[nH]6)C=C5)C=C4)cc2)c1
REMARK SMILES IDX 22 1 21 2 20 3 19 4 17 5 18 6 16 7 12 8 13 9 14 10 15 11
REMARK SMILES IDX 11 12 8 13 9 14 10 16 7 18 1 19 2 20 3 21 76 22 4 23 5 24
REMARK SMILES IDX 6 25 23 26 24 27 25 28 26 29 27 30 28 31 29 32 75 33 30 34
REMARK SMILES IDX 74 35 31 36 32 37 33 38 68 39 34 40 73 41 67 42 69 43 35 44
REMARK SMILES IDX 72 45 66 46 65 47 36 49 58 50 43 51 57 52 44 53 47 54 56 55
REMARK SMILES IDX 70 56 45 57 46 58 55 60 71 61 48 62 37 63 38 64 42 65 39 66
REMARK SMILES IDX 41 67 40 68 59 69 60 70 64 71 61 72 63 73 62 74 49 75 50 76
REMARK SMILES IDX 54 77 51 78 53 79 52 80
REMARK H PARENT 8 15 11 17 69 48 47 59
REMARK Flexibility Score: inf
ROOT
ATOM      1  O   UNL A   1      34.996  19.639  24.778  1.00  0.00    -0.374 OA
ENDROOT
BRANCH   1   2
ATOM      2  C   UNL A   1      34.192  18.480  24.591  1.00  0.00     0.202 C 
BRANCH   2   3
ATOM      3  C   UNL A   1      32.866  18.683  23.853  1.00  0.00     0.261 C 
BRANCH   3   4
ATOM      4  O   UNL A   1      32.112  19.799  24.357  1.00  0.00    -0.463 OA
BRANCH   4   5
ATOM      5  C   UNL A   1      32.072  20.893  23.553  1.00  0.00     0.313 C 
ATOM      6  O   UNL A   1      31.954  20.859  22.334  1.00  0.00    -0.252 OA
BRANCH   5   7
ATOM      7  C   UNL A   1      32.266  22.196  24.289  1.00  0.00     0.150 C 
ATOM      8  C   UNL A   1      32.375  22.172  25.798  1.00  0.00     0.126 C 
ATOM      9  C   UNL A   1      33.529  23.099  26.158  1.00  0.00     0.186 C 
ATOM     10  O   UNL A   1      34.173  23.491  24.945  1.00  0.00    -0.378 OA
ATOM     11  C   UNL A   1      33.607  22.760  23.852  1.00  0.00     0.177 C 
BRANCH   8  12
ATOM     12  N   UNL A   1      31.167  22.397  26.602  1.00  0.00    -0.332 N 
ATOM     13  N   UNL A   1      29.980  24.498  26.491  1.00  0.00    -0.308 N 
ATOM     14  C   UNL A   1      30.223  23.267  26.922  1.00  0.00     0.319 C 
ATOM     15  H   UNL A   1      29.085  24.772  26.796  1.00  0.00     0.171 HD
ATOM     16  O   UNL A   1      29.383  22.813  27.716  1.00  0.00    -0.248 OA
ATOM     17  H   UNL A   1      30.986  21.570  27.102  1.00  0.00     0.165 HD
BRANCH  13  18
ATOM     18  C   UNL A   1      30.548  25.545  25.755  1.00  0.00     0.046 A 
ATOM     19  C   UNL A   1      31.491  26.032  22.065  1.00  0.00     0.044 C 
ATOM     20  C   UNL A   1      31.316  26.280  23.534  1.00  0.00    -0.046 A 
ATOM     21  C   UNL A   1      31.750  27.480  24.092  1.00  0.00     0.042 A 
ATOM     22  C   UNL A   1      30.737  25.314  24.376  1.00  0.00     0.029 A 
ATOM     23  C   UNL A   1      31.517  27.727  25.436  1.00  0.00     0.125 A 
ATOM     24  F   UNL A   1      31.903  28.895  25.966  1.00  0.00    -0.207 F 
ATOM     25  C   UNL A   1      30.881  26.790  26.248  1.00  0.00     0.065 A 
ENDBRANCH  13  18
ENDBRANCH   8  12
ENDBRANCH   5   7
ENDBRANCH   4   5
ENDBRANCH   3   4
ENDBRANCH   2   3
ENDBRANCH   1   2
BRANCH   1  26
ATOM     26  C   UNL A   1      36.414  19.471  24.852  1.00  0.00     0.202 C 
BRANCH  26  27
ATOM     27  C   UNL A   1      37.266  20.700  24.510  1.00  0.00     0.261 C 
BRANCH  27  28
ATOM     28  O   UNL A   1      37.621  21.444  25.698  1.00  0.00    -0.460 OA
BRANCH  28  29
ATOM     29  C   UNL A   1      38.918  21.315  26.070  1.00  0.00     0.338 C 
ATOM     30  O   UNL A   1      39.665  20.380  25.836  1.00  0.00    -0.246 OA
BRANCH  29  31
ATOM     31  C   UNL A   1      39.406  22.562  26.683  1.00  0.00     0.060 A 
ATOM     32  C   UNL A   1      38.870  23.770  26.223  1.00  0.00     0.016 A 
ATOM     33  C   UNL A   1      40.487  22.555  27.567  1.00  0.00     0.016 A 
ATOM     34  C   UNL A   1      39.445  24.981  26.608  1.00  0.00     0.010 A 
ATOM     35  C   UNL A   1      41.066  23.772  27.948  1.00  0.00     0.010 A 
ATOM     36  C   UNL A   1      40.573  24.988  27.439  1.00  0.00    -0.014 A 
BRANCH  36  37
ATOM     37  C   UNL A   1      41.320  26.255  27.642  1.00  0.00     0.031 A 
ATOM     38  C   UNL A   1      40.728  27.328  28.519  1.00  0.00     0.074 A 
ATOM     39  C   UNL A   1      42.536  26.437  27.096  1.00  0.00     0.049 A 
ATOM     40  N   UNL A   1      41.219  28.499  28.841  1.00  0.00    -0.248 NA
ATOM     41  C   UNL A   1      39.413  27.041  29.112  1.00  0.00     0.031 C 
ATOM     42  C   UNL A   1      43.245  25.463  26.269  1.00  0.00     0.029 A 
ATOM     43  N   UNL A   1      43.389  27.509  27.163  1.00  0.00    -0.354 N 
ATOM     44  C   UNL A   1      40.273  29.088  29.672  1.00  0.00     0.074 A 
ATOM     45  C   UNL A   1      39.169  28.158  29.783  1.00  0.00     0.031 C 
ATOM     46  C   UNL A   1      44.430  25.984  25.904  1.00  0.00     0.029 A 
ATOM     47  C   UNL A   1      44.548  27.335  26.447  1.00  0.00     0.049 A 
ATOM     48  H   UNL A   1      43.190  28.326  27.675  1.00  0.00     0.167 HD
ATOM     49  C   UNL A   1      40.317  30.292  30.292  1.00  0.00     0.031 A 
ATOM     50  C   UNL A   1      45.581  28.175  26.243  1.00  0.00     0.031 A 
ATOM     51  C   UNL A   1      41.404  31.227  30.180  1.00  0.00     0.049 A 
ATOM     52  C   UNL A   1      45.570  29.540  26.877  1.00  0.00     0.074 A 
ATOM     53  C   UNL A   1      41.544  32.463  30.788  1.00  0.00     0.029 A 
ATOM     54  N   UNL A   1      42.533  31.034  29.401  1.00  0.00    -0.354 N 
ATOM     55  N   UNL A   1      44.683  30.071  27.682  1.00  0.00    -0.248 NA
ATOM     56  C   UNL A   1      46.709  30.420  26.574  1.00  0.00     0.031 C 
ATOM     57  C   UNL A   1      42.737  33.039  30.338  1.00  0.00     0.029 A 
ATOM     58  C   UNL A   1      43.361  32.140  29.489  1.00  0.00     0.049 A 
ATOM     59  H   UNL A   1      42.720  30.230  28.865  1.00  0.00     0.167 HD
ATOM     60  C   UNL A   1      45.168  31.333  28.002  1.00  0.00     0.074 A 
ATOM     61  C   UNL A   1      46.433  31.485  27.313  1.00  0.00     0.031 C 
ATOM     62  C   UNL A   1      44.616  32.281  28.799  1.00  0.00     0.031 A 
BRANCH  49  63
ATOM     63  C   UNL A   1      39.132  30.682  31.126  1.00  0.00    -0.014 A 
ATOM     64  C   UNL A   1      39.127  30.493  32.517  1.00  0.00     0.009 A 
ATOM     65  C   UNL A   1      38.019  31.283  30.516  1.00  0.00     0.009 A 
ATOM     66  C   UNL A   1      38.017  30.871  33.276  1.00  0.00     0.001 A 
ATOM     67  C   UNL A   1      36.922  31.681  31.281  1.00  0.00     0.001 A 
ATOM     68  C   UNL A   1      36.918  31.468  32.659  1.00  0.00     0.000 A 
ENDBRANCH  49  63
BRANCH  50  69
ATOM     69  C   UNL A   1      46.717  27.760  25.380  1.00  0.00    -0.014 A 
ATOM     70  C   UNL A   1      47.836  27.118  25.929  1.00  0.00     0.009 A 
ATOM     71  C   UNL A   1      46.695  28.030  24.003  1.00  0.00     0.009 A 
ATOM     72  C   UNL A   1      48.921  26.775  25.119  1.00  0.00     0.001 A 
ATOM     73  C   UNL A   1      47.771  27.663  23.191  1.00  0.00     0.001 A 
ATOM     74  C   UNL A   1      48.886  27.043  23.751  1.00  0.00     0.000 A 
ENDBRANCH  50  69
BRANCH  62  75
ATOM     75  C   UNL A   1      45.389  33.553  28.994  1.00  0.00    -0.014 A 
ATOM     76  C   UNL A   1      45.182  34.665  28.163  1.00  0.00     0.009 A 
ATOM     77  C   UNL A   1      46.308  33.653  30.050  1.00  0.00     0.009 A 
ATOM     78  C   UNL A   1      45.904  35.843  28.370  1.00  0.00     0.001 A 
ATOM     79  C   UNL A   1      47.009  34.840  30.269  1.00  0.00     0.001 A 
ATOM     80  C   UNL A   1      46.813  35.932  29.424  1.00  0.00     0.000 A 
ENDBRANCH  62  75
ENDBRANCH  36  37
ENDBRANCH  29  31
ENDBRANCH  28  29
ENDBRANCH  27  28
ENDBRANCH  26  27
ENDBRANCH   1  26
TORSDOF 16
ENDMDL
