MODEL 1
REMARK VINA RESULT:     -10.3      0.000      0.000
REMARK SMILES CCc1ccsc1-c1nnnn1C[C@H](CC(C)C)C(=O)OCCOCCOC(=O)c1ccc(-c2c3nc(c(-c4ccccc4)c4ccc([nH]4)c(-c4ccccc4)c4nc(c(-c5ccccc5)c5ccc2[nH]5)C=C4)C=C3)cc1
REMARK SMILES IDX 23 1 22 2 21 3 19 4 20 5 14 6 13 7 12 8 8 9 9 10 10 11 11 12
REMARK SMILES IDX 7 13 3 14 4 15 5 16 6 17 2 18 1 19 15 20 16 21 17 22 18 23
REMARK SMILES IDX 24 24 25 25 26 26 27 27 28 28 29 29 30 30 31 31 77 32 32 33
REMARK SMILES IDX 76 34 33 35 34 36 35 37 70 38 36 39 75 40 69 41 71 42 37 43
REMARK SMILES IDX 74 44 68 45 67 46 38 48 60 49 45 50 59 51 46 52 49 53 58 54
REMARK SMILES IDX 72 55 47 56 48 57 57 59 73 60 50 61 39 62 40 63 44 64 41 65
REMARK SMILES IDX 43 66 42 67 61 68 62 69 66 70 63 71 65 72 64 73 51 74 52 75
REMARK SMILES IDX 56 76 53 77 55 78 54 79
REMARK H PARENT 71 47 49 58
REMARK Flexibility Score: inf
ROOT
ATOM      1  C   UNL A   1      37.562  22.551  25.546  1.00  0.00     0.202 C 
ENDROOT
BRANCH   1   2
ATOM      2  C   UNL A   1      36.344  23.469  25.518  1.00  0.00     0.261 C 
BRANCH   2   3
ATOM      3  O   UNL A   1      35.516  23.313  26.682  1.00  0.00    -0.463 OA
BRANCH   3   4
ATOM      4  C   UNL A   1      34.354  22.650  26.481  1.00  0.00     0.310 C 
ATOM      5  O   UNL A   1      34.082  21.540  26.927  1.00  0.00    -0.252 OA
BRANCH   4   6
ATOM      6  C   UNL A   1      33.430  23.347  25.509  1.00  0.00     0.121 C 
BRANCH   6   7
ATOM      7  C   UNL A   1      32.799  24.482  26.311  1.00  0.00     0.164 C 
BRANCH   7   8
ATOM      8  N   UNL A   1      31.381  24.416  26.555  1.00  0.00    -0.224 N 
ATOM      9  C   UNL A   1      30.409  25.268  26.109  1.00  0.00     0.192 A 
ATOM     10  N   UNL A   1      29.269  24.884  26.645  1.00  0.00    -0.108 NA
ATOM     11  N   UNL A   1      29.549  23.741  27.363  1.00  0.00    -0.023 NA
ATOM     12  N   UNL A   1      30.837  23.432  27.286  1.00  0.00    -0.045 NA
BRANCH   9  13
ATOM     13  C   UNL A   1      30.633  26.393  25.252  1.00  0.00     0.077 A 
ATOM     14  C   UNL A   1      31.313  27.582  25.519  1.00  0.00    -0.026 A 
ATOM     15  C   UNL A   1      31.100  28.523  24.447  1.00  0.00     0.016 A 
ATOM     16  C   UNL A   1      30.345  28.014  23.418  1.00  0.00     0.066 A 
ATOM     17  S   UNL A   1      29.905  26.394  23.698  1.00  0.00    -0.140 S 
BRANCH  14  18
ATOM     18  C   UNL A   1      32.090  27.982  26.758  1.00  0.00     0.034 C 
ATOM     19  C   UNL A   1      31.872  29.393  27.277  1.00  0.00     0.009 C 
ENDBRANCH  14  18
ENDBRANCH   9  13
ENDBRANCH   7   8
ENDBRANCH   6   7
BRANCH   6  20
ATOM     20  C   UNL A   1      32.482  22.476  24.667  1.00  0.00     0.020 C 
BRANCH  20  21
ATOM     21  C   UNL A   1      33.047  22.002  23.307  1.00  0.00    -0.017 C 
ATOM     22  C   UNL A   1      31.989  21.467  22.330  1.00  0.00     0.007 C 
ATOM     23  C   UNL A   1      33.825  23.126  22.621  1.00  0.00     0.007 C 
ENDBRANCH  20  21
ENDBRANCH   6  20
ENDBRANCH   4   6
ENDBRANCH   3   4
ENDBRANCH   2   3
ENDBRANCH   1   2
BRANCH   1  24
ATOM     24  O   UNL A   1      37.357  21.151  25.367  1.00  0.00    -0.374 OA
BRANCH  24  25
ATOM     25  C   UNL A   1      38.466  20.269  25.275  1.00  0.00     0.202 C 
BRANCH  25  26
ATOM     26  C   UNL A   1      39.821  20.738  25.782  1.00  0.00     0.261 C 
BRANCH  26  27
ATOM     27  O   UNL A   1      40.695  19.678  26.149  1.00  0.00    -0.460 OA
BRANCH  27  28
ATOM     28  C   UNL A   1      41.974  19.900  25.764  1.00  0.00     0.338 C 
ATOM     29  O   UNL A   1      42.660  19.190  25.051  1.00  0.00    -0.246 OA
BRANCH  28  30
ATOM     30  C   UNL A   1      42.525  21.013  26.541  1.00  0.00     0.060 A 
ATOM     31  C   UNL A   1      42.255  20.992  27.911  1.00  0.00     0.016 A 
ATOM     32  C   UNL A   1      42.985  22.167  25.890  1.00  0.00     0.016 A 
ATOM     33  C   UNL A   1      42.257  22.186  28.595  1.00  0.00     0.010 A 
ATOM     34  C   UNL A   1      42.971  23.362  26.572  1.00  0.00     0.010 A 
ATOM     35  C   UNL A   1      42.539  23.365  27.895  1.00  0.00    -0.014 A 
BRANCH  35  36
ATOM     36  C   UNL A   1      42.542  24.599  28.648  1.00  0.00     0.031 A 
ATOM     37  C   UNL A   1      41.448  25.494  28.226  1.00  0.00     0.074 A 
ATOM     38  C   UNL A   1      43.390  24.861  29.658  1.00  0.00     0.049 A 
ATOM     39  N   UNL A   1      41.560  26.571  27.527  1.00  0.00    -0.248 NA
ATOM     40  C   UNL A   1      40.064  25.031  28.417  1.00  0.00     0.031 C 
ATOM     41  C   UNL A   1      44.327  23.944  30.306  1.00  0.00     0.029 A 
ATOM     42  N   UNL A   1      43.507  25.999  30.396  1.00  0.00    -0.354 N 
ATOM     43  C   UNL A   1      40.265  27.054  27.398  1.00  0.00     0.074 A 
ATOM     44  C   UNL A   1      39.389  25.966  27.749  1.00  0.00     0.031 C 
ATOM     45  C   UNL A   1      44.733  24.484  31.479  1.00  0.00     0.029 A 
ATOM     46  C   UNL A   1      44.187  25.827  31.595  1.00  0.00     0.049 A 
ATOM     47  H   UNL A   1      43.143  26.867  30.107  1.00  0.00     0.167 HD
ATOM     48  C   UNL A   1      40.038  28.393  27.369  1.00  0.00     0.031 A 
ATOM     49  C   UNL A   1      44.228  26.705  32.630  1.00  0.00     0.031 A 
ATOM     50  C   UNL A   1      41.241  29.127  27.053  1.00  0.00     0.049 A 
ATOM     51  C   UNL A   1      43.860  28.038  32.102  1.00  0.00     0.074 A 
ATOM     52  C   UNL A   1      42.146  29.128  26.010  1.00  0.00     0.029 A 
ATOM     53  N   UNL A   1      41.868  29.749  28.105  1.00  0.00    -0.354 N 
ATOM     54  N   UNL A   1      44.621  28.730  31.305  1.00  0.00    -0.248 NA
ATOM     55  C   UNL A   1      42.462  28.437  32.128  1.00  0.00     0.031 C 
ATOM     56  C   UNL A   1      43.414  29.378  26.614  1.00  0.00     0.029 A 
ATOM     57  C   UNL A   1      43.218  29.583  27.980  1.00  0.00     0.049 A 
ATOM     58  H   UNL A   1      41.416  30.236  28.833  1.00  0.00     0.167 HD
ATOM     59  C   UNL A   1      43.741  29.303  30.399  1.00  0.00     0.074 A 
ATOM     60  C   UNL A   1      42.430  29.205  31.037  1.00  0.00     0.031 C 
ATOM     61  C   UNL A   1      44.123  29.526  29.107  1.00  0.00     0.031 A 
BRANCH  48  62
ATOM     62  C   UNL A   1      38.908  29.025  28.156  1.00  0.00    -0.014 A 
ATOM     63  C   UNL A   1      38.815  28.734  29.528  1.00  0.00     0.009 A 
ATOM     64  C   UNL A   1      37.772  29.608  27.558  1.00  0.00     0.009 A 
ATOM     65  C   UNL A   1      37.616  28.913  30.228  1.00  0.00     0.001 A 
ATOM     66  C   UNL A   1      36.590  29.830  28.264  1.00  0.00     0.001 A 
ATOM     67  C   UNL A   1      36.501  29.449  29.593  1.00  0.00     0.000 A 
ENDBRANCH  48  62
BRANCH  49  68
ATOM     68  C   UNL A   1      44.290  26.442  34.085  1.00  0.00    -0.014 A 
ATOM     69  C   UNL A   1      43.112  26.202  34.814  1.00  0.00     0.009 A 
ATOM     70  C   UNL A   1      45.514  26.134  34.705  1.00  0.00     0.009 A 
ATOM     71  C   UNL A   1      43.156  25.622  36.088  1.00  0.00     0.001 A 
ATOM     72  C   UNL A   1      45.558  25.563  35.980  1.00  0.00     0.001 A 
ATOM     73  C   UNL A   1      44.378  25.287  36.664  1.00  0.00     0.000 A 
ENDBRANCH  49  68
BRANCH  61  74
ATOM     74  C   UNL A   1      45.598  29.487  28.791  1.00  0.00    -0.014 A 
ATOM     75  C   UNL A   1      46.290  28.321  28.420  1.00  0.00     0.009 A 
ATOM     76  C   UNL A   1      46.289  30.707  28.767  1.00  0.00     0.009 A 
ATOM     77  C   UNL A   1      47.647  28.375  28.078  1.00  0.00     0.001 A 
ATOM     78  C   UNL A   1      47.635  30.764  28.401  1.00  0.00     0.001 A 
ATOM     79  C   UNL A   1      48.316  29.597  28.067  1.00  0.00     0.000 A 
ENDBRANCH  61  74
ENDBRANCH  35  36
ENDBRANCH  28  30
ENDBRANCH  27  28
ENDBRANCH  26  27
ENDBRANCH  25  26
ENDBRANCH  24  25
ENDBRANCH   1  24
TORSDOF 20
ENDMDL
MODEL 2
REMARK VINA RESULT:     -10.2      2.844      7.527
REMARK SMILES CCc1ccsc1-c1nnnn1C[C@H](CC(C)C)C(=O)OCCOCCOC(=O)c1ccc(-c2c3nc(c(-c4ccccc4)c4ccc([nH]4)c(-c4ccccc4)c4nc(c(-c5ccccc5)c5ccc2[nH]5)C=C4)C=C3)cc1
REMARK SMILES IDX 23 1 22 2 21 3 19 4 20 5 14 6 13 7 12 8 8 9 9 10 10 11 11 12
REMARK SMILES IDX 7 13 3 14 4 15 5 16 6 17 2 18 1 19 15 20 16 21 17 22 18 23
REMARK SMILES IDX 24 24 25 25 26 26 27 27 28 28 29 29 30 30 31 31 77 32 32 33
REMARK SMILES IDX 76 34 33 35 34 36 35 37 70 38 36 39 75 40 69 41 71 42 37 43
REMARK SMILES IDX 74 44 68 45 67 46 38 48 60 49 45 50 59 51 46 52 49 53 58 54
REMARK SMILES IDX 72 55 47 56 48 57 57 59 73 60 50 61 39 62 40 63 44 64 41 65
REMARK SMILES IDX 43 66 42 67 61 68 62 69 66 70 63 71 65 72 64 73 51 74 52 75
REMARK SMILES IDX 56 76 53 77 55 78 54 79
REMARK H PARENT 71 47 49 58
REMARK Flexibility Score: inf
ROOT
ATOM      1  C   UNL A   1      34.043  29.009  27.536  1.00  0.00     0.202 C 
ENDROOT
BRANCH   1   2
ATOM      2  C   UNL A   1      33.066  27.934  27.072  1.00  0.00     0.261 C 
BRANCH   2   3
ATOM      3  O   UNL A   1      33.628  27.084  26.059  1.00  0.00    -0.463 OA
BRANCH   3   4
ATOM      4  C   UNL A   1      32.956  25.933  25.831  1.00  0.00     0.310 C 
ATOM      5  O   UNL A   1      32.977  24.941  26.551  1.00  0.00    -0.252 OA
BRANCH   4   6
ATOM      6  C   UNL A   1      32.256  25.907  24.491  1.00  0.00     0.121 C 
BRANCH   6   7
ATOM      7  C   UNL A   1      33.367  26.096  23.463  1.00  0.00     0.164 C 
BRANCH   7   8
ATOM      8  N   UNL A   1      33.276  25.343  22.238  1.00  0.00    -0.224 N 
ATOM      9  C   UNL A   1      33.364  23.988  22.073  1.00  0.00     0.192 A 
ATOM     10  N   UNL A   1      33.317  23.742  20.780  1.00  0.00    -0.108 NA
ATOM     11  N   UNL A   1      33.123  24.960  20.165  1.00  0.00    -0.023 NA
ATOM     12  N   UNL A   1      33.065  25.942  21.057  1.00  0.00    -0.045 NA
BRANCH   9  13
ATOM     13  C   UNL A   1      33.526  23.041  23.135  1.00  0.00     0.077 A 
ATOM     14  C   UNL A   1      34.671  22.724  23.866  1.00  0.00    -0.026 A 
ATOM     15  C   UNL A   1      34.428  21.559  24.681  1.00  0.00     0.016 A 
ATOM     16  C   UNL A   1      33.141  21.087  24.588  1.00  0.00     0.066 A 
ATOM     17  S   UNL A   1      32.190  22.047  23.552  1.00  0.00    -0.140 S 
BRANCH  14  18
ATOM     18  C   UNL A   1      36.046  23.358  23.811  1.00  0.00     0.034 C 
ATOM     19  C   UNL A   1      36.702  23.688  25.142  1.00  0.00     0.009 C 
ENDBRANCH  14  18
ENDBRANCH   9  13
ENDBRANCH   7   8
ENDBRANCH   6   7
BRANCH   6  20
ATOM     20  C   UNL A   1      30.993  26.770  24.322  1.00  0.00     0.020 C 
BRANCH  20  21
ATOM     21  C   UNL A   1      31.185  28.079  23.520  1.00  0.00    -0.017 C 
ATOM     22  C   UNL A   1      30.130  28.317  22.429  1.00  0.00     0.007 C 
ATOM     23  C   UNL A   1      31.207  29.290  24.454  1.00  0.00     0.007 C 
ENDBRANCH  20  21
ENDBRANCH   6  20
ENDBRANCH   4   6
ENDBRANCH   3   4
ENDBRANCH   2   3
ENDBRANCH   1   2
BRANCH   1  24
ATOM     24  O   UNL A   1      34.025  30.270  26.870  1.00  0.00    -0.374 OA
BRANCH  24  25
ATOM     25  C   UNL A   1      33.592  31.438  27.554  1.00  0.00     0.202 C 
BRANCH  25  26
ATOM     26  C   UNL A   1      34.625  32.486  27.939  1.00  0.00     0.261 C 
BRANCH  26  27
ATOM     27  O   UNL A   1      35.963  32.005  27.928  1.00  0.00    -0.460 OA
BRANCH  27  28
ATOM     28  C   UNL A   1      36.723  32.556  28.904  1.00  0.00     0.338 C 
ATOM     29  O   UNL A   1      36.896  33.743  29.119  1.00  0.00    -0.246 OA
BRANCH  28  30
ATOM     30  C   UNL A   1      37.533  31.510  29.533  1.00  0.00     0.060 A 
ATOM     31  C   UNL A   1      38.871  31.834  29.767  1.00  0.00     0.016 A 
ATOM     32  C   UNL A   1      37.069  30.188  29.570  1.00  0.00     0.016 A 
ATOM     33  C   UNL A   1      39.787  30.810  29.843  1.00  0.00     0.010 A 
ATOM     34  C   UNL A   1      37.988  29.165  29.630  1.00  0.00     0.010 A 
ATOM     35  C   UNL A   1      39.339  29.492  29.695  1.00  0.00    -0.014 A 
BRANCH  35  36
ATOM     36  C   UNL A   1      40.328  28.441  29.791  1.00  0.00     0.031 A 
ATOM     37  C   UNL A   1      40.823  28.288  31.172  1.00  0.00     0.074 A 
ATOM     38  C   UNL A   1      40.691  27.654  28.763  1.00  0.00     0.049 A 
ATOM     39  N   UNL A   1      41.977  28.650  31.621  1.00  0.00    -0.248 NA
ATOM     40  C   UNL A   1      39.860  27.888  32.211  1.00  0.00     0.031 C 
ATOM     41  C   UNL A   1      40.076  27.565  27.438  1.00  0.00     0.029 A 
ATOM     42  N   UNL A   1      41.635  26.674  28.734  1.00  0.00    -0.354 N 
ATOM     43  C   UNL A   1      41.968  28.294  32.963  1.00  0.00     0.074 A 
ATOM     44  C   UNL A   1      40.591  28.058  33.312  1.00  0.00     0.031 C 
ATOM     45  C   UNL A   1      40.501  26.432  26.831  1.00  0.00     0.029 A 
ATOM     46  C   UNL A   1      41.506  25.795  27.667  1.00  0.00     0.049 A 
ATOM     47  H   UNL A   1      42.348  26.596  29.410  1.00  0.00     0.167 HD
ATOM     48  C   UNL A   1      43.113  27.873  33.562  1.00  0.00     0.031 A 
ATOM     49  C   UNL A   1      42.131  24.598  27.530  1.00  0.00     0.031 A 
ATOM     50  C   UNL A   1      44.280  28.264  32.806  1.00  0.00     0.049 A 
ATOM     51  C   UNL A   1      43.311  24.604  28.425  1.00  0.00     0.074 A 
ATOM     52  C   UNL A   1      44.803  29.459  32.354  1.00  0.00     0.029 A 
ATOM     53  N   UNL A   1      44.882  27.276  32.065  1.00  0.00    -0.354 N 
ATOM     54  N   UNL A   1      44.367  25.334  28.216  1.00  0.00    -0.248 NA
ATOM     55  C   UNL A   1      43.160  24.102  29.781  1.00  0.00     0.031 C 
ATOM     56  C   UNL A   1      45.383  29.158  31.085  1.00  0.00     0.029 A 
ATOM     57  C   UNL A   1      45.247  27.788  30.853  1.00  0.00     0.049 A 
ATOM     58  H   UNL A   1      45.027  26.348  32.362  1.00  0.00     0.167 HD
ATOM     59  C   UNL A   1      44.736  25.775  29.478  1.00  0.00     0.074 A 
ATOM     60  C   UNL A   1      44.050  24.877  30.405  1.00  0.00     0.031 C 
ATOM     61  C   UNL A   1      45.317  27.001  29.642  1.00  0.00     0.031 A 
BRANCH  48  62
ATOM     62  C   UNL A   1      43.132  26.673  34.486  1.00  0.00    -0.014 A 
ATOM     63  C   UNL A   1      43.066  26.905  35.871  1.00  0.00     0.009 A 
ATOM     64  C   UNL A   1      43.536  25.384  34.082  1.00  0.00     0.009 A 
ATOM     65  C   UNL A   1      43.489  25.937  36.790  1.00  0.00     0.001 A 
ATOM     66  C   UNL A   1      43.915  24.402  34.997  1.00  0.00     0.001 A 
ATOM     67  C   UNL A   1      43.925  24.691  36.352  1.00  0.00     0.000 A 
ENDBRANCH  48  62
BRANCH  49  68
ATOM     68  C   UNL A   1      41.646  23.350  26.901  1.00  0.00    -0.014 A 
ATOM     69  C   UNL A   1      42.548  22.321  26.577  1.00  0.00     0.009 A 
ATOM     70  C   UNL A   1      40.275  23.042  26.887  1.00  0.00     0.009 A 
ATOM     71  C   UNL A   1      42.097  21.022  26.308  1.00  0.00     0.001 A 
ATOM     72  C   UNL A   1      39.824  21.747  26.610  1.00  0.00     0.001 A 
ATOM     73  C   UNL A   1      40.737  20.732  26.342  1.00  0.00     0.000 A 
ENDBRANCH  49  68
BRANCH  61  74
ATOM     74  C   UNL A   1      45.878  27.685  28.420  1.00  0.00    -0.014 A 
ATOM     75  C   UNL A   1      47.161  27.437  27.902  1.00  0.00     0.009 A 
ATOM     76  C   UNL A   1      45.025  28.538  27.704  1.00  0.00     0.009 A 
ATOM     77  C   UNL A   1      47.589  28.062  26.724  1.00  0.00     0.001 A 
ATOM     78  C   UNL A   1      45.443  29.140  26.516  1.00  0.00     0.001 A 
ATOM     79  C   UNL A   1      46.727  28.911  26.032  1.00  0.00     0.000 A 
ENDBRANCH  61  74
ENDBRANCH  35  36
ENDBRANCH  28  30
ENDBRANCH  27  28
ENDBRANCH  26  27
ENDBRANCH  25  26
ENDBRANCH  24  25
ENDBRANCH   1  24
TORSDOF 20
ENDMDL
MODEL 3
REMARK VINA RESULT:     -10.0      3.059      6.847
REMARK SMILES CCc1ccsc1-c1nnnn1C[C@H](CC(C)C)C(=O)OCCOCCOC(=O)c1ccc(-c2c3nc(c(-c4ccccc4)c4ccc([nH]4)c(-c4ccccc4)c4nc(c(-c5ccccc5)c5ccc2[nH]5)C=C4)C=C3)cc1
REMARK SMILES IDX 23 1 22 2 21 3 19 4 20 5 14 6 13 7 12 8 8 9 9 10 10 11 11 12
REMARK SMILES IDX 7 13 3 14 4 15 5 16 6 17 2 18 1 19 15 20 16 21 17 22 18 23
REMARK SMILES IDX 24 24 25 25 26 26 27 27 28 28 29 29 30 30 31 31 77 32 32 33
REMARK SMILES IDX 76 34 33 35 34 36 35 37 70 38 36 39 75 40 69 41 71 42 37 43
REMARK SMILES IDX 74 44 68 45 67 46 38 48 60 49 45 50 59 51 46 52 49 53 58 54
REMARK SMILES IDX 72 55 47 56 48 57 57 59 73 60 50 61 39 62 40 63 44 64 41 65
REMARK SMILES IDX 43 66 42 67 61 68 62 69 66 70 63 71 65 72 64 73 51 74 52 75
REMARK SMILES IDX 56 76 53 77 55 78 54 79
REMARK H PARENT 71 47 49 58
REMARK Flexibility Score: inf
ROOT
ATOM      1  C   UNL A   1      37.545  21.525  24.990  1.00  0.00     0.202 C 
ENDROOT
BRANCH   1   2
ATOM      2  C   UNL A   1      36.563  22.439  24.263  1.00  0.00     0.261 C 
BRANCH   2   3
ATOM      3  O   UNL A   1      36.093  23.510  25.097  1.00  0.00    -0.463 OA
BRANCH   3   4
ATOM      4  C   UNL A   1      34.912  23.286  25.716  1.00  0.00     0.310 C 
ATOM      5  O   UNL A   1      34.711  22.441  26.582  1.00  0.00    -0.252 OA
BRANCH   4   6
ATOM      6  C   UNL A   1      33.773  24.094  25.137  1.00  0.00     0.121 C 
BRANCH   6   7
ATOM      7  C   UNL A   1      33.127  24.779  26.338  1.00  0.00     0.164 C 
BRANCH   7   8
ATOM      8  N   UNL A   1      31.715  24.576  26.541  1.00  0.00    -0.224 N 
ATOM      9  C   UNL A   1      30.682  25.371  26.129  1.00  0.00     0.192 A 
ATOM     10  N   UNL A   1      29.569  24.854  26.608  1.00  0.00    -0.108 NA
ATOM     11  N   UNL A   1      29.932  23.692  27.252  1.00  0.00    -0.023 NA
ATOM     12  N   UNL A   1      31.244  23.499  27.187  1.00  0.00    -0.045 NA
BRANCH   9  13
ATOM     13  C   UNL A   1      30.824  26.569  25.358  1.00  0.00     0.077 A 
ATOM     14  C   UNL A   1      31.408  27.785  25.717  1.00  0.00    -0.026 A 
ATOM     15  C   UNL A   1      31.131  28.780  24.712  1.00  0.00     0.016 A 
ATOM     16  C   UNL A   1      30.425  28.291  23.639  1.00  0.00     0.066 A 
ATOM     17  S   UNL A   1      30.110  26.626  23.798  1.00  0.00    -0.140 S 
BRANCH  14  18
ATOM     18  C   UNL A   1      32.142  28.152  26.991  1.00  0.00     0.034 C 
ATOM     19  C   UNL A   1      33.643  28.361  26.881  1.00  0.00     0.009 C 
ENDBRANCH  14  18
ENDBRANCH   9  13
ENDBRANCH   7   8
ENDBRANCH   6   7
BRANCH   6  20
ATOM     20  C   UNL A   1      32.831  23.398  24.140  1.00  0.00     0.020 C 
BRANCH  20  21
ATOM     21  C   UNL A   1      32.689  24.090  22.764  1.00  0.00    -0.017 C 
ATOM     22  C   UNL A   1      33.327  25.486  22.685  1.00  0.00     0.007 C 
ATOM     23  C   UNL A   1      33.278  23.218  21.655  1.00  0.00     0.007 C 
ENDBRANCH  20  21
ENDBRANCH   6  20
ENDBRANCH   4   6
ENDBRANCH   3   4
ENDBRANCH   2   3
ENDBRANCH   1   2
BRANCH   1  24
ATOM     24  O   UNL A   1      38.482  22.118  25.886  1.00  0.00    -0.374 OA
BRANCH  24  25
ATOM     25  C   UNL A   1      39.651  21.410  26.274  1.00  0.00     0.202 C 
BRANCH  25  26
ATOM     26  C   UNL A   1      41.000  22.103  26.159  1.00  0.00     0.261 C 
BRANCH  26  27
ATOM     27  O   UNL A   1      40.971  23.479  26.516  1.00  0.00    -0.460 OA
BRANCH  27  28
ATOM     28  C   UNL A   1      41.902  23.797  27.446  1.00  0.00     0.338 C 
ATOM     29  O   UNL A   1      42.438  23.041  28.237  1.00  0.00    -0.246 OA
BRANCH  28  30
ATOM     30  C   UNL A   1      42.003  25.255  27.550  1.00  0.00     0.060 A 
ATOM     31  C   UNL A   1      42.340  25.754  28.809  1.00  0.00     0.016 A 
ATOM     32  C   UNL A   1      41.464  26.070  26.545  1.00  0.00     0.016 A 
ATOM     33  C   UNL A   1      41.953  27.035  29.129  1.00  0.00     0.010 A 
ATOM     34  C   UNL A   1      41.063  27.345  26.871  1.00  0.00     0.010 A 
ATOM     35  C   UNL A   1      41.249  27.784  28.179  1.00  0.00    -0.014 A 
BRANCH  35  36
ATOM     36  C   UNL A   1      40.866  29.129  28.545  1.00  0.00     0.031 A 
ATOM     37  C   UNL A   1      42.008  30.059  28.460  1.00  0.00     0.074 A 
ATOM     38  C   UNL A   1      39.610  29.497  28.850  1.00  0.00     0.049 A 
ATOM     39  N   UNL A   1      42.659  30.572  29.448  1.00  0.00    -0.248 NA
ATOM     40  C   UNL A   1      42.628  30.274  27.142  1.00  0.00     0.031 C 
ATOM     41  C   UNL A   1      38.384  28.709  28.714  1.00  0.00     0.029 A 
ATOM     42  N   UNL A   1      39.153  30.716  29.250  1.00  0.00    -0.354 N 
ATOM     43  C   UNL A   1      43.628  31.375  28.863  1.00  0.00     0.074 A 
ATOM     44  C   UNL A   1      43.711  30.972  27.483  1.00  0.00     0.031 C 
ATOM     45  C   UNL A   1      37.317  29.538  28.793  1.00  0.00     0.029 A 
ATOM     46  C   UNL A   1      37.781  30.878  29.111  1.00  0.00     0.049 A 
ATOM     47  H   UNL A   1      39.743  31.419  29.606  1.00  0.00     0.167 HD
ATOM     48  C   UNL A   1      44.010  32.531  29.466  1.00  0.00     0.031 A 
ATOM     49  C   UNL A   1      37.099  32.050  29.182  1.00  0.00     0.031 A 
ATOM     50  C   UNL A   1      43.642  32.544  30.863  1.00  0.00     0.049 A 
ATOM     51  C   UNL A   1      37.952  33.023  29.901  1.00  0.00     0.074 A 
ATOM     52  C   UNL A   1      43.899  31.739  31.955  1.00  0.00     0.029 A 
ATOM     53  N   UNL A   1      42.546  33.304  31.196  1.00  0.00    -0.354 N 
ATOM     54  N   UNL A   1      38.220  32.943  31.171  1.00  0.00    -0.248 NA
ATOM     55  C   UNL A   1      38.850  33.867  29.128  1.00  0.00     0.031 C 
ATOM     56  C   UNL A   1      42.699  31.757  32.726  1.00  0.00     0.029 A 
ATOM     57  C   UNL A   1      41.793  32.621  32.108  1.00  0.00     0.049 A 
ATOM     58  H   UNL A   1      42.339  34.196  30.834  1.00  0.00     0.167 HD
ATOM     59  C   UNL A   1      39.552  33.313  31.267  1.00  0.00     0.074 A 
ATOM     60  C   UNL A   1      39.842  34.001  30.011  1.00  0.00     0.031 C 
ATOM     61  C   UNL A   1      40.358  32.762  32.223  1.00  0.00     0.031 A 
BRANCH  48  62
ATOM     62  C   UNL A   1      44.193  33.814  28.683  1.00  0.00    -0.014 A 
ATOM     63  C   UNL A   1      43.050  34.575  28.384  1.00  0.00     0.009 A 
ATOM     64  C   UNL A   1      45.363  34.126  27.960  1.00  0.00     0.009 A 
ATOM     65  C   UNL A   1      43.053  35.513  27.345  1.00  0.00     0.001 A 
ATOM     66  C   UNL A   1      45.382  35.092  26.954  1.00  0.00     0.001 A 
ATOM     67  C   UNL A   1      44.215  35.762  26.622  1.00  0.00     0.000 A 
ENDBRANCH  48  62
BRANCH  49  68
ATOM     68  C   UNL A   1      35.889  32.480  28.446  1.00  0.00    -0.014 A 
ATOM     69  C   UNL A   1      34.956  31.530  27.997  1.00  0.00     0.009 A 
ATOM     70  C   UNL A   1      35.499  33.831  28.438  1.00  0.00     0.009 A 
ATOM     71  C   UNL A   1      33.664  31.911  27.613  1.00  0.00     0.001 A 
ATOM     72  C   UNL A   1      34.212  34.212  28.046  1.00  0.00     0.001 A 
ATOM     73  C   UNL A   1      33.287  33.250  27.654  1.00  0.00     0.000 A 
ENDBRANCH  49  68
BRANCH  61  74
ATOM     74  C   UNL A   1      39.697  32.051  33.378  1.00  0.00    -0.014 A 
ATOM     75  C   UNL A   1      39.402  30.676  33.387  1.00  0.00     0.009 A 
ATOM     76  C   UNL A   1      39.461  32.789  34.547  1.00  0.00     0.009 A 
ATOM     77  C   UNL A   1      38.846  30.073  34.521  1.00  0.00     0.001 A 
ATOM     78  C   UNL A   1      38.932  32.181  35.686  1.00  0.00     0.001 A 
ATOM     79  C   UNL A   1      38.615  30.826  35.670  1.00  0.00     0.000 A 
ENDBRANCH  61  74
ENDBRANCH  35  36
ENDBRANCH  28  30
ENDBRANCH  27  28
ENDBRANCH  26  27
ENDBRANCH  25  26
ENDBRANCH  24  25
ENDBRANCH   1  24
TORSDOF 20
ENDMDL
