MODEL 1
REMARK VINA RESULT:     -11.1      0.000      0.000
REMARK SMILES Cc1cc(=O)oc2cc(O[C@@H](C)C(=O)N[C@H](CC(C)C)C(=O)OCCOCCOC(=O)c3ccc(-c4c5nc(c(-c6ccccc6)c6ccc([nH]6)c(-c6ccccc6)c6nc(c(-c7ccccc7)c7ccc4[nH]7)C=C6)C=C5)cc3)ccc12
REMARK SMILES IDX 25 1 24 2 23 3 21 4 22 5 16 6 15 7 13 8 14 9 11 11 12 12
REMARK SMILES IDX 10 13 9 14 1 15 2 16 3 17 82 18 4 19 7 20 81 21 5 22 6 23
REMARK SMILES IDX 8 24 80 25 17 26 18 27 19 28 20 29 26 30 27 31 28 32 29 33
REMARK SMILES IDX 30 34 31 35 32 36 33 37 79 38 34 39 78 40 35 41 36 42 37 43
REMARK SMILES IDX 72 44 38 45 77 46 71 47 73 48 39 49 76 50 70 51 69 52 40 54
REMARK SMILES IDX 62 55 47 56 61 57 48 58 51 59 60 60 74 61 49 62 50 63 59 65
REMARK SMILES IDX 75 66 52 67 41 68 42 69 46 70 43 71 45 72 44 73 63 74 64 75
REMARK SMILES IDX 68 76 65 77 67 78 66 79 53 80 54 81 58 82 55 83 57 84 56 85
REMARK H PARENT 15 10 73 53 51 64
REMARK Flexibility Score: inf
ROOT
ATOM      1  C   UNL A   1      40.193  20.425  26.454  1.00  0.00     0.202 C 
ENDROOT
BRANCH   1   2
ATOM      2  C   UNL A   1      39.240  21.580  25.845  1.00  0.00     0.261 C 
BRANCH   2   3
ATOM      3  O   UNL A   1      37.728  21.364  25.719  1.00  0.00    -0.462 OA
BRANCH   3   4
ATOM      4  C   UNL A   1      36.924  20.448  25.080  1.00  0.00     0.328 C 
ATOM      5  O   UNL A   1      37.252  19.272  24.897  1.00  0.00    -0.250 OA
BRANCH   4   6
ATOM      6  C   UNL A   1      35.431  20.565  25.085  1.00  0.00     0.192 C 
BRANCH   6   7
ATOM      7  N   UNL A   1      35.056  21.326  26.233  1.00  0.00    -0.339 N 
ATOM      8  C   UNL A   1      34.390  22.531  26.068  1.00  0.00     0.261 C 
ATOM      9  O   UNL A   1      33.672  22.865  27.022  1.00  0.00    -0.271 OA
ATOM     10  H   UNL A   1      35.268  20.997  27.136  1.00  0.00     0.164 HD
BRANCH   8  11
ATOM     11  C   UNL A   1      34.560  23.582  24.745  1.00  0.00     0.258 C 
ATOM     12  C   UNL A   1      36.004  24.086  24.689  1.00  0.00     0.064 C 
BRANCH  11  13
ATOM     13  O   UNL A   1      33.783  24.369  23.824  1.00  0.00    -0.481 OA
BRANCH  13  14
ATOM     14  C   UNL A   1      32.919  25.406  23.993  1.00  0.00     0.124 A 
ATOM     15  C   UNL A   1      31.592  30.112  25.965  1.00  0.00     0.045 C 
ATOM     16  C   UNL A   1      31.192  29.301  24.754  1.00  0.00    -0.033 A 
ATOM     17  C   UNL A   1      30.449  29.762  23.745  1.00  0.00     0.098 A 
ATOM     18  C   UNL A   1      31.669  27.936  24.589  1.00  0.00     0.021 A 
ATOM     19  C   UNL A   1      30.101  28.930  22.573  1.00  0.00     0.336 A 
ATOM     20  C   UNL A   1      31.235  27.070  23.572  1.00  0.00     0.142 A 
ATOM     21  C   UNL A   1      32.683  27.491  25.362  1.00  0.00     0.016 A 
ATOM     22  O   UNL A   1      29.620  29.453  21.574  1.00  0.00    -0.246 OA
ATOM     23  O   UNL A   1      30.279  27.554  22.664  1.00  0.00    -0.423 OA
ATOM     24  C   UNL A   1      31.811  25.788  23.287  1.00  0.00     0.094 A 
ATOM     25  C   UNL A   1      33.214  26.241  25.074  1.00  0.00     0.047 A 
ENDBRANCH  13  14
ENDBRANCH  11  13
ENDBRANCH   8  11
ENDBRANCH   6   7
BRANCH   6  26
ATOM     26  C   UNL A   1      35.035  19.058  24.767  1.00  0.00     0.040 C 
BRANCH  26  27
ATOM     27  C   UNL A   1      33.522  18.704  24.468  1.00  0.00    -0.015 C 
ATOM     28  C   UNL A   1      32.716  18.012  25.570  1.00  0.00     0.007 C 
ATOM     29  C   UNL A   1      32.680  19.930  24.021  1.00  0.00     0.007 C 
ENDBRANCH  26  27
ENDBRANCH   6  26
ENDBRANCH   4   6
ENDBRANCH   3   4
ENDBRANCH   2   3
ENDBRANCH   1   2
BRANCH   1  30
ATOM     30  O   UNL A   1      41.359  20.130  25.659  1.00  0.00    -0.374 OA
BRANCH  30  31
ATOM     31  C   UNL A   1      42.731  20.508  25.933  1.00  0.00     0.202 C 
BRANCH  31  32
ATOM     32  C   UNL A   1      43.465  21.844  25.614  1.00  0.00     0.261 C 
BRANCH  32  33
ATOM     33  O   UNL A   1      42.624  22.952  25.318  1.00  0.00    -0.460 OA
BRANCH  33  34
ATOM     34  C   UNL A   1      43.270  24.135  25.271  1.00  0.00     0.338 C 
ATOM     35  O   UNL A   1      44.157  24.460  24.526  1.00  0.00    -0.246 OA
BRANCH  34  36
ATOM     36  C   UNL A   1      42.532  25.085  26.121  1.00  0.00     0.060 A 
ATOM     37  C   UNL A   1      43.000  26.396  26.062  1.00  0.00     0.016 A 
ATOM     38  C   UNL A   1      41.476  24.729  26.968  1.00  0.00     0.016 A 
ATOM     39  C   UNL A   1      42.512  27.334  26.952  1.00  0.00     0.010 A 
ATOM     40  C   UNL A   1      40.972  25.686  27.857  1.00  0.00     0.010 A 
ATOM     41  C   UNL A   1      41.547  26.969  27.901  1.00  0.00    -0.014 A 
BRANCH  41  42
ATOM     42  C   UNL A   1      41.343  27.902  29.036  1.00  0.00     0.031 A 
ATOM     43  C   UNL A   1      40.154  28.826  29.014  1.00  0.00     0.074 A 
ATOM     44  C   UNL A   1      42.082  27.775  30.153  1.00  0.00     0.049 A 
ATOM     45  N   UNL A   1      39.671  29.575  29.974  1.00  0.00    -0.248 NA
ATOM     46  C   UNL A   1      39.397  28.906  27.754  1.00  0.00     0.031 C 
ATOM     47  C   UNL A   1      43.211  26.858  30.318  1.00  0.00     0.029 A 
ATOM     48  N   UNL A   1      41.955  28.380  31.376  1.00  0.00    -0.354 N 
ATOM     49  C   UNL A   1      38.557  30.207  29.434  1.00  0.00     0.074 A 
ATOM     50  C   UNL A   1      38.460  29.794  28.053  1.00  0.00     0.031 C 
ATOM     51  C   UNL A   1      43.646  26.930  31.587  1.00  0.00     0.029 A 
ATOM     52  C   UNL A   1      42.855  27.924  32.308  1.00  0.00     0.049 A 
ATOM     53  H   UNL A   1      41.284  29.073  31.568  1.00  0.00     0.167 HD
ATOM     54  C   UNL A   1      37.679  31.044  30.037  1.00  0.00     0.031 A 
ATOM     55  C   UNL A   1      43.022  28.268  33.599  1.00  0.00     0.031 A 
ATOM     56  C   UNL A   1      37.777  31.464  31.409  1.00  0.00     0.049 A 
ATOM     57  C   UNL A   1      42.093  29.278  34.217  1.00  0.00     0.074 A 
ATOM     58  C   UNL A   1      36.942  32.315  32.111  1.00  0.00     0.029 A 
ATOM     59  N   UNL A   1      38.772  31.065  32.288  1.00  0.00    -0.354 N 
ATOM     60  N   UNL A   1      41.041  29.862  33.696  1.00  0.00    -0.248 NA
ATOM     61  C   UNL A   1      42.371  29.667  35.606  1.00  0.00     0.031 C 
ATOM     62  C   UNL A   1      37.472  32.485  33.394  1.00  0.00     0.029 A 
ATOM     63  C   UNL A   1      38.592  31.679  33.516  1.00  0.00     0.049 A 
ATOM     64  H   UNL A   1      39.499  30.437  32.071  1.00  0.00     0.167 HD
ATOM     65  C   UNL A   1      40.517  30.666  34.702  1.00  0.00     0.074 A 
ATOM     66  C   UNL A   1      41.356  30.477  35.868  1.00  0.00     0.031 C 
ATOM     67  C   UNL A   1      39.438  31.486  34.665  1.00  0.00     0.031 A 
BRANCH  54  68
ATOM     68  C   UNL A   1      36.557  31.593  29.199  1.00  0.00    -0.014 A 
ATOM     69  C   UNL A   1      35.404  30.837  28.929  1.00  0.00     0.009 A 
ATOM     70  C   UNL A   1      36.644  32.901  28.698  1.00  0.00     0.009 A 
ATOM     71  C   UNL A   1      34.378  31.371  28.145  1.00  0.00     0.001 A 
ATOM     72  C   UNL A   1      35.601  33.442  27.943  1.00  0.00     0.001 A 
ATOM     73  C   UNL A   1      34.475  32.674  27.659  1.00  0.00     0.000 A 
ENDBRANCH  54  68
BRANCH  55  74
ATOM     74  C   UNL A   1      44.127  27.668  34.392  1.00  0.00    -0.014 A 
ATOM     75  C   UNL A   1      45.390  28.276  34.452  1.00  0.00     0.009 A 
ATOM     76  C   UNL A   1      43.925  26.459  35.078  1.00  0.00     0.009 A 
ATOM     77  C   UNL A   1      46.433  27.672  35.159  1.00  0.00     0.001 A 
ATOM     78  C   UNL A   1      44.957  25.876  35.812  1.00  0.00     0.001 A 
ATOM     79  C   UNL A   1      46.215  26.476  35.843  1.00  0.00     0.000 A 
ENDBRANCH  55  74
BRANCH  67  80
ATOM     80  C   UNL A   1      39.080  32.215  35.932  1.00  0.00    -0.014 A 
ATOM     81  C   UNL A   1      39.634  33.467  36.239  1.00  0.00     0.009 A 
ATOM     82  C   UNL A   1      38.142  31.653  36.813  1.00  0.00     0.009 A 
ATOM     83  C   UNL A   1      39.286  34.123  37.421  1.00  0.00     0.001 A 
ATOM     84  C   UNL A   1      37.770  32.327  37.977  1.00  0.00     0.001 A 
ATOM     85  C   UNL A   1      38.351  33.555  38.286  1.00  0.00     0.000 A 
ENDBRANCH  67  80
ENDBRANCH  41  42
ENDBRANCH  34  36
ENDBRANCH  33  34
ENDBRANCH  32  33
ENDBRANCH  31  32
ENDBRANCH  30  31
ENDBRANCH   1  30
TORSDOF 20
ENDMDL
MODEL 2
REMARK VINA RESULT:     -11.0      2.035      8.403
REMARK SMILES Cc1cc(=O)oc2cc(O[C@@H](C)C(=O)N[C@H](CC(C)C)C(=O)OCCOCCOC(=O)c3ccc(-c4c5nc(c(-c6ccccc6)c6ccc([nH]6)c(-c6ccccc6)c6nc(c(-c7ccccc7)c7ccc4[nH]7)C=C6)C=C5)cc3)ccc12
REMARK SMILES IDX 25 1 24 2 23 3 21 4 22 5 16 6 15 7 13 8 14 9 11 11 12 12
REMARK SMILES IDX 10 13 9 14 1 15 2 16 3 17 82 18 4 19 7 20 81 21 5 22 6 23
REMARK SMILES IDX 8 24 80 25 17 26 18 27 19 28 20 29 26 30 27 31 28 32 29 33
REMARK SMILES IDX 30 34 31 35 32 36 33 37 79 38 34 39 78 40 35 41 36 42 37 43
REMARK SMILES IDX 72 44 38 45 77 46 71 47 73 48 39 49 76 50 70 51 69 52 40 54
REMARK SMILES IDX 62 55 47 56 61 57 48 58 51 59 60 60 74 61 49 62 50 63 59 65
REMARK SMILES IDX 75 66 52 67 41 68 42 69 46 70 43 71 45 72 44 73 63 74 64 75
REMARK SMILES IDX 68 76 65 77 67 78 66 79 53 80 54 81 58 82 55 83 57 84 56 85
REMARK H PARENT 15 10 73 53 51 64
REMARK Flexibility Score: inf
ROOT
ATOM      1  C   UNL A   1      29.634  30.246  23.632  1.00  0.00     0.202 C 
ENDROOT
BRANCH   1   2
ATOM      2  C   UNL A   1      30.180  29.526  22.292  1.00  0.00     0.261 C 
BRANCH   2   3
ATOM      3  O   UNL A   1      31.565  28.871  22.262  1.00  0.00    -0.462 OA
BRANCH   3   4
ATOM      4  C   UNL A   1      32.527  28.581  23.203  1.00  0.00     0.328 C 
ATOM      5  O   UNL A   1      33.330  29.416  23.629  1.00  0.00    -0.250 OA
BRANCH   4   6
ATOM      6  C   UNL A   1      32.343  27.490  24.212  1.00  0.00     0.192 C 
BRANCH   6   7
ATOM      7  N   UNL A   1      32.010  28.099  25.459  1.00  0.00    -0.339 N 
ATOM      8  C   UNL A   1      31.781  27.303  26.571  1.00  0.00     0.261 C 
ATOM      9  O   UNL A   1      32.003  27.853  27.661  1.00  0.00    -0.271 OA
ATOM     10  H   UNL A   1      31.944  29.079  25.528  1.00  0.00     0.164 HD
BRANCH   8  11
ATOM     11  C   UNL A   1      31.150  25.728  26.546  1.00  0.00     0.258 C 
ATOM     12  C   UNL A   1      29.792  25.742  25.842  1.00  0.00     0.064 C 
BRANCH  11  13
ATOM     13  O   UNL A   1      31.307  24.441  27.173  1.00  0.00    -0.481 OA
BRANCH  13  14
ATOM     14  C   UNL A   1      31.998  23.321  26.829  1.00  0.00     0.124 A 
ATOM     15  C   UNL A   1      32.782  19.044  23.847  1.00  0.00     0.045 C 
ATOM     16  C   UNL A   1      33.660  19.956  24.673  1.00  0.00    -0.033 A 
ATOM     17  C   UNL A   1      34.994  19.933  24.666  1.00  0.00     0.098 A 
ATOM     18  C   UNL A   1      33.069  20.992  25.507  1.00  0.00     0.021 A 
ATOM     19  C   UNL A   1      35.807  20.862  25.481  1.00  0.00     0.336 A 
ATOM     20  C   UNL A   1      33.799  21.785  26.408  1.00  0.00     0.142 A 
ATOM     21  C   UNL A   1      31.772  21.323  25.333  1.00  0.00     0.016 A 
ATOM     22  O   UNL A   1      37.010  20.963  25.274  1.00  0.00    -0.246 OA
ATOM     23  O   UNL A   1      35.182  21.557  26.510  1.00  0.00    -0.423 OA
ATOM     24  C   UNL A   1      33.275  22.919  27.111  1.00  0.00     0.094 A 
ATOM     25  C   UNL A   1      31.285  22.417  26.036  1.00  0.00     0.047 A 
ENDBRANCH  13  14
ENDBRANCH  11  13
ENDBRANCH   8  11
ENDBRANCH   6   7
BRANCH   6  26
ATOM     26  C   UNL A   1      33.624  26.603  23.896  1.00  0.00     0.040 C 
BRANCH  26  27
ATOM     27  C   UNL A   1      33.447  25.243  23.105  1.00  0.00    -0.015 C 
ATOM     28  C   UNL A   1      34.200  24.013  23.615  1.00  0.00     0.007 C 
ATOM     29  C   UNL A   1      31.963  24.810  22.953  1.00  0.00     0.007 C 
ENDBRANCH  26  27
ENDBRANCH   6  26
ENDBRANCH   4   6
ENDBRANCH   3   4
ENDBRANCH   2   3
ENDBRANCH   1   2
BRANCH   1  30
ATOM     30  O   UNL A   1      30.591  30.316  24.707  1.00  0.00    -0.374 OA
BRANCH  30  31
ATOM     31  C   UNL A   1      30.944  31.476  25.500  1.00  0.00     0.202 C 
BRANCH  31  32
ATOM     32  C   UNL A   1      31.401  31.548  26.987  1.00  0.00     0.261 C 
BRANCH  32  33
ATOM     33  O   UNL A   1      32.790  31.348  27.213  1.00  0.00    -0.460 OA
BRANCH  33  34
ATOM     34  C   UNL A   1      33.431  32.431  27.696  1.00  0.00     0.338 C 
ATOM     35  O   UNL A   1      32.943  33.451  28.111  1.00  0.00    -0.246 OA
BRANCH  34  36
ATOM     36  C   UNL A   1      34.847  32.070  27.887  1.00  0.00     0.060 A 
ATOM     37  C   UNL A   1      35.077  30.706  28.054  1.00  0.00     0.016 A 
ATOM     38  C   UNL A   1      35.894  32.996  27.951  1.00  0.00     0.016 A 
ATOM     39  C   UNL A   1      36.333  30.268  28.427  1.00  0.00     0.010 A 
ATOM     40  C   UNL A   1      37.170  32.547  28.312  1.00  0.00     0.010 A 
ATOM     41  C   UNL A   1      37.370  31.191  28.626  1.00  0.00    -0.014 A 
BRANCH  41  42
ATOM     42  C   UNL A   1      38.560  30.705  29.365  1.00  0.00     0.031 A 
ATOM     43  C   UNL A   1      38.689  31.029  30.831  1.00  0.00     0.074 A 
ATOM     44  C   UNL A   1      39.394  29.819  28.792  1.00  0.00     0.049 A 
ATOM     45  N   UNL A   1      39.530  30.549  31.713  1.00  0.00    -0.248 NA
ATOM     46  C   UNL A   1      37.737  32.007  31.382  1.00  0.00     0.031 C 
ATOM     47  C   UNL A   1      39.321  29.369  27.400  1.00  0.00     0.029 A 
ATOM     48  N   UNL A   1      40.430  29.097  29.326  1.00  0.00    -0.354 N 
ATOM     49  C   UNL A   1      39.204  31.163  32.917  1.00  0.00     0.074 A 
ATOM     50  C   UNL A   1      38.123  32.083  32.647  1.00  0.00     0.031 C 
ATOM     51  C   UNL A   1      40.245  28.415  27.204  1.00  0.00     0.029 A 
ATOM     52  C   UNL A   1      40.998  28.216  28.440  1.00  0.00     0.049 A 
ATOM     53  H   UNL A   1      40.736  29.200  30.256  1.00  0.00     0.167 HD
ATOM     54  C   UNL A   1      39.743  30.967  34.144  1.00  0.00     0.031 A 
ATOM     55  C   UNL A   1      42.013  27.346  28.606  1.00  0.00     0.031 A 
ATOM     56  C   UNL A   1      40.824  30.058  34.415  1.00  0.00     0.049 A 
ATOM     57  C   UNL A   1      42.661  27.221  29.957  1.00  0.00     0.074 A 
ATOM     58  C   UNL A   1      41.445  29.794  35.622  1.00  0.00     0.029 A 
ATOM     59  N   UNL A   1      41.447  29.267  33.463  1.00  0.00    -0.354 N 
ATOM     60  N   UNL A   1      42.338  27.803  31.087  1.00  0.00    -0.248 NA
ATOM     61  C   UNL A   1      43.809  26.309  30.057  1.00  0.00     0.031 C 
ATOM     62  C   UNL A   1      42.489  28.895  35.388  1.00  0.00     0.029 A 
ATOM     63  C   UNL A   1      42.469  28.539  34.049  1.00  0.00     0.049 A 
ATOM     64  H   UNL A   1      41.200  29.228  32.510  1.00  0.00     0.167 HD
ATOM     65  C   UNL A   1      43.225  27.308  32.036  1.00  0.00     0.074 A 
ATOM     66  C   UNL A   1      44.084  26.363  31.352  1.00  0.00     0.031 C 
ATOM     67  C   UNL A   1      43.319  27.607  33.355  1.00  0.00     0.031 A 
BRANCH  54  68
ATOM     68  C   UNL A   1      39.193  31.785  35.281  1.00  0.00    -0.014 A 
ATOM     69  C   UNL A   1      38.259  31.253  36.184  1.00  0.00     0.009 A 
ATOM     70  C   UNL A   1      39.644  33.101  35.467  1.00  0.00     0.009 A 
ATOM     71  C   UNL A   1      37.763  32.035  37.230  1.00  0.00     0.001 A 
ATOM     72  C   UNL A   1      39.171  33.869  36.533  1.00  0.00     0.001 A 
ATOM     73  C   UNL A   1      38.224  33.339  37.407  1.00  0.00     0.000 A 
ENDBRANCH  54  68
BRANCH  55  74
ATOM     74  C   UNL A   1      42.493  26.537  27.455  1.00  0.00    -0.014 A 
ATOM     75  C   UNL A   1      43.482  27.025  26.587  1.00  0.00     0.009 A 
ATOM     76  C   UNL A   1      41.940  25.270  27.206  1.00  0.00     0.009 A 
ATOM     77  C   UNL A   1      43.885  26.272  25.481  1.00  0.00     0.001 A 
ATOM     78  C   UNL A   1      42.369  24.506  26.121  1.00  0.00     0.001 A 
ATOM     79  C   UNL A   1      43.333  25.012  25.251  1.00  0.00     0.000 A 
ENDBRANCH  55  74
BRANCH  67  80
ATOM     80  C   UNL A   1      44.366  26.879  34.156  1.00  0.00    -0.014 A 
ATOM     81  C   UNL A   1      45.653  27.408  34.331  1.00  0.00     0.009 A 
ATOM     82  C   UNL A   1      44.042  25.661  34.775  1.00  0.00     0.009 A 
ATOM     83  C   UNL A   1      46.607  26.713  35.078  1.00  0.00     0.001 A 
ATOM     84  C   UNL A   1      44.986  24.986  35.549  1.00  0.00     0.001 A 
ATOM     85  C   UNL A   1      46.271  25.506  35.690  1.00  0.00     0.000 A 
ENDBRANCH  67  80
ENDBRANCH  41  42
ENDBRANCH  34  36
ENDBRANCH  33  34
ENDBRANCH  32  33
ENDBRANCH  31  32
ENDBRANCH  30  31
ENDBRANCH   1  30
TORSDOF 20
ENDMDL
MODEL 3
REMARK VINA RESULT:     -10.3      1.760      6.246
REMARK SMILES Cc1cc(=O)oc2cc(O[C@@H](C)C(=O)N[C@H](CC(C)C)C(=O)OCCOCCOC(=O)c3ccc(-c4c5nc(c(-c6ccccc6)c6ccc([nH]6)c(-c6ccccc6)c6nc(c(-c7ccccc7)c7ccc4[nH]7)C=C6)C=C5)cc3)ccc12
REMARK SMILES IDX 25 1 24 2 23 3 21 4 22 5 16 6 15 7 13 8 14 9 11 11 12 12
REMARK SMILES IDX 10 13 9 14 1 15 2 16 3 17 82 18 4 19 7 20 81 21 5 22 6 23
REMARK SMILES IDX 8 24 80 25 17 26 18 27 19 28 20 29 26 30 27 31 28 32 29 33
REMARK SMILES IDX 30 34 31 35 32 36 33 37 79 38 34 39 78 40 35 41 36 42 37 43
REMARK SMILES IDX 72 44 38 45 77 46 71 47 73 48 39 49 76 50 70 51 69 52 40 54
REMARK SMILES IDX 62 55 47 56 61 57 48 58 51 59 60 60 74 61 49 62 50 63 59 65
REMARK SMILES IDX 75 66 52 67 41 68 42 69 46 70 43 71 45 72 44 73 63 74 64 75
REMARK SMILES IDX 68 76 65 77 67 78 66 79 53 80 54 81 58 82 55 83 57 84 56 85
REMARK H PARENT 15 10 73 53 51 64
REMARK Flexibility Score: inf
ROOT
ATOM      1  C   UNL A   1      40.075  22.352  26.561  1.00  0.00     0.202 C 
ENDROOT
BRANCH   1   2
ATOM      2  C   UNL A   1      38.653  22.194  25.809  1.00  0.00     0.261 C 
BRANCH   2   3
ATOM      3  O   UNL A   1      37.667  23.365  25.741  1.00  0.00    -0.462 OA
BRANCH   3   4
ATOM      4  C   UNL A   1      36.305  23.484  25.585  1.00  0.00     0.328 C 
ATOM      5  O   UNL A   1      35.771  23.810  24.520  1.00  0.00    -0.250 OA
BRANCH   4   6
ATOM      6  C   UNL A   1      35.340  22.696  26.416  1.00  0.00     0.192 C 
BRANCH   6   7
ATOM      7  N   UNL A   1      35.629  21.312  26.226  1.00  0.00    -0.339 N 
ATOM      8  C   UNL A   1      35.086  20.641  25.141  1.00  0.00     0.261 C 
ATOM      9  O   UNL A   1      35.740  19.661  24.753  1.00  0.00    -0.271 OA
ATOM     10  H   UNL A   1      36.211  20.836  26.862  1.00  0.00     0.164 HD
BRANCH   8  11
ATOM     11  C   UNL A   1      33.600  20.997  24.402  1.00  0.00     0.258 C 
ATOM     12  C   UNL A   1      32.487  20.230  25.118  1.00  0.00     0.064 C 
BRANCH  11  13
ATOM     13  O   UNL A   1      33.046  21.546  23.191  1.00  0.00    -0.481 OA
BRANCH  13  14
ATOM     14  C   UNL A   1      32.692  22.807  22.823  1.00  0.00     0.124 A 
ATOM     15  C   UNL A   1      29.733  27.148  23.266  1.00  0.00     0.045 C 
ATOM     16  C   UNL A   1      31.130  26.843  22.777  1.00  0.00    -0.033 A 
ATOM     17  C   UNL A   1      32.046  27.766  22.478  1.00  0.00     0.098 A 
ATOM     18  C   UNL A   1      31.588  25.467  22.662  1.00  0.00     0.021 A 
ATOM     19  C   UNL A   1      33.407  27.413  22.021  1.00  0.00     0.336 A 
ATOM     20  C   UNL A   1      32.813  25.092  22.087  1.00  0.00     0.142 A 
ATOM     21  C   UNL A   1      30.876  24.481  23.249  1.00  0.00     0.016 A 
ATOM     22  O   UNL A   1      34.280  28.272  21.980  1.00  0.00    -0.246 OA
ATOM     23  O   UNL A   1      33.642  26.113  21.590  1.00  0.00    -0.423 OA
ATOM     24  C   UNL A   1      33.361  23.768  22.115  1.00  0.00     0.094 A 
ATOM     25  C   UNL A   1      31.422  23.204  23.251  1.00  0.00     0.047 A 
ENDBRANCH  13  14
ENDBRANCH  11  13
ENDBRANCH   8  11
ENDBRANCH   6   7
BRANCH   6  26
ATOM     26  C   UNL A   1      33.986  23.447  26.054  1.00  0.00     0.040 C 
BRANCH  26  27
ATOM     27  C   UNL A   1      32.830  23.520  27.133  1.00  0.00    -0.015 C 
ATOM     28  C   UNL A   1      31.388  23.632  26.633  1.00  0.00     0.007 C 
ATOM     29  C   UNL A   1      32.850  22.334  28.135  1.00  0.00     0.007 C 
ENDBRANCH  26  27
ENDBRANCH   6  26
ENDBRANCH   4   6
ENDBRANCH   3   4
ENDBRANCH   2   3
ENDBRANCH   1   2
BRANCH   1  30
ATOM     30  O   UNL A   1      41.184  21.733  25.879  1.00  0.00    -0.374 OA
BRANCH  30  31
ATOM     31  C   UNL A   1      42.551  22.210  25.808  1.00  0.00     0.202 C 
BRANCH  31  32
ATOM     32  C   UNL A   1      43.127  23.429  25.029  1.00  0.00     0.261 C 
BRANCH  32  33
ATOM     33  O   UNL A   1      43.539  24.530  25.829  1.00  0.00    -0.460 OA
BRANCH  33  34
ATOM     34  C   UNL A   1      42.706  25.589  25.777  1.00  0.00     0.338 C 
ATOM     35  O   UNL A   1      41.901  25.851  24.922  1.00  0.00    -0.246 OA
BRANCH  34  36
ATOM     36  C   UNL A   1      42.748  26.260  27.089  1.00  0.00     0.060 A 
ATOM     37  C   UNL A   1      42.049  25.599  28.097  1.00  0.00     0.016 A 
ATOM     38  C   UNL A   1      43.383  27.483  27.327  1.00  0.00     0.016 A 
ATOM     39  C   UNL A   1      41.860  26.223  29.315  1.00  0.00     0.010 A 
ATOM     40  C   UNL A   1      43.203  28.105  28.568  1.00  0.00     0.010 A 
ATOM     41  C   UNL A   1      42.375  27.508  29.536  1.00  0.00    -0.014 A 
BRANCH  41  42
ATOM     42  C   UNL A   1      41.833  28.251  30.699  1.00  0.00     0.031 A 
ATOM     43  C   UNL A   1      42.627  28.279  31.979  1.00  0.00     0.074 A 
ATOM     44  C   UNL A   1      40.765  29.055  30.548  1.00  0.00     0.049 A 
ATOM     45  N   UNL A   1      42.451  29.018  33.046  1.00  0.00    -0.248 NA
ATOM     46  C   UNL A   1      43.783  27.370  32.065  1.00  0.00     0.031 C 
ATOM     47  C   UNL A   1      39.962  29.170  29.329  1.00  0.00     0.029 A 
ATOM     48  N   UNL A   1      40.209  29.966  31.407  1.00  0.00    -0.354 N 
ATOM     49  C   UNL A   1      43.472  28.665  33.922  1.00  0.00     0.074 A 
ATOM     50  C   UNL A   1      44.235  27.617  33.285  1.00  0.00     0.031 C 
ATOM     51  C   UNL A   1      39.043  30.133  29.506  1.00  0.00     0.029 A 
ATOM     52  C   UNL A   1      39.166  30.671  30.858  1.00  0.00     0.049 A 
ATOM     53  H   UNL A   1      40.527  30.103  32.328  1.00  0.00     0.167 HD
ATOM     54  C   UNL A   1      43.762  29.180  35.140  1.00  0.00     0.031 A 
ATOM     55  C   UNL A   1      38.397  31.642  31.386  1.00  0.00     0.031 A 
ATOM     56  C   UNL A   1      42.999  30.218  35.780  1.00  0.00     0.049 A 
ATOM     57  C   UNL A   1      38.679  32.125  32.782  1.00  0.00     0.074 A 
ATOM     58  C   UNL A   1      43.207  30.802  37.016  1.00  0.00     0.029 A 
ATOM     59  N   UNL A   1      41.880  30.826  35.234  1.00  0.00    -0.354 N 
ATOM     60  N   UNL A   1      39.651  31.788  33.595  1.00  0.00    -0.248 NA
ATOM     61  C   UNL A   1      37.761  33.134  33.330  1.00  0.00     0.031 C 
ATOM     62  C   UNL A   1      42.173  31.713  37.248  1.00  0.00     0.029 A 
ATOM     63  C   UNL A   1      41.366  31.755  36.123  1.00  0.00     0.049 A 
ATOM     64  H   UNL A   1      41.505  30.627  34.345  1.00  0.00     0.167 HD
ATOM     65  C   UNL A   1      39.476  32.561  34.738  1.00  0.00     0.074 A 
ATOM     66  C   UNL A   1      38.318  33.398  34.502  1.00  0.00     0.031 C 
ATOM     67  C   UNL A   1      40.209  32.577  35.878  1.00  0.00     0.031 A 
BRANCH  54  68
ATOM     68  C   UNL A   1      44.935  28.595  35.878  1.00  0.00    -0.014 A 
ATOM     69  C   UNL A   1      46.241  29.068  35.675  1.00  0.00     0.009 A 
ATOM     70  C   UNL A   1      44.722  27.573  36.817  1.00  0.00     0.009 A 
ATOM     71  C   UNL A   1      47.313  28.505  36.372  1.00  0.00     0.001 A 
ATOM     72  C   UNL A   1      45.791  27.035  37.535  1.00  0.00     0.001 A 
ATOM     73  C   UNL A   1      47.086  27.495  37.305  1.00  0.00     0.000 A 
ENDBRANCH  54  68
BRANCH  55  74
ATOM     74  C   UNL A   1      37.271  32.210  30.598  1.00  0.00    -0.014 A 
ATOM     75  C   UNL A   1      37.458  33.322  29.763  1.00  0.00     0.009 A 
ATOM     76  C   UNL A   1      35.988  31.647  30.700  1.00  0.00     0.009 A 
ATOM     77  C   UNL A   1      36.377  33.873  29.069  1.00  0.00     0.001 A 
ATOM     78  C   UNL A   1      34.919  32.179  29.979  1.00  0.00     0.001 A 
ATOM     79  C   UNL A   1      35.111  33.299  29.173  1.00  0.00     0.000 A 
ENDBRANCH  55  74
BRANCH  67  80
ATOM     80  C   UNL A   1      39.803  33.555  36.947  1.00  0.00    -0.014 A 
ATOM     81  C   UNL A   1      40.242  34.888  36.926  1.00  0.00     0.009 A 
ATOM     82  C   UNL A   1      38.935  33.142  37.970  1.00  0.00     0.009 A 
ATOM     83  C   UNL A   1      39.852  35.776  37.930  1.00  0.00     0.001 A 
ATOM     84  C   UNL A   1      38.518  34.041  38.953  1.00  0.00     0.001 A 
ATOM     85  C   UNL A   1      38.986  35.353  38.940  1.00  0.00     0.000 A 
ENDBRANCH  67  80
ENDBRANCH  41  42
ENDBRANCH  34  36
ENDBRANCH  33  34
ENDBRANCH  32  33
ENDBRANCH  31  32
ENDBRANCH  30  31
ENDBRANCH   1  30
TORSDOF 20
ENDMDL
