MODEL 1
REMARK VINA RESULT:     -10.4      0.000      0.000
REMARK SMILES O=C(OCCOCCOC(=O)c1cc(S(=O)(=O)Nc2cccc(Cl)c2)ccc1O)c1ccc(-c2c3nc(c(-c4ccccc4)c4ccc([nH]4)c(-c4ccccc4)c4nc(c(-c5ccccc5)c5ccc2[nH]5)C=C4)C=C3)cc1
REMARK SMILES IDX 7 1 6 2 5 3 4 4 3 5 2 6 1 7 30 8 31 9 77 10 32 11 76 12
REMARK SMILES IDX 33 13 34 14 35 15 70 16 36 17 75 18 69 19 71 20 37 21 74 22
REMARK SMILES IDX 68 23 67 24 38 26 60 27 45 28 59 29 46 30 49 31 58 32 72 33
REMARK SMILES IDX 47 34 48 35 57 37 73 38 50 39 39 40 40 41 44 42 41 43 43 44
REMARK SMILES IDX 42 45 61 46 62 47 66 48 63 49 65 50 64 51 51 52 52 53 56 54
REMARK SMILES IDX 53 55 55 56 54 57 8 58 9 59 10 60 11 61 12 62 13 63 28 64
REMARK SMILES IDX 14 65 27 66 26 67 29 68 15 70 16 71 17 72 18 73 19 75 20 76
REMARK SMILES IDX 25 77 21 78 23 79 22 80 24 81
REMARK H PARENT 71 25 49 36 29 69 18 74
REMARK Flexibility Score: inf
ROOT
ATOM      1  C   UNL A   1      36.189  22.259  26.212  1.00  0.00     0.202 C 
ENDROOT
BRANCH   1   2
ATOM      2  O   UNL A   1      36.672  21.179  25.401  1.00  0.00    -0.374 OA
BRANCH   2   3
ATOM      3  C   UNL A   1      38.090  21.101  25.253  1.00  0.00     0.202 C 
BRANCH   3   4
ATOM      4  C   UNL A   1      38.634  19.690  25.011  1.00  0.00     0.261 C 
BRANCH   4   5
ATOM      5  O   UNL A   1      39.643  19.371  25.988  1.00  0.00    -0.460 OA
BRANCH   5   6
ATOM      6  C   UNL A   1      40.949  19.726  25.991  1.00  0.00     0.338 C 
ATOM      7  O   UNL A   1      41.781  18.923  25.574  1.00  0.00    -0.246 OA
BRANCH   6   8
ATOM      8  C   UNL A   1      41.443  21.037  26.511  1.00  0.00     0.060 A 
ATOM      9  C   UNL A   1      41.947  22.064  25.712  1.00  0.00     0.016 A 
ATOM     10  C   UNL A   1      41.279  21.291  27.883  1.00  0.00     0.016 A 
ATOM     11  C   UNL A   1      42.330  23.284  26.250  1.00  0.00     0.010 A 
ATOM     12  C   UNL A   1      41.614  22.535  28.429  1.00  0.00     0.010 A 
ATOM     13  C   UNL A   1      42.146  23.533  27.606  1.00  0.00    -0.014 A 
BRANCH  13  14
ATOM     14  C   UNL A   1      42.560  24.848  28.124  1.00  0.00     0.031 A 
ATOM     15  C   UNL A   1      41.519  25.897  28.352  1.00  0.00     0.074 A 
ATOM     16  C   UNL A   1      43.840  25.028  28.501  1.00  0.00     0.049 A 
ATOM     17  N   UNL A   1      41.662  27.116  28.794  1.00  0.00    -0.248 NA
ATOM     18  C   UNL A   1      40.126  25.516  28.059  1.00  0.00     0.031 C 
ATOM     19  C   UNL A   1      44.895  24.011  28.422  1.00  0.00     0.029 A 
ATOM     20  N   UNL A   1      44.463  26.110  29.059  1.00  0.00    -0.354 N 
ATOM     21  C   UNL A   1      40.385  27.658  28.808  1.00  0.00     0.074 A 
ATOM     22  C   UNL A   1      39.476  26.637  28.335  1.00  0.00     0.031 C 
ATOM     23  C   UNL A   1      46.026  24.512  28.942  1.00  0.00     0.029 A 
ATOM     24  C   UNL A   1      45.795  25.899  29.325  1.00  0.00     0.049 A 
ATOM     25  H   UNL A   1      44.003  26.959  29.253  1.00  0.00     0.167 HD
ATOM     26  C   UNL A   1      40.013  28.905  29.174  1.00  0.00     0.031 A 
ATOM     27  C   UNL A   1      46.727  26.751  29.793  1.00  0.00     0.031 A 
ATOM     28  C   UNL A   1      40.939  29.905  29.630  1.00  0.00     0.049 A 
ATOM     29  C   UNL A   1      46.299  28.160  30.098  1.00  0.00     0.074 A 
ATOM     30  C   UNL A   1      40.694  31.222  29.970  1.00  0.00     0.029 A 
ATOM     31  N   UNL A   1      42.298  29.685  29.808  1.00  0.00    -0.354 N 
ATOM     32  N   UNL A   1      45.097  28.685  30.056  1.00  0.00    -0.248 NA
ATOM     33  C   UNL A   1      47.355  29.099  30.495  1.00  0.00     0.031 C 
ATOM     34  C   UNL A   1      41.917  31.813  30.308  1.00  0.00     0.029 A 
ATOM     35  C   UNL A   1      42.912  30.850  30.229  1.00  0.00     0.049 A 
ATOM     36  H   UNL A   1      42.757  28.827  29.658  1.00  0.00     0.167 HD
ATOM     37  C   UNL A   1      45.249  30.012  30.431  1.00  0.00     0.074 A 
ATOM     38  C   UNL A   1      46.656  30.202  30.724  1.00  0.00     0.031 C 
ATOM     39  C   UNL A   1      44.317  30.992  30.512  1.00  0.00     0.031 A 
BRANCH  26  40
ATOM     40  C   UNL A   1      38.565  29.266  29.012  1.00  0.00    -0.014 A 
ATOM     41  C   UNL A   1      38.045  29.683  27.778  1.00  0.00     0.009 A 
ATOM     42  C   UNL A   1      37.711  29.195  30.124  1.00  0.00     0.009 A 
ATOM     43  C   UNL A   1      36.700  30.052  27.669  1.00  0.00     0.001 A 
ATOM     44  C   UNL A   1      36.364  29.543  30.006  1.00  0.00     0.001 A 
ATOM     45  C   UNL A   1      35.862  29.978  28.782  1.00  0.00     0.000 A 
ENDBRANCH  26  40
BRANCH  27  46
ATOM     46  C   UNL A   1      48.148  26.330  29.925  1.00  0.00    -0.014 A 
ATOM     47  C   UNL A   1      48.643  25.807  31.128  1.00  0.00     0.009 A 
ATOM     48  C   UNL A   1      49.035  26.485  28.844  1.00  0.00     0.009 A 
ATOM     49  C   UNL A   1      49.997  25.480  31.258  1.00  0.00     0.001 A 
ATOM     50  C   UNL A   1      50.378  26.128  28.965  1.00  0.00     0.001 A 
ATOM     51  C   UNL A   1      50.862  25.638  30.175  1.00  0.00     0.000 A 
ENDBRANCH  27  46
BRANCH  39  52
ATOM     52  C   UNL A   1      44.797  32.341  30.959  1.00  0.00    -0.014 A 
ATOM     53  C   UNL A   1      44.844  32.675  32.322  1.00  0.00     0.009 A 
ATOM     54  C   UNL A   1      45.249  33.267  30.008  1.00  0.00     0.009 A 
ATOM     55  C   UNL A   1      45.310  33.928  32.719  1.00  0.00     0.001 A 
ATOM     56  C   UNL A   1      45.741  34.507  30.411  1.00  0.00     0.001 A 
ATOM     57  C   UNL A   1      45.764  34.840  31.765  1.00  0.00     0.000 A 
ENDBRANCH  39  52
ENDBRANCH  13  14
ENDBRANCH   6   8
ENDBRANCH   5   6
ENDBRANCH   4   5
ENDBRANCH   3   4
ENDBRANCH   2   3
ENDBRANCH   1   2
BRANCH   1  58
ATOM     58  C   UNL A   1      36.607  23.586  25.573  1.00  0.00     0.261 C 
BRANCH  58  59
ATOM     59  O   UNL A   1      35.449  24.136  24.928  1.00  0.00    -0.460 OA
BRANCH  59  60
ATOM     60  C   UNL A   1      35.166  23.666  23.686  1.00  0.00     0.342 C 
ATOM     61  O   UNL A   1      35.967  23.320  22.834  1.00  0.00    -0.246 OA
BRANCH  60  62
ATOM     62  C   UNL A   1      33.719  23.333  23.656  1.00  0.00     0.103 A 
ATOM     63  C   UNL A   1      33.045  23.267  24.887  1.00  0.00     0.041 A 
ATOM     64  C   UNL A   1      32.986  23.277  22.461  1.00  0.00     0.130 A 
ATOM     65  C   UNL A   1      31.648  23.271  24.907  1.00  0.00     0.088 A 
ATOM     66  C   UNL A   1      31.596  23.327  22.488  1.00  0.00     0.048 A 
ATOM     67  C   UNL A   1      30.930  23.391  23.711  1.00  0.00     0.026 A 
BRANCH  64  68
ATOM     68  O   UNL A   1      33.626  23.181  21.259  1.00  0.00    -0.507 OA
ATOM     69  H   UNL A   1      33.499  22.425  20.720  1.00  0.00     0.293 HD
ENDBRANCH  64  68
BRANCH  65  70
ATOM     70  S   UNL A   1      30.773  23.240  26.455  1.00  0.00     0.261 S 
ATOM     71  O   UNL A   1      29.837  22.138  26.422  1.00  0.00    -0.201 OA
ATOM     72  O   UNL A   1      31.780  23.317  27.494  1.00  0.00    -0.201 OA
BRANCH  70  73
ATOM     73  N   UNL A   1      29.842  24.666  26.601  1.00  0.00    -0.280 N 
ATOM     74  H   UNL A   1      28.986  24.655  27.086  1.00  0.00     0.180 HD
BRANCH  73  75
ATOM     75  C   UNL A   1      30.322  25.879  26.009  1.00  0.00     0.050 A 
ATOM     76  C   UNL A   1      29.728  26.341  24.832  1.00  0.00     0.027 A 
ATOM     77  C   UNL A   1      31.430  26.538  26.545  1.00  0.00     0.047 A 
ATOM     78  C   UNL A   1      30.268  27.439  24.163  1.00  0.00     0.004 A 
ATOM     79  C   UNL A   1      31.957  27.644  25.874  1.00  0.00     0.043 A 
ATOM     80  C   UNL A   1      31.389  28.089  24.681  1.00  0.00     0.020 A 
ATOM     81  Cl  UNL A   1      33.347  28.441  26.502  1.00  0.00    -0.084 Cl
ENDBRANCH  73  75
ENDBRANCH  70  73
ENDBRANCH  65  70
ENDBRANCH  60  62
ENDBRANCH  59  60
ENDBRANCH  58  59
ENDBRANCH   1  58
TORSDOF 18
ENDMDL
MODEL 2
REMARK VINA RESULT:     -10.3      0.911      6.041
REMARK SMILES O=C(OCCOCCOC(=O)c1cc(S(=O)(=O)Nc2cccc(Cl)c2)ccc1O)c1ccc(-c2c3nc(c(-c4ccccc4)c4ccc([nH]4)c(-c4ccccc4)c4nc(c(-c5ccccc5)c5ccc2[nH]5)C=C4)C=C3)cc1
REMARK SMILES IDX 7 1 6 2 5 3 4 4 3 5 2 6 1 7 30 8 31 9 77 10 32 11 76 12
REMARK SMILES IDX 33 13 34 14 35 15 70 16 36 17 75 18 69 19 71 20 37 21 74 22
REMARK SMILES IDX 68 23 67 24 38 26 60 27 45 28 59 29 46 30 49 31 58 32 72 33
REMARK SMILES IDX 47 34 48 35 57 37 73 38 50 39 39 40 40 41 44 42 41 43 43 44
REMARK SMILES IDX 42 45 61 46 62 47 66 48 63 49 65 50 64 51 51 52 52 53 56 54
REMARK SMILES IDX 53 55 55 56 54 57 8 58 9 59 10 60 11 61 12 62 13 63 28 64
REMARK SMILES IDX 14 65 27 66 26 67 29 68 15 70 16 71 17 72 18 73 19 75 20 76
REMARK SMILES IDX 25 77 21 78 23 79 22 80 24 81
REMARK H PARENT 71 25 49 36 29 69 18 74
REMARK Flexibility Score: inf
ROOT
ATOM      1  C   UNL A   1      36.391  22.217  25.954  1.00  0.00     0.202 C 
ENDROOT
BRANCH   1   2
ATOM      2  O   UNL A   1      36.942  21.110  25.228  1.00  0.00    -0.374 OA
BRANCH   2   3
ATOM      3  C   UNL A   1      38.348  20.907  25.379  1.00  0.00     0.202 C 
BRANCH   3   4
ATOM      4  C   UNL A   1      38.845  19.519  24.964  1.00  0.00     0.261 C 
BRANCH   4   5
ATOM      5  O   UNL A   1      39.890  19.079  25.852  1.00  0.00    -0.460 OA
BRANCH   5   6
ATOM      6  C   UNL A   1      41.126  19.604  26.016  1.00  0.00     0.338 C 
ATOM      7  O   UNL A   1      42.104  18.918  25.724  1.00  0.00    -0.246 OA
BRANCH   6   8
ATOM      8  C   UNL A   1      41.373  20.969  26.572  1.00  0.00     0.060 A 
ATOM      9  C   UNL A   1      41.225  21.314  27.916  1.00  0.00     0.016 A 
ATOM     10  C   UNL A   1      41.899  21.937  25.699  1.00  0.00     0.016 A 
ATOM     11  C   UNL A   1      41.533  22.584  28.380  1.00  0.00     0.010 A 
ATOM     12  C   UNL A   1      42.260  23.205  26.165  1.00  0.00     0.010 A 
ATOM     13  C   UNL A   1      42.072  23.529  27.512  1.00  0.00    -0.014 A 
BRANCH  13  14
ATOM     14  C   UNL A   1      42.389  24.859  28.058  1.00  0.00     0.031 A 
ATOM     15  C   UNL A   1      43.819  25.210  28.322  1.00  0.00     0.074 A 
ATOM     16  C   UNL A   1      41.403  25.767  28.182  1.00  0.00     0.049 A 
ATOM     17  N   UNL A   1      44.319  26.315  28.803  1.00  0.00    -0.248 NA
ATOM     18  C   UNL A   1      44.822  24.185  27.983  1.00  0.00     0.031 C 
ATOM     19  C   UNL A   1      39.997  25.540  27.832  1.00  0.00     0.029 A 
ATOM     20  N   UNL A   1      41.435  27.070  28.598  1.00  0.00    -0.354 N 
ATOM     21  C   UNL A   1      45.691  26.112  28.850  1.00  0.00     0.074 A 
ATOM     22  C   UNL A   1      45.949  24.781  28.346  1.00  0.00     0.031 C 
ATOM     23  C   UNL A   1      39.309  26.677  28.020  1.00  0.00     0.029 A 
ATOM     24  C   UNL A   1      40.207  27.686  28.567  1.00  0.00     0.049 A 
ATOM     25  H   UNL A   1      42.259  27.524  28.890  1.00  0.00     0.167 HD
ATOM     26  C   UNL A   1      46.645  26.963  29.288  1.00  0.00     0.031 A 
ATOM     27  C   UNL A   1      39.850  28.919  28.972  1.00  0.00     0.031 A 
ATOM     28  C   UNL A   1      46.360  28.277  29.795  1.00  0.00     0.049 A 
ATOM     29  C   UNL A   1      40.920  29.806  29.546  1.00  0.00     0.074 A 
ATOM     30  C   UNL A   1      47.232  29.209  30.326  1.00  0.00     0.029 A 
ATOM     31  N   UNL A   1      45.092  28.842  29.830  1.00  0.00    -0.354 N 
ATOM     32  N   UNL A   1      42.211  29.587  29.640  1.00  0.00    -0.248 NA
ATOM     33  C   UNL A   1      40.485  31.100  30.087  1.00  0.00     0.031 C 
ATOM     34  C   UNL A   1      46.482  30.321  30.727  1.00  0.00     0.029 A 
ATOM     35  C   UNL A   1      45.153  30.101  30.397  1.00  0.00     0.049 A 
ATOM     36  H   UNL A   1      44.272  28.410  29.498  1.00  0.00     0.167 HD
ATOM     37  C   UNL A   1      42.744  30.718  30.241  1.00  0.00     0.074 A 
ATOM     38  C   UNL A   1      41.641  31.631  30.462  1.00  0.00     0.031 C 
ATOM     39  C   UNL A   1      44.027  30.977  30.594  1.00  0.00     0.031 A 
BRANCH  26  40
ATOM     40  C   UNL A   1      48.058  26.458  29.312  1.00  0.00    -0.014 A 
ATOM     41  C   UNL A   1      48.566  25.742  30.406  1.00  0.00     0.009 A 
ATOM     42  C   UNL A   1      48.898  26.717  28.217  1.00  0.00     0.009 A 
ATOM     43  C   UNL A   1      49.899  25.321  30.414  1.00  0.00     0.001 A 
ATOM     44  C   UNL A   1      50.222  26.276  28.220  1.00  0.00     0.001 A 
ATOM     45  C   UNL A   1      50.724  25.586  29.321  1.00  0.00     0.000 A 
ENDBRANCH  26  40
BRANCH  27  46
ATOM     46  C   UNL A   1      38.428  29.355  28.927  1.00  0.00    -0.014 A 
ATOM     47  C   UNL A   1      37.873  29.908  27.763  1.00  0.00     0.009 A 
ATOM     48  C   UNL A   1      37.620  29.252  30.073  1.00  0.00     0.009 A 
ATOM     49  C   UNL A   1      36.556  30.376  27.757  1.00  0.00     0.001 A 
ATOM     50  C   UNL A   1      36.295  29.690  30.056  1.00  0.00     0.001 A 
ATOM     51  C   UNL A   1      35.767  30.265  28.902  1.00  0.00     0.000 A 
ENDBRANCH  27  46
BRANCH  39  52
ATOM     52  C   UNL A   1      44.294  32.309  31.229  1.00  0.00    -0.014 A 
ATOM     53  C   UNL A   1      44.577  33.438  30.445  1.00  0.00     0.009 A 
ATOM     54  C   UNL A   1      44.214  32.442  32.622  1.00  0.00     0.009 A 
ATOM     55  C   UNL A   1      44.805  34.673  31.053  1.00  0.00     0.001 A 
ATOM     56  C   UNL A   1      44.414  33.683  33.224  1.00  0.00     0.001 A 
ATOM     57  C   UNL A   1      44.717  34.796  32.440  1.00  0.00     0.000 A 
ENDBRANCH  39  52
ENDBRANCH  13  14
ENDBRANCH   6   8
ENDBRANCH   5   6
ENDBRANCH   4   5
ENDBRANCH   3   4
ENDBRANCH   2   3
ENDBRANCH   1   2
BRANCH   1  58
ATOM     58  C   UNL A   1      36.858  23.521  25.301  1.00  0.00     0.261 C 
BRANCH  58  59
ATOM     59  O   UNL A   1      35.696  24.180  24.779  1.00  0.00    -0.460 OA
BRANCH  59  60
ATOM     60  C   UNL A   1      35.217  23.718  23.596  1.00  0.00     0.342 C 
ATOM     61  O   UNL A   1      35.843  23.126  22.733  1.00  0.00    -0.246 OA
BRANCH  60  62
ATOM     62  C   UNL A   1      33.733  23.761  23.670  1.00  0.00     0.103 A 
ATOM     63  C   UNL A   1      33.156  23.978  24.933  1.00  0.00     0.041 A 
ATOM     64  C   UNL A   1      32.925  23.787  22.524  1.00  0.00     0.130 A 
ATOM     65  C   UNL A   1      31.808  24.337  25.018  1.00  0.00     0.088 A 
ATOM     66  C   UNL A   1      31.596  24.189  22.612  1.00  0.00     0.048 A 
ATOM     67  C   UNL A   1      31.058  24.529  23.852  1.00  0.00     0.026 A 
BRANCH  64  68
ATOM     68  O   UNL A   1      33.432  23.425  21.309  1.00  0.00    -0.507 OA
ATOM     69  H   UNL A   1      33.490  22.519  21.076  1.00  0.00     0.293 HD
ENDBRANCH  64  68
BRANCH  65  70
ATOM     70  S   UNL A   1      31.068  24.667  26.601  1.00  0.00     0.261 S 
ATOM     71  O   UNL A   1      29.663  24.941  26.394  1.00  0.00    -0.201 OA
ATOM     72  O   UNL A   1      31.484  23.592  27.478  1.00  0.00    -0.201 OA
BRANCH  70  73
ATOM     73  N   UNL A   1      31.751  26.093  27.253  1.00  0.00    -0.280 N 
ATOM     74  H   UNL A   1      31.868  26.190  28.225  1.00  0.00     0.180 HD
BRANCH  73  75
ATOM     75  C   UNL A   1      32.152  27.145  26.368  1.00  0.00     0.050 A 
ATOM     76  C   UNL A   1      33.494  27.531  26.337  1.00  0.00     0.027 A 
ATOM     77  C   UNL A   1      31.201  27.841  25.619  1.00  0.00     0.047 A 
ATOM     78  C   UNL A   1      33.883  28.644  25.591  1.00  0.00     0.004 A 
ATOM     79  C   UNL A   1      31.602  28.946  24.865  1.00  0.00     0.043 A 
ATOM     80  C   UNL A   1      32.934  29.357  24.858  1.00  0.00     0.020 A 
ATOM     81  Cl  UNL A   1      30.433  29.837  23.969  1.00  0.00    -0.084 Cl
ENDBRANCH  73  75
ENDBRANCH  70  73
ENDBRANCH  65  70
ENDBRANCH  60  62
ENDBRANCH  59  60
ENDBRANCH  58  59
ENDBRANCH   1  58
TORSDOF 18
ENDMDL
MODEL 3
REMARK VINA RESULT:     -10.2      4.088      8.754
REMARK SMILES O=C(OCCOCCOC(=O)c1cc(S(=O)(=O)Nc2cccc(Cl)c2)ccc1O)c1ccc(-c2c3nc(c(-c4ccccc4)c4ccc([nH]4)c(-c4ccccc4)c4nc(c(-c5ccccc5)c5ccc2[nH]5)C=C4)C=C3)cc1
REMARK SMILES IDX 7 1 6 2 5 3 4 4 3 5 2 6 1 7 30 8 31 9 77 10 32 11 76 12
REMARK SMILES IDX 33 13 34 14 35 15 70 16 36 17 75 18 69 19 71 20 37 21 74 22
REMARK SMILES IDX 68 23 67 24 38 26 60 27 45 28 59 29 46 30 49 31 58 32 72 33
REMARK SMILES IDX 47 34 48 35 57 37 73 38 50 39 39 40 40 41 44 42 41 43 43 44
REMARK SMILES IDX 42 45 61 46 62 47 66 48 63 49 65 50 64 51 51 52 52 53 56 54
REMARK SMILES IDX 53 55 55 56 54 57 8 58 9 59 10 60 11 61 12 62 13 63 28 64
REMARK SMILES IDX 14 65 27 66 26 67 29 68 15 70 16 71 17 72 18 73 19 75 20 76
REMARK SMILES IDX 25 77 21 78 23 79 22 80 24 81
REMARK H PARENT 71 25 49 36 29 69 18 74
REMARK Flexibility Score: inf
ROOT
ATOM      1  C   UNL A   1      32.524  29.989  26.185  1.00  0.00     0.202 C 
ENDROOT
BRANCH   1   2
ATOM      2  O   UNL A   1      31.466  30.848  25.737  1.00  0.00    -0.374 OA
BRANCH   2   3
ATOM      3  C   UNL A   1      31.294  32.056  26.478  1.00  0.00     0.202 C 
BRANCH   3   4
ATOM      4  C   UNL A   1      32.500  32.468  27.327  1.00  0.00     0.261 C 
BRANCH   4   5
ATOM      5  O   UNL A   1      32.383  33.847  27.724  1.00  0.00    -0.460 OA
BRANCH   5   6
ATOM      6  C   UNL A   1      33.131  34.526  28.624  1.00  0.00     0.338 C 
ATOM      7  O   UNL A   1      32.802  35.672  28.923  1.00  0.00    -0.246 OA
BRANCH   6   8
ATOM      8  C   UNL A   1      34.367  33.969  29.252  1.00  0.00     0.060 A 
ATOM      9  C   UNL A   1      34.376  33.108  30.350  1.00  0.00     0.016 A 
ATOM     10  C   UNL A   1      35.593  34.241  28.621  1.00  0.00     0.016 A 
ATOM     11  C   UNL A   1      35.555  32.572  30.846  1.00  0.00     0.010 A 
ATOM     12  C   UNL A   1      36.782  33.667  29.082  1.00  0.00     0.010 A 
ATOM     13  C   UNL A   1      36.761  32.832  30.203  1.00  0.00    -0.014 A 
BRANCH  13  14
ATOM     14  C   UNL A   1      37.982  32.231  30.766  1.00  0.00     0.031 A 
ATOM     15  C   UNL A   1      38.558  31.016  30.113  1.00  0.00     0.074 A 
ATOM     16  C   UNL A   1      38.619  32.864  31.769  1.00  0.00     0.049 A 
ATOM     17  N   UNL A   1      39.615  30.327  30.443  1.00  0.00    -0.248 NA
ATOM     18  C   UNL A   1      37.858  30.518  28.915  1.00  0.00     0.031 C 
ATOM     19  C   UNL A   1      38.185  34.124  32.384  1.00  0.00     0.029 A 
ATOM     20  N   UNL A   1      39.782  32.561  32.421  1.00  0.00    -0.354 N 
ATOM     21  C   UNL A   1      39.695  29.300  29.513  1.00  0.00     0.074 A 
ATOM     22  C   UNL A   1      38.583  29.455  28.602  1.00  0.00     0.031 C 
ATOM     23  C   UNL A   1      39.088  34.497  33.303  1.00  0.00     0.029 A 
ATOM     24  C   UNL A   1      40.122  33.474  33.390  1.00  0.00     0.049 A 
ATOM     25  H   UNL A   1      40.325  31.765  32.217  1.00  0.00     0.167 HD
ATOM     26  C   UNL A   1      40.614  28.311  29.441  1.00  0.00     0.031 A 
ATOM     27  C   UNL A   1      41.141  33.459  34.270  1.00  0.00     0.031 A 
ATOM     28  C   UNL A   1      41.702  28.174  30.369  1.00  0.00     0.049 A 
ATOM     29  C   UNL A   1      42.089  32.292  34.227  1.00  0.00     0.074 A 
ATOM     30  C   UNL A   1      42.661  27.181  30.439  1.00  0.00     0.029 A 
ATOM     31  N   UNL A   1      41.972  29.071  31.394  1.00  0.00    -0.354 N 
ATOM     32  N   UNL A   1      42.127  31.292  33.378  1.00  0.00    -0.248 NA
ATOM     33  C   UNL A   1      43.120  32.240  35.270  1.00  0.00     0.031 C 
ATOM     34  C   UNL A   1      43.483  27.452  31.539  1.00  0.00     0.029 A 
ATOM     35  C   UNL A   1      43.067  28.642  32.119  1.00  0.00     0.049 A 
ATOM     36  H   UNL A   1      41.459  29.891  31.576  1.00  0.00     0.167 HD
ATOM     37  C   UNL A   1      43.191  30.496  33.778  1.00  0.00     0.074 A 
ATOM     38  C   UNL A   1      43.788  31.147  34.927  1.00  0.00     0.031 C 
ATOM     39  C   UNL A   1      43.630  29.325  33.255  1.00  0.00     0.031 A 
BRANCH  26  40
ATOM     40  C   UNL A   1      40.419  27.269  28.379  1.00  0.00    -0.014 A 
ATOM     41  C   UNL A   1      41.006  27.391  27.111  1.00  0.00     0.009 A 
ATOM     42  C   UNL A   1      39.618  26.149  28.655  1.00  0.00     0.009 A 
ATOM     43  C   UNL A   1      40.770  26.423  26.130  1.00  0.00     0.001 A 
ATOM     44  C   UNL A   1      39.403  25.173  27.681  1.00  0.00     0.001 A 
ATOM     45  C   UNL A   1      39.973  25.315  26.417  1.00  0.00     0.000 A 
ENDBRANCH  26  40
BRANCH  27  46
ATOM     46  C   UNL A   1      41.272  34.523  35.303  1.00  0.00    -0.014 A 
ATOM     47  C   UNL A   1      40.577  34.446  36.518  1.00  0.00     0.009 A 
ATOM     48  C   UNL A   1      42.076  35.650  35.058  1.00  0.00     0.009 A 
ATOM     49  C   UNL A   1      40.658  35.486  37.450  1.00  0.00     0.001 A 
ATOM     50  C   UNL A   1      42.181  36.672  36.002  1.00  0.00     0.001 A 
ATOM     51  C   UNL A   1      41.462  36.597  37.192  1.00  0.00     0.000 A 
ENDBRANCH  27  46
BRANCH  39  52
ATOM     52  C   UNL A   1      44.823  28.700  33.914  1.00  0.00    -0.014 A 
ATOM     53  C   UNL A   1      46.126  29.035  33.514  1.00  0.00     0.009 A 
ATOM     54  C   UNL A   1      44.639  27.804  34.976  1.00  0.00     0.009 A 
ATOM     55  C   UNL A   1      47.224  28.457  34.150  1.00  0.00     0.001 A 
ATOM     56  C   UNL A   1      45.740  27.250  35.629  1.00  0.00     0.001 A 
ATOM     57  C   UNL A   1      47.031  27.570  35.210  1.00  0.00     0.000 A 
ENDBRANCH  39  52
ENDBRANCH  13  14
ENDBRANCH   6   8
ENDBRANCH   5   6
ENDBRANCH   4   5
ENDBRANCH   3   4
ENDBRANCH   2   3
ENDBRANCH   1   2
BRANCH   1  58
ATOM     58  C   UNL A   1      33.060  29.196  24.989  1.00  0.00     0.261 C 
BRANCH  58  59
ATOM     59  O   UNL A   1      32.530  27.866  25.082  1.00  0.00    -0.460 OA
BRANCH  59  60
ATOM     60  C   UNL A   1      31.801  27.429  24.024  1.00  0.00     0.342 C 
ATOM     61  O   UNL A   1      30.997  28.074  23.371  1.00  0.00    -0.246 OA
BRANCH  60  62
ATOM     62  C   UNL A   1      32.387  26.135  23.585  1.00  0.00     0.103 A 
ATOM     63  C   UNL A   1      32.170  25.017  24.407  1.00  0.00     0.041 A 
ATOM     64  C   UNL A   1      32.962  25.964  22.318  1.00  0.00     0.130 A 
ATOM     65  C   UNL A   1      32.416  23.737  23.903  1.00  0.00     0.088 A 
ATOM     66  C   UNL A   1      33.164  24.686  21.806  1.00  0.00     0.048 A 
ATOM     67  C   UNL A   1      32.827  23.573  22.576  1.00  0.00     0.026 A 
BRANCH  64  68
ATOM     68  O   UNL A   1      33.327  27.046  21.569  1.00  0.00    -0.507 OA
ATOM     69  H   UNL A   1      32.733  27.762  21.460  1.00  0.00     0.293 HD
ENDBRANCH  64  68
BRANCH  65  70
ATOM     70  S   UNL A   1      32.100  22.303  24.907  1.00  0.00     0.261 S 
ATOM     71  O   UNL A   1      30.785  22.443  25.492  1.00  0.00    -0.201 OA
ATOM     72  O   UNL A   1      32.420  21.153  24.087  1.00  0.00    -0.201 OA
BRANCH  70  73
ATOM     73  N   UNL A   1      33.211  22.273  26.207  1.00  0.00    -0.280 N 
ATOM     74  H   UNL A   1      32.892  22.175  27.133  1.00  0.00     0.180 HD
BRANCH  73  75
ATOM     75  C   UNL A   1      34.611  22.393  25.934  1.00  0.00     0.050 A 
ATOM     76  C   UNL A   1      35.190  23.665  25.900  1.00  0.00     0.027 A 
ATOM     77  C   UNL A   1      35.369  21.266  25.610  1.00  0.00     0.047 A 
ATOM     78  C   UNL A   1      36.517  23.817  25.498  1.00  0.00     0.004 A 
ATOM     79  C   UNL A   1      36.700  21.427  25.222  1.00  0.00     0.043 A 
ATOM     80  C   UNL A   1      37.273  22.696  25.152  1.00  0.00     0.020 A 
ATOM     81  Cl  UNL A   1      37.633  20.048  24.782  1.00  0.00    -0.084 Cl
ENDBRANCH  73  75
ENDBRANCH  70  73
ENDBRANCH  65  70
ENDBRANCH  60  62
ENDBRANCH  59  60
ENDBRANCH  58  59
ENDBRANCH   1  58
TORSDOF 18
ENDMDL
