MODEL 1
REMARK VINA RESULT:     -11.4      0.000      0.000
REMARK SMILES O=C(OCCOCCOC(=O)[C@@H]1CC=CC[C@H]1C(=O)N1CC[NH+](Cc2ccc3c(c2)OCO3)CC1)c1ccc(-c2c3nc(c(-c4ccccc4)c4ccc([nH]4)c(-c4ccccc4)c4nc(c(-c5ccccc5)c5ccc2[nH]5)C=C4)C=C3)cc1
REMARK SMILES IDX 7 1 6 2 5 3 4 4 3 5 2 6 1 7 36 8 37 9 83 10 38 11 82 12
REMARK SMILES IDX 39 13 40 14 41 15 76 16 42 17 81 18 75 19 77 20 43 21 80 22
REMARK SMILES IDX 74 23 73 24 44 26 66 27 51 28 65 29 52 30 55 31 64 32 78 33
REMARK SMILES IDX 53 34 54 35 63 37 79 38 56 39 45 40 46 41 50 42 47 43 49 44
REMARK SMILES IDX 48 45 67 46 68 47 72 48 69 49 71 50 70 51 57 52 58 53 62 54
REMARK SMILES IDX 59 55 61 56 60 57 8 58 9 59 10 60 11 61 12 62 13 63 17 64
REMARK SMILES IDX 14 65 16 66 15 67 18 68 19 69 20 70 21 71 35 72 22 73 34 74
REMARK SMILES IDX 23 75 24 77 25 78 26 79 30 80 27 81 29 82 28 83 31 84 33 85
REMARK SMILES IDX 32 86
REMARK H PARENT 77 25 55 36 23 76
REMARK Flexibility Score: inf
ROOT
ATOM      1  C   UNL A   1      36.797  21.971  24.618  1.00  0.00     0.202 C 
ENDROOT
BRANCH   1   2
ATOM      2  O   UNL A   1      38.169  22.073  25.019  1.00  0.00    -0.374 OA
BRANCH   2   3
ATOM      3  C   UNL A   1      38.622  21.007  25.853  1.00  0.00     0.202 C 
BRANCH   3   4
ATOM      4  C   UNL A   1      39.134  19.782  25.095  1.00  0.00     0.261 C 
BRANCH   4   5
ATOM      5  O   UNL A   1      40.160  19.125  25.848  1.00  0.00    -0.460 OA
BRANCH   5   6
ATOM      6  C   UNL A   1      41.426  19.561  26.044  1.00  0.00     0.338 C 
ATOM      7  O   UNL A   1      42.363  18.822  25.749  1.00  0.00    -0.246 OA
BRANCH   6   8
ATOM      8  C   UNL A   1      41.748  20.930  26.546  1.00  0.00     0.060 A 
ATOM      9  C   UNL A   1      42.050  22.026  25.736  1.00  0.00     0.016 A 
ATOM     10  C   UNL A   1      41.650  21.142  27.930  1.00  0.00     0.016 A 
ATOM     11  C   UNL A   1      42.305  23.277  26.266  1.00  0.00     0.010 A 
ATOM     12  C   UNL A   1      41.859  22.412  28.474  1.00  0.00     0.010 A 
ATOM     13  C   UNL A   1      42.194  23.481  27.635  1.00  0.00    -0.014 A 
BRANCH  13  14
ATOM     14  C   UNL A   1      42.517  24.820  28.144  1.00  0.00     0.031 A 
ATOM     15  C   UNL A   1      43.955  25.176  28.345  1.00  0.00     0.074 A 
ATOM     16  C   UNL A   1      41.534  25.732  28.259  1.00  0.00     0.049 A 
ATOM     17  N   UNL A   1      44.473  26.279  28.811  1.00  0.00    -0.248 NA
ATOM     18  C   UNL A   1      44.945  24.158  27.951  1.00  0.00     0.031 C 
ATOM     19  C   UNL A   1      40.123  25.498  27.932  1.00  0.00     0.029 A 
ATOM     20  N   UNL A   1      41.575  27.045  28.638  1.00  0.00    -0.354 N 
ATOM     21  C   UNL A   1      45.845  26.078  28.795  1.00  0.00     0.074 A 
ATOM     22  C   UNL A   1      46.083  24.751  28.275  1.00  0.00     0.031 C 
ATOM     23  C   UNL A   1      39.440  26.642  28.096  1.00  0.00     0.029 A 
ATOM     24  C   UNL A   1      40.347  27.659  28.613  1.00  0.00     0.049 A 
ATOM     25  H   UNL A   1      42.404  27.505  28.903  1.00  0.00     0.167 HD
ATOM     26  C   UNL A   1      46.815  26.931  29.196  1.00  0.00     0.031 A 
ATOM     27  C   UNL A   1      39.999  28.896  29.009  1.00  0.00     0.031 A 
ATOM     28  C   UNL A   1      46.539  28.235  29.730  1.00  0.00     0.049 A 
ATOM     29  C   UNL A   1      41.081  29.780  29.563  1.00  0.00     0.074 A 
ATOM     30  C   UNL A   1      47.414  29.159  30.266  1.00  0.00     0.029 A 
ATOM     31  N   UNL A   1      45.269  28.798  29.786  1.00  0.00    -0.354 N 
ATOM     32  N   UNL A   1      42.372  29.550  29.642  1.00  0.00    -0.248 NA
ATOM     33  C   UNL A   1      40.662  31.079  30.100  1.00  0.00     0.031 C 
ATOM     34  C   UNL A   1      46.666  30.267  30.684  1.00  0.00     0.029 A 
ATOM     35  C   UNL A   1      45.334  30.053  30.359  1.00  0.00     0.049 A 
ATOM     36  H   UNL A   1      44.445  28.365  29.465  1.00  0.00     0.167 HD
ATOM     37  C   UNL A   1      42.923  30.680  30.228  1.00  0.00     0.074 A 
ATOM     38  C   UNL A   1      41.826  31.603  30.457  1.00  0.00     0.031 C 
ATOM     39  C   UNL A   1      44.212  30.935  30.561  1.00  0.00     0.031 A 
BRANCH  26  40
ATOM     40  C   UNL A   1      48.226  26.424  29.144  1.00  0.00    -0.014 A 
ATOM     41  C   UNL A   1      48.802  25.738  30.226  1.00  0.00     0.009 A 
ATOM     42  C   UNL A   1      49.011  26.684  28.010  1.00  0.00     0.009 A 
ATOM     43  C   UNL A   1      50.145  25.359  30.188  1.00  0.00     0.001 A 
ATOM     44  C   UNL A   1      50.347  26.282  27.965  1.00  0.00     0.001 A 
ATOM     45  C   UNL A   1      50.917  25.630  29.059  1.00  0.00     0.000 A 
ENDBRANCH  26  40
BRANCH  27  46
ATOM     46  C   UNL A   1      38.577  29.334  28.972  1.00  0.00    -0.014 A 
ATOM     47  C   UNL A   1      38.037  29.954  27.835  1.00  0.00     0.009 A 
ATOM     48  C   UNL A   1      37.749  29.147  30.093  1.00  0.00     0.009 A 
ATOM     49  C   UNL A   1      36.713  30.401  27.832  1.00  0.00     0.001 A 
ATOM     50  C   UNL A   1      36.416  29.564  30.075  1.00  0.00     0.001 A 
ATOM     51  C   UNL A   1      35.902  30.201  28.949  1.00  0.00     0.000 A 
ENDBRANCH  27  46
BRANCH  39  52
ATOM     52  C   UNL A   1      44.493  32.277  31.169  1.00  0.00    -0.014 A 
ATOM     53  C   UNL A   1      44.789  33.388  30.365  1.00  0.00     0.009 A 
ATOM     54  C   UNL A   1      44.423  32.433  32.560  1.00  0.00     0.009 A 
ATOM     55  C   UNL A   1      45.042  34.628  30.952  1.00  0.00     0.001 A 
ATOM     56  C   UNL A   1      44.647  33.680  33.141  1.00  0.00     0.001 A 
ATOM     57  C   UNL A   1      44.965  34.773  32.337  1.00  0.00     0.000 A 
ENDBRANCH  39  52
ENDBRANCH  13  14
ENDBRANCH   6   8
ENDBRANCH   5   6
ENDBRANCH   4   5
ENDBRANCH   3   4
ENDBRANCH   2   3
ENDBRANCH   1   2
BRANCH   1  58
ATOM     58  C   UNL A   1      35.939  21.622  25.834  1.00  0.00     0.261 C 
BRANCH  58  59
ATOM     59  O   UNL A   1      34.968  20.644  25.423  1.00  0.00    -0.463 OA
BRANCH  59  60
ATOM     60  C   UNL A   1      33.694  20.903  25.827  1.00  0.00     0.310 C 
ATOM     61  O   UNL A   1      33.370  21.855  26.528  1.00  0.00    -0.252 OA
BRANCH  60  62
ATOM     62  C   UNL A   1      32.711  19.951  25.147  1.00  0.00     0.115 C 
ATOM     63  C   UNL A   1      32.766  18.606  25.900  1.00  0.00     0.043 C 
ATOM     64  C   UNL A   1      32.939  19.879  23.629  1.00  0.00     0.097 C 
ATOM     65  C   UNL A   1      32.343  17.406  25.127  1.00  0.00    -0.030 C 
ATOM     66  C   UNL A   1      32.544  18.561  22.927  1.00  0.00     0.041 C 
ATOM     67  C   UNL A   1      32.263  17.385  23.796  1.00  0.00    -0.030 C 
BRANCH  64  68
ATOM     68  C   UNL A   1      32.302  21.044  22.841  1.00  0.00     0.227 C 
ATOM     69  O   UNL A   1      31.487  20.817  21.945  1.00  0.00    -0.275 OA
ATOM     70  N   UNL A   1      32.540  22.345  23.290  1.00  0.00    -0.331 N 
ATOM     71  C   UNL A   1      31.375  23.222  23.335  1.00  0.00     0.181 C 
ATOM     72  C   UNL A   1      33.766  23.036  22.925  1.00  0.00     0.181 C 
ATOM     73  C   UNL A   1      31.637  24.526  24.115  1.00  0.00     0.284 C 
ATOM     74  C   UNL A   1      34.014  24.358  23.671  1.00  0.00     0.284 C 
ATOM     75  N   UNL A   1      32.865  25.256  23.775  1.00  0.00    -0.328 N 
ATOM     76  H   UNL A   1      33.052  25.855  24.578  1.00  0.00     0.348 HD
BRANCH  75  77
ATOM     77  C   UNL A   1      32.753  26.291  22.744  1.00  0.00     0.299 C 
BRANCH  77  78
ATOM     78  C   UNL A   1      31.912  27.507  23.060  1.00  0.00     0.010 A 
ATOM     79  C   UNL A   1      32.013  28.132  24.325  1.00  0.00     0.013 A 
ATOM     80  C   UNL A   1      31.024  28.031  22.107  1.00  0.00     0.060 A 
ATOM     81  C   UNL A   1      31.190  29.208  24.671  1.00  0.00     0.051 A 
ATOM     82  C   UNL A   1      30.239  29.107  22.470  1.00  0.00     0.166 A 
ATOM     83  C   UNL A   1      30.310  29.669  23.721  1.00  0.00     0.165 A 
ATOM     84  O   UNL A   1      29.320  29.720  21.678  1.00  0.00    -0.454 OA
ATOM     85  O   UNL A   1      29.435  30.696  23.881  1.00  0.00    -0.454 OA
ATOM     86  C   UNL A   1      28.813  30.730  22.579  1.00  0.00     0.468 C 
ENDBRANCH  77  78
ENDBRANCH  75  77
ENDBRANCH  64  68
ENDBRANCH  60  62
ENDBRANCH  59  60
ENDBRANCH  58  59
ENDBRANCH   1  58
TORSDOF 17
ENDMDL
MODEL 2
REMARK VINA RESULT:     -11.3      1.609      5.437
REMARK SMILES O=C(OCCOCCOC(=O)[C@@H]1CC=CC[C@H]1C(=O)N1CC[NH+](Cc2ccc3c(c2)OCO3)CC1)c1ccc(-c2c3nc(c(-c4ccccc4)c4ccc([nH]4)c(-c4ccccc4)c4nc(c(-c5ccccc5)c5ccc2[nH]5)C=C4)C=C3)cc1
REMARK SMILES IDX 7 1 6 2 5 3 4 4 3 5 2 6 1 7 36 8 37 9 83 10 38 11 82 12
REMARK SMILES IDX 39 13 40 14 41 15 76 16 42 17 81 18 75 19 77 20 43 21 80 22
REMARK SMILES IDX 74 23 73 24 44 26 66 27 51 28 65 29 52 30 55 31 64 32 78 33
REMARK SMILES IDX 53 34 54 35 63 37 79 38 56 39 45 40 46 41 50 42 47 43 49 44
REMARK SMILES IDX 48 45 67 46 68 47 72 48 69 49 71 50 70 51 57 52 58 53 62 54
REMARK SMILES IDX 59 55 61 56 60 57 8 58 9 59 10 60 11 61 12 62 13 63 17 64
REMARK SMILES IDX 14 65 16 66 15 67 18 68 19 69 20 70 21 71 35 72 22 73 34 74
REMARK SMILES IDX 23 75 24 77 25 78 26 79 30 80 27 81 29 82 28 83 31 84 33 85
REMARK SMILES IDX 32 86
REMARK H PARENT 77 25 55 36 23 76
REMARK Flexibility Score: inf
ROOT
ATOM      1  C   UNL A   1      36.581  22.979  24.326  1.00  0.00     0.202 C 
ENDROOT
BRANCH   1   2
ATOM      2  O   UNL A   1      37.717  22.428  25.005  1.00  0.00    -0.374 OA
BRANCH   2   3
ATOM      3  C   UNL A   1      37.529  21.100  25.491  1.00  0.00     0.202 C 
BRANCH   3   4
ATOM      4  C   UNL A   1      38.412  20.049  24.820  1.00  0.00     0.261 C 
BRANCH   4   5
ATOM      5  O   UNL A   1      39.260  19.420  25.788  1.00  0.00    -0.460 OA
BRANCH   5   6
ATOM      6  C   UNL A   1      40.549  19.729  26.059  1.00  0.00     0.338 C 
ATOM      7  O   UNL A   1      41.424  18.901  25.813  1.00  0.00    -0.246 OA
BRANCH   6   8
ATOM      8  C   UNL A   1      40.974  21.059  26.587  1.00  0.00     0.060 A 
ATOM      9  C   UNL A   1      41.036  21.399  27.940  1.00  0.00     0.016 A 
ATOM     10  C   UNL A   1      41.427  22.002  25.651  1.00  0.00     0.016 A 
ATOM     11  C   UNL A   1      41.472  22.641  28.362  1.00  0.00     0.010 A 
ATOM     12  C   UNL A   1      41.915  23.244  26.068  1.00  0.00     0.010 A 
ATOM     13  C   UNL A   1      41.930  23.562  27.430  1.00  0.00    -0.014 A 
BRANCH  13  14
ATOM     14  C   UNL A   1      42.342  24.880  27.933  1.00  0.00     0.031 A 
ATOM     15  C   UNL A   1      43.803  25.189  28.004  1.00  0.00     0.074 A 
ATOM     16  C   UNL A   1      41.403  25.817  28.158  1.00  0.00     0.049 A 
ATOM     17  N   UNL A   1      44.397  26.265  28.440  1.00  0.00    -0.248 NA
ATOM     18  C   UNL A   1      44.719  24.152  27.498  1.00  0.00     0.031 C 
ATOM     19  C   UNL A   1      39.961  25.632  27.961  1.00  0.00     0.029 A 
ATOM     20  N   UNL A   1      41.521  27.119  28.557  1.00  0.00    -0.354 N 
ATOM     21  C   UNL A   1      45.754  26.024  28.290  1.00  0.00     0.074 A 
ATOM     22  C   UNL A   1      45.900  24.703  27.724  1.00  0.00     0.031 C 
ATOM     23  C   UNL A   1      39.333  26.792  28.212  1.00  0.00     0.029 A 
ATOM     24  C   UNL A   1      40.315  27.769  28.661  1.00  0.00     0.049 A 
ATOM     25  H   UNL A   1      42.385  27.548  28.752  1.00  0.00     0.167 HD
ATOM     26  C   UNL A   1      46.784  26.840  28.614  1.00  0.00     0.031 A 
ATOM     27  C   UNL A   1      40.045  29.008  29.112  1.00  0.00     0.031 A 
ATOM     28  C   UNL A   1      46.600  28.139  29.197  1.00  0.00     0.049 A 
ATOM     29  C   UNL A   1      41.202  29.846  29.578  1.00  0.00     0.074 A 
ATOM     30  C   UNL A   1      47.550  29.025  29.666  1.00  0.00     0.029 A 
ATOM     31  N   UNL A   1      45.360  28.737  29.385  1.00  0.00    -0.354 N 
ATOM     32  N   UNL A   1      42.487  29.577  29.531  1.00  0.00    -0.248 NA
ATOM     33  C   UNL A   1      40.876  31.144  30.178  1.00  0.00     0.031 C 
ATOM     34  C   UNL A   1      46.880  30.144  30.175  1.00  0.00     0.029 A 
ATOM     35  C   UNL A   1      45.517  29.977  29.973  1.00  0.00     0.049 A 
ATOM     36  H   UNL A   1      44.496  28.336  29.135  1.00  0.00     0.167 HD
ATOM     37  C   UNL A   1      43.125  30.677  30.084  1.00  0.00     0.074 A 
ATOM     38  C   UNL A   1      42.085  31.626  30.434  1.00  0.00     0.031 C 
ATOM     39  C   UNL A   1      44.447  30.886  30.298  1.00  0.00     0.031 A 
BRANCH  26  40
ATOM     40  C   UNL A   1      48.167  26.293  28.419  1.00  0.00    -0.014 A 
ATOM     41  C   UNL A   1      48.831  25.590  29.438  1.00  0.00     0.009 A 
ATOM     42  C   UNL A   1      48.839  26.531  27.210  1.00  0.00     0.009 A 
ATOM     43  C   UNL A   1      50.152  25.172  29.263  1.00  0.00     0.001 A 
ATOM     44  C   UNL A   1      50.151  26.092  27.029  1.00  0.00     0.001 A 
ATOM     45  C   UNL A   1      50.811  25.423  28.060  1.00  0.00     0.000 A 
ENDBRANCH  26  40
BRANCH  27  46
ATOM     46  C   UNL A   1      38.640  29.487  29.219  1.00  0.00    -0.014 A 
ATOM     47  C   UNL A   1      38.020  30.160  28.155  1.00  0.00     0.009 A 
ATOM     48  C   UNL A   1      37.911  29.288  30.404  1.00  0.00     0.009 A 
ATOM     49  C   UNL A   1      36.716  30.645  28.287  1.00  0.00     0.001 A 
ATOM     50  C   UNL A   1      36.597  29.744  30.521  1.00  0.00     0.001 A 
ATOM     51  C   UNL A   1      36.003  30.433  29.466  1.00  0.00     0.000 A 
ENDBRANCH  27  46
BRANCH  39  52
ATOM     52  C   UNL A   1      44.826  32.205  30.902  1.00  0.00    -0.014 A 
ATOM     53  C   UNL A   1      44.932  32.361  32.293  1.00  0.00     0.009 A 
ATOM     54  C   UNL A   1      45.117  33.290  30.064  1.00  0.00     0.009 A 
ATOM     55  C   UNL A   1      45.293  33.595  32.833  1.00  0.00     0.001 A 
ATOM     56  C   UNL A   1      45.506  34.514  30.606  1.00  0.00     0.001 A 
ATOM     57  C   UNL A   1      45.585  34.668  31.989  1.00  0.00     0.000 A 
ENDBRANCH  39  52
ENDBRANCH  13  14
ENDBRANCH   6   8
ENDBRANCH   5   6
ENDBRANCH   4   5
ENDBRANCH   3   4
ENDBRANCH   2   3
ENDBRANCH   1   2
BRANCH   1  58
ATOM     58  C   UNL A   1      35.911  24.019  25.223  1.00  0.00     0.261 C 
BRANCH  58  59
ATOM     59  O   UNL A   1      35.073  24.843  24.394  1.00  0.00    -0.463 OA
BRANCH  59  60
ATOM     60  C   UNL A   1      34.305  25.739  25.073  1.00  0.00     0.310 C 
ATOM     61  O   UNL A   1      34.404  25.964  26.275  1.00  0.00    -0.252 OA
BRANCH  60  62
ATOM     62  C   UNL A   1      33.431  26.539  24.108  1.00  0.00     0.115 C 
ATOM     63  C   UNL A   1      33.976  27.982  24.071  1.00  0.00     0.043 C 
ATOM     64  C   UNL A   1      31.936  26.394  24.434  1.00  0.00     0.097 C 
ATOM     65  C   UNL A   1      33.006  29.035  23.664  1.00  0.00    -0.030 C 
ATOM     66  C   UNL A   1      31.021  27.576  24.046  1.00  0.00     0.041 C 
ATOM     67  C   UNL A   1      31.685  28.855  23.671  1.00  0.00    -0.030 C 
BRANCH  64  68
ATOM     68  C   UNL A   1      31.295  25.100  23.887  1.00  0.00     0.227 C 
ATOM     69  O   UNL A   1      30.278  25.155  23.193  1.00  0.00    -0.275 OA
ATOM     70  N   UNL A   1      31.997  23.903  24.051  1.00  0.00    -0.331 N 
ATOM     71  C   UNL A   1      32.050  23.036  22.879  1.00  0.00     0.181 C 
ATOM     72  C   UNL A   1      31.918  23.171  25.305  1.00  0.00     0.181 C 
ATOM     73  C   UNL A   1      33.078  21.895  23.026  1.00  0.00     0.284 C 
ATOM     74  C   UNL A   1      32.913  22.007  25.441  1.00  0.00     0.284 C 
ATOM     75  N   UNL A   1      33.030  21.129  24.278  1.00  0.00    -0.328 N 
ATOM     76  H   UNL A   1      33.944  20.686  24.355  1.00  0.00     0.348 HD
BRANCH  75  77
ATOM     77  C   UNL A   1      32.195  19.926  24.284  1.00  0.00     0.299 C 
BRANCH  77  78
ATOM     78  C   UNL A   1      32.871  18.606  24.577  1.00  0.00     0.010 A 
ATOM     79  C   UNL A   1      34.274  18.481  24.450  1.00  0.00     0.013 A 
ATOM     80  C   UNL A   1      32.119  17.489  24.980  1.00  0.00     0.060 A 
ATOM     81  C   UNL A   1      34.915  17.253  24.638  1.00  0.00     0.051 A 
ATOM     82  C   UNL A   1      32.781  16.295  25.178  1.00  0.00     0.166 A 
ATOM     83  C   UNL A   1      34.137  16.177  24.998  1.00  0.00     0.165 A 
ATOM     84  O   UNL A   1      32.204  15.121  25.549  1.00  0.00    -0.454 OA
ATOM     85  O   UNL A   1      34.584  14.913  25.216  1.00  0.00    -0.454 OA
ATOM     86  C   UNL A   1      33.354  14.247  25.573  1.00  0.00     0.468 C 
ENDBRANCH  77  78
ENDBRANCH  75  77
ENDBRANCH  64  68
ENDBRANCH  60  62
ENDBRANCH  59  60
ENDBRANCH  58  59
ENDBRANCH   1  58
TORSDOF 17
ENDMDL
MODEL 3
REMARK VINA RESULT:     -11.2      1.626      7.813
REMARK SMILES O=C(OCCOCCOC(=O)[C@@H]1CC=CC[C@H]1C(=O)N1CC[NH+](Cc2ccc3c(c2)OCO3)CC1)c1ccc(-c2c3nc(c(-c4ccccc4)c4ccc([nH]4)c(-c4ccccc4)c4nc(c(-c5ccccc5)c5ccc2[nH]5)C=C4)C=C3)cc1
REMARK SMILES IDX 7 1 6 2 5 3 4 4 3 5 2 6 1 7 36 8 37 9 83 10 38 11 82 12
REMARK SMILES IDX 39 13 40 14 41 15 76 16 42 17 81 18 75 19 77 20 43 21 80 22
REMARK SMILES IDX 74 23 73 24 44 26 66 27 51 28 65 29 52 30 55 31 64 32 78 33
REMARK SMILES IDX 53 34 54 35 63 37 79 38 56 39 45 40 46 41 50 42 47 43 49 44
REMARK SMILES IDX 48 45 67 46 68 47 72 48 69 49 71 50 70 51 57 52 58 53 62 54
REMARK SMILES IDX 59 55 61 56 60 57 8 58 9 59 10 60 11 61 12 62 13 63 17 64
REMARK SMILES IDX 14 65 16 66 15 67 18 68 19 69 20 70 21 71 35 72 22 73 34 74
REMARK SMILES IDX 23 75 24 77 25 78 26 79 30 80 27 81 29 82 28 83 31 84 33 85
REMARK SMILES IDX 32 86
REMARK H PARENT 77 25 55 36 23 76
REMARK Flexibility Score: inf
ROOT
ATOM      1  C   UNL A   1      36.445  23.240  24.432  1.00  0.00     0.202 C 
ENDROOT
BRANCH   1   2
ATOM      2  O   UNL A   1      37.588  22.691  25.098  1.00  0.00    -0.374 OA
BRANCH   2   3
ATOM      3  C   UNL A   1      37.421  21.347  25.548  1.00  0.00     0.202 C 
BRANCH   3   4
ATOM      4  C   UNL A   1      38.310  20.326  24.839  1.00  0.00     0.261 C 
BRANCH   4   5
ATOM      5  O   UNL A   1      39.164  19.669  25.783  1.00  0.00    -0.460 OA
BRANCH   5   6
ATOM      6  C   UNL A   1      40.467  19.944  26.027  1.00  0.00     0.338 C 
ATOM      7  O   UNL A   1      41.320  19.122  25.700  1.00  0.00    -0.246 OA
BRANCH   6   8
ATOM      8  C   UNL A   1      40.930  21.234  26.618  1.00  0.00     0.060 A 
ATOM      9  C   UNL A   1      40.963  21.520  27.985  1.00  0.00     0.016 A 
ATOM     10  C   UNL A   1      41.451  22.192  25.734  1.00  0.00     0.016 A 
ATOM     11  C   UNL A   1      41.437  22.724  28.468  1.00  0.00     0.010 A 
ATOM     12  C   UNL A   1      41.977  23.395  26.214  1.00  0.00     0.010 A 
ATOM     13  C   UNL A   1      41.962  23.660  27.587  1.00  0.00    -0.014 A 
BRANCH  13  14
ATOM     14  C   UNL A   1      42.413  24.939  28.154  1.00  0.00     0.031 A 
ATOM     15  C   UNL A   1      41.396  26.009  28.389  1.00  0.00     0.074 A 
ATOM     16  C   UNL A   1      43.680  25.051  28.591  1.00  0.00     0.049 A 
ATOM     17  N   UNL A   1      41.565  27.219  28.846  1.00  0.00    -0.248 NA
ATOM     18  C   UNL A   1      39.997  25.664  28.084  1.00  0.00     0.031 C 
ATOM     19  C   UNL A   1      44.690  23.988  28.535  1.00  0.00     0.029 A 
ATOM     20  N   UNL A   1      44.322  26.089  29.208  1.00  0.00    -0.354 N 
ATOM     21  C   UNL A   1      40.301  27.790  28.855  1.00  0.00     0.074 A 
ATOM     22  C   UNL A   1      39.373  26.799  28.359  1.00  0.00     0.031 C 
ATOM     23  C   UNL A   1      45.816  24.423  29.123  1.00  0.00     0.029 A 
ATOM     24  C   UNL A   1      45.630  25.811  29.522  1.00  0.00     0.049 A 
ATOM     25  H   UNL A   1      43.890  26.950  29.407  1.00  0.00     0.167 HD
ATOM     26  C   UNL A   1      39.957  29.042  29.235  1.00  0.00     0.031 A 
ATOM     27  C   UNL A   1      46.577  26.616  30.037  1.00  0.00     0.031 A 
ATOM     28  C   UNL A   1      40.911  30.008  29.702  1.00  0.00     0.049 A 
ATOM     29  C   UNL A   1      46.194  28.038  30.337  1.00  0.00     0.074 A 
ATOM     30  C   UNL A   1      40.718  31.338  30.021  1.00  0.00     0.029 A 
ATOM     31  N   UNL A   1      42.255  29.730  29.918  1.00  0.00    -0.354 N 
ATOM     32  N   UNL A   1      45.015  28.610  30.249  1.00  0.00    -0.248 NA
ATOM     33  C   UNL A   1      47.269  28.930  30.784  1.00  0.00     0.031 C 
ATOM     34  C   UNL A   1      41.957  31.875  30.393  1.00  0.00     0.029 A 
ATOM     35  C   UNL A   1      42.908  30.866  30.356  1.00  0.00     0.049 A 
ATOM     36  H   UNL A   1      42.680  28.853  29.779  1.00  0.00     0.167 HD
ATOM     37  C   UNL A   1      45.202  29.927  30.640  1.00  0.00     0.074 A 
ATOM     38  C   UNL A   1      46.604  30.059  30.991  1.00  0.00     0.031 C 
ATOM     39  C   UNL A   1      44.307  30.943  30.696  1.00  0.00     0.031 A 
BRANCH  26  40
ATOM     40  C   UNL A   1      38.517  29.428  29.068  1.00  0.00    -0.014 A 
ATOM     41  C   UNL A   1      37.614  29.385  30.142  1.00  0.00     0.009 A 
ATOM     42  C   UNL A   1      38.044  29.792  27.798  1.00  0.00     0.009 A 
ATOM     43  C   UNL A   1      36.260  29.660  29.938  1.00  0.00     0.001 A 
ATOM     44  C   UNL A   1      36.694  30.089  27.601  1.00  0.00     0.001 A 
ATOM     45  C   UNL A   1      35.801  30.012  28.670  1.00  0.00     0.000 A 
ENDBRANCH  26  40
BRANCH  27  46
ATOM     46  C   UNL A   1      47.971  26.127  30.221  1.00  0.00    -0.014 A 
ATOM     47  C   UNL A   1      48.877  26.099  29.151  1.00  0.00     0.009 A 
ATOM     48  C   UNL A   1      48.400  25.665  31.478  1.00  0.00     0.009 A 
ATOM     49  C   UNL A   1      50.169  25.594  29.328  1.00  0.00     0.001 A 
ATOM     50  C   UNL A   1      49.701  25.193  31.660  1.00  0.00     0.001 A 
ATOM     51  C   UNL A   1      50.582  25.147  30.582  1.00  0.00     0.000 A 
ENDBRANCH  27  46
BRANCH  39  52
ATOM     52  C   UNL A   1      44.822  32.263  31.188  1.00  0.00    -0.014 A 
ATOM     53  C   UNL A   1      44.824  32.574  32.556  1.00  0.00     0.009 A 
ATOM     54  C   UNL A   1      45.345  33.185  30.272  1.00  0.00     0.009 A 
ATOM     55  C   UNL A   1      45.314  33.806  32.993  1.00  0.00     0.001 A 
ATOM     56  C   UNL A   1      45.861  34.402  30.714  1.00  0.00     0.001 A 
ATOM     57  C   UNL A   1      45.836  34.715  32.072  1.00  0.00     0.000 A 
ENDBRANCH  39  52
ENDBRANCH  13  14
ENDBRANCH   6   8
ENDBRANCH   5   6
ENDBRANCH   4   5
ENDBRANCH   3   4
ENDBRANCH   2   3
ENDBRANCH   1   2
BRANCH   1  58
ATOM     58  C   UNL A   1      35.757  24.247  25.354  1.00  0.00     0.261 C 
BRANCH  58  59
ATOM     59  O   UNL A   1      34.802  24.984  24.570  1.00  0.00    -0.463 OA
BRANCH  59  60
ATOM     60  C   UNL A   1      34.078  25.899  25.270  1.00  0.00     0.310 C 
ATOM     61  O   UNL A   1      34.223  26.130  26.465  1.00  0.00    -0.252 OA
BRANCH  60  62
ATOM     62  C   UNL A   1      33.187  26.712  24.330  1.00  0.00     0.115 C 
ATOM     63  C   UNL A   1      33.660  28.179  24.390  1.00  0.00     0.043 C 
ATOM     64  C   UNL A   1      31.694  26.477  24.609  1.00  0.00     0.097 C 
ATOM     65  C   UNL A   1      32.649  29.207  24.019  1.00  0.00    -0.030 C 
ATOM     66  C   UNL A   1      30.731  27.634  24.266  1.00  0.00     0.041 C 
ATOM     67  C   UNL A   1      31.338  28.963  23.982  1.00  0.00    -0.030 C 
BRANCH  64  68
ATOM     68  C   UNL A   1      31.131  25.187  23.972  1.00  0.00     0.227 C 
ATOM     69  O   UNL A   1      30.161  25.241  23.214  1.00  0.00    -0.275 OA
ATOM     70  N   UNL A   1      31.856  24.005  24.139  1.00  0.00    -0.331 N 
ATOM     71  C   UNL A   1      32.013  23.186  22.943  1.00  0.00     0.181 C 
ATOM     72  C   UNL A   1      31.716  23.223  25.358  1.00  0.00     0.181 C 
ATOM     73  C   UNL A   1      33.063  22.069  23.116  1.00  0.00     0.284 C 
ATOM     74  C   UNL A   1      32.734  22.082  25.518  1.00  0.00     0.284 C 
ATOM     75  N   UNL A   1      32.955  21.254  24.333  1.00  0.00    -0.328 N 
ATOM     76  H   UNL A   1      33.875  20.833  24.456  1.00  0.00     0.348 HD
BRANCH  75  77
ATOM     77  C   UNL A   1      32.158  20.028  24.238  1.00  0.00     0.299 C 
BRANCH  77  78
ATOM     78  C   UNL A   1      32.851  18.718  24.535  1.00  0.00     0.010 A 
ATOM     79  C   UNL A   1      34.256  18.611  24.412  1.00  0.00     0.013 A 
ATOM     80  C   UNL A   1      32.113  17.592  24.937  1.00  0.00     0.060 A 
ATOM     81  C   UNL A   1      34.913  17.393  24.603  1.00  0.00     0.051 A 
ATOM     82  C   UNL A   1      32.791  16.407  25.139  1.00  0.00     0.166 A 
ATOM     83  C   UNL A   1      34.149  16.307  24.962  1.00  0.00     0.165 A 
ATOM     84  O   UNL A   1      32.228  15.226  25.509  1.00  0.00    -0.454 OA
ATOM     85  O   UNL A   1      34.612  15.049  25.184  1.00  0.00    -0.454 OA
ATOM     86  C   UNL A   1      33.390  14.367  25.538  1.00  0.00     0.468 C 
ENDBRANCH  77  78
ENDBRANCH  75  77
ENDBRANCH  64  68
ENDBRANCH  60  62
ENDBRANCH  59  60
ENDBRANCH  58  59
ENDBRANCH   1  58
TORSDOF 17
ENDMDL
