MODEL 1
REMARK VINA RESULT:     -10.4      0.000      0.000
REMARK SMILES O=C(OCCOCCOC(=O)[C@@H]1C[NH2+]CCN1C(=O)N[C@@H]1CCOC1)c1ccc(-c2c3nc(c(-c4ccccc4)c4ccc([nH]4)c(-c4ccccc4)c4nc(c(-c5ccccc5)c5ccc2[nH]5)C=C4)C=C3)cc1
REMARK SMILES IDX 6 1 5 2 4 3 3 4 2 5 1 6 26 7 27 8 73 9 28 10 72 11 29 12
REMARK SMILES IDX 30 13 31 14 66 15 32 16 71 17 65 18 67 19 33 20 70 21 64 22
REMARK SMILES IDX 63 23 34 25 56 26 41 27 55 28 42 29 45 30 54 31 68 32 43 33
REMARK SMILES IDX 44 34 53 36 69 37 46 38 35 39 36 40 40 41 37 42 39 43 38 44
REMARK SMILES IDX 57 45 58 46 62 47 59 48 61 49 60 50 47 51 48 52 52 53 49 54
REMARK SMILES IDX 51 55 50 56 7 57 8 58 9 59 10 60 11 61 12 62 13 63 17 64
REMARK SMILES IDX 14 65 16 66 15 67 18 70 19 71 20 72 21 74 22 75 25 76 23 77
REMARK SMILES IDX 24 78
REMARK H PARENT 67 24 45 35 14 68 14 69 20 73
REMARK Flexibility Score: inf
ROOT
ATOM      1  O   UNL A   1      39.053  21.844  25.717  1.00  0.00    -0.374 OA
ENDROOT
BRANCH   1   2
ATOM      2  C   UNL A   1      39.035  20.448  25.414  1.00  0.00     0.202 C 
BRANCH   2   3
ATOM      3  C   UNL A   1      39.929  19.430  26.121  1.00  0.00     0.261 C 
BRANCH   3   4
ATOM      4  O   UNL A   1      41.087  18.929  25.429  1.00  0.00    -0.460 OA
BRANCH   4   5
ATOM      5  C   UNL A   1      42.318  19.211  25.913  1.00  0.00     0.338 C 
ATOM      6  O   UNL A   1      43.268  18.474  25.795  1.00  0.00    -0.246 OA
BRANCH   5   7
ATOM      7  C   UNL A   1      42.403  20.594  26.471  1.00  0.00     0.060 A 
ATOM      8  C   UNL A   1      42.642  21.708  25.654  1.00  0.00     0.016 A 
ATOM      9  C   UNL A   1      42.159  20.778  27.837  1.00  0.00     0.016 A 
ATOM     10  C   UNL A   1      42.456  22.985  26.148  1.00  0.00     0.010 A 
ATOM     11  C   UNL A   1      42.137  22.066  28.375  1.00  0.00     0.010 A 
ATOM     12  C   UNL A   1      42.280  23.166  27.523  1.00  0.00    -0.014 A 
BRANCH  12  13
ATOM     13  C   UNL A   1      42.614  24.514  28.008  1.00  0.00     0.031 A 
ATOM     14  C   UNL A   1      44.075  24.871  27.977  1.00  0.00     0.074 A 
ATOM     15  C   UNL A   1      41.657  25.429  28.223  1.00  0.00     0.049 A 
ATOM     16  N   UNL A   1      44.646  26.036  28.094  1.00  0.00    -0.248 NA
ATOM     17  C   UNL A   1      45.013  23.766  27.684  1.00  0.00     0.031 C 
ATOM     18  C   UNL A   1      40.216  25.194  28.128  1.00  0.00     0.029 A 
ATOM     19  N   UNL A   1      41.763  26.760  28.518  1.00  0.00    -0.354 N 
ATOM     20  C   UNL A   1      45.990  25.812  27.828  1.00  0.00     0.074 A 
ATOM     21  C   UNL A   1      46.157  24.409  27.540  1.00  0.00     0.031 C 
ATOM     22  C   UNL A   1      39.570  26.352  28.358  1.00  0.00     0.029 A 
ATOM     23  C   UNL A   1      40.552  27.395  28.644  1.00  0.00     0.049 A 
ATOM     24  H   UNL A   1      42.626  27.221  28.629  1.00  0.00     0.167 HD
ATOM     25  C   UNL A   1      47.006  26.701  27.845  1.00  0.00     0.031 A 
ATOM     26  C   UNL A   1      40.289  28.674  28.976  1.00  0.00     0.031 A 
ATOM     27  C   UNL A   1      46.839  28.058  28.273  1.00  0.00     0.049 A 
ATOM     28  C   UNL A   1      41.462  29.596  29.201  1.00  0.00     0.074 A 
ATOM     29  C   UNL A   1      47.802  29.015  28.519  1.00  0.00     0.029 A 
ATOM     30  N   UNL A   1      45.608  28.631  28.556  1.00  0.00    -0.354 N 
ATOM     31  N   UNL A   1      42.741  29.368  29.010  1.00  0.00    -0.248 NA
ATOM     32  C   UNL A   1      41.158  30.944  29.695  1.00  0.00     0.031 C 
ATOM     33  C   UNL A   1      47.153  30.156  29.004  1.00  0.00     0.029 A 
ATOM     34  C   UNL A   1      45.784  29.926  28.999  1.00  0.00     0.049 A 
ATOM     35  H   UNL A   1      44.737  28.183  28.454  1.00  0.00     0.167 HD
ATOM     36  C   UNL A   1      43.394  30.544  29.354  1.00  0.00     0.074 A 
ATOM     37  C   UNL A   1      42.364  31.494  29.728  1.00  0.00     0.031 C 
ATOM     38  C   UNL A   1      44.722  30.824  29.372  1.00  0.00     0.031 A 
BRANCH  25  39
ATOM     39  C   UNL A   1      48.368  26.176  27.506  1.00  0.00    -0.014 A 
ATOM     40  C   UNL A   1      49.180  25.580  28.486  1.00  0.00     0.009 A 
ATOM     41  C   UNL A   1      48.870  26.334  26.207  1.00  0.00     0.009 A 
ATOM     42  C   UNL A   1      50.478  25.172  28.172  1.00  0.00     0.001 A 
ATOM     43  C   UNL A   1      50.161  25.909  25.892  1.00  0.00     0.001 A 
ATOM     44  C   UNL A   1      50.967  25.335  26.875  1.00  0.00     0.000 A 
ENDBRANCH  25  39
BRANCH  26  45
ATOM     45  C   UNL A   1      38.890  29.132  29.202  1.00  0.00    -0.014 A 
ATOM     46  C   UNL A   1      38.250  28.970  30.441  1.00  0.00     0.009 A 
ATOM     47  C   UNL A   1      38.159  29.691  28.139  1.00  0.00     0.009 A 
ATOM     48  C   UNL A   1      36.906  29.326  30.598  1.00  0.00     0.001 A 
ATOM     49  C   UNL A   1      36.827  30.076  28.307  1.00  0.00     0.001 A 
ATOM     50  C   UNL A   1      36.197  29.881  29.533  1.00  0.00     0.000 A 
ENDBRANCH  26  45
BRANCH  38  51
ATOM     51  C   UNL A   1      45.114  32.207  29.801  1.00  0.00    -0.014 A 
ATOM     52  C   UNL A   1      45.371  32.502  31.147  1.00  0.00     0.009 A 
ATOM     53  C   UNL A   1      45.270  33.213  28.835  1.00  0.00     0.009 A 
ATOM     54  C   UNL A   1      45.738  33.793  31.525  1.00  0.00     0.001 A 
ATOM     55  C   UNL A   1      45.668  34.494  29.212  1.00  0.00     0.001 A 
ATOM     56  C   UNL A   1      45.890  34.785  30.557  1.00  0.00     0.000 A 
ENDBRANCH  38  51
ENDBRANCH  12  13
ENDBRANCH   5   7
ENDBRANCH   4   5
ENDBRANCH   3   4
ENDBRANCH   2   3
ENDBRANCH   1   2
BRANCH   1  57
ATOM     57  C   UNL A   1      37.830  22.591  25.728  1.00  0.00     0.202 C 
BRANCH  57  58
ATOM     58  C   UNL A   1      36.895  22.180  24.544  1.00  0.00     0.261 C 
BRANCH  58  59
ATOM     59  O   UNL A   1      36.149  23.347  24.108  1.00  0.00    -0.462 OA
BRANCH  59  60
ATOM     60  C   UNL A   1      34.828  23.469  24.470  1.00  0.00     0.334 C 
ATOM     61  O   UNL A   1      34.393  24.365  25.181  1.00  0.00    -0.250 OA
BRANCH  60  62
ATOM     62  C   UNL A   1      33.929  22.437  23.712  1.00  0.00     0.252 C 
ATOM     63  C   UNL A   1      33.098  22.970  22.521  1.00  0.00     0.298 C 
ATOM     64  N   UNL A   1      33.104  21.707  24.664  1.00  0.00    -0.300 N 
ATOM     65  N   UNL A   1      31.622  22.933  22.685  1.00  0.00    -0.343 N 
ATOM     66  C   UNL A   1      31.852  22.367  25.083  1.00  0.00     0.183 C 
ATOM     67  C   UNL A   1      31.303  23.364  24.051  1.00  0.00     0.282 C 
ATOM     68  H   UNL A   1      31.282  21.984  22.533  1.00  0.00     0.346 HD
ATOM     69  H   UNL A   1      31.176  23.551  22.007  1.00  0.00     0.346 HD
BRANCH  64  70
ATOM     70  C   UNL A   1      33.631  20.756  25.504  1.00  0.00     0.318 C 
ATOM     71  O   UNL A   1      34.180  21.122  26.543  1.00  0.00    -0.249 OA
ATOM     72  N   UNL A   1      33.842  19.502  24.986  1.00  0.00    -0.333 N 
ATOM     73  H   UNL A   1      34.776  19.336  24.721  1.00  0.00     0.165 HD
BRANCH  72  74
ATOM     74  C   UNL A   1      32.951  18.358  24.749  1.00  0.00     0.112 C 
ATOM     75  C   UNL A   1      33.745  17.054  24.830  1.00  0.00     0.056 C 
ATOM     76  C   UNL A   1      32.412  18.260  23.310  1.00  0.00     0.185 C 
ATOM     77  C   UNL A   1      34.236  16.834  23.410  1.00  0.00     0.162 C 
ATOM     78  O   UNL A   1      33.215  17.340  22.557  1.00  0.00    -0.379 OA
ENDBRANCH  72  74
ENDBRANCH  64  70
ENDBRANCH  60  62
ENDBRANCH  59  60
ENDBRANCH  58  59
ENDBRANCH  57  58
ENDBRANCH   1  57
TORSDOF 16
ENDMDL
MODEL 2
REMARK VINA RESULT:     -10.4      5.309     10.380
REMARK SMILES O=C(OCCOCCOC(=O)[C@@H]1C[NH2+]CCN1C(=O)N[C@@H]1CCOC1)c1ccc(-c2c3nc(c(-c4ccccc4)c4ccc([nH]4)c(-c4ccccc4)c4nc(c(-c5ccccc5)c5ccc2[nH]5)C=C4)C=C3)cc1
REMARK SMILES IDX 6 1 5 2 4 3 3 4 2 5 1 6 26 7 27 8 73 9 28 10 72 11 29 12
REMARK SMILES IDX 30 13 31 14 66 15 32 16 71 17 65 18 67 19 33 20 70 21 64 22
REMARK SMILES IDX 63 23 34 25 56 26 41 27 55 28 42 29 45 30 54 31 68 32 43 33
REMARK SMILES IDX 44 34 53 36 69 37 46 38 35 39 36 40 40 41 37 42 39 43 38 44
REMARK SMILES IDX 57 45 58 46 62 47 59 48 61 49 60 50 47 51 48 52 52 53 49 54
REMARK SMILES IDX 51 55 50 56 7 57 8 58 9 59 10 60 11 61 12 62 13 63 17 64
REMARK SMILES IDX 14 65 16 66 15 67 18 70 19 71 20 72 21 74 22 75 25 76 23 77
REMARK SMILES IDX 24 78
REMARK H PARENT 67 24 45 35 14 68 14 69 20 73
REMARK Flexibility Score: inf
ROOT
ATOM      1  O   UNL A   1      33.191  31.088  27.310  1.00  0.00    -0.374 OA
ENDROOT
BRANCH   1   2
ATOM      2  C   UNL A   1      32.132  31.926  26.843  1.00  0.00     0.202 C 
BRANCH   2   3
ATOM      3  C   UNL A   1      31.942  33.367  27.312  1.00  0.00     0.261 C 
BRANCH   3   4
ATOM      4  O   UNL A   1      33.105  34.138  27.664  1.00  0.00    -0.460 OA
BRANCH   4   5
ATOM      5  C   UNL A   1      33.453  34.251  28.966  1.00  0.00     0.338 C 
ATOM      6  O   UNL A   1      32.755  34.775  29.801  1.00  0.00    -0.246 OA
BRANCH   5   7
ATOM      7  C   UNL A   1      34.722  33.525  29.277  1.00  0.00     0.060 A 
ATOM      8  C   UNL A   1      34.732  32.353  30.046  1.00  0.00     0.016 A 
ATOM      9  C   UNL A   1      35.914  33.995  28.716  1.00  0.00     0.016 A 
ATOM     10  C   UNL A   1      35.867  31.566  30.098  1.00  0.00     0.010 A 
ATOM     11  C   UNL A   1      37.103  33.288  28.908  1.00  0.00     0.010 A 
ATOM     12  C   UNL A   1      37.070  32.070  29.595  1.00  0.00    -0.014 A 
BRANCH  12  13
ATOM     13  C   UNL A   1      38.276  31.431  30.145  1.00  0.00     0.031 A 
ATOM     14  C   UNL A   1      38.568  31.734  31.590  1.00  0.00     0.074 A 
ATOM     15  C   UNL A   1      38.914  30.462  29.473  1.00  0.00     0.049 A 
ATOM     16  N   UNL A   1      39.387  31.140  32.411  1.00  0.00    -0.248 NA
ATOM     17  C   UNL A   1      37.755  32.800  32.213  1.00  0.00     0.031 C 
ATOM     18  C   UNL A   1      38.592  30.010  28.119  1.00  0.00     0.029 A 
ATOM     19  N   UNL A   1      39.939  29.646  29.867  1.00  0.00    -0.354 N 
ATOM     20  C   UNL A   1      39.141  31.717  33.651  1.00  0.00     0.074 A 
ATOM     21  C   UNL A   1      38.099  32.700  33.484  1.00  0.00     0.031 C 
ATOM     22  C   UNL A   1      39.408  28.990  27.796  1.00  0.00     0.029 A 
ATOM     23  C   UNL A   1      40.322  28.741  28.907  1.00  0.00     0.049 A 
ATOM     24  H   UNL A   1      40.362  29.702  30.754  1.00  0.00     0.167 HD
ATOM     25  C   UNL A   1      39.751  31.461  34.828  1.00  0.00     0.031 A 
ATOM     26  C   UNL A   1      41.319  27.836  28.938  1.00  0.00     0.031 A 
ATOM     27  C   UNL A   1      40.878  30.584  34.940  1.00  0.00     0.049 A 
ATOM     28  C   UNL A   1      42.128  27.725  30.207  1.00  0.00     0.074 A 
ATOM     29  C   UNL A   1      41.708  30.373  36.023  1.00  0.00     0.029 A 
ATOM     30  N   UNL A   1      41.350  29.798  33.900  1.00  0.00    -0.354 N 
ATOM     31  N   UNL A   1      41.935  28.316  31.365  1.00  0.00    -0.248 NA
ATOM     32  C   UNL A   1      43.293  26.833  30.174  1.00  0.00     0.031 C 
ATOM     33  C   UNL A   1      42.719  29.495  35.617  1.00  0.00     0.029 A 
ATOM     34  C   UNL A   1      42.479  29.114  34.304  1.00  0.00     0.049 A 
ATOM     35  H   UNL A   1      40.941  29.735  33.007  1.00  0.00     0.167 HD
ATOM     36  C   UNL A   1      42.950  27.864  32.198  1.00  0.00     0.074 A 
ATOM     37  C   UNL A   1      43.731  26.920  31.421  1.00  0.00     0.031 C 
ATOM     38  C   UNL A   1      43.226  28.196  33.484  1.00  0.00     0.031 A 
BRANCH  25  39
ATOM     39  C   UNL A   1      39.270  32.235  36.018  1.00  0.00    -0.014 A 
ATOM     40  C   UNL A   1      38.217  31.758  36.816  1.00  0.00     0.009 A 
ATOM     41  C   UNL A   1      39.835  33.485  36.308  1.00  0.00     0.009 A 
ATOM     42  C   UNL A   1      37.726  32.532  37.870  1.00  0.00     0.001 A 
ATOM     43  C   UNL A   1      39.355  34.248  37.373  1.00  0.00     0.001 A 
ATOM     44  C   UNL A   1      38.296  33.775  38.148  1.00  0.00     0.000 A 
ENDBRANCH  25  39
BRANCH  26  45
ATOM     45  C   UNL A   1      41.666  27.040  27.727  1.00  0.00    -0.014 A 
ATOM     46  C   UNL A   1      42.523  27.541  26.735  1.00  0.00     0.009 A 
ATOM     47  C   UNL A   1      41.081  25.777  27.532  1.00  0.00     0.009 A 
ATOM     48  C   UNL A   1      42.758  26.809  25.566  1.00  0.00     0.001 A 
ATOM     49  C   UNL A   1      41.343  25.034  26.380  1.00  0.00     0.001 A 
ATOM     50  C   UNL A   1      42.172  25.557  25.390  1.00  0.00     0.000 A 
ENDBRANCH  26  45
BRANCH  38  51
ATOM     51  C   UNL A   1      44.411  27.526  34.113  1.00  0.00    -0.014 A 
ATOM     52  C   UNL A   1      45.680  28.122  34.086  1.00  0.00     0.009 A 
ATOM     53  C   UNL A   1      44.241  26.302  34.780  1.00  0.00     0.009 A 
ATOM     54  C   UNL A   1      46.768  27.484  34.681  1.00  0.00     0.001 A 
ATOM     55  C   UNL A   1      45.324  25.683  35.400  1.00  0.00     0.001 A 
ATOM     56  C   UNL A   1      46.587  26.269  35.341  1.00  0.00     0.000 A 
ENDBRANCH  38  51
ENDBRANCH  12  13
ENDBRANCH   5   7
ENDBRANCH   4   5
ENDBRANCH   3   4
ENDBRANCH   2   3
ENDBRANCH   1   2
BRANCH   1  57
ATOM     57  C   UNL A   1      33.289  29.733  26.853  1.00  0.00     0.202 C 
BRANCH  57  58
ATOM     58  C   UNL A   1      32.000  28.918  27.195  1.00  0.00     0.261 C 
BRANCH  58  59
ATOM     59  O   UNL A   1      32.211  27.530  26.825  1.00  0.00    -0.462 OA
BRANCH  59  60
ATOM     60  C   UNL A   1      32.337  27.205  25.494  1.00  0.00     0.334 C 
ATOM     61  O   UNL A   1      33.385  26.853  24.971  1.00  0.00    -0.250 OA
BRANCH  60  62
ATOM     62  C   UNL A   1      30.944  27.160  24.782  1.00  0.00     0.252 C 
ATOM     63  C   UNL A   1      30.093  25.884  24.983  1.00  0.00     0.298 C 
ATOM     64  N   UNL A   1      31.098  27.491  23.373  1.00  0.00    -0.300 N 
ATOM     65  N   UNL A   1      29.850  25.062  23.770  1.00  0.00    -0.343 N 
ATOM     66  C   UNL A   1      31.499  26.383  22.482  1.00  0.00     0.183 C 
ATOM     67  C   UNL A   1      31.100  24.995  23.005  1.00  0.00     0.282 C 
ATOM     68  H   UNL A   1      29.120  25.492  23.203  1.00  0.00     0.346 HD
ATOM     69  H   UNL A   1      29.546  24.124  24.034  1.00  0.00     0.346 HD
BRANCH  64  70
ATOM     70  C   UNL A   1      31.365  28.770  22.951  1.00  0.00     0.318 C 
ATOM     71  O   UNL A   1      32.538  29.122  22.828  1.00  0.00    -0.249 OA
ATOM     72  N   UNL A   1      30.348  29.689  23.037  1.00  0.00    -0.333 N 
ATOM     73  H   UNL A   1      30.408  30.271  23.829  1.00  0.00     0.165 HD
BRANCH  72  74
ATOM     74  C   UNL A   1      29.189  29.976  22.182  1.00  0.00     0.112 C 
ATOM     75  C   UNL A   1      28.810  31.453  22.296  1.00  0.00     0.056 C 
ATOM     76  C   UNL A   1      27.876  29.321  22.650  1.00  0.00     0.185 C 
ATOM     77  C   UNL A   1      27.832  31.493  23.458  1.00  0.00     0.162 C 
ATOM     78  O   UNL A   1      27.108  30.269  23.406  1.00  0.00    -0.379 OA
ENDBRANCH  72  74
ENDBRANCH  64  70
ENDBRANCH  60  62
ENDBRANCH  59  60
ENDBRANCH  58  59
ENDBRANCH  57  58
ENDBRANCH   1  57
TORSDOF 16
ENDMDL
MODEL 3
REMARK VINA RESULT:     -10.4      5.582     10.688
REMARK SMILES O=C(OCCOCCOC(=O)[C@@H]1C[NH2+]CCN1C(=O)N[C@@H]1CCOC1)c1ccc(-c2c3nc(c(-c4ccccc4)c4ccc([nH]4)c(-c4ccccc4)c4nc(c(-c5ccccc5)c5ccc2[nH]5)C=C4)C=C3)cc1
REMARK SMILES IDX 6 1 5 2 4 3 3 4 2 5 1 6 26 7 27 8 73 9 28 10 72 11 29 12
REMARK SMILES IDX 30 13 31 14 66 15 32 16 71 17 65 18 67 19 33 20 70 21 64 22
REMARK SMILES IDX 63 23 34 25 56 26 41 27 55 28 42 29 45 30 54 31 68 32 43 33
REMARK SMILES IDX 44 34 53 36 69 37 46 38 35 39 36 40 40 41 37 42 39 43 38 44
REMARK SMILES IDX 57 45 58 46 62 47 59 48 61 49 60 50 47 51 48 52 52 53 49 54
REMARK SMILES IDX 51 55 50 56 7 57 8 58 9 59 10 60 11 61 12 62 13 63 17 64
REMARK SMILES IDX 14 65 16 66 15 67 18 70 19 71 20 72 21 74 22 75 25 76 23 77
REMARK SMILES IDX 24 78
REMARK H PARENT 67 24 45 35 14 68 14 69 20 73
REMARK Flexibility Score: inf
ROOT
ATOM      1  O   UNL A   1      34.191  30.927  27.795  1.00  0.00    -0.374 OA
ENDROOT
BRANCH   1   2
ATOM      2  C   UNL A   1      32.937  31.588  27.616  1.00  0.00     0.202 C 
BRANCH   2   3
ATOM      3  C   UNL A   1      32.820  33.058  27.217  1.00  0.00     0.261 C 
BRANCH   3   4
ATOM      4  O   UNL A   1      32.238  33.983  28.153  1.00  0.00    -0.460 OA
BRANCH   4   5
ATOM      5  C   UNL A   1      33.015  34.944  28.702  1.00  0.00     0.338 C 
ATOM      6  O   UNL A   1      32.681  36.101  28.798  1.00  0.00    -0.246 OA
BRANCH   5   7
ATOM      7  C   UNL A   1      34.261  34.385  29.309  1.00  0.00     0.060 A 
ATOM      8  C   UNL A   1      35.512  34.529  28.693  1.00  0.00     0.016 A 
ATOM      9  C   UNL A   1      34.174  33.772  30.564  1.00  0.00     0.016 A 
ATOM     10  C   UNL A   1      36.668  34.239  29.392  1.00  0.00     0.010 A 
ATOM     11  C   UNL A   1      35.331  33.324  31.203  1.00  0.00     0.010 A 
ATOM     12  C   UNL A   1      36.576  33.566  30.614  1.00  0.00    -0.014 A 
BRANCH  12  13
ATOM     13  C   UNL A   1      37.800  32.853  31.011  1.00  0.00     0.031 A 
ATOM     14  C   UNL A   1      38.410  33.289  32.315  1.00  0.00     0.074 A 
ATOM     15  C   UNL A   1      38.187  31.737  30.376  1.00  0.00     0.049 A 
ATOM     16  N   UNL A   1      39.317  32.701  33.043  1.00  0.00    -0.248 NA
ATOM     17  C   UNL A   1      37.852  34.516  32.922  1.00  0.00     0.031 C 
ATOM     18  C   UNL A   1      37.552  31.169  29.187  1.00  0.00     0.029 A 
ATOM     19  N   UNL A   1      39.185  30.853  30.681  1.00  0.00    -0.354 N 
ATOM     20  C   UNL A   1      39.389  33.449  34.211  1.00  0.00     0.074 A 
ATOM     21  C   UNL A   1      38.438  34.528  34.105  1.00  0.00     0.031 C 
ATOM     22  C   UNL A   1      38.180  30.022  28.865  1.00  0.00     0.029 A 
ATOM     23  C   UNL A   1      39.272  29.797  29.807  1.00  0.00     0.049 A 
ATOM     24  H   UNL A   1      39.785  30.962  31.454  1.00  0.00     0.167 HD
ATOM     25  C   UNL A   1      40.198  33.263  35.276  1.00  0.00     0.031 A 
ATOM     26  C   UNL A   1      40.160  28.785  29.777  1.00  0.00     0.031 A 
ATOM     27  C   UNL A   1      41.232  32.272  35.296  1.00  0.00     0.049 A 
ATOM     28  C   UNL A   1      41.196  28.727  30.872  1.00  0.00     0.074 A 
ATOM     29  C   UNL A   1      42.241  32.091  36.220  1.00  0.00     0.029 A 
ATOM     30  N   UNL A   1      41.401  31.312  34.309  1.00  0.00    -0.354 N 
ATOM     31  N   UNL A   1      41.305  29.473  31.948  1.00  0.00    -0.248 NA
ATOM     32  C   UNL A   1      42.236  27.699  30.747  1.00  0.00     0.031 C 
ATOM     33  C   UNL A   1      43.055  31.050  35.761  1.00  0.00     0.029 A 
ATOM     34  C   UNL A   1      42.515  30.546  34.585  1.00  0.00     0.049 A 
ATOM     35  H   UNL A   1      40.813  31.194  33.528  1.00  0.00     0.167 HD
ATOM     36  C   UNL A   1      42.418  29.001  32.630  1.00  0.00     0.074 A 
ATOM     37  C   UNL A   1      42.926  27.880  31.863  1.00  0.00     0.031 C 
ATOM     38  C   UNL A   1      42.984  29.450  33.780  1.00  0.00     0.031 A 
BRANCH  25  39
ATOM     39  C   UNL A   1      40.051  34.229  36.411  1.00  0.00    -0.014 A 
ATOM     40  C   UNL A   1      39.228  33.936  37.511  1.00  0.00     0.009 A 
ATOM     41  C   UNL A   1      40.692  35.475  36.351  1.00  0.00     0.009 A 
ATOM     42  C   UNL A   1      39.036  34.883  38.520  1.00  0.00     0.001 A 
ATOM     43  C   UNL A   1      40.512  36.412  37.369  1.00  0.00     0.001 A 
ATOM     44  C   UNL A   1      39.679  36.119  38.449  1.00  0.00     0.000 A 
ENDBRANCH  25  39
BRANCH  26  45
ATOM     45  C   UNL A   1      40.171  27.811  28.650  1.00  0.00    -0.014 A 
ATOM     46  C   UNL A   1      39.541  26.561  28.748  1.00  0.00     0.009 A 
ATOM     47  C   UNL A   1      40.878  28.115  27.473  1.00  0.00     0.009 A 
ATOM     48  C   UNL A   1      39.646  25.630  27.708  1.00  0.00     0.001 A 
ATOM     49  C   UNL A   1      40.953  27.197  26.423  1.00  0.00     0.001 A 
ATOM     50  C   UNL A   1      40.348  25.949  26.546  1.00  0.00     0.000 A 
ENDBRANCH  26  45
BRANCH  38  51
ATOM     51  C   UNL A   1      44.200  28.717  34.262  1.00  0.00    -0.014 A 
ATOM     52  C   UNL A   1      45.489  29.132  33.897  1.00  0.00     0.009 A 
ATOM     53  C   UNL A   1      44.051  27.624  35.130  1.00  0.00     0.009 A 
ATOM     54  C   UNL A   1      46.607  28.439  34.360  1.00  0.00     0.001 A 
ATOM     55  C   UNL A   1      45.171  26.953  35.617  1.00  0.00     0.001 A 
ATOM     56  C   UNL A   1      46.446  27.355  35.222  1.00  0.00     0.000 A 
ENDBRANCH  38  51
ENDBRANCH  12  13
ENDBRANCH   5   7
ENDBRANCH   4   5
ENDBRANCH   3   4
ENDBRANCH   2   3
ENDBRANCH   1   2
BRANCH   1  57
ATOM     57  C   UNL A   1      34.424  29.652  27.183  1.00  0.00     0.202 C 
BRANCH  57  58
ATOM     58  C   UNL A   1      33.239  29.236  26.252  1.00  0.00     0.261 C 
BRANCH  58  59
ATOM     59  O   UNL A   1      33.751  28.390  25.189  1.00  0.00    -0.462 OA
BRANCH  59  60
ATOM     60  C   UNL A   1      33.041  27.269  24.827  1.00  0.00     0.334 C 
ATOM     61  O   UNL A   1      33.556  26.206  24.508  1.00  0.00    -0.250 OA
BRANCH  60  62
ATOM     62  C   UNL A   1      31.506  27.466  25.054  1.00  0.00     0.252 C 
ATOM     63  C   UNL A   1      30.765  26.364  25.847  1.00  0.00     0.298 C 
ATOM     64  N   UNL A   1      30.851  27.752  23.785  1.00  0.00    -0.300 N 
ATOM     65  N   UNL A   1      29.747  25.588  25.093  1.00  0.00    -0.343 N 
ATOM     66  C   UNL A   1      30.497  26.583  22.955  1.00  0.00     0.183 C 
ATOM     67  C   UNL A   1      30.290  25.293  23.762  1.00  0.00     0.282 C 
ATOM     68  H   UNL A   1      28.892  26.136  25.004  1.00  0.00     0.346 HD
ATOM     69  H   UNL A   1      29.528  24.721  25.585  1.00  0.00     0.346 HD
BRANCH  64  70
ATOM     70  C   UNL A   1      30.996  28.960  23.147  1.00  0.00     0.318 C 
ATOM     71  O   UNL A   1      31.951  29.119  22.387  1.00  0.00    -0.249 OA
ATOM     72  N   UNL A   1      30.300  30.030  23.654  1.00  0.00    -0.333 N 
ATOM     73  H   UNL A   1      30.844  30.619  24.227  1.00  0.00     0.165 HD
BRANCH  72  74
ATOM     74  C   UNL A   1      28.906  30.470  23.514  1.00  0.00     0.112 C 
ATOM     75  C   UNL A   1      28.338  29.982  22.181  1.00  0.00     0.056 C 
ATOM     76  C   UNL A   1      28.733  31.990  23.344  1.00  0.00     0.185 C 
ATOM     77  C   UNL A   1      28.679  31.097  21.206  1.00  0.00     0.162 C 
ATOM     78  O   UNL A   1      28.603  32.308  21.950  1.00  0.00    -0.379 OA
ENDBRANCH  72  74
ENDBRANCH  64  70
ENDBRANCH  60  62
ENDBRANCH  59  60
ENDBRANCH  58  59
ENDBRANCH  57  58
ENDBRANCH   1  57
TORSDOF 16
ENDMDL
