MODEL 1
REMARK VINA RESULT:     -11.3      0.000      0.000
REMARK SMILES COc1ccc2c(c1)c(CC(=O)OCCOCCOC(=O)c1ccc(-c3c4nc(c(-c5ccccc5)c5ccc([nH]5)c(-c5ccccc5)c5nc(c(-c6ccccc6)c6ccc3[nH]6)C=C5)C=C4)cc1)c(C)n2C(=O)c1ccc(Cl)cc1
REMARK SMILES IDX 15 1 14 2 13 3 11 4 12 5 10 6 9 7 3 8 4 9 8 10 5 11 7 12
REMARK SMILES IDX 6 13 72 14 70 15 71 16 2 17 1 18 73 19 74 20 75 21 76 22
REMARK SMILES IDX 81 23 77 24 80 25 78 26 79 27 16 28 17 29 18 30 19 31 20 32
REMARK SMILES IDX 21 33 22 34 23 35 69 36 24 37 68 38 25 39 26 40 27 41 62 42
REMARK SMILES IDX 28 43 67 44 61 45 63 46 29 47 66 48 60 49 59 50 30 52 52 53
REMARK SMILES IDX 37 54 51 55 38 56 41 57 50 58 64 59 39 60 40 61 49 63 65 64
REMARK SMILES IDX 42 65 31 66 32 67 36 68 33 69 35 70 34 71 53 72 54 73 58 74
REMARK SMILES IDX 55 75 57 76 56 77 43 78 44 79 48 80 45 81 47 82 46 83
REMARK H PARENT 63 51 41 62
REMARK Flexibility Score: inf
ROOT
ATOM      1  C   UNL A   1      35.246  22.637  24.273  1.00  0.00     0.202 C 
ENDROOT
BRANCH   1   2
ATOM      2  C   UNL A   1      34.105  22.599  23.241  1.00  0.00     0.261 C 
BRANCH   2   3
ATOM      3  O   UNL A   1      34.016  23.748  22.377  1.00  0.00    -0.463 OA
BRANCH   3   4
ATOM      4  C   UNL A   1      32.924  24.529  22.588  1.00  0.00     0.310 C 
ATOM      5  O   UNL A   1      31.802  24.085  22.836  1.00  0.00    -0.252 OA
BRANCH   4   6
ATOM      6  C   UNL A   1      33.141  26.021  22.496  1.00  0.00     0.160 C 
BRANCH   6   7
ATOM      7  C   UNL A   1      32.618  26.940  23.571  1.00  0.00    -0.008 A 
ATOM      8  C   UNL A   1      30.048  29.525  22.380  1.00  0.00     0.119 A 
ATOM      9  C   UNL A   1      29.936  30.192  23.583  1.00  0.00     0.048 A 
ATOM     10  C   UNL A   1      30.983  28.492  22.262  1.00  0.00     0.057 A 
ATOM     11  C   UNL A   1      30.716  29.813  24.683  1.00  0.00     0.031 A 
ATOM     12  C   UNL A   1      31.705  28.018  23.385  1.00  0.00     0.008 A 
ATOM     13  C   UNL A   1      31.573  28.691  24.604  1.00  0.00     0.057 A 
ATOM     14  N   UNL A   1      32.428  28.077  25.542  1.00  0.00    -0.280 N 
ATOM     15  C   UNL A   1      33.050  26.994  24.892  1.00  0.00     0.028 A 
ATOM     16  C   UNL A   1      34.057  26.069  25.507  1.00  0.00     0.065 C 
BRANCH   8  17
ATOM     17  O   UNL A   1      29.287  29.742  21.265  1.00  0.00    -0.497 OA
ATOM     18  C   UNL A   1      28.106  30.524  21.421  1.00  0.00     0.278 C 
ENDBRANCH   8  17
BRANCH  14  19
ATOM     19  C   UNL A   1      32.653  28.513  26.884  1.00  0.00     0.262 C 
ATOM     20  O   UNL A   1      32.017  28.001  27.805  1.00  0.00    -0.268 OA
BRANCH  19  21
ATOM     21  C   UNL A   1      33.642  29.519  27.304  1.00  0.00     0.040 A 
ATOM     22  C   UNL A   1      33.267  30.858  27.468  1.00  0.00     0.015 A 
ATOM     23  C   UNL A   1      34.965  29.113  27.515  1.00  0.00     0.015 A 
ATOM     24  C   UNL A   1      34.248  31.809  27.759  1.00  0.00     0.021 A 
ATOM     25  C   UNL A   1      35.937  30.068  27.817  1.00  0.00     0.021 A 
ATOM     26  C   UNL A   1      35.579  31.413  27.918  1.00  0.00     0.041 A 
ATOM     27  Cl  UNL A   1      36.791  32.596  28.217  1.00  0.00    -0.084 Cl
ENDBRANCH  19  21
ENDBRANCH  14  19
ENDBRANCH   6   7
ENDBRANCH   4   6
ENDBRANCH   3   4
ENDBRANCH   2   3
ENDBRANCH   1   2
BRANCH   1  28
ATOM     28  O   UNL A   1      36.237  21.618  24.288  1.00  0.00    -0.374 OA
BRANCH  28  29
ATOM     29  C   UNL A   1      36.978  21.436  25.494  1.00  0.00     0.202 C 
BRANCH  29  30
ATOM     30  C   UNL A   1      38.513  21.557  25.462  1.00  0.00     0.261 C 
BRANCH  30  31
ATOM     31  O   UNL A   1      39.016  22.301  26.574  1.00  0.00    -0.460 OA
BRANCH  31  32
ATOM     32  C   UNL A   1      40.362  22.481  26.571  1.00  0.00     0.338 C 
ATOM     33  O   UNL A   1      41.213  21.783  26.043  1.00  0.00    -0.246 OA
BRANCH  32  34
ATOM     34  C   UNL A   1      40.543  23.886  26.962  1.00  0.00     0.060 A 
ATOM     35  C   UNL A   1      41.661  24.257  27.712  1.00  0.00     0.016 A 
ATOM     36  C   UNL A   1      39.406  24.707  26.884  1.00  0.00     0.016 A 
ATOM     37  C   UNL A   1      41.592  25.416  28.468  1.00  0.00     0.010 A 
ATOM     38  C   UNL A   1      39.337  25.861  27.657  1.00  0.00     0.010 A 
ATOM     39  C   UNL A   1      40.415  26.191  28.478  1.00  0.00    -0.014 A 
BRANCH  39  40
ATOM     40  C   UNL A   1      40.469  27.449  29.216  1.00  0.00     0.031 A 
ATOM     41  C   UNL A   1      41.413  28.423  28.606  1.00  0.00     0.074 A 
ATOM     42  C   UNL A   1      39.728  27.827  30.274  1.00  0.00     0.049 A 
ATOM     43  N   UNL A   1      42.499  28.899  29.118  1.00  0.00    -0.248 NA
ATOM     44  C   UNL A   1      41.178  28.801  27.205  1.00  0.00     0.031 C 
ATOM     45  C   UNL A   1      38.550  27.192  30.862  1.00  0.00     0.029 A 
ATOM     46  N   UNL A   1      39.860  28.973  31.006  1.00  0.00    -0.354 N 
ATOM     47  C   UNL A   1      43.040  29.737  28.149  1.00  0.00     0.074 A 
ATOM     48  C   UNL A   1      42.252  29.549  26.956  1.00  0.00     0.031 C 
ATOM     49  C   UNL A   1      37.947  28.072  31.701  1.00  0.00     0.029 A 
ATOM     50  C   UNL A   1      38.773  29.265  31.814  1.00  0.00     0.049 A 
ATOM     51  H   UNL A   1      40.660  29.544  30.962  1.00  0.00     0.167 HD
ATOM     52  C   UNL A   1      44.016  30.642  28.431  1.00  0.00     0.031 A 
ATOM     53  C   UNL A   1      38.554  30.436  32.462  1.00  0.00     0.031 A 
ATOM     54  C   UNL A   1      44.678  30.359  29.675  1.00  0.00     0.049 A 
ATOM     55  C   UNL A   1      39.854  31.135  32.597  1.00  0.00     0.074 A 
ATOM     56  C   UNL A   1      45.433  29.303  30.148  1.00  0.00     0.029 A 
ATOM     57  N   UNL A   1      44.309  31.080  30.784  1.00  0.00    -0.354 N 
ATOM     58  N   UNL A   1      40.819  30.726  33.366  1.00  0.00    -0.248 NA
ATOM     59  C   UNL A   1      40.232  32.098  31.576  1.00  0.00     0.031 C 
ATOM     60  C   UNL A   1      45.063  29.171  31.517  1.00  0.00     0.029 A 
ATOM     61  C   UNL A   1      44.143  30.180  31.806  1.00  0.00     0.049 A 
ATOM     62  H   UNL A   1      44.187  32.056  30.835  1.00  0.00     0.167 HD
ATOM     63  C   UNL A   1      41.977  31.027  32.666  1.00  0.00     0.074 A 
ATOM     64  C   UNL A   1      41.559  31.968  31.631  1.00  0.00     0.031 C 
ATOM     65  C   UNL A   1      43.108  30.275  32.813  1.00  0.00     0.031 A 
BRANCH  52  66
ATOM     66  C   UNL A   1      44.155  31.956  27.713  1.00  0.00    -0.014 A 
ATOM     67  C   UNL A   1      44.465  32.054  26.342  1.00  0.00     0.009 A 
ATOM     68  C   UNL A   1      43.727  33.133  28.349  1.00  0.00     0.009 A 
ATOM     69  C   UNL A   1      44.353  33.255  25.639  1.00  0.00     0.001 A 
ATOM     70  C   UNL A   1      43.571  34.329  27.638  1.00  0.00     0.001 A 
ATOM     71  C   UNL A   1      43.882  34.389  26.284  1.00  0.00     0.000 A 
ENDBRANCH  52  66
BRANCH  53  72
ATOM     72  C   UNL A   1      37.280  31.163  32.657  1.00  0.00    -0.014 A 
ATOM     73  C   UNL A   1      36.371  31.290  31.591  1.00  0.00     0.009 A 
ATOM     74  C   UNL A   1      37.105  32.003  33.771  1.00  0.00     0.009 A 
ATOM     75  C   UNL A   1      35.364  32.259  31.611  1.00  0.00     0.001 A 
ATOM     76  C   UNL A   1      36.098  32.977  33.788  1.00  0.00     0.001 A 
ATOM     77  C   UNL A   1      35.241  33.117  32.700  1.00  0.00     0.000 A 
ENDBRANCH  53  72
BRANCH  65  78
ATOM     78  C   UNL A   1      43.154  29.247  33.923  1.00  0.00    -0.014 A 
ATOM     79  C   UNL A   1      43.781  29.594  35.130  1.00  0.00     0.009 A 
ATOM     80  C   UNL A   1      42.760  27.909  33.744  1.00  0.00     0.009 A 
ATOM     81  C   UNL A   1      44.016  28.637  36.120  1.00  0.00     0.001 A 
ATOM     82  C   UNL A   1      42.967  26.956  34.748  1.00  0.00     0.001 A 
ATOM     83  C   UNL A   1      43.607  27.319  35.931  1.00  0.00     0.000 A 
ENDBRANCH  65  78
ENDBRANCH  39  40
ENDBRANCH  32  34
ENDBRANCH  31  32
ENDBRANCH  30  31
ENDBRANCH  29  30
ENDBRANCH  28  29
ENDBRANCH   1  28
TORSDOF 18
ENDMDL
MODEL 2
REMARK VINA RESULT:     -11.2      3.300      6.225
REMARK SMILES COc1ccc2c(c1)c(CC(=O)OCCOCCOC(=O)c1ccc(-c3c4nc(c(-c5ccccc5)c5ccc([nH]5)c(-c5ccccc5)c5nc(c(-c6ccccc6)c6ccc3[nH]6)C=C5)C=C4)cc1)c(C)n2C(=O)c1ccc(Cl)cc1
REMARK SMILES IDX 15 1 14 2 13 3 11 4 12 5 10 6 9 7 3 8 4 9 8 10 5 11 7 12
REMARK SMILES IDX 6 13 72 14 70 15 71 16 2 17 1 18 73 19 74 20 75 21 76 22
REMARK SMILES IDX 81 23 77 24 80 25 78 26 79 27 16 28 17 29 18 30 19 31 20 32
REMARK SMILES IDX 21 33 22 34 23 35 69 36 24 37 68 38 25 39 26 40 27 41 62 42
REMARK SMILES IDX 28 43 67 44 61 45 63 46 29 47 66 48 60 49 59 50 30 52 52 53
REMARK SMILES IDX 37 54 51 55 38 56 41 57 50 58 64 59 39 60 40 61 49 63 65 64
REMARK SMILES IDX 42 65 31 66 32 67 36 68 33 69 35 70 34 71 53 72 54 73 58 74
REMARK SMILES IDX 55 75 57 76 56 77 43 78 44 79 48 80 45 81 47 82 46 83
REMARK H PARENT 63 51 41 62
REMARK Flexibility Score: inf
ROOT
ATOM      1  C   UNL A   1      40.897  21.114  26.092  1.00  0.00     0.202 C 
ENDROOT
BRANCH   1   2
ATOM      2  C   UNL A   1      39.392  21.405  26.235  1.00  0.00     0.261 C 
BRANCH   2   3
ATOM      3  O   UNL A   1      38.555  20.851  25.202  1.00  0.00    -0.463 OA
BRANCH   3   4
ATOM      4  C   UNL A   1      37.393  21.525  24.996  1.00  0.00     0.310 C 
ATOM      5  O   UNL A   1      37.161  22.198  23.992  1.00  0.00    -0.252 OA
BRANCH   4   6
ATOM      6  C   UNL A   1      36.357  21.422  26.091  1.00  0.00     0.160 C 
BRANCH   6   7
ATOM      7  C   UNL A   1      34.898  21.250  25.752  1.00  0.00    -0.008 A 
ATOM      8  C   UNL A   1      33.998  17.889  24.139  1.00  0.00     0.119 A 
ATOM      9  C   UNL A   1      32.671  18.189  23.898  1.00  0.00     0.048 A 
ATOM     10  C   UNL A   1      34.830  18.881  24.667  1.00  0.00     0.057 A 
ATOM     11  C   UNL A   1      32.156  19.451  24.218  1.00  0.00     0.031 A 
ATOM     12  C   UNL A   1      34.313  20.128  25.098  1.00  0.00     0.008 A 
ATOM     13  C   UNL A   1      32.964  20.414  24.864  1.00  0.00     0.057 A 
ATOM     14  N   UNL A   1      32.706  21.723  25.321  1.00  0.00    -0.280 N 
ATOM     15  C   UNL A   1      33.902  22.214  25.877  1.00  0.00     0.028 A 
ATOM     16  C   UNL A   1      34.094  23.578  26.469  1.00  0.00     0.065 C 
BRANCH   8  17
ATOM     17  O   UNL A   1      34.596  16.675  23.952  1.00  0.00    -0.497 OA
ATOM     18  C   UNL A   1      35.167  16.044  25.095  1.00  0.00     0.278 C 
ENDBRANCH   8  17
BRANCH  14  19
ATOM     19  C   UNL A   1      31.470  22.428  25.193  1.00  0.00     0.262 C 
ATOM     20  O   UNL A   1      30.473  22.022  25.787  1.00  0.00    -0.268 OA
BRANCH  19  21
ATOM     21  C   UNL A   1      31.268  23.671  24.429  1.00  0.00     0.040 A 
ATOM     22  C   UNL A   1      31.796  23.806  23.140  1.00  0.00     0.015 A 
ATOM     23  C   UNL A   1      30.558  24.719  25.028  1.00  0.00     0.015 A 
ATOM     24  C   UNL A   1      31.684  25.033  22.483  1.00  0.00     0.021 A 
ATOM     25  C   UNL A   1      30.440  25.939  24.360  1.00  0.00     0.021 A 
ATOM     26  C   UNL A   1      31.020  26.097  23.100  1.00  0.00     0.041 A 
ATOM     27  Cl  UNL A   1      30.938  27.624  22.312  1.00  0.00    -0.084 Cl
ENDBRANCH  19  21
ENDBRANCH  14  19
ENDBRANCH   6   7
ENDBRANCH   4   6
ENDBRANCH   3   4
ENDBRANCH   2   3
ENDBRANCH   1   2
BRANCH   1  28
ATOM     28  O   UNL A   1      41.349  19.805  25.771  1.00  0.00    -0.374 OA
BRANCH  28  29
ATOM     29  C   UNL A   1      42.608  19.392  26.303  1.00  0.00     0.202 C 
BRANCH  29  30
ATOM     30  C   UNL A   1      43.624  18.695  25.380  1.00  0.00     0.261 C 
BRANCH  30  31
ATOM     31  O   UNL A   1      44.830  19.450  25.241  1.00  0.00    -0.460 OA
BRANCH  31  32
ATOM     32  C   UNL A   1      44.868  20.258  24.151  1.00  0.00     0.338 C 
ATOM     33  O   UNL A   1      44.645  19.963  22.988  1.00  0.00    -0.246 OA
BRANCH  32  34
ATOM     34  C   UNL A   1      44.818  21.619  24.704  1.00  0.00     0.060 A 
ATOM     35  C   UNL A   1      45.451  21.897  25.917  1.00  0.00     0.016 A 
ATOM     36  C   UNL A   1      43.831  22.470  24.179  1.00  0.00     0.016 A 
ATOM     37  C   UNL A   1      45.015  22.987  26.654  1.00  0.00     0.010 A 
ATOM     38  C   UNL A   1      43.388  23.554  24.929  1.00  0.00     0.010 A 
ATOM     39  C   UNL A   1      43.953  23.785  26.183  1.00  0.00    -0.014 A 
BRANCH  39  40
ATOM     40  C   UNL A   1      43.632  24.972  26.969  1.00  0.00     0.031 A 
ATOM     41  C   UNL A   1      44.654  26.042  26.823  1.00  0.00     0.074 A 
ATOM     42  C   UNL A   1      42.526  25.216  27.696  1.00  0.00     0.049 A 
ATOM     43  N   UNL A   1      45.434  26.522  27.734  1.00  0.00    -0.248 NA
ATOM     44  C   UNL A   1      44.924  26.533  25.464  1.00  0.00     0.031 C 
ATOM     45  C   UNL A   1      41.267  24.475  27.757  1.00  0.00     0.029 A 
ATOM     46  N   UNL A   1      42.287  26.296  28.498  1.00  0.00    -0.354 N 
ATOM     47  C   UNL A   1      46.227  27.468  27.095  1.00  0.00     0.074 A 
ATOM     48  C   UNL A   1      45.951  27.352  25.685  1.00  0.00     0.031 C 
ATOM     49  C   UNL A   1      40.330  25.245  28.366  1.00  0.00     0.029 A 
ATOM     50  C   UNL A   1      40.960  26.460  28.859  1.00  0.00     0.049 A 
ATOM     51  H   UNL A   1      43.000  26.907  28.795  1.00  0.00     0.167 HD
ATOM     52  C   UNL A   1      46.955  28.391  27.781  1.00  0.00     0.031 A 
ATOM     53  C   UNL A   1      40.427  27.557  29.453  1.00  0.00     0.031 A 
ATOM     54  C   UNL A   1      47.132  28.028  29.160  1.00  0.00     0.049 A 
ATOM     55  C   UNL A   1      41.525  28.302  30.111  1.00  0.00     0.074 A 
ATOM     56  C   UNL A   1      47.740  26.971  29.811  1.00  0.00     0.029 A 
ATOM     57  N   UNL A   1      46.324  28.626  30.096  1.00  0.00    -0.354 N 
ATOM     58  N   UNL A   1      42.168  27.872  31.156  1.00  0.00    -0.248 NA
ATOM     59  C   UNL A   1      42.177  29.371  29.371  1.00  0.00     0.031 C 
ATOM     60  C   UNL A   1      46.903  26.697  30.930  1.00  0.00     0.029 A 
ATOM     61  C   UNL A   1      45.865  27.631  30.920  1.00  0.00     0.049 A 
ATOM     62  H   UNL A   1      46.116  29.587  30.163  1.00  0.00     0.167 HD
ATOM     63  C   UNL A   1      43.475  28.291  30.962  1.00  0.00     0.074 A 
ATOM     64  C   UNL A   1      43.395  29.301  29.910  1.00  0.00     0.031 C 
ATOM     65  C   UNL A   1      44.528  27.584  31.471  1.00  0.00     0.031 A 
BRANCH  52  66
ATOM     66  C   UNL A   1      47.246  29.769  27.256  1.00  0.00    -0.014 A 
ATOM     67  C   UNL A   1      46.237  30.697  26.929  1.00  0.00     0.009 A 
ATOM     68  C   UNL A   1      48.561  30.261  27.315  1.00  0.00     0.009 A 
ATOM     69  C   UNL A   1      46.518  32.041  26.678  1.00  0.00     0.001 A 
ATOM     70  C   UNL A   1      48.841  31.617  27.108  1.00  0.00     0.001 A 
ATOM     71  C   UNL A   1      47.820  32.506  26.791  1.00  0.00     0.000 A 
ENDBRANCH  52  66
BRANCH  53  72
ATOM     72  C   UNL A   1      39.117  28.200  29.206  1.00  0.00    -0.014 A 
ATOM     73  C   UNL A   1      38.886  28.884  27.999  1.00  0.00     0.009 A 
ATOM     74  C   UNL A   1      38.225  28.425  30.269  1.00  0.00     0.009 A 
ATOM     75  C   UNL A   1      37.839  29.804  27.878  1.00  0.00     0.001 A 
ATOM     76  C   UNL A   1      37.179  29.350  30.148  1.00  0.00     0.001 A 
ATOM     77  C   UNL A   1      36.999  30.053  28.959  1.00  0.00     0.000 A 
ENDBRANCH  53  72
BRANCH  65  78
ATOM     78  C   UNL A   1      44.241  26.463  32.447  1.00  0.00    -0.014 A 
ATOM     79  C   UNL A   1      44.049  26.787  33.799  1.00  0.00     0.009 A 
ATOM     80  C   UNL A   1      44.335  25.103  32.100  1.00  0.00     0.009 A 
ATOM     81  C   UNL A   1      43.962  25.789  34.773  1.00  0.00     0.001 A 
ATOM     82  C   UNL A   1      44.218  24.102  33.071  1.00  0.00     0.001 A 
ATOM     83  C   UNL A   1      44.044  24.447  34.409  1.00  0.00     0.000 A 
ENDBRANCH  65  78
ENDBRANCH  39  40
ENDBRANCH  32  34
ENDBRANCH  31  32
ENDBRANCH  30  31
ENDBRANCH  29  30
ENDBRANCH  28  29
ENDBRANCH   1  28
TORSDOF 18
ENDMDL
MODEL 3
REMARK VINA RESULT:     -11.1      3.103      8.522
REMARK SMILES COc1ccc2c(c1)c(CC(=O)OCCOCCOC(=O)c1ccc(-c3c4nc(c(-c5ccccc5)c5ccc([nH]5)c(-c5ccccc5)c5nc(c(-c6ccccc6)c6ccc3[nH]6)C=C5)C=C4)cc1)c(C)n2C(=O)c1ccc(Cl)cc1
REMARK SMILES IDX 15 1 14 2 13 3 11 4 12 5 10 6 9 7 3 8 4 9 8 10 5 11 7 12
REMARK SMILES IDX 6 13 72 14 70 15 71 16 2 17 1 18 73 19 74 20 75 21 76 22
REMARK SMILES IDX 81 23 77 24 80 25 78 26 79 27 16 28 17 29 18 30 19 31 20 32
REMARK SMILES IDX 21 33 22 34 23 35 69 36 24 37 68 38 25 39 26 40 27 41 62 42
REMARK SMILES IDX 28 43 67 44 61 45 63 46 29 47 66 48 60 49 59 50 30 52 52 53
REMARK SMILES IDX 37 54 51 55 38 56 41 57 50 58 64 59 39 60 40 61 49 63 65 64
REMARK SMILES IDX 42 65 31 66 32 67 36 68 33 69 35 70 34 71 53 72 54 73 58 74
REMARK SMILES IDX 55 75 57 76 56 77 43 78 44 79 48 80 45 81 47 82 46 83
REMARK H PARENT 63 51 41 62
REMARK Flexibility Score: inf
ROOT
ATOM      1  C   UNL A   1      34.134  33.648  28.168  1.00  0.00     0.202 C 
ENDROOT
BRANCH   1   2
ATOM      2  C   UNL A   1      33.917  32.142  28.402  1.00  0.00     0.261 C 
BRANCH   2   3
ATOM      3  O   UNL A   1      33.666  31.364  27.216  1.00  0.00    -0.463 OA
BRANCH   3   4
ATOM      4  C   UNL A   1      32.350  31.161  26.942  1.00  0.00     0.310 C 
ATOM      5  O   UNL A   1      31.512  32.061  26.902  1.00  0.00    -0.252 OA
BRANCH   4   6
ATOM      6  C   UNL A   1      31.933  29.731  26.688  1.00  0.00     0.160 C 
BRANCH   6   7
ATOM      7  C   UNL A   1      31.955  29.163  25.291  1.00  0.00    -0.008 A 
ATOM      8  C   UNL A   1      29.189  30.461  22.974  1.00  0.00     0.119 A 
ATOM      9  C   UNL A   1      29.491  29.641  21.905  1.00  0.00     0.048 A 
ATOM     10  C   UNL A   1      29.897  30.304  24.169  1.00  0.00     0.057 A 
ATOM     11  C   UNL A   1      30.521  28.697  22.000  1.00  0.00     0.031 A 
ATOM     12  C   UNL A   1      31.011  29.433  24.259  1.00  0.00     0.008 A 
ATOM     13  C   UNL A   1      31.319  28.618  23.164  1.00  0.00     0.057 A 
ATOM     14  N   UNL A   1      32.417  27.806  23.514  1.00  0.00    -0.280 N 
ATOM     15  C   UNL A   1      32.803  28.166  24.819  1.00  0.00     0.028 A 
ATOM     16  C   UNL A   1      33.920  27.543  25.602  1.00  0.00     0.065 C 
BRANCH   8  17
ATOM     17  O   UNL A   1      28.271  31.473  22.979  1.00  0.00    -0.497 OA
ATOM     18  C   UNL A   1      28.769  32.808  22.934  1.00  0.00     0.278 C 
ENDBRANCH   8  17
BRANCH  14  19
ATOM     19  C   UNL A   1      32.990  26.776  22.706  1.00  0.00     0.262 C 
ATOM     20  O   UNL A   1      33.736  27.076  21.776  1.00  0.00    -0.268 OA
BRANCH  19  21
ATOM     21  C   UNL A   1      32.812  25.329  22.909  1.00  0.00     0.040 A 
ATOM     22  C   UNL A   1      33.886  24.448  22.727  1.00  0.00     0.015 A 
ATOM     23  C   UNL A   1      31.544  24.851  23.264  1.00  0.00     0.015 A 
ATOM     24  C   UNL A   1      33.661  23.073  22.817  1.00  0.00     0.021 A 
ATOM     25  C   UNL A   1      31.331  23.475  23.364  1.00  0.00     0.021 A 
ATOM     26  C   UNL A   1      32.384  22.592  23.121  1.00  0.00     0.041 A 
ATOM     27  Cl  UNL A   1      32.101  20.896  23.171  1.00  0.00    -0.084 Cl
ENDBRANCH  19  21
ENDBRANCH  14  19
ENDBRANCH   6   7
ENDBRANCH   4   6
ENDBRANCH   3   4
ENDBRANCH   2   3
ENDBRANCH   1   2
BRANCH   1  28
ATOM     28  O   UNL A   1      33.135  34.586  28.545  1.00  0.00    -0.374 OA
BRANCH  28  29
ATOM     29  C   UNL A   1      33.554  35.743  29.268  1.00  0.00     0.202 C 
BRANCH  29  30
ATOM     30  C   UNL A   1      32.653  36.302  30.385  1.00  0.00     0.261 C 
BRANCH  30  31
ATOM     31  O   UNL A   1      33.327  36.351  31.644  1.00  0.00    -0.460 OA
BRANCH  31  32
ATOM     32  C   UNL A   1      32.997  35.352  32.502  1.00  0.00     0.338 C 
ATOM     33  O   UNL A   1      31.882  34.953  32.798  1.00  0.00    -0.246 OA
BRANCH  32  34
ATOM     34  C   UNL A   1      34.241  34.588  32.669  1.00  0.00     0.060 A 
ATOM     35  C   UNL A   1      35.459  35.264  32.780  1.00  0.00     0.016 A 
ATOM     36  C   UNL A   1      34.186  33.224  32.336  1.00  0.00     0.016 A 
ATOM     37  C   UNL A   1      36.621  34.584  32.454  1.00  0.00     0.010 A 
ATOM     38  C   UNL A   1      35.355  32.552  31.997  1.00  0.00     0.010 A 
ATOM     39  C   UNL A   1      36.565  33.245  32.018  1.00  0.00    -0.014 A 
BRANCH  39  40
ATOM     40  C   UNL A   1      37.844  32.577  31.801  1.00  0.00     0.031 A 
ATOM     41  C   UNL A   1      38.694  32.569  33.021  1.00  0.00     0.074 A 
ATOM     42  C   UNL A   1      38.268  31.925  30.701  1.00  0.00     0.049 A 
ATOM     43  N   UNL A   1      39.835  33.148  33.194  1.00  0.00    -0.248 NA
ATOM     44  C   UNL A   1      38.130  31.953  34.230  1.00  0.00     0.031 C 
ATOM     45  C   UNL A   1      37.525  31.534  29.504  1.00  0.00     0.029 A 
ATOM     46  N   UNL A   1      39.504  31.386  30.488  1.00  0.00    -0.354 N 
ATOM     47  C   UNL A   1      40.204  32.877  34.506  1.00  0.00     0.074 A 
ATOM     48  C   UNL A   1      39.070  32.239  35.129  1.00  0.00     0.031 C 
ATOM     49  C   UNL A   1      38.259  30.631  28.806  1.00  0.00     0.029 A 
ATOM     50  C   UNL A   1      39.567  30.496  29.428  1.00  0.00     0.049 A 
ATOM     51  H   UNL A   1      40.287  31.612  31.042  1.00  0.00     0.167 HD
ATOM     52  C   UNL A   1      41.473  33.063  34.960  1.00  0.00     0.031 A 
ATOM     53  C   UNL A   1      40.602  29.666  29.146  1.00  0.00     0.031 A 
ATOM     54  C   UNL A   1      42.240  33.918  34.096  1.00  0.00     0.049 A 
ATOM     55  C   UNL A   1      41.816  30.208  29.798  1.00  0.00     0.074 A 
ATOM     56  C   UNL A   1      42.125  35.233  33.689  1.00  0.00     0.029 A 
ATOM     57  N   UNL A   1      43.117  33.331  33.217  1.00  0.00    -0.354 N 
ATOM     58  N   UNL A   1      42.409  31.304  29.428  1.00  0.00    -0.248 NA
ATOM     59  C   UNL A   1      42.163  29.726  31.125  1.00  0.00     0.031 C 
ATOM     60  C   UNL A   1      42.538  35.234  32.326  1.00  0.00     0.029 A 
ATOM     61  C   UNL A   1      42.922  33.931  32.000  1.00  0.00     0.049 A 
ATOM     62  H   UNL A   1      43.763  32.616  33.424  1.00  0.00     0.167 HD
ATOM     63  C   UNL A   1      42.851  31.880  30.608  1.00  0.00     0.074 A 
ATOM     64  C   UNL A   1      42.773  30.813  31.602  1.00  0.00     0.031 C 
ATOM     65  C   UNL A   1      42.974  33.235  30.733  1.00  0.00     0.031 A 
BRANCH  52  66
ATOM     66  C   UNL A   1      42.097  32.218  36.036  1.00  0.00    -0.014 A 
ATOM     67  C   UNL A   1      42.670  30.955  35.787  1.00  0.00     0.009 A 
ATOM     68  C   UNL A   1      42.350  32.789  37.295  1.00  0.00     0.009 A 
ATOM     69  C   UNL A   1      43.454  30.296  36.735  1.00  0.00     0.001 A 
ATOM     70  C   UNL A   1      43.173  32.151  38.231  1.00  0.00     0.001 A 
ATOM     71  C   UNL A   1      43.726  30.907  37.950  1.00  0.00     0.000 A 
ENDBRANCH  52  66
BRANCH  53  72
ATOM     72  C   UNL A   1      40.562  28.268  28.661  1.00  0.00    -0.014 A 
ATOM     73  C   UNL A   1      40.920  27.972  27.334  1.00  0.00     0.009 A 
ATOM     74  C   UNL A   1      39.868  27.284  29.388  1.00  0.00     0.009 A 
ATOM     75  C   UNL A   1      40.546  26.765  26.735  1.00  0.00     0.001 A 
ATOM     76  C   UNL A   1      39.490  26.076  28.786  1.00  0.00     0.001 A 
ATOM     77  C   UNL A   1      39.812  25.826  27.455  1.00  0.00     0.000 A 
ENDBRANCH  53  72
BRANCH  65  78
ATOM     78  C   UNL A   1      42.841  34.090  29.490  1.00  0.00    -0.014 A 
ATOM     79  C   UNL A   1      43.993  34.348  28.730  1.00  0.00     0.009 A 
ATOM     80  C   UNL A   1      41.663  34.782  29.159  1.00  0.00     0.009 A 
ATOM     81  C   UNL A   1      43.972  35.271  27.682  1.00  0.00     0.001 A 
ATOM     82  C   UNL A   1      41.633  35.685  28.091  1.00  0.00     0.001 A 
ATOM     83  C   UNL A   1      42.791  35.938  27.360  1.00  0.00     0.000 A 
ENDBRANCH  65  78
ENDBRANCH  39  40
ENDBRANCH  32  34
ENDBRANCH  31  32
ENDBRANCH  30  31
ENDBRANCH  29  30
ENDBRANCH  28  29
ENDBRANCH   1  28
TORSDOF 18
ENDMDL
