MODEL 1
REMARK VINA RESULT:     -11.7      0.000      0.000
REMARK SMILES O=C(OCCOCCOC(=O)c1cc(N2CCN(c3ccc(F)cc3)CC2)ccc1NC(=O)C1CCCC1)c1ccc(-c2c3nc(c(-c4ccccc4)c4ccc([nH]4)c(-c4ccccc4)c4nc(c(-c5ccccc5)c5ccc2[nH]5)C=C4)C=C3)cc1
REMARK SMILES IDX 6 1 5 2 4 3 3 4 2 5 1 6 39 7 40 8 86 9 41 10 85 11 42 12
REMARK SMILES IDX 43 13 44 14 79 15 45 16 84 17 78 18 80 19 46 20 83 21 77 22
REMARK SMILES IDX 76 23 47 25 69 26 54 27 68 28 55 29 58 30 67 31 81 32 56 33
REMARK SMILES IDX 57 34 66 36 82 37 59 38 48 39 49 40 53 41 50 42 52 43 51 44
REMARK SMILES IDX 70 45 71 46 75 47 72 48 74 49 73 50 60 51 61 52 65 53 62 54
REMARK SMILES IDX 64 55 63 56 7 57 8 58 9 59 10 60 11 61 12 62 13 63 30 64
REMARK SMILES IDX 14 65 29 66 28 67 31 68 32 69 33 71 34 72 35 73 38 74 36 75
REMARK SMILES IDX 37 76 15 77 16 78 27 79 17 80 26 81 18 82 19 83 20 84 25 85
REMARK SMILES IDX 21 86 24 87 22 88 23 89
REMARK H PARENT 80 24 58 35 31 70
REMARK Flexibility Score: inf
ROOT
ATOM      1  O   UNL A   1      31.523  30.569  26.760  1.00  0.00    -0.374 OA
ENDROOT
BRANCH   1   2
ATOM      2  C   UNL A   1      31.295  31.972  26.805  1.00  0.00     0.202 C 
BRANCH   2   3
ATOM      3  C   UNL A   1      32.576  32.760  27.076  1.00  0.00     0.261 C 
BRANCH   3   4
ATOM      4  O   UNL A   1      32.282  33.899  27.901  1.00  0.00    -0.460 OA
BRANCH   4   5
ATOM      5  C   UNL A   1      33.117  34.575  28.722  1.00  0.00     0.338 C 
ATOM      6  O   UNL A   1      32.829  35.729  29.034  1.00  0.00    -0.246 OA
BRANCH   5   7
ATOM      7  C   UNL A   1      34.368  33.997  29.303  1.00  0.00     0.060 A 
ATOM      8  C   UNL A   1      34.418  33.054  30.332  1.00  0.00     0.016 A 
ATOM      9  C   UNL A   1      35.577  34.357  28.684  1.00  0.00     0.016 A 
ATOM     10  C   UNL A   1      35.615  32.502  30.757  1.00  0.00     0.010 A 
ATOM     11  C   UNL A   1      36.788  33.790  29.087  1.00  0.00     0.010 A 
ATOM     12  C   UNL A   1      36.804  32.859  30.131  1.00  0.00    -0.014 A 
BRANCH  12  13
ATOM     13  C   UNL A   1      38.051  32.294  30.665  1.00  0.00     0.031 A 
ATOM     14  C   UNL A   1      38.628  31.090  29.992  1.00  0.00     0.074 A 
ATOM     15  C   UNL A   1      38.707  32.952  31.637  1.00  0.00     0.049 A 
ATOM     16  N   UNL A   1      39.691  30.404  30.303  1.00  0.00    -0.248 NA
ATOM     17  C   UNL A   1      37.920  30.606  28.794  1.00  0.00     0.031 C 
ATOM     18  C   UNL A   1      38.277  34.217  32.240  1.00  0.00     0.029 A 
ATOM     19  N   UNL A   1      39.892  32.671  32.261  1.00  0.00    -0.354 N 
ATOM     20  C   UNL A   1      39.764  29.387  29.361  1.00  0.00     0.074 A 
ATOM     21  C   UNL A   1      38.644  29.549  28.461  1.00  0.00     0.031 C 
ATOM     22  C   UNL A   1      39.200  34.614  33.131  1.00  0.00     0.029 A 
ATOM     23  C   UNL A   1      40.242  33.598  33.213  1.00  0.00     0.049 A 
ATOM     24  H   UNL A   1      40.440  31.881  32.049  1.00  0.00     0.167 HD
ATOM     25  C   UNL A   1      40.681  28.398  29.277  1.00  0.00     0.031 A 
ATOM     26  C   UNL A   1      41.274  33.593  34.077  1.00  0.00     0.031 A 
ATOM     27  C   UNL A   1      41.772  28.259  30.200  1.00  0.00     0.049 A 
ATOM     28  C   UNL A   1      42.216  32.421  34.028  1.00  0.00     0.074 A 
ATOM     29  C   UNL A   1      42.721  27.259  30.278  1.00  0.00     0.029 A 
ATOM     30  N   UNL A   1      42.053  29.167  31.213  1.00  0.00    -0.354 N 
ATOM     31  N   UNL A   1      42.237  31.412  33.187  1.00  0.00    -0.248 NA
ATOM     32  C   UNL A   1      43.263  32.372  35.056  1.00  0.00     0.031 C 
ATOM     33  C   UNL A   1      43.551  27.539  31.370  1.00  0.00     0.029 A 
ATOM     34  C   UNL A   1      43.150  28.741  31.936  1.00  0.00     0.049 A 
ATOM     35  H   UNL A   1      41.545  29.991  31.389  1.00  0.00     0.167 HD
ATOM     36  C   UNL A   1      43.301  30.614  33.576  1.00  0.00     0.074 A 
ATOM     37  C   UNL A   1      43.919  31.273  34.712  1.00  0.00     0.031 C 
ATOM     38  C   UNL A   1      43.729  29.438  33.056  1.00  0.00     0.031 A 
BRANCH  25  39
ATOM     39  C   UNL A   1      40.467  27.359  28.216  1.00  0.00    -0.014 A 
ATOM     40  C   UNL A   1      39.630  26.250  28.424  1.00  0.00     0.009 A 
ATOM     41  C   UNL A   1      41.143  27.479  26.993  1.00  0.00     0.009 A 
ATOM     42  C   UNL A   1      39.505  25.267  27.439  1.00  0.00     0.001 A 
ATOM     43  C   UNL A   1      40.998  26.507  26.001  1.00  0.00     0.001 A 
ATOM     44  C   UNL A   1      40.187  25.397  26.229  1.00  0.00     0.000 A 
ENDBRANCH  25  39
BRANCH  26  45
ATOM     45  C   UNL A   1      41.421  34.667  35.096  1.00  0.00    -0.014 A 
ATOM     46  C   UNL A   1      42.245  35.779  34.867  1.00  0.00     0.009 A 
ATOM     47  C   UNL A   1      40.757  34.567  36.330  1.00  0.00     0.009 A 
ATOM     48  C   UNL A   1      42.421  36.749  35.860  1.00  0.00     0.001 A 
ATOM     49  C   UNL A   1      40.909  35.552  37.308  1.00  0.00     0.001 A 
ATOM     50  C   UNL A   1      41.751  36.637  37.077  1.00  0.00     0.000 A 
ENDBRANCH  26  45
BRANCH  38  51
ATOM     51  C   UNL A   1      44.937  28.820  33.696  1.00  0.00    -0.014 A 
ATOM     52  C   UNL A   1      44.811  27.950  34.788  1.00  0.00     0.009 A 
ATOM     53  C   UNL A   1      46.209  29.077  33.162  1.00  0.00     0.009 A 
ATOM     54  C   UNL A   1      45.947  27.370  35.354  1.00  0.00     0.001 A 
ATOM     55  C   UNL A   1      47.337  28.473  33.712  1.00  0.00     0.001 A 
ATOM     56  C   UNL A   1      47.205  27.626  34.812  1.00  0.00     0.000 A 
ENDBRANCH  38  51
ENDBRANCH  12  13
ENDBRANCH   5   7
ENDBRANCH   4   5
ENDBRANCH   3   4
ENDBRANCH   2   3
ENDBRANCH   1   2
BRANCH   1  57
ATOM     57  C   UNL A   1      32.444  30.092  25.777  1.00  0.00     0.202 C 
BRANCH  57  58
ATOM     58  C   UNL A   1      33.045  28.785  26.294  1.00  0.00     0.261 C 
BRANCH  58  59
ATOM     59  O   UNL A   1      32.467  27.713  25.529  1.00  0.00    -0.460 OA
BRANCH  59  60
ATOM     60  C   UNL A   1      31.706  26.849  26.252  1.00  0.00     0.340 C 
ATOM     61  O   UNL A   1      30.913  27.132  27.133  1.00  0.00    -0.246 OA
BRANCH  60  62
ATOM     62  C   UNL A   1      31.903  25.466  25.760  1.00  0.00     0.085 A 
ATOM     63  C   UNL A   1      33.044  24.783  26.237  1.00  0.00     0.043 A 
ATOM     64  C   UNL A   1      31.084  24.888  24.780  1.00  0.00     0.055 A 
ATOM     65  C   UNL A   1      33.451  23.578  25.668  1.00  0.00     0.038 A 
ATOM     66  C   UNL A   1      31.647  23.865  24.057  1.00  0.00     0.029 A 
ATOM     67  C   UNL A   1      32.770  23.179  24.519  1.00  0.00     0.028 A 
BRANCH  64  68
ATOM     68  N   UNL A   1      29.773  25.340  24.564  1.00  0.00    -0.325 N 
ATOM     69  C   UNL A   1      29.170  26.447  24.065  1.00  0.00     0.227 C 
ATOM     70  H   UNL A   1      29.111  24.672  24.854  1.00  0.00     0.169 HD
ATOM     71  O   UNL A   1      27.931  26.347  24.001  1.00  0.00    -0.274 OA
BRANCH  69  72
ATOM     72  C   UNL A   1      29.784  27.765  23.563  1.00  0.00     0.079 C 
ATOM     73  C   UNL A   1      30.750  27.907  22.401  1.00  0.00     0.013 C 
ATOM     74  C   UNL A   1      28.637  28.692  23.098  1.00  0.00     0.013 C 
ATOM     75  C   UNL A   1      30.698  29.370  22.003  1.00  0.00     0.001 C 
ATOM     76  C   UNL A   1      29.267  29.795  22.248  1.00  0.00     0.001 C 
ENDBRANCH  69  72
ENDBRANCH  64  68
BRANCH  65  77
ATOM     77  N   UNL A   1      34.572  22.914  26.117  1.00  0.00    -0.368 N 
ATOM     78  C   UNL A   1      34.640  21.433  26.189  1.00  0.00     0.138 C 
ATOM     79  C   UNL A   1      35.870  23.597  26.013  1.00  0.00     0.138 C 
ATOM     80  C   UNL A   1      35.616  20.809  25.132  1.00  0.00     0.138 C 
ATOM     81  C   UNL A   1      36.681  23.035  24.835  1.00  0.00     0.138 C 
ATOM     82  N   UNL A   1      36.863  21.589  24.999  1.00  0.00    -0.368 N 
BRANCH  82  83
ATOM     83  C   UNL A   1      38.102  21.099  25.351  1.00  0.00     0.037 A 
ATOM     84  C   UNL A   1      39.031  21.902  26.025  1.00  0.00     0.029 A 
ATOM     85  C   UNL A   1      38.445  19.752  25.132  1.00  0.00     0.029 A 
ATOM     86  C   UNL A   1      40.233  21.368  26.506  1.00  0.00     0.041 A 
ATOM     87  C   UNL A   1      39.648  19.216  25.592  1.00  0.00     0.041 A 
ATOM     88  C   UNL A   1      40.527  20.028  26.288  1.00  0.00     0.123 A 
ATOM     89  F   UNL A   1      41.667  19.510  26.762  1.00  0.00    -0.207 F 
ENDBRANCH  82  83
ENDBRANCH  65  77
ENDBRANCH  60  62
ENDBRANCH  59  60
ENDBRANCH  58  59
ENDBRANCH  57  58
ENDBRANCH   1  57
TORSDOF 18
ENDMDL
MODEL 2
REMARK VINA RESULT:     -11.4      0.836      5.625
REMARK SMILES O=C(OCCOCCOC(=O)c1cc(N2CCN(c3ccc(F)cc3)CC2)ccc1NC(=O)C1CCCC1)c1ccc(-c2c3nc(c(-c4ccccc4)c4ccc([nH]4)c(-c4ccccc4)c4nc(c(-c5ccccc5)c5ccc2[nH]5)C=C4)C=C3)cc1
REMARK SMILES IDX 6 1 5 2 4 3 3 4 2 5 1 6 39 7 40 8 86 9 41 10 85 11 42 12
REMARK SMILES IDX 43 13 44 14 79 15 45 16 84 17 78 18 80 19 46 20 83 21 77 22
REMARK SMILES IDX 76 23 47 25 69 26 54 27 68 28 55 29 58 30 67 31 81 32 56 33
REMARK SMILES IDX 57 34 66 36 82 37 59 38 48 39 49 40 53 41 50 42 52 43 51 44
REMARK SMILES IDX 70 45 71 46 75 47 72 48 74 49 73 50 60 51 61 52 65 53 62 54
REMARK SMILES IDX 64 55 63 56 7 57 8 58 9 59 10 60 11 61 12 62 13 63 30 64
REMARK SMILES IDX 14 65 29 66 28 67 31 68 32 69 33 71 34 72 35 73 38 74 36 75
REMARK SMILES IDX 37 76 15 77 16 78 27 79 17 80 26 81 18 82 19 83 20 84 25 85
REMARK SMILES IDX 21 86 24 87 22 88 23 89
REMARK H PARENT 80 24 58 35 31 70
REMARK Flexibility Score: inf
ROOT
ATOM      1  O   UNL A   1      32.212  30.389  26.054  1.00  0.00    -0.374 OA
ENDROOT
BRANCH   1   2
ATOM      2  C   UNL A   1      32.642  31.348  27.012  1.00  0.00     0.202 C 
BRANCH   2   3
ATOM      3  C   UNL A   1      31.696  32.544  27.103  1.00  0.00     0.261 C 
BRANCH   3   4
ATOM      4  O   UNL A   1      32.452  33.752  27.274  1.00  0.00    -0.460 OA
BRANCH   4   5
ATOM      5  C   UNL A   1      33.048  34.214  28.398  1.00  0.00     0.338 C 
ATOM      6  O   UNL A   1      32.519  35.146  29.002  1.00  0.00    -0.246 OA
BRANCH   5   7
ATOM      7  C   UNL A   1      34.303  33.644  28.974  1.00  0.00     0.060 A 
ATOM      8  C   UNL A   1      34.362  32.681  29.984  1.00  0.00     0.016 A 
ATOM      9  C   UNL A   1      35.510  34.035  28.370  1.00  0.00     0.016 A 
ATOM     10  C   UNL A   1      35.566  32.138  30.404  1.00  0.00     0.010 A 
ATOM     11  C   UNL A   1      36.728  33.478  28.769  1.00  0.00     0.010 A 
ATOM     12  C   UNL A   1      36.752  32.526  29.793  1.00  0.00    -0.014 A 
BRANCH  12  13
ATOM     13  C   UNL A   1      38.004  31.969  30.323  1.00  0.00     0.031 A 
ATOM     14  C   UNL A   1      38.541  32.526  31.602  1.00  0.00     0.074 A 
ATOM     15  C   UNL A   1      38.547  30.891  29.731  1.00  0.00     0.049 A 
ATOM     16  N   UNL A   1      39.636  32.219  32.239  1.00  0.00    -0.248 NA
ATOM     17  C   UNL A   1      37.722  33.557  32.264  1.00  0.00     0.031 C 
ATOM     18  C   UNL A   1      37.993  30.200  28.562  1.00  0.00     0.029 A 
ATOM     19  N   UNL A   1      39.660  30.163  30.052  1.00  0.00    -0.354 N 
ATOM     20  C   UNL A   1      39.656  33.040  33.358  1.00  0.00     0.074 A 
ATOM     21  C   UNL A   1      38.461  33.852  33.322  1.00  0.00     0.031 C 
ATOM     22  C   UNL A   1      38.758  29.134  28.281  1.00  0.00     0.029 A 
ATOM     23  C   UNL A   1      39.890  29.110  29.199  1.00  0.00     0.049 A 
ATOM     24  H   UNL A   1      40.240  30.373  30.819  1.00  0.00     0.167 HD
ATOM     25  C   UNL A   1      40.606  33.112  34.317  1.00  0.00     0.031 A 
ATOM     26  C   UNL A   1      40.927  28.254  29.152  1.00  0.00     0.031 A 
ATOM     27  C   UNL A   1      41.790  32.299  34.311  1.00  0.00     0.049 A 
ATOM     28  C   UNL A   1      42.022  28.432  30.169  1.00  0.00     0.074 A 
ATOM     29  C   UNL A   1      42.867  32.330  35.174  1.00  0.00     0.029 A 
ATOM     30  N   UNL A   1      42.040  31.298  33.382  1.00  0.00    -0.354 N 
ATOM     31  N   UNL A   1      42.080  29.266  31.182  1.00  0.00    -0.248 NA
ATOM     32  C   UNL A   1      43.201  27.569  30.028  1.00  0.00     0.031 C 
ATOM     33  C   UNL A   1      43.794  31.376  34.737  1.00  0.00     0.029 A 
ATOM     34  C   UNL A   1      43.267  30.715  33.636  1.00  0.00     0.049 A 
ATOM     35  H   UNL A   1      41.434  31.043  32.650  1.00  0.00     0.167 HD
ATOM     36  C   UNL A   1      43.295  29.023  31.805  1.00  0.00     0.074 A 
ATOM     37  C   UNL A   1      43.927  27.943  31.071  1.00  0.00     0.031 C 
ATOM     38  C   UNL A   1      43.849  29.638  32.878  1.00  0.00     0.031 A 
BRANCH  25  39
ATOM     39  C   UNL A   1      40.432  34.166  35.370  1.00  0.00    -0.014 A 
ATOM     40  C   UNL A   1      39.731  33.914  36.560  1.00  0.00     0.009 A 
ATOM     41  C   UNL A   1      40.954  35.449  35.149  1.00  0.00     0.009 A 
ATOM     42  C   UNL A   1      39.529  34.937  37.491  1.00  0.00     0.001 A 
ATOM     43  C   UNL A   1      40.771  36.464  36.090  1.00  0.00     0.001 A 
ATOM     44  C   UNL A   1      40.050  36.210  37.255  1.00  0.00     0.000 A 
ENDBRANCH  25  39
BRANCH  26  45
ATOM     45  C   UNL A   1      41.022  27.228  28.078  1.00  0.00    -0.014 A 
ATOM     46  C   UNL A   1      40.648  25.897  28.310  1.00  0.00     0.009 A 
ATOM     47  C   UNL A   1      41.525  27.574  26.813  1.00  0.00     0.009 A 
ATOM     48  C   UNL A   1      40.803  24.931  27.309  1.00  0.00     0.001 A 
ATOM     49  C   UNL A   1      41.648  26.616  25.804  1.00  0.00     0.001 A 
ATOM     50  C   UNL A   1      41.298  25.292  26.057  1.00  0.00     0.000 A 
ENDBRANCH  26  45
BRANCH  38  51
ATOM     51  C   UNL A   1      45.185  29.128  33.329  1.00  0.00    -0.014 A 
ATOM     52  C   UNL A   1      45.285  28.064  34.237  1.00  0.00     0.009 A 
ATOM     53  C   UNL A   1      46.354  29.690  32.794  1.00  0.00     0.009 A 
ATOM     54  C   UNL A   1      46.539  27.592  34.625  1.00  0.00     0.001 A 
ATOM     55  C   UNL A   1      47.604  29.196  33.162  1.00  0.00     0.001 A 
ATOM     56  C   UNL A   1      47.695  28.153  34.084  1.00  0.00     0.000 A 
ENDBRANCH  38  51
ENDBRANCH  12  13
ENDBRANCH   5   7
ENDBRANCH   4   5
ENDBRANCH   3   4
ENDBRANCH   2   3
ENDBRANCH   1   2
BRANCH   1  57
ATOM     57  C   UNL A   1      33.078  29.278  25.813  1.00  0.00     0.202 C 
BRANCH  57  58
ATOM     58  C   UNL A   1      32.732  28.186  26.825  1.00  0.00     0.261 C 
BRANCH  58  59
ATOM     59  O   UNL A   1      32.753  26.929  26.128  1.00  0.00    -0.460 OA
BRANCH  59  60
ATOM     60  C   UNL A   1      31.594  26.224  26.197  1.00  0.00     0.340 C 
ATOM     61  O   UNL A   1      30.636  26.457  26.914  1.00  0.00    -0.246 OA
BRANCH  60  62
ATOM     62  C   UNL A   1      31.600  25.137  25.191  1.00  0.00     0.085 A 
ATOM     63  C   UNL A   1      32.744  24.308  25.164  1.00  0.00     0.043 A 
ATOM     64  C   UNL A   1      30.593  24.994  24.226  1.00  0.00     0.055 A 
ATOM     65  C   UNL A   1      32.959  23.413  24.118  1.00  0.00     0.038 A 
ATOM     66  C   UNL A   1      30.951  24.323  23.082  1.00  0.00     0.029 A 
ATOM     67  C   UNL A   1      32.075  23.498  23.044  1.00  0.00     0.028 A 
BRANCH  64  68
ATOM     68  N   UNL A   1      29.304  25.509  24.434  1.00  0.00    -0.325 N 
ATOM     69  C   UNL A   1      28.567  26.557  23.990  1.00  0.00     0.227 C 
ATOM     70  H   UNL A   1      28.797  24.961  25.075  1.00  0.00     0.169 HD
ATOM     71  O   UNL A   1      27.397  26.552  24.415  1.00  0.00    -0.274 OA
BRANCH  69  72
ATOM     72  C   UNL A   1      28.954  27.709  23.046  1.00  0.00     0.079 C 
ATOM     73  C   UNL A   1      28.087  28.908  22.708  1.00  0.00     0.013 C 
ATOM     74  C   UNL A   1      30.207  28.411  23.620  1.00  0.00     0.013 C 
ATOM     75  C   UNL A   1      29.036  29.953  22.150  1.00  0.00     0.001 C 
ATOM     76  C   UNL A   1      30.328  29.761  22.915  1.00  0.00     0.001 C 
ENDBRANCH  69  72
ENDBRANCH  64  68
BRANCH  65  77
ATOM     77  N   UNL A   1      34.080  22.614  24.076  1.00  0.00    -0.368 N 
ATOM     78  C   UNL A   1      35.230  22.908  23.185  1.00  0.00     0.138 C 
ATOM     79  C   UNL A   1      34.397  21.800  25.260  1.00  0.00     0.138 C 
ATOM     80  C   UNL A   1      36.510  23.370  23.963  1.00  0.00     0.138 C 
ATOM     81  C   UNL A   1      35.549  22.433  26.055  1.00  0.00     0.138 C 
ATOM     82  N   UNL A   1      36.727  22.582  25.195  1.00  0.00    -0.368 N 
BRANCH  82  83
ATOM     83  C   UNL A   1      37.809  21.749  25.377  1.00  0.00     0.037 A 
ATOM     84  C   UNL A   1      38.942  22.182  26.080  1.00  0.00     0.029 A 
ATOM     85  C   UNL A   1      37.782  20.409  24.950  1.00  0.00     0.029 A 
ATOM     86  C   UNL A   1      39.983  21.297  26.387  1.00  0.00     0.041 A 
ATOM     87  C   UNL A   1      38.823  19.526  25.237  1.00  0.00     0.041 A 
ATOM     88  C   UNL A   1      39.910  19.976  25.966  1.00  0.00     0.123 A 
ATOM     89  F   UNL A   1      40.895  19.123  26.273  1.00  0.00    -0.207 F 
ENDBRANCH  82  83
ENDBRANCH  65  77
ENDBRANCH  60  62
ENDBRANCH  59  60
ENDBRANCH  58  59
ENDBRANCH  57  58
ENDBRANCH   1  57
TORSDOF 18
ENDMDL
MODEL 3
REMARK VINA RESULT:     -11.1      4.241      5.959
REMARK SMILES O=C(OCCOCCOC(=O)c1cc(N2CCN(c3ccc(F)cc3)CC2)ccc1NC(=O)C1CCCC1)c1ccc(-c2c3nc(c(-c4ccccc4)c4ccc([nH]4)c(-c4ccccc4)c4nc(c(-c5ccccc5)c5ccc2[nH]5)C=C4)C=C3)cc1
REMARK SMILES IDX 6 1 5 2 4 3 3 4 2 5 1 6 39 7 40 8 86 9 41 10 85 11 42 12
REMARK SMILES IDX 43 13 44 14 79 15 45 16 84 17 78 18 80 19 46 20 83 21 77 22
REMARK SMILES IDX 76 23 47 25 69 26 54 27 68 28 55 29 58 30 67 31 81 32 56 33
REMARK SMILES IDX 57 34 66 36 82 37 59 38 48 39 49 40 53 41 50 42 52 43 51 44
REMARK SMILES IDX 70 45 71 46 75 47 72 48 74 49 73 50 60 51 61 52 65 53 62 54
REMARK SMILES IDX 64 55 63 56 7 57 8 58 9 59 10 60 11 61 12 62 13 63 30 64
REMARK SMILES IDX 14 65 29 66 28 67 31 68 32 69 33 71 34 72 35 73 38 74 36 75
REMARK SMILES IDX 37 76 15 77 16 78 27 79 17 80 26 81 18 82 19 83 20 84 25 85
REMARK SMILES IDX 21 86 24 87 22 88 23 89
REMARK H PARENT 80 24 58 35 31 70
REMARK Flexibility Score: inf
ROOT
ATOM      1  O   UNL A   1      34.695  31.216  27.782  1.00  0.00    -0.374 OA
ENDROOT
BRANCH   1   2
ATOM      2  C   UNL A   1      34.521  32.457  28.456  1.00  0.00     0.202 C 
BRANCH   2   3
ATOM      3  C   UNL A   1      34.907  32.377  29.932  1.00  0.00     0.261 C 
BRANCH   3   4
ATOM      4  O   UNL A   1      35.362  31.051  30.245  1.00  0.00    -0.460 OA
BRANCH   4   5
ATOM      5  C   UNL A   1      36.396  30.687  31.036  1.00  0.00     0.338 C 
ATOM      6  O   UNL A   1      36.237  30.701  32.255  1.00  0.00    -0.246 OA
BRANCH   5   7
ATOM      7  C   UNL A   1      37.726  30.239  30.521  1.00  0.00     0.060 A 
ATOM      8  C   UNL A   1      38.174  30.389  29.206  1.00  0.00     0.016 A 
ATOM      9  C   UNL A   1      38.630  29.726  31.467  1.00  0.00     0.016 A 
ATOM     10  C   UNL A   1      39.456  30.025  28.828  1.00  0.00     0.010 A 
ATOM     11  C   UNL A   1      39.933  29.378  31.102  1.00  0.00     0.010 A 
ATOM     12  C   UNL A   1      40.344  29.528  29.774  1.00  0.00    -0.014 A 
BRANCH  12  13
ATOM     13  C   UNL A   1      41.668  29.096  29.305  1.00  0.00     0.031 A 
ATOM     14  C   UNL A   1      41.816  27.699  28.793  1.00  0.00     0.074 A 
ATOM     15  C   UNL A   1      42.660  29.999  29.211  1.00  0.00     0.049 A 
ATOM     16  N   UNL A   1      42.884  27.089  28.360  1.00  0.00    -0.248 NA
ATOM     17  C   UNL A   1      40.589  26.885  28.743  1.00  0.00     0.031 C 
ATOM     18  C   UNL A   1      42.543  31.420  29.554  1.00  0.00     0.029 A 
ATOM     19  N   UNL A   1      43.946  29.868  28.765  1.00  0.00    -0.354 N 
ATOM     20  C   UNL A   1      42.467  25.811  28.019  1.00  0.00     0.074 A 
ATOM     21  C   UNL A   1      41.048  25.732  28.283  1.00  0.00     0.031 C 
ATOM     22  C   UNL A   1      43.706  32.033  29.281  1.00  0.00     0.029 A 
ATOM     23  C   UNL A   1      44.665  31.038  28.817  1.00  0.00     0.049 A 
ATOM     24  H   UNL A   1      44.321  29.018  28.438  1.00  0.00     0.167 HD
ATOM     25  C   UNL A   1      43.219  24.792  27.544  1.00  0.00     0.031 A 
ATOM     26  C   UNL A   1      45.966  31.258  28.555  1.00  0.00     0.031 A 
ATOM     27  C   UNL A   1      44.631  24.903  27.309  1.00  0.00     0.049 A 
ATOM     28  C   UNL A   1      46.800  30.079  28.132  1.00  0.00     0.074 A 
ATOM     29  C   UNL A   1      45.523  23.928  26.908  1.00  0.00     0.029 A 
ATOM     30  N   UNL A   1      45.353  26.080  27.455  1.00  0.00    -0.354 N 
ATOM     31  N   UNL A   1      46.421  28.845  27.887  1.00  0.00    -0.248 NA
ATOM     32  C   UNL A   1      48.240  30.312  27.968  1.00  0.00     0.031 C 
ATOM     33  C   UNL A   1      46.797  24.506  26.858  1.00  0.00     0.029 A 
ATOM     34  C   UNL A   1      46.687  25.853  27.173  1.00  0.00     0.049 A 
ATOM     35  H   UNL A   1      44.971  26.948  27.721  1.00  0.00     0.167 HD
ATOM     36  C   UNL A   1      47.571  28.157  27.532  1.00  0.00     0.074 A 
ATOM     37  C   UNL A   1      48.656  29.120  27.565  1.00  0.00     0.031 C 
ATOM     38  C   UNL A   1      47.726  26.849  27.216  1.00  0.00     0.031 A 
BRANCH  25  39
ATOM     39  C   UNL A   1      42.533  23.472  27.353  1.00  0.00    -0.014 A 
ATOM     40  C   UNL A   1      42.179  22.999  26.078  1.00  0.00     0.009 A 
ATOM     41  C   UNL A   1      42.207  22.700  28.478  1.00  0.00     0.009 A 
ATOM     42  C   UNL A   1      41.482  21.796  25.941  1.00  0.00     0.001 A 
ATOM     43  C   UNL A   1      41.530  21.487  28.337  1.00  0.00     0.001 A 
ATOM     44  C   UNL A   1      41.160  21.041  27.069  1.00  0.00     0.000 A 
ENDBRANCH  25  39
BRANCH  26  45
ATOM     45  C   UNL A   1      46.570  32.602  28.762  1.00  0.00    -0.014 A 
ATOM     46  C   UNL A   1      46.686  33.518  27.705  1.00  0.00     0.009 A 
ATOM     47  C   UNL A   1      47.069  32.967  30.024  1.00  0.00     0.009 A 
ATOM     48  C   UNL A   1      47.312  34.753  27.902  1.00  0.00     0.001 A 
ATOM     49  C   UNL A   1      47.665  34.214  30.226  1.00  0.00     0.001 A 
ATOM     50  C   UNL A   1      47.798  35.102  29.161  1.00  0.00     0.000 A 
ENDBRANCH  26  45
BRANCH  38  51
ATOM     51  C   UNL A   1      49.113  26.406  26.853  1.00  0.00    -0.014 A 
ATOM     52  C   UNL A   1      49.942  25.781  27.795  1.00  0.00     0.009 A 
ATOM     53  C   UNL A   1      49.568  26.573  25.537  1.00  0.00     0.009 A 
ATOM     54  C   UNL A   1      51.220  25.358  27.430  1.00  0.00     0.001 A 
ATOM     55  C   UNL A   1      50.834  26.123  25.168  1.00  0.00     0.001 A 
ATOM     56  C   UNL A   1      51.662  25.523  26.118  1.00  0.00     0.000 A 
ENDBRANCH  38  51
ENDBRANCH  12  13
ENDBRANCH   5   7
ENDBRANCH   4   5
ENDBRANCH   3   4
ENDBRANCH   2   3
ENDBRANCH   1   2
BRANCH   1  57
ATOM     57  C   UNL A   1      33.512  30.500  27.423  1.00  0.00     0.202 C 
BRANCH  57  58
ATOM     58  C   UNL A   1      33.930  29.303  26.570  1.00  0.00     0.261 C 
BRANCH  58  59
ATOM     59  O   UNL A   1      33.085  29.285  25.407  1.00  0.00    -0.460 OA
BRANCH  59  60
ATOM     60  C   UNL A   1      32.192  28.262  25.372  1.00  0.00     0.340 C 
ATOM     61  O   UNL A   1      31.255  28.081  26.130  1.00  0.00    -0.246 OA
BRANCH  60  62
ATOM     62  C   UNL A   1      32.455  27.399  24.197  1.00  0.00     0.085 A 
ATOM     63  C   UNL A   1      32.869  26.075  24.466  1.00  0.00     0.043 A 
ATOM     64  C   UNL A   1      32.422  27.882  22.881  1.00  0.00     0.055 A 
ATOM     65  C   UNL A   1      33.364  25.257  23.454  1.00  0.00     0.038 A 
ATOM     66  C   UNL A   1      33.160  27.174  21.965  1.00  0.00     0.029 A 
ATOM     67  C   UNL A   1      33.570  25.865  22.216  1.00  0.00     0.028 A 
BRANCH  64  68
ATOM     68  N   UNL A   1      31.673  29.020  22.539  1.00  0.00    -0.325 N 
ATOM     69  C   UNL A   1      30.365  29.355  22.430  1.00  0.00     0.227 C 
ATOM     70  H   UNL A   1      32.258  29.780  22.319  1.00  0.00     0.169 HD
ATOM     71  O   UNL A   1      30.185  30.558  22.164  1.00  0.00    -0.274 OA
BRANCH  69  72
ATOM     72  C   UNL A   1      29.104  28.489  22.602  1.00  0.00     0.079 C 
ATOM     73  C   UNL A   1      28.892  27.436  23.675  1.00  0.00     0.013 C 
ATOM     74  C   UNL A   1      27.903  29.424  22.874  1.00  0.00     0.013 C 
ATOM     75  C   UNL A   1      27.393  27.207  23.729  1.00  0.00     0.001 C 
ATOM     76  C   UNL A   1      26.776  28.557  23.433  1.00  0.00     0.001 C 
ENDBRANCH  69  72
ENDBRANCH  64  68
BRANCH  65  77
ATOM     77  N   UNL A   1      33.786  23.971  23.711  1.00  0.00    -0.368 N 
ATOM     78  C   UNL A   1      33.630  23.338  25.045  1.00  0.00     0.138 C 
ATOM     79  C   UNL A   1      33.886  23.035  22.582  1.00  0.00     0.138 C 
ATOM     80  C   UNL A   1      32.564  22.188  25.061  1.00  0.00     0.138 C 
ATOM     81  C   UNL A   1      32.698  22.060  22.583  1.00  0.00     0.138 C 
ATOM     82  N   UNL A   1      32.647  21.336  23.857  1.00  0.00    -0.368 N 
BRANCH  82  83
ATOM     83  C   UNL A   1      33.009  20.007  23.896  1.00  0.00     0.037 A 
ATOM     84  C   UNL A   1      32.280  19.040  23.192  1.00  0.00     0.029 A 
ATOM     85  C   UNL A   1      34.172  19.584  24.565  1.00  0.00     0.029 A 
ATOM     86  C   UNL A   1      32.723  17.714  23.116  1.00  0.00     0.041 A 
ATOM     87  C   UNL A   1      34.612  18.261  24.509  1.00  0.00     0.041 A 
ATOM     88  C   UNL A   1      33.888  17.340  23.772  1.00  0.00     0.123 A 
ATOM     89  F   UNL A   1      34.325  16.077  23.687  1.00  0.00    -0.207 F 
ENDBRANCH  82  83
ENDBRANCH  65  77
ENDBRANCH  60  62
ENDBRANCH  59  60
ENDBRANCH  58  59
ENDBRANCH  57  58
ENDBRANCH   1  57
TORSDOF 18
ENDMDL
