MODEL 1
REMARK VINA RESULT:     -10.5      0.000      0.000
REMARK SMILES O=C(OCCOCCOC(=O)c1ccc(-c2c3nc(c(-c4ccccc4)c4ccc([nH]4)c(-c4ccccc4)c4nc(c(-c5ccccc5)c5ccc2[nH]5)C=C4)C=C3)cc1)C1=Cc2cc(Cl)cc(-c3ccc(Cl)cc3)c2O[C@@H]1C(F)(F)F
REMARK SMILES IDX 7 1 6 2 5 3 4 4 3 5 2 6 1 7 60 8 61 9 77 10 62 11 76 12
REMARK SMILES IDX 63 13 75 14 64 15 67 16 65 17 66 18 78 19 79 20 80 21 81 22
REMARK SMILES IDX 68 23 69 24 74 25 70 26 73 27 71 28 72 29 8 30 9 31 10 32
REMARK SMILES IDX 11 33 12 34 13 35 59 36 14 37 58 38 15 39 16 40 17 41 52 42
REMARK SMILES IDX 18 43 57 44 51 45 53 46 19 47 56 48 50 49 49 50 20 52 42 53
REMARK SMILES IDX 27 54 41 55 28 56 31 57 40 58 54 59 29 60 30 61 39 63 55 64
REMARK SMILES IDX 32 65 21 66 22 67 26 68 23 69 25 70 24 71 43 72 44 73 48 74
REMARK SMILES IDX 45 75 47 76 46 77 33 78 34 79 38 80 35 81 37 82 36 83
REMARK H PARENT 53 51 31 62
REMARK Flexibility Score: inf
ROOT
ATOM      1  C   UNL A   1      33.270  37.287  31.127  1.00  0.00     0.202 C 
ENDROOT
BRANCH   1   2
ATOM      2  O   UNL A   1      33.243  36.486  32.322  1.00  0.00    -0.374 OA
BRANCH   2   3
ATOM      3  C   UNL A   1      34.331  35.782  33.250  1.00  0.00     0.202 C 
BRANCH   3   4
ATOM      4  C   UNL A   1      36.343  35.051  32.861  1.00  0.00     0.261 C 
BRANCH   4   5
ATOM      5  O   UNL A   1      37.435  34.736  33.954  1.00  0.00    -0.460 OA
BRANCH   5   6
ATOM      6  C   UNL A   1      36.991  33.963  34.952  1.00  0.00     0.338 C 
ATOM      7  O   UNL A   1      35.889  33.791  35.403  1.00  0.00    -0.246 OA
BRANCH   6   8
ATOM      8  C   UNL A   1      38.304  33.595  35.401  1.00  0.00     0.087 C 
ATOM      9  C   UNL A   1      38.826  34.683  36.251  1.00  0.00     0.027 C 
ATOM     10  C   UNL A   1      37.920  31.798  36.015  1.00  0.00     0.316 C 
ATOM     11  C   UNL A   1      39.046  34.518  38.042  1.00  0.00     0.019 A 
ATOM     12  O   UNL A   1      38.157  31.615  37.938  1.00  0.00    -0.475 OA
ATOM     13  C   UNL A   1      39.282  35.707  38.680  1.00  0.00     0.032 A 
ATOM     14  C   UNL A   1      38.639  33.059  38.946  1.00  0.00     0.135 A 
ATOM     15  C   UNL A   1      39.097  35.662  40.050  1.00  0.00     0.042 A 
ATOM     16  C   UNL A   1      38.585  33.099  40.356  1.00  0.00     0.026 A 
ATOM     17  Cl  UNL A   1      39.283  37.139  40.935  1.00  0.00    -0.084 Cl
ATOM     18  C   UNL A   1      38.746  34.473  40.794  1.00  0.00     0.033 A 
BRANCH  10  19
ATOM     19  C   UNL A   1      38.487  31.010  34.759  1.00  0.00     0.430 C 
ATOM     20  F   UNL A   1      39.813  31.159  34.568  1.00  0.00    -0.167 F 
ATOM     21  F   UNL A   1      38.325  29.673  35.010  1.00  0.00    -0.167 F 
ATOM     22  F   UNL A   1      37.833  31.204  33.594  1.00  0.00    -0.167 F 
ENDBRANCH  10  19
BRANCH  16  23
ATOM     23  C   UNL A   1      38.416  32.062  41.592  1.00  0.00    -0.015 A 
ATOM     24  C   UNL A   1      36.664  32.104  42.068  1.00  0.00     0.010 A 
ATOM     25  C   UNL A   1      39.622  30.948  42.787  1.00  0.00     0.010 A 
ATOM     26  C   UNL A   1      36.130  31.211  43.508  1.00  0.00     0.021 A 
ATOM     27  C   UNL A   1      38.934  30.068  44.196  1.00  0.00     0.021 A 
ATOM     28  C   UNL A   1      37.226  30.241  44.515  1.00  0.00     0.041 A 
ATOM     29  Cl  UNL A   1      36.572  29.376  45.855  1.00  0.00    -0.084 Cl
ENDBRANCH  16  23
ENDBRANCH   6   8
ENDBRANCH   5   6
ENDBRANCH   4   5
ENDBRANCH   3   4
ENDBRANCH   2   3
ENDBRANCH   1   2
BRANCH   1  30
ATOM     30  C   UNL A   1      33.230  36.568  29.782  1.00  0.00     0.261 C 
BRANCH  30  31
ATOM     31  O   UNL A   1      32.722  35.264  29.934  1.00  0.00    -0.460 OA
BRANCH  31  32
ATOM     32  C   UNL A   1      33.115  34.381  29.000  1.00  0.00     0.338 C 
ATOM     33  O   UNL A   1      32.607  34.102  27.936  1.00  0.00    -0.246 OA
BRANCH  32  34
ATOM     34  C   UNL A   1      34.360  33.847  29.538  1.00  0.00     0.060 A 
ATOM     35  C   UNL A   1      35.880  34.213  28.692  1.00  0.00     0.016 A 
ATOM     36  C   UNL A   1      34.233  32.747  30.911  1.00  0.00     0.016 A 
ATOM     37  C   UNL A   1      37.427  33.481  29.145  1.00  0.00     0.010 A 
ATOM     38  C   UNL A   1      35.721  31.927  31.457  1.00  0.00     0.010 A 
ATOM     39  C   UNL A   1      37.482  32.312  30.525  1.00  0.00    -0.014 A 
BRANCH  39  40
ATOM     40  C   UNL A   1      39.037  31.784  30.544  1.00  0.00     0.031 A 
ATOM     41  C   UNL A   1      39.451  30.528  29.773  1.00  0.00     0.074 A 
ATOM     42  C   UNL A   1      40.035  32.372  31.250  1.00  0.00     0.049 A 
ATOM     43  N   UNL A   1      40.411  29.668  30.036  1.00  0.00    -0.248 NA
ATOM     44  C   UNL A   1      38.678  30.188  28.571  1.00  0.00     0.031 C 
ATOM     45  C   UNL A   1      40.011  33.686  31.877  1.00  0.00     0.029 A 
ATOM     46  N   UNL A   1      41.238  31.839  31.689  1.00  0.00    -0.354 N 
ATOM     47  C   UNL A   1      40.270  28.632  29.112  1.00  0.00     0.074 A 
ATOM     48  C   UNL A   1      39.137  28.976  28.281  1.00  0.00     0.031 C 
ATOM     49  C   UNL A   1      41.006  33.781  32.771  1.00  0.00     0.029 A 
ATOM     50  C   UNL A   1      41.776  32.545  32.748  1.00  0.00     0.049 A 
ATOM     51  H   UNL A   1      41.662  31.045  31.290  1.00  0.00     0.167 HD
ATOM     52  C   UNL A   1      41.013  27.504  28.960  1.00  0.00     0.031 A 
ATOM     53  C   UNL A   1      42.733  32.237  33.646  1.00  0.00     0.031 A 
ATOM     54  C   UNL A   1      42.232  27.221  29.678  1.00  0.00     0.049 A 
ATOM     55  C   UNL A   1      43.519  30.964  33.511  1.00  0.00     0.074 A 
ATOM     56  C   UNL A   1      43.126  26.179  29.475  1.00  0.00     0.029 A 
ATOM     57  N   UNL A   1      42.742  27.984  30.710  1.00  0.00    -0.354 N 
ATOM     58  N   UNL A   1      43.374  29.995  32.645  1.00  0.00    -0.248 NA
ATOM     59  C   UNL A   1      44.637  30.768  34.449  1.00  0.00     0.031 C 
ATOM     60  C   UNL A   1      44.149  26.283  30.421  1.00  0.00     0.029 A 
ATOM     61  C   UNL A   1      43.923  27.421  31.173  1.00  0.00     0.049 A 
ATOM     62  H   UNL A   1      42.330  28.805  31.065  1.00  0.00     0.167 HD
ATOM     63  C   UNL A   1      44.417  29.111  32.892  1.00  0.00     0.074 A 
ATOM     64  C   UNL A   1      45.187  29.655  33.987  1.00  0.00     0.031 C 
ATOM     65  C   UNL A   1      44.711  27.957  32.249  1.00  0.00     0.031 A 
BRANCH  52  66
ATOM     66  C   UNL A   1      40.558  26.457  27.971  1.00  0.00    -0.014 A 
ATOM     67  C   UNL A   1      41.127  26.339  26.695  1.00  0.00     0.009 A 
ATOM     68  C   UNL A   1      39.624  25.487  28.382  1.00  0.00     0.009 A 
ATOM     69  C   UNL A   1      40.749  25.297  25.843  1.00  0.00     0.001 A 
ATOM     70  C   UNL A   1      39.277  24.426  27.544  1.00  0.00     0.001 A 
ATOM     71  C   UNL A   1      39.833  24.337  26.271  1.00  0.00     0.000 A 
ENDBRANCH  52  66
BRANCH  53  72
ATOM     72  C   UNL A   1      43.012  33.150  34.790  1.00  0.00    -0.014 A 
ATOM     73  C   UNL A   1      42.295  33.030  35.989  1.00  0.00     0.009 A 
ATOM     74  C   UNL A   1      43.952  34.187  34.661  1.00  0.00     0.009 A 
ATOM     75  C   UNL A   1      42.475  33.959  37.017  1.00  0.00     0.001 A 
ATOM     76  C   UNL A   1      44.151  35.096  35.704  1.00  0.00     0.001 A 
ATOM     77  C   UNL A   1      43.401  34.990  36.875  1.00  0.00     0.000 A 
ENDBRANCH  53  72
BRANCH  65  78
ATOM     78  C   UNL A   1      45.954  27.220  32.660  1.00  0.00    -0.014 A 
ATOM     79  C   UNL A   1      45.924  26.233  33.657  1.00  0.00     0.009 A 
ATOM     80  C   UNL A   1      47.169  27.485  32.005  1.00  0.00     0.009 A 
ATOM     81  C   UNL A   1      47.089  25.546  34.007  1.00  0.00     0.001 A 
ATOM     82  C   UNL A   1      48.324  26.774  32.334  1.00  0.00     0.001 A 
ATOM     83  C   UNL A   1      48.284  25.810  33.340  1.00  0.00     0.000 A 
ENDBRANCH  65  78
ENDBRANCH  39  40
ENDBRANCH  32  34
ENDBRANCH  31  32
ENDBRANCH  30  31
ENDBRANCH   1  30
TORSDOF 16
ENDMDL
MODEL 2
REMARK VINA RESULT:      -9.7      1.673      2.348
REMARK SMILES O=C(OCCOCCOC(=O)c1ccc(-c2c3nc(c(-c4ccccc4)c4ccc([nH]4)c(-c4ccccc4)c4nc(c(-c5ccccc5)c5ccc2[nH]5)C=C4)C=C3)cc1)C1=Cc2cc(Cl)cc(-c3ccc(Cl)cc3)c2O[C@@H]1C(F)(F)F
REMARK SMILES IDX 7 1 6 2 5 3 4 4 3 5 2 6 1 7 60 8 61 9 77 10 62 11 76 12
REMARK SMILES IDX 63 13 75 14 64 15 67 16 65 17 66 18 78 19 79 20 80 21 81 22
REMARK SMILES IDX 68 23 69 24 74 25 70 26 73 27 71 28 72 29 8 30 9 31 10 32
REMARK SMILES IDX 11 33 12 34 13 35 59 36 14 37 58 38 15 39 16 40 17 41 52 42
REMARK SMILES IDX 18 43 57 44 51 45 53 46 19 47 56 48 50 49 49 50 20 52 42 53
REMARK SMILES IDX 27 54 41 55 28 56 31 57 40 58 54 59 29 60 30 61 39 63 55 64
REMARK SMILES IDX 32 65 21 66 22 67 26 68 23 69 25 70 24 71 43 72 44 73 48 74
REMARK SMILES IDX 45 75 47 76 46 77 33 78 34 79 38 80 35 81 37 82 36 83
REMARK H PARENT 53 51 31 62
REMARK Flexibility Score: inf
ROOT
ATOM      1  C   UNL A   1      33.097  35.314  30.000  1.00  0.00     0.202 C 
ENDROOT
BRANCH   1   2
ATOM      2  O   UNL A   1      33.284  34.863  31.354  1.00  0.00    -0.374 OA
BRANCH   2   3
ATOM      3  C   UNL A   1      33.769  35.525  32.721  1.00  0.00     0.202 C 
BRANCH   3   4
ATOM      4  C   UNL A   1      35.148  34.861  34.267  1.00  0.00     0.261 C 
BRANCH   4   5
ATOM      5  O   UNL A   1      36.712  34.730  34.109  1.00  0.00    -0.460 OA
BRANCH   5   6
ATOM      6  C   UNL A   1      37.096  34.238  32.926  1.00  0.00     0.338 C 
ATOM      7  O   UNL A   1      36.577  34.264  31.841  1.00  0.00    -0.246 OA
BRANCH   6   8
ATOM      8  C   UNL A   1      38.211  33.510  33.464  1.00  0.00     0.087 C 
ATOM      9  C   UNL A   1      39.078  34.459  34.190  1.00  0.00     0.027 C 
ATOM     10  C   UNL A   1      37.245  32.044  34.284  1.00  0.00     0.316 C 
ATOM     11  C   UNL A   1      39.244  34.464  35.993  1.00  0.00     0.019 A 
ATOM     12  O   UNL A   1      37.423  32.043  36.222  1.00  0.00    -0.475 OA
ATOM     13  C   UNL A   1      39.875  35.575  36.486  1.00  0.00     0.032 A 
ATOM     14  C   UNL A   1      38.375  33.358  37.058  1.00  0.00     0.135 A 
ATOM     15  C   UNL A   1      39.698  35.774  37.843  1.00  0.00     0.042 A 
ATOM     16  C   UNL A   1      38.349  33.596  38.449  1.00  0.00     0.026 A 
ATOM     17  Cl  UNL A   1      40.382  37.203  38.542  1.00  0.00    -0.084 Cl
ATOM     18  C   UNL A   1      38.971  34.880  38.717  1.00  0.00     0.033 A 
BRANCH  10  19
ATOM     19  C   UNL A   1      37.500  30.954  33.158  1.00  0.00     0.430 C 
ATOM     20  F   UNL A   1      36.992  31.279  31.952  1.00  0.00    -0.167 F 
ATOM     21  F   UNL A   1      38.852  30.888  32.953  1.00  0.00    -0.167 F 
ATOM     22  F   UNL A   1      37.156  29.688  33.472  1.00  0.00    -0.167 F 
ENDBRANCH  10  19
BRANCH  16  23
ATOM     23  C   UNL A   1      37.850  32.847  39.798  1.00  0.00    -0.015 A 
ATOM     24  C   UNL A   1      36.039  32.753  39.698  1.00  0.00     0.010 A 
ATOM     25  C   UNL A   1      38.666  32.202  41.542  1.00  0.00     0.010 A 
ATOM     26  C   UNL A   1      35.120  32.139  41.088  1.00  0.00     0.021 A 
ATOM     27  C   UNL A   1      37.610  31.572  42.854  1.00  0.00     0.021 A 
ATOM     28  C   UNL A   1      35.884  31.576  42.590  1.00  0.00     0.041 A 
ATOM     29  Cl  UNL A   1      34.883  30.949  43.846  1.00  0.00    -0.084 Cl
ENDBRANCH  16  23
ENDBRANCH   6   8
ENDBRANCH   5   6
ENDBRANCH   4   5
ENDBRANCH   3   4
ENDBRANCH   2   3
ENDBRANCH   1   2
BRANCH   1  30
ATOM     30  C   UNL A   1      33.455  34.354  28.870  1.00  0.00     0.261 C 
BRANCH  30  31
ATOM     31  O   UNL A   1      34.106  33.213  29.378  1.00  0.00    -0.460 OA
BRANCH  31  32
ATOM     32  C   UNL A   1      34.416  32.275  28.468  1.00  0.00     0.338 C 
ATOM     33  O   UNL A   1      33.713  31.740  27.638  1.00  0.00    -0.246 OA
BRANCH  32  34
ATOM     34  C   UNL A   1      35.845  32.067  28.665  1.00  0.00     0.060 A 
ATOM     35  C   UNL A   1      36.428  30.422  29.005  1.00  0.00     0.016 A 
ATOM     36  C   UNL A   1      36.866  33.503  28.700  1.00  0.00     0.016 A 
ATOM     37  C   UNL A   1      38.109  30.072  29.433  1.00  0.00     0.010 A 
ATOM     38  C   UNL A   1      38.584  33.291  29.138  1.00  0.00     0.010 A 
ATOM     39  C   UNL A   1      39.298  31.433  29.532  1.00  0.00    -0.014 A 
BRANCH  39  40
ATOM     40  C   UNL A   1      40.681  30.722  30.062  1.00  0.00     0.031 A 
ATOM     41  C   UNL A   1      41.212  29.447  29.403  1.00  0.00     0.074 A 
ATOM     42  C   UNL A   1      41.414  31.166  31.113  1.00  0.00     0.049 A 
ATOM     43  N   UNL A   1      41.921  28.471  29.928  1.00  0.00    -0.248 NA
ATOM     44  C   UNL A   1      40.890  29.234  27.985  1.00  0.00     0.031 C 
ATOM     45  C   UNL A   1      41.302  32.457  31.779  1.00  0.00     0.029 A 
ATOM     46  N   UNL A   1      42.319  30.481  31.910  1.00  0.00    -0.354 N 
ATOM     47  C   UNL A   1      42.014  27.484  28.946  1.00  0.00     0.074 A 
ATOM     48  C   UNL A   1      41.296  27.984  27.794  1.00  0.00     0.031 C 
ATOM     49  C   UNL A   1      41.915  32.408  32.970  1.00  0.00     0.029 A 
ATOM     50  C   UNL A   1      42.512  31.089  33.136  1.00  0.00     0.049 A 
ATOM     51  H   UNL A   1      42.774  29.653  31.634  1.00  0.00     0.167 HD
ATOM     52  C   UNL A   1      42.643  26.280  28.989  1.00  0.00     0.031 A 
ATOM     53  C   UNL A   1      43.048  30.644  34.291  1.00  0.00     0.031 A 
ATOM     54  C   UNL A   1      43.488  25.834  30.070  1.00  0.00     0.049 A 
ATOM     55  C   UNL A   1      43.695  29.291  34.355  1.00  0.00     0.074 A 
ATOM     56  C   UNL A   1      44.284  24.698  30.124  1.00  0.00     0.029 A 
ATOM     57  N   UNL A   1      43.671  26.502  31.265  1.00  0.00    -0.354 N 
ATOM     58  N   UNL A   1      43.771  28.370  33.430  1.00  0.00    -0.248 NA
ATOM     59  C   UNL A   1      44.376  28.936  35.611  1.00  0.00     0.031 C 
ATOM     60  C   UNL A   1      44.906  24.652  31.375  1.00  0.00     0.029 A 
ATOM     61  C   UNL A   1      44.544  25.789  32.074  1.00  0.00     0.049 A 
ATOM     62  H   UNL A   1      43.245  27.356  31.506  1.00  0.00     0.167 HD
ATOM     63  C   UNL A   1      44.560  27.361  33.968  1.00  0.00     0.074 A 
ATOM     64  C   UNL A   1      44.938  27.778  35.299  1.00  0.00     0.031 C 
ATOM     65  C   UNL A   1      44.945  26.198  33.393  1.00  0.00     0.031 A 
BRANCH  52  66
ATOM     66  C   UNL A   1      42.467  25.322  27.835  1.00  0.00    -0.014 A 
ATOM     67  C   UNL A   1      43.283  25.370  26.695  1.00  0.00     0.009 A 
ATOM     68  C   UNL A   1      41.543  24.267  27.955  1.00  0.00     0.009 A 
ATOM     69  C   UNL A   1      43.155  24.407  25.689  1.00  0.00     0.001 A 
ATOM     70  C   UNL A   1      41.444  23.284  26.968  1.00  0.00     0.001 A 
ATOM     71  C   UNL A   1      42.244  23.360  25.831  1.00  0.00     0.000 A 
ENDBRANCH  52  66
BRANCH  53  72
ATOM     72  C   UNL A   1      42.991  31.486  35.519  1.00  0.00    -0.014 A 
ATOM     73  C   UNL A   1      41.904  31.390  36.400  1.00  0.00     0.009 A 
ATOM     74  C   UNL A   1      43.992  32.437  35.778  1.00  0.00     0.009 A 
ATOM     75  C   UNL A   1      41.794  32.260  37.486  1.00  0.00     0.001 A 
ATOM     76  C   UNL A   1      43.895  33.286  36.884  1.00  0.00     0.001 A 
ATOM     77  C   UNL A   1      42.788  33.206  37.728  1.00  0.00     0.000 A 
ENDBRANCH  53  72
BRANCH  65  78
ATOM     78  C   UNL A   1      45.876  25.306  34.165  1.00  0.00    -0.014 A 
ATOM     79  C   UNL A   1      45.398  24.217  34.909  1.00  0.00     0.009 A 
ATOM     80  C   UNL A   1      47.262  25.532  34.108  1.00  0.00     0.009 A 
ATOM     81  C   UNL A   1      46.285  23.389  35.601  1.00  0.00     0.001 A 
ATOM     82  C   UNL A   1      48.148  24.683  34.773  1.00  0.00     0.001 A 
ATOM     83  C   UNL A   1      47.659  23.617  35.525  1.00  0.00     0.000 A 
ENDBRANCH  65  78
ENDBRANCH  39  40
ENDBRANCH  32  34
ENDBRANCH  31  32
ENDBRANCH  30  31
ENDBRANCH   1  30
TORSDOF 16
ENDMDL
MODEL 3
REMARK VINA RESULT:      -9.6     13.970     18.037
REMARK SMILES O=C(OCCOCCOC(=O)c1ccc(-c2c3nc(c(-c4ccccc4)c4ccc([nH]4)c(-c4ccccc4)c4nc(c(-c5ccccc5)c5ccc2[nH]5)C=C4)C=C3)cc1)C1=Cc2cc(Cl)cc(-c3ccc(Cl)cc3)c2O[C@@H]1C(F)(F)F
REMARK SMILES IDX 7 1 6 2 5 3 4 4 3 5 2 6 1 7 60 8 61 9 77 10 62 11 76 12
REMARK SMILES IDX 63 13 75 14 64 15 67 16 65 17 66 18 78 19 79 20 80 21 81 22
REMARK SMILES IDX 68 23 69 24 74 25 70 26 73 27 71 28 72 29 8 30 9 31 10 32
REMARK SMILES IDX 11 33 12 34 13 35 59 36 14 37 58 38 15 39 16 40 17 41 52 42
REMARK SMILES IDX 18 43 57 44 51 45 53 46 19 47 56 48 50 49 49 50 20 52 42 53
REMARK SMILES IDX 27 54 41 55 28 56 31 57 40 58 54 59 29 60 30 61 39 63 55 64
REMARK SMILES IDX 32 65 21 66 22 67 26 68 23 69 25 70 24 71 43 72 44 73 48 74
REMARK SMILES IDX 45 75 47 76 46 77 33 78 34 79 38 80 35 81 37 82 36 83
REMARK H PARENT 53 51 31 62
REMARK Flexibility Score: inf
ROOT
ATOM      1  C   UNL A   1      44.484  46.224  17.861  1.00  0.00     0.202 C 
ENDROOT
BRANCH   1   2
ATOM      2  O   UNL A   1      43.817  45.385  18.820  1.00  0.00    -0.374 OA
BRANCH   2   3
ATOM      3  C   UNL A   1      42.755  44.197  18.757  1.00  0.00     0.202 C 
BRANCH   3   4
ATOM      4  C   UNL A   1      41.217  43.526  20.142  1.00  0.00     0.261 C 
BRANCH   4   5
ATOM      5  O   UNL A   1      41.379  43.402  21.706  1.00  0.00    -0.460 OA
BRANCH   5   6
ATOM      6  C   UNL A   1      42.122  42.358  22.090  1.00  0.00     0.338 C 
ATOM      7  O   UNL A   1      42.306  41.279  21.591  1.00  0.00    -0.246 OA
BRANCH   6   8
ATOM      8  C   UNL A   1      42.433  42.910  23.379  1.00  0.00     0.087 C 
ATOM      9  C   UNL A   1      41.800  42.067  24.411  1.00  0.00     0.027 C 
ATOM     10  C   UNL A   1      44.344  43.137  23.155  1.00  0.00     0.316 C 
ATOM     11  C   UNL A   1      42.743  41.003  25.533  1.00  0.00     0.019 A 
ATOM     12  O   UNL A   1      45.363  41.999  24.361  1.00  0.00    -0.475 OA
ATOM     13  C   UNL A   1      41.970  40.110  26.227  1.00  0.00     0.032 A 
ATOM     14  C   UNL A   1      44.500  40.852  25.491  1.00  0.00     0.135 A 
ATOM     15  C   UNL A   1      42.680  39.071  26.802  1.00  0.00     0.042 A 
ATOM     16  C   UNL A   1      45.134  39.815  26.207  1.00  0.00     0.026 A 
ATOM     17  Cl  UNL A   1      41.780  37.841  27.623  1.00  0.00    -0.084 Cl
ATOM     18  C   UNL A   1      44.119  38.933  26.755  1.00  0.00     0.033 A 
BRANCH  10  19
ATOM     19  C   UNL A   1      44.348  44.695  22.852  1.00  0.00     0.430 C 
ATOM     20  F   UNL A   1      43.317  45.366  23.403  1.00  0.00    -0.167 F 
ATOM     21  F   UNL A   1      45.460  45.225  23.450  1.00  0.00    -0.167 F 
ATOM     22  F   UNL A   1      44.478  45.045  21.555  1.00  0.00    -0.167 F 
ENDBRANCH  10  19
BRANCH  16  23
ATOM     23  C   UNL A   1      46.640  39.355  26.596  1.00  0.00    -0.015 A 
ATOM     24  C   UNL A   1      47.367  40.717  27.552  1.00  0.00     0.010 A 
ATOM     25  C   UNL A   1      47.900  37.826  26.152  1.00  0.00     0.010 A 
ATOM     26  C   UNL A   1      49.081  40.641  28.012  1.00  0.00     0.021 A 
ATOM     27  C   UNL A   1      49.607  37.870  26.716  1.00  0.00     0.021 A 
ATOM     28  C   UNL A   1      50.139  39.274  27.608  1.00  0.00     0.041 A 
ATOM     29  Cl  UNL A   1      51.772  39.296  28.162  1.00  0.00    -0.084 Cl
ENDBRANCH  16  23
ENDBRANCH   6   8
ENDBRANCH   5   6
ENDBRANCH   4   5
ENDBRANCH   3   4
ENDBRANCH   2   3
ENDBRANCH   1   2
BRANCH   1  30
ATOM     30  C   UNL A   1      45.999  46.107  17.738  1.00  0.00     0.261 C 
BRANCH  30  31
ATOM     31  O   UNL A   1      46.479  45.046  18.530  1.00  0.00    -0.460 OA
BRANCH  31  32
ATOM     32  C   UNL A   1      47.778  45.119  18.863  1.00  0.00     0.338 C 
ATOM     33  O   UNL A   1      48.741  45.380  18.174  1.00  0.00    -0.246 OA
BRANCH  32  34
ATOM     34  C   UNL A   1      47.778  44.860  20.298  1.00  0.00     0.060 A 
ATOM     35  C   UNL A   1      47.967  46.233  21.412  1.00  0.00     0.016 A 
ATOM     36  C   UNL A   1      47.741  43.172  20.807  1.00  0.00     0.016 A 
ATOM     37  C   UNL A   1      48.157  46.027  23.159  1.00  0.00     0.010 A 
ATOM     38  C   UNL A   1      47.942  42.826  22.546  1.00  0.00     0.010 A 
ATOM     39  C   UNL A   1      48.159  44.358  23.858  1.00  0.00    -0.014 A 
BRANCH  39  40
ATOM     40  C   UNL A   1      48.472  44.590  25.454  1.00  0.00     0.031 A 
ATOM     41  C   UNL A   1      49.904  44.797  25.952  1.00  0.00     0.074 A 
ATOM     42  C   UNL A   1      47.528  44.575  26.428  1.00  0.00     0.049 A 
ATOM     43  N   UNL A   1      50.434  44.489  27.117  1.00  0.00    -0.248 NA
ATOM     44  C   UNL A   1      50.862  45.408  25.021  1.00  0.00     0.031 C 
ATOM     45  C   UNL A   1      46.084  44.636  26.251  1.00  0.00     0.029 A 
ATOM     46  N   UNL A   1      47.667  44.344  27.788  1.00  0.00    -0.354 N 
ATOM     47  C   UNL A   1      51.800  44.750  27.005  1.00  0.00     0.074 A 
ATOM     48  C   UNL A   1      52.014  45.247  25.663  1.00  0.00     0.031 C 
ATOM     49  C   UNL A   1      45.472  44.243  27.378  1.00  0.00     0.029 A 
ATOM     50  C   UNL A   1      46.485  43.945  28.381  1.00  0.00     0.049 A 
ATOM     51  H   UNL A   1      48.514  44.452  28.278  1.00  0.00     0.167 HD
ATOM     52  C   UNL A   1      52.786  44.601  27.928  1.00  0.00     0.031 A 
ATOM     53  C   UNL A   1      46.222  43.354  29.565  1.00  0.00     0.031 A 
ATOM     54  C   UNL A   1      52.568  44.254  29.312  1.00  0.00     0.049 A 
ATOM     55  C   UNL A   1      47.320  43.139  30.566  1.00  0.00     0.074 A 
ATOM     56  C   UNL A   1      53.493  44.233  30.348  1.00  0.00     0.029 A 
ATOM     57  N   UNL A   1      51.352  43.894  29.860  1.00  0.00    -0.354 N 
ATOM     58  N   UNL A   1      48.600  43.380  30.448  1.00  0.00    -0.248 NA
ATOM     59  C   UNL A   1      46.927  42.615  31.885  1.00  0.00     0.031 C 
ATOM     60  C   UNL A   1      52.845  43.808  31.511  1.00  0.00     0.029 A 
ATOM     61  C   UNL A   1      51.507  43.623  31.212  1.00  0.00     0.049 A 
ATOM     62  H   UNL A   1      50.503  43.839  29.366  1.00  0.00     0.167 HD
ATOM     63  C   UNL A   1      49.151  43.101  31.693  1.00  0.00     0.074 A 
ATOM     64  C   UNL A   1      48.071  42.671  32.551  1.00  0.00     0.031 C 
ATOM     65  C   UNL A   1      50.442  43.211  32.085  1.00  0.00     0.031 A 
BRANCH  52  66
ATOM     66  C   UNL A   1      54.221  44.813  27.507  1.00  0.00    -0.014 A 
ATOM     67  C   UNL A   1      54.976  43.802  26.896  1.00  0.00     0.009 A 
ATOM     68  C   UNL A   1      54.782  46.100  27.613  1.00  0.00     0.009 A 
ATOM     69  C   UNL A   1      56.268  44.063  26.432  1.00  0.00     0.001 A 
ATOM     70  C   UNL A   1      56.058  46.368  27.113  1.00  0.00     0.001 A 
ATOM     71  C   UNL A   1      56.804  45.347  26.532  1.00  0.00     0.000 A 
ENDBRANCH  52  66
BRANCH  53  72
ATOM     72  C   UNL A   1      44.840  42.897  29.886  1.00  0.00    -0.014 A 
ATOM     73  C   UNL A   1      43.993  43.687  30.677  1.00  0.00     0.009 A 
ATOM     74  C   UNL A   1      44.388  41.638  29.456  1.00  0.00     0.009 A 
ATOM     75  C   UNL A   1      42.744  43.206  31.074  1.00  0.00     0.001 A 
ATOM     76  C   UNL A   1      43.125  41.173  29.829  1.00  0.00     0.001 A 
ATOM     77  C   UNL A   1      42.310  41.952  30.650  1.00  0.00     0.000 A 
ENDBRANCH  53  72
BRANCH  65  78
ATOM     78  C   UNL A   1      50.766  42.922  33.523  1.00  0.00    -0.014 A 
ATOM     79  C   UNL A   1      51.163  41.643  33.942  1.00  0.00     0.009 A 
ATOM     80  C   UNL A   1      50.721  43.961  34.468  1.00  0.00     0.009 A 
ATOM     81  C   UNL A   1      51.482  41.405  35.282  1.00  0.00     0.001 A 
ATOM     82  C   UNL A   1      51.072  43.728  35.799  1.00  0.00     0.001 A 
ATOM     83  C   UNL A   1      51.445  42.448  36.206  1.00  0.00     0.000 A 
ENDBRANCH  65  78
ENDBRANCH  39  40
ENDBRANCH  32  34
ENDBRANCH  31  32
ENDBRANCH  30  31
ENDBRANCH   1  30
TORSDOF 16
ENDMDL
