MODEL 1
REMARK VINA RESULT:     -11.4      0.000      0.000
REMARK SMILES Cc1ccc(N2C(=O)C[C@H](Sc3ccccc3C(=O)OCCOCCOC(=O)c3ccc(-c4c5nc(c(-c6ccccc6)c6ccc([nH]6)c(-c6ccccc6)c6nc(c(-c7ccccc7)c7ccc4[nH]7)C=C6)C=C5)cc3)C2=O)cc1
REMARK SMILES IDX 22 1 21 2 20 3 18 4 19 5 17 6 12 7 13 8 14 9 16 10 15 11
REMARK SMILES IDX 11 12 10 13 6 14 7 15 77 16 8 17 9 18 78 19 5 20 1 21 2 22
REMARK SMILES IDX 3 23 80 24 4 25 79 26 23 27 24 28 25 29 26 30 27 31 28 32
REMARK SMILES IDX 29 33 30 34 76 35 31 36 75 37 32 38 33 39 34 40 69 41 35 42
REMARK SMILES IDX 74 43 68 44 70 45 36 46 73 47 67 48 66 49 37 51 59 52 44 53
REMARK SMILES IDX 58 54 45 55 48 56 57 57 71 58 46 59 47 60 56 62 72 63 49 64
REMARK SMILES IDX 38 65 39 66 43 67 40 68 42 69 41 70 60 71 61 72 65 73 62 74
REMARK SMILES IDX 64 75 63 76 50 77 51 78 55 79 52 80 54 81 53 82
REMARK H PARENT 70 50 48 61
REMARK Flexibility Score: inf
ROOT
ATOM      1  C   UNL A   1      38.110  22.795  26.093  1.00  0.00     0.202 C 
ENDROOT
BRANCH   1   2
ATOM      2  C   UNL A   1      37.172  23.751  25.469  1.00  0.00     0.261 C 
BRANCH   2   3
ATOM      3  O   UNL A   1      35.884  23.162  25.171  1.00  0.00    -0.460 OA
BRANCH   3   4
ATOM      4  C   UNL A   1      35.504  22.755  23.920  1.00  0.00     0.339 C 
ATOM      5  O   UNL A   1      35.941  23.103  22.859  1.00  0.00    -0.246 OA
BRANCH   4   6
ATOM      6  C   UNL A   1      34.437  21.745  24.100  1.00  0.00     0.073 A 
ATOM      7  C   UNL A   1      33.228  21.762  23.380  1.00  0.00     0.023 A 
ATOM      8  C   UNL A   1      32.389  20.642  23.515  1.00  0.00     0.016 A 
ATOM      9  C   UNL A   1      32.736  19.557  24.331  1.00  0.00     0.001 A 
ATOM     10  C   UNL A   1      34.717  20.700  25.005  1.00  0.00     0.017 A 
ATOM     11  C   UNL A   1      33.885  19.600  25.103  1.00  0.00     0.001 A 
BRANCH   7  12
ATOM     12  S   UNL A   1      32.531  23.179  22.516  1.00  0.00    -0.111 SA
BRANCH  12  13
ATOM     13  C   UNL A   1      31.628  24.170  23.752  1.00  0.00     0.151 C 
ATOM     14  N   UNL A   1      32.017  25.852  25.302  1.00  0.00    -0.250 N 
ATOM     15  C   UNL A   1      31.628  24.761  26.042  1.00  0.00     0.235 C 
ATOM     16  C   UNL A   1      32.079  25.589  23.955  1.00  0.00     0.247 C 
ATOM     17  O   UNL A   1      31.450  24.693  27.250  1.00  0.00    -0.274 OA
ATOM     18  C   UNL A   1      31.664  23.560  25.142  1.00  0.00     0.126 C 
ATOM     19  O   UNL A   1      32.307  26.398  23.065  1.00  0.00    -0.273 OA
BRANCH  14  20
ATOM     20  C   UNL A   1      32.377  27.091  25.866  1.00  0.00     0.052 A 
ATOM     21  C   UNL A   1      33.514  30.855  27.628  1.00  0.00     0.044 C 
ATOM     22  C   UNL A   1      33.124  29.527  27.048  1.00  0.00    -0.051 A 
ATOM     23  C   UNL A   1      31.778  29.245  26.782  1.00  0.00     0.005 A 
ATOM     24  C   UNL A   1      34.097  28.582  26.712  1.00  0.00     0.005 A 
ATOM     25  C   UNL A   1      31.401  28.016  26.233  1.00  0.00     0.027 A 
ATOM     26  C   UNL A   1      33.729  27.388  26.086  1.00  0.00     0.027 A 
ENDBRANCH  14  20
ENDBRANCH  12  13
ENDBRANCH   7  12
ENDBRANCH   4   6
ENDBRANCH   3   4
ENDBRANCH   2   3
ENDBRANCH   1   2
BRANCH   1  27
ATOM     27  O   UNL A   1      38.152  21.828  25.078  1.00  0.00    -0.374 OA
BRANCH  27  28
ATOM     28  C   UNL A   1      38.760  20.644  25.436  1.00  0.00     0.202 C 
BRANCH  28  29
ATOM     29  C   UNL A   1      40.047  20.983  26.142  1.00  0.00     0.261 C 
BRANCH  29  30
ATOM     30  O   UNL A   1      41.314  20.321  25.753  1.00  0.00    -0.460 OA
BRANCH  30  31
ATOM     31  C   UNL A   1      42.634  20.665  25.753  1.00  0.00     0.338 C 
ATOM     32  O   UNL A   1      43.451  20.026  25.093  1.00  0.00    -0.246 OA
BRANCH  31  33
ATOM     33  C   UNL A   1      43.123  21.926  26.380  1.00  0.00     0.060 A 
ATOM     34  C   UNL A   1      43.111  22.062  27.787  1.00  0.00     0.016 A 
ATOM     35  C   UNL A   1      43.547  22.996  25.608  1.00  0.00     0.016 A 
ATOM     36  C   UNL A   1      43.265  23.320  28.395  1.00  0.00     0.010 A 
ATOM     37  C   UNL A   1      43.657  24.246  26.213  1.00  0.00     0.010 A 
ATOM     38  C   UNL A   1      43.423  24.440  27.589  1.00  0.00    -0.014 A 
BRANCH  38  39
ATOM     39  C   UNL A   1      43.349  25.840  28.058  1.00  0.00     0.031 A 
ATOM     40  C   UNL A   1      42.062  26.534  27.908  1.00  0.00     0.074 A 
ATOM     41  C   UNL A   1      44.322  26.442  28.796  1.00  0.00     0.049 A 
ATOM     42  N   UNL A   1      41.934  27.810  27.999  1.00  0.00    -0.248 NA
ATOM     43  C   UNL A   1      40.805  25.866  27.579  1.00  0.00     0.031 C 
ATOM     44  C   UNL A   1      44.254  27.577  29.727  1.00  0.00     0.029 A 
ATOM     45  N   UNL A   1      45.662  26.089  28.935  1.00  0.00    -0.354 N 
ATOM     46  C   UNL A   1      40.599  28.059  28.182  1.00  0.00     0.074 A 
ATOM     47  C   UNL A   1      39.934  26.871  27.712  1.00  0.00     0.031 C 
ATOM     48  C   UNL A   1      45.507  27.984  30.042  1.00  0.00     0.029 A 
ATOM     49  C   UNL A   1      46.430  27.212  29.219  1.00  0.00     0.049 A 
ATOM     50  H   UNL A   1      46.015  25.174  28.843  1.00  0.00     0.167 HD
ATOM     51  C   UNL A   1      40.246  29.169  28.886  1.00  0.00     0.031 A 
ATOM     52  C   UNL A   1      47.376  27.628  28.335  1.00  0.00     0.031 A 
ATOM     53  C   UNL A   1      41.431  29.983  29.235  1.00  0.00     0.049 A 
ATOM     54  C   UNL A   1      46.943  28.966  27.810  1.00  0.00     0.074 A 
ATOM     55  C   UNL A   1      42.072  30.300  30.421  1.00  0.00     0.029 A 
ATOM     56  N   UNL A   1      42.331  30.327  28.225  1.00  0.00    -0.354 N 
ATOM     57  N   UNL A   1      45.728  29.412  27.972  1.00  0.00    -0.248 NA
ATOM     58  C   UNL A   1      47.785  29.909  27.099  1.00  0.00     0.031 C 
ATOM     59  C   UNL A   1      43.362  30.838  30.102  1.00  0.00     0.029 A 
ATOM     60  C   UNL A   1      43.495  30.878  28.723  1.00  0.00     0.049 A 
ATOM     61  H   UNL A   1      42.155  30.192  27.266  1.00  0.00     0.167 HD
ATOM     62  C   UNL A   1      45.629  30.694  27.550  1.00  0.00     0.074 A 
ATOM     63  C   UNL A   1      46.920  30.925  26.908  1.00  0.00     0.031 C 
ATOM     64  C   UNL A   1      44.496  31.420  27.792  1.00  0.00     0.031 A 
BRANCH  51  65
ATOM     65  C   UNL A   1      38.860  29.410  29.456  1.00  0.00    -0.014 A 
ATOM     66  C   UNL A   1      38.638  29.227  30.832  1.00  0.00     0.009 A 
ATOM     67  C   UNL A   1      37.725  29.779  28.708  1.00  0.00     0.009 A 
ATOM     68  C   UNL A   1      37.368  29.380  31.413  1.00  0.00     0.001 A 
ATOM     69  C   UNL A   1      36.453  29.941  29.279  1.00  0.00     0.001 A 
ATOM     70  C   UNL A   1      36.274  29.738  30.635  1.00  0.00     0.000 A 
ENDBRANCH  51  65
BRANCH  52  71
ATOM     71  C   UNL A   1      48.033  26.507  27.573  1.00  0.00    -0.014 A 
ATOM     72  C   UNL A   1      47.877  26.442  26.168  1.00  0.00     0.009 A 
ATOM     73  C   UNL A   1      49.117  25.809  28.131  1.00  0.00     0.009 A 
ATOM     74  C   UNL A   1      48.836  25.810  25.350  1.00  0.00     0.001 A 
ATOM     75  C   UNL A   1      50.083  25.198  27.310  1.00  0.00     0.001 A 
ATOM     76  C   UNL A   1      49.965  25.230  25.923  1.00  0.00     0.000 A 
ENDBRANCH  52  71
BRANCH  64  77
ATOM     77  C   UNL A   1      44.178  32.722  27.117  1.00  0.00    -0.014 A 
ATOM     78  C   UNL A   1      44.154  32.914  25.737  1.00  0.00     0.009 A 
ATOM     79  C   UNL A   1      43.845  33.837  27.917  1.00  0.00     0.009 A 
ATOM     80  C   UNL A   1      43.664  34.101  25.186  1.00  0.00     0.001 A 
ATOM     81  C   UNL A   1      43.382  35.031  27.378  1.00  0.00     0.001 A 
ATOM     82  C   UNL A   1      43.258  35.149  26.006  1.00  0.00     0.000 A 
ENDBRANCH  64  77
ENDBRANCH  38  39
ENDBRANCH  31  33
ENDBRANCH  30  31
ENDBRANCH  29  30
ENDBRANCH  28  29
ENDBRANCH  27  28
ENDBRANCH   1  27
TORSDOF 17
ENDMDL
MODEL 2
REMARK VINA RESULT:     -11.1      1.575      2.178
REMARK SMILES Cc1ccc(N2C(=O)C[C@H](Sc3ccccc3C(=O)OCCOCCOC(=O)c3ccc(-c4c5nc(c(-c6ccccc6)c6ccc([nH]6)c(-c6ccccc6)c6nc(c(-c7ccccc7)c7ccc4[nH]7)C=C6)C=C5)cc3)C2=O)cc1
REMARK SMILES IDX 22 1 21 2 20 3 18 4 19 5 17 6 12 7 13 8 14 9 16 10 15 11
REMARK SMILES IDX 11 12 10 13 6 14 7 15 77 16 8 17 9 18 78 19 5 20 1 21 2 22
REMARK SMILES IDX 3 23 80 24 4 25 79 26 23 27 24 28 25 29 26 30 27 31 28 32
REMARK SMILES IDX 29 33 30 34 76 35 31 36 75 37 32 38 33 39 34 40 69 41 35 42
REMARK SMILES IDX 74 43 68 44 70 45 36 46 73 47 67 48 66 49 37 51 59 52 44 53
REMARK SMILES IDX 58 54 45 55 48 56 57 57 71 58 46 59 47 60 56 62 72 63 49 64
REMARK SMILES IDX 38 65 39 66 43 67 40 68 42 69 41 70 60 71 61 72 65 73 62 74
REMARK SMILES IDX 64 75 63 76 50 77 51 78 55 79 52 80 54 81 53 82
REMARK H PARENT 70 50 48 61
REMARK Flexibility Score: inf
ROOT
ATOM      1  C   UNL A   1      39.386  22.125  26.497  1.00  0.00     0.202 C 
ENDROOT
BRANCH   1   2
ATOM      2  C   UNL A   1      38.416  21.380  25.667  1.00  0.00     0.261 C 
BRANCH   2   3
ATOM      3  O   UNL A   1      37.143  22.060  25.546  1.00  0.00    -0.460 OA
BRANCH   3   4
ATOM      4  C   UNL A   1      36.535  22.330  24.350  1.00  0.00     0.339 C 
ATOM      5  O   UNL A   1      36.974  22.933  23.411  1.00  0.00    -0.246 OA
BRANCH   4   6
ATOM      6  C   UNL A   1      35.196  21.699  24.394  1.00  0.00     0.073 A 
ATOM      7  C   UNL A   1      34.037  22.313  23.885  1.00  0.00     0.023 A 
ATOM      8  C   UNL A   1      32.873  21.526  23.823  1.00  0.00     0.016 A 
ATOM      9  C   UNL A   1      32.864  20.193  24.251  1.00  0.00     0.001 A 
ATOM     10  C   UNL A   1      35.142  20.394  24.927  1.00  0.00     0.017 A 
ATOM     11  C   UNL A   1      33.989  19.635  24.834  1.00  0.00     0.001 A 
BRANCH   7  12
ATOM     12  S   UNL A   1      33.828  24.070  23.553  1.00  0.00    -0.111 SA
BRANCH  12  13
ATOM     13  C   UNL A   1      32.120  24.505  24.020  1.00  0.00     0.151 C 
ATOM     14  N   UNL A   1      30.752  26.371  24.199  1.00  0.00    -0.250 N 
ATOM     15  C   UNL A   1      30.869  25.883  25.479  1.00  0.00     0.235 C 
ATOM     16  C   UNL A   1      31.478  25.647  23.284  1.00  0.00     0.247 C 
ATOM     17  O   UNL A   1      30.322  26.289  26.494  1.00  0.00    -0.274 OA
ATOM     18  C   UNL A   1      31.982  24.875  25.486  1.00  0.00     0.126 C 
ATOM     19  O   UNL A   1      31.481  25.804  22.070  1.00  0.00    -0.273 OA
BRANCH  14  20
ATOM     20  C   UNL A   1      30.019  27.526  23.866  1.00  0.00     0.052 A 
ATOM     21  C   UNL A   1      27.757  31.034  22.800  1.00  0.00     0.044 C 
ATOM     22  C   UNL A   1      28.548  29.803  23.135  1.00  0.00    -0.051 A 
ATOM     23  C   UNL A   1      29.877  29.918  23.563  1.00  0.00     0.005 A 
ATOM     24  C   UNL A   1      27.957  28.538  23.081  1.00  0.00     0.005 A 
ATOM     25  C   UNL A   1      30.624  28.782  23.886  1.00  0.00     0.027 A 
ATOM     26  C   UNL A   1      28.676  27.411  23.484  1.00  0.00     0.027 A 
ENDBRANCH  14  20
ENDBRANCH  12  13
ENDBRANCH   7  12
ENDBRANCH   4   6
ENDBRANCH   3   4
ENDBRANCH   2   3
ENDBRANCH   1   2
BRANCH   1  27
ATOM     27  O   UNL A   1      40.100  21.043  27.032  1.00  0.00    -0.374 OA
BRANCH  27  28
ATOM     28  C   UNL A   1      40.402  20.049  26.126  1.00  0.00     0.202 C 
BRANCH  28  29
ATOM     29  C   UNL A   1      41.811  19.591  26.399  1.00  0.00     0.261 C 
BRANCH  29  30
ATOM     30  O   UNL A   1      42.938  20.095  25.579  1.00  0.00    -0.460 OA
BRANCH  30  31
ATOM     31  C   UNL A   1      43.692  21.231  25.551  1.00  0.00     0.338 C 
ATOM     32  O   UNL A   1      44.753  21.268  24.932  1.00  0.00    -0.246 OA
BRANCH  31  33
ATOM     33  C   UNL A   1      43.190  22.527  26.091  1.00  0.00     0.060 A 
ATOM     34  C   UNL A   1      43.063  23.644  25.234  1.00  0.00     0.016 A 
ATOM     35  C   UNL A   1      42.889  22.677  27.435  1.00  0.00     0.016 A 
ATOM     36  C   UNL A   1      42.895  24.940  25.753  1.00  0.00     0.010 A 
ATOM     37  C   UNL A   1      42.764  23.968  27.946  1.00  0.00     0.010 A 
ATOM     38  C   UNL A   1      42.863  25.113  27.131  1.00  0.00    -0.014 A 
BRANCH  38  39
ATOM     39  C   UNL A   1      42.942  26.415  27.825  1.00  0.00     0.031 A 
ATOM     40  C   UNL A   1      41.694  27.177  27.975  1.00  0.00     0.074 A 
ATOM     41  C   UNL A   1      44.042  26.844  28.504  1.00  0.00     0.049 A 
ATOM     42  N   UNL A   1      41.661  28.423  28.288  1.00  0.00    -0.248 NA
ATOM     43  C   UNL A   1      40.363  26.626  27.725  1.00  0.00     0.031 C 
ATOM     44  C   UNL A   1      44.172  27.807  29.607  1.00  0.00     0.029 A 
ATOM     45  N   UNL A   1      45.362  26.418  28.391  1.00  0.00    -0.354 N 
ATOM     46  C   UNL A   1      40.382  28.692  28.697  1.00  0.00     0.074 A 
ATOM     47  C   UNL A   1      39.585  27.629  28.141  1.00  0.00     0.031 C 
ATOM     48  C   UNL A   1      45.479  28.104  29.801  1.00  0.00     0.029 A 
ATOM     49  C   UNL A   1      46.233  27.444  28.741  1.00  0.00     0.049 A 
ATOM     50  H   UNL A   1      45.641  25.518  28.103  1.00  0.00     0.167 HD
ATOM     51  C   UNL A   1      40.197  29.680  29.615  1.00  0.00     0.031 A 
ATOM     52  C   UNL A   1      47.076  27.964  27.809  1.00  0.00     0.031 A 
ATOM     53  C   UNL A   1      41.468  30.375  29.918  1.00  0.00     0.049 A 
ATOM     54  C   UNL A   1      46.663  29.388  27.575  1.00  0.00     0.074 A 
ATOM     55  C   UNL A   1      42.282  30.460  31.036  1.00  0.00     0.029 A 
ATOM     56  N   UNL A   1      42.245  30.847  28.859  1.00  0.00    -0.354 N 
ATOM     57  N   UNL A   1      45.512  29.850  27.979  1.00  0.00    -0.248 NA
ATOM     58  C   UNL A   1      47.461  30.403  26.913  1.00  0.00     0.031 C 
ATOM     59  C   UNL A   1      43.549  30.991  30.627  1.00  0.00     0.029 A 
ATOM     60  C   UNL A   1      43.499  31.258  29.268  1.00  0.00     0.049 A 
ATOM     61  H   UNL A   1      41.934  30.884  27.926  1.00  0.00     0.167 HD
ATOM     62  C   UNL A   1      45.440  31.188  27.788  1.00  0.00     0.074 A 
ATOM     63  C   UNL A   1      46.646  31.471  27.014  1.00  0.00     0.031 C 
ATOM     64  C   UNL A   1      44.399  31.908  28.303  1.00  0.00     0.031 A 
BRANCH  51  65
ATOM     65  C   UNL A   1      38.919  29.878  30.409  1.00  0.00    -0.014 A 
ATOM     66  C   UNL A   1      38.346  31.160  30.486  1.00  0.00     0.009 A 
ATOM     67  C   UNL A   1      38.246  28.874  31.131  1.00  0.00     0.009 A 
ATOM     68  C   UNL A   1      37.195  31.421  31.249  1.00  0.00     0.001 A 
ATOM     69  C   UNL A   1      37.093  29.122  31.891  1.00  0.00     0.001 A 
ATOM     70  C   UNL A   1      36.568  30.401  31.952  1.00  0.00     0.000 A 
ENDBRANCH  51  65
BRANCH  52  71
ATOM     71  C   UNL A   1      47.552  26.962  26.790  1.00  0.00    -0.014 A 
ATOM     72  C   UNL A   1      46.939  26.930  25.515  1.00  0.00     0.009 A 
ATOM     73  C   UNL A   1      48.827  26.385  26.904  1.00  0.00     0.009 A 
ATOM     74  C   UNL A   1      47.627  26.453  24.381  1.00  0.00     0.001 A 
ATOM     75  C   UNL A   1      49.519  25.929  25.767  1.00  0.00     0.001 A 
ATOM     76  C   UNL A   1      48.938  25.997  24.503  1.00  0.00     0.000 A 
ENDBRANCH  52  71
BRANCH  64  77
ATOM     77  C   UNL A   1      44.077  33.317  27.900  1.00  0.00    -0.014 A 
ATOM     78  C   UNL A   1      43.484  34.265  28.732  1.00  0.00     0.009 A 
ATOM     79  C   UNL A   1      44.421  33.745  26.598  1.00  0.00     0.009 A 
ATOM     80  C   UNL A   1      43.391  35.604  28.345  1.00  0.00     0.001 A 
ATOM     81  C   UNL A   1      44.308  35.070  26.194  1.00  0.00     0.001 A 
ATOM     82  C   UNL A   1      43.824  36.009  27.086  1.00  0.00     0.000 A 
ENDBRANCH  64  77
ENDBRANCH  38  39
ENDBRANCH  31  33
ENDBRANCH  30  31
ENDBRANCH  29  30
ENDBRANCH  28  29
ENDBRANCH  27  28
ENDBRANCH   1  27
TORSDOF 17
ENDMDL
MODEL 3
REMARK VINA RESULT:     -10.8      3.291      7.949
REMARK SMILES Cc1ccc(N2C(=O)C[C@H](Sc3ccccc3C(=O)OCCOCCOC(=O)c3ccc(-c4c5nc(c(-c6ccccc6)c6ccc([nH]6)c(-c6ccccc6)c6nc(c(-c7ccccc7)c7ccc4[nH]7)C=C6)C=C5)cc3)C2=O)cc1
REMARK SMILES IDX 22 1 21 2 20 3 18 4 19 5 17 6 12 7 13 8 14 9 16 10 15 11
REMARK SMILES IDX 11 12 10 13 6 14 7 15 77 16 8 17 9 18 78 19 5 20 1 21 2 22
REMARK SMILES IDX 3 23 80 24 4 25 79 26 23 27 24 28 25 29 26 30 27 31 28 32
REMARK SMILES IDX 29 33 30 34 76 35 31 36 75 37 32 38 33 39 34 40 69 41 35 42
REMARK SMILES IDX 74 43 68 44 70 45 36 46 73 47 67 48 66 49 37 51 59 52 44 53
REMARK SMILES IDX 58 54 45 55 48 56 57 57 71 58 46 59 47 60 56 62 72 63 49 64
REMARK SMILES IDX 38 65 39 66 43 67 40 68 42 69 41 70 60 71 61 72 65 73 62 74
REMARK SMILES IDX 64 75 63 76 50 77 51 78 55 79 52 80 54 81 53 82
REMARK H PARENT 70 50 48 61
REMARK Flexibility Score: inf
ROOT
ATOM      1  C   UNL A   1      34.071  25.939  25.758  1.00  0.00     0.202 C 
ENDROOT
BRANCH   1   2
ATOM      2  C   UNL A   1      35.130  24.981  25.379  1.00  0.00     0.261 C 
BRANCH   2   3
ATOM      3  O   UNL A   1      34.618  23.652  25.118  1.00  0.00    -0.460 OA
BRANCH   3   4
ATOM      4  C   UNL A   1      34.224  22.783  26.099  1.00  0.00     0.339 C 
ATOM      5  O   UNL A   1      34.307  22.914  27.289  1.00  0.00    -0.246 OA
BRANCH   4   6
ATOM      6  C   UNL A   1      33.619  21.613  25.422  1.00  0.00     0.073 A 
ATOM      7  C   UNL A   1      32.337  21.633  24.844  1.00  0.00     0.023 A 
ATOM      8  C   UNL A   1      31.967  20.517  24.073  1.00  0.00     0.016 A 
ATOM      9  C   UNL A   1      32.832  19.431  23.890  1.00  0.00     0.001 A 
ATOM     10  C   UNL A   1      34.432  20.464  25.324  1.00  0.00     0.017 A 
ATOM     11  C   UNL A   1      34.052  19.388  24.542  1.00  0.00     0.001 A 
BRANCH   7  12
ATOM     12  S   UNL A   1      31.031  22.819  25.205  1.00  0.00    -0.111 SA
BRANCH  12  13
ATOM     13  C   UNL A   1      31.547  24.417  24.494  1.00  0.00     0.151 C 
ATOM     14  N   UNL A   1      30.613  26.363  23.644  1.00  0.00    -0.250 N 
ATOM     15  C   UNL A   1      31.285  25.793  22.588  1.00  0.00     0.235 C 
ATOM     16  C   UNL A   1      30.683  25.610  24.791  1.00  0.00     0.247 C 
ATOM     17  O   UNL A   1      31.429  26.236  21.458  1.00  0.00    -0.274 OA
ATOM     18  C   UNL A   1      31.645  24.389  22.980  1.00  0.00     0.126 C 
ATOM     19  O   UNL A   1      30.257  25.924  25.894  1.00  0.00    -0.273 OA
BRANCH  14  20
ATOM     20  C   UNL A   1      29.876  27.559  23.547  1.00  0.00     0.052 A 
ATOM     21  C   UNL A   1      27.596  31.199  23.203  1.00  0.00     0.044 C 
ATOM     22  C   UNL A   1      28.390  29.927  23.285  1.00  0.00    -0.051 A 
ATOM     23  C   UNL A   1      29.761  29.972  23.568  1.00  0.00     0.005 A 
ATOM     24  C   UNL A   1      27.764  28.686  23.140  1.00  0.00     0.005 A 
ATOM     25  C   UNL A   1      30.510  28.796  23.656  1.00  0.00     0.027 A 
ATOM     26  C   UNL A   1      28.496  27.508  23.311  1.00  0.00     0.027 A 
ENDBRANCH  14  20
ENDBRANCH  12  13
ENDBRANCH   7  12
ENDBRANCH   4   6
ENDBRANCH   3   4
ENDBRANCH   2   3
ENDBRANCH   1   2
BRANCH   1  27
ATOM     27  O   UNL A   1      34.046  26.718  24.592  1.00  0.00    -0.374 OA
BRANCH  27  28
ATOM     28  C   UNL A   1      33.877  28.069  24.806  1.00  0.00     0.202 C 
BRANCH  28  29
ATOM     29  C   UNL A   1      33.398  28.254  26.223  1.00  0.00     0.261 C 
BRANCH  29  30
ATOM     30  O   UNL A   1      34.357  28.586  27.303  1.00  0.00    -0.460 OA
BRANCH  30  31
ATOM     31  C   UNL A   1      34.968  29.721  27.749  1.00  0.00     0.338 C 
ATOM     32  O   UNL A   1      34.334  30.765  27.889  1.00  0.00    -0.246 OA
BRANCH  31  33
ATOM     33  C   UNL A   1      36.365  29.715  28.271  1.00  0.00     0.060 A 
ATOM     34  C   UNL A   1      37.436  30.066  27.418  1.00  0.00     0.016 A 
ATOM     35  C   UNL A   1      36.645  29.321  29.570  1.00  0.00     0.016 A 
ATOM     36  C   UNL A   1      38.766  29.779  27.770  1.00  0.00     0.010 A 
ATOM     37  C   UNL A   1      37.962  29.000  29.895  1.00  0.00     0.010 A 
ATOM     38  C   UNL A   1      39.019  29.132  28.972  1.00  0.00    -0.014 A 
BRANCH  38  39
ATOM     39  C   UNL A   1      40.318  28.547  29.365  1.00  0.00     0.031 A 
ATOM     40  C   UNL A   1      40.661  27.231  28.807  1.00  0.00     0.074 A 
ATOM     41  C   UNL A   1      41.287  29.234  30.030  1.00  0.00     0.049 A 
ATOM     42  N   UNL A   1      41.599  26.488  29.276  1.00  0.00    -0.248 NA
ATOM     43  C   UNL A   1      39.940  26.595  27.706  1.00  0.00     0.031 C 
ATOM     44  C   UNL A   1      42.741  29.031  30.086  1.00  0.00     0.029 A 
ATOM     45  N   UNL A   1      41.170  30.392  30.795  1.00  0.00    -0.354 N 
ATOM     46  C   UNL A   1      41.878  25.552  28.316  1.00  0.00     0.074 A 
ATOM     47  C   UNL A   1      40.709  25.527  27.474  1.00  0.00     0.031 C 
ATOM     48  C   UNL A   1      43.272  29.800  31.065  1.00  0.00     0.029 A 
ATOM     49  C   UNL A   1      42.161  30.429  31.769  1.00  0.00     0.049 A 
ATOM     50  H   UNL A   1      40.483  31.086  30.665  1.00  0.00     0.167 HD
ATOM     51  C   UNL A   1      43.145  25.058  28.252  1.00  0.00     0.031 A 
ATOM     52  C   UNL A   1      41.820  30.388  33.085  1.00  0.00     0.031 A 
ATOM     53  C   UNL A   1      43.979  25.576  29.359  1.00  0.00     0.049 A 
ATOM     54  C   UNL A   1      42.347  29.099  33.645  1.00  0.00     0.074 A 
ATOM     55  C   UNL A   1      45.072  26.424  29.433  1.00  0.00     0.029 A 
ATOM     56  N   UNL A   1      43.496  25.480  30.665  1.00  0.00    -0.354 N 
ATOM     57  N   UNL A   1      42.748  28.124  32.878  1.00  0.00    -0.248 NA
ATOM     58  C   UNL A   1      42.491  28.784  35.054  1.00  0.00     0.031 C 
ATOM     59  C   UNL A   1      45.231  26.828  30.799  1.00  0.00     0.029 A 
ATOM     60  C   UNL A   1      44.258  26.203  31.562  1.00  0.00     0.049 A 
ATOM     61  H   UNL A   1      42.702  24.956  30.918  1.00  0.00     0.167 HD
ATOM     62  C   UNL A   1      43.317  27.140  33.612  1.00  0.00     0.074 A 
ATOM     63  C   UNL A   1      43.032  27.552  34.984  1.00  0.00     0.031 C 
ATOM     64  C   UNL A   1      43.970  26.106  33.001  1.00  0.00     0.031 A 
BRANCH  51  65
ATOM     65  C   UNL A   1      43.700  24.287  27.069  1.00  0.00    -0.014 A 
ATOM     66  C   UNL A   1      43.666  24.867  25.788  1.00  0.00     0.009 A 
ATOM     67  C   UNL A   1      44.232  22.984  27.123  1.00  0.00     0.009 A 
ATOM     68  C   UNL A   1      44.112  24.185  24.645  1.00  0.00     0.001 A 
ATOM     69  C   UNL A   1      44.686  22.296  25.988  1.00  0.00     0.001 A 
ATOM     70  C   UNL A   1      44.623  22.898  24.744  1.00  0.00     0.000 A 
ENDBRANCH  51  65
BRANCH  52  71
ATOM     71  C   UNL A   1      40.509  31.061  33.397  1.00  0.00    -0.014 A 
ATOM     72  C   UNL A   1      39.300  30.373  33.138  1.00  0.00     0.009 A 
ATOM     73  C   UNL A   1      40.458  32.126  34.312  1.00  0.00     0.009 A 
ATOM     74  C   UNL A   1      38.122  30.660  33.857  1.00  0.00     0.001 A 
ATOM     75  C   UNL A   1      39.287  32.395  35.043  1.00  0.00     0.001 A 
ATOM     76  C   UNL A   1      38.132  31.641  34.845  1.00  0.00     0.000 A 
ENDBRANCH  52  71
BRANCH  64  77
ATOM     77  C   UNL A   1      44.365  24.838  33.700  1.00  0.00    -0.014 A 
ATOM     78  C   UNL A   1      43.469  23.884  34.179  1.00  0.00     0.009 A 
ATOM     79  C   UNL A   1      45.739  24.555  33.865  1.00  0.00     0.009 A 
ATOM     80  C   UNL A   1      43.918  22.646  34.645  1.00  0.00     0.001 A 
ATOM     81  C   UNL A   1      46.196  23.337  34.353  1.00  0.00     0.001 A 
ATOM     82  C   UNL A   1      45.280  22.366  34.711  1.00  0.00     0.000 A 
ENDBRANCH  64  77
ENDBRANCH  38  39
ENDBRANCH  31  33
ENDBRANCH  30  31
ENDBRANCH  29  30
ENDBRANCH  28  29
ENDBRANCH  27  28
ENDBRANCH   1  27
TORSDOF 17
ENDMDL
