MODEL 1
REMARK VINA RESULT:      -9.3      0.000      0.000
REMARK SMILES CC[C@@H](COC)NC(=O)NC[C@@H]1CC[C@H](C(=O)OCCOCCOC(=O)c2ccc(-c3c4nc(c(-c5ccccc5)c5ccc([nH]5)c(-c5ccccc5)c5nc(c(-c6ccccc6)c6ccc3[nH]6)C=C5)C=C4)cc2)O1
REMARK SMILES IDX 19 1 18 2 16 3 17 4 15 5 12 6 13 7 75 8 14 9 11 10 10 11
REMARK SMILES IDX 7 12 8 13 9 15 3 17 2 18 1 19 4 20 5 21 6 22 20 23 21 24
REMARK SMILES IDX 22 25 23 26 24 27 25 28 26 29 27 30 28 31 74 32 29 33 73 34
REMARK SMILES IDX 30 35 31 36 32 37 67 38 33 39 72 40 66 41 68 42 34 43 71 44
REMARK SMILES IDX 65 45 64 46 35 48 57 49 42 50 56 51 43 52 46 53 55 54 69 55
REMARK SMILES IDX 44 56 45 57 54 59 70 60 47 61 36 62 37 63 41 64 38 65 40 66
REMARK SMILES IDX 39 67 58 68 59 69 63 70 60 71 62 72 61 73 48 74 49 75 53 76
REMARK SMILES IDX 50 77 52 78 51 79
REMARK H PARENT 7 14 10 16 68 47 46 58
REMARK Flexibility Score: inf
ROOT
ATOM      1  C   UNL A   1      34.070  21.757  25.992  1.00  0.00     0.261 C 
ENDROOT
BRANCH   1   2
ATOM      2  O   UNL A   1      33.485  23.051  25.762  1.00  0.00    -0.461 OA
BRANCH   2   3
ATOM      3  C   UNL A   1      34.082  23.813  24.804  1.00  0.00     0.335 C 
ATOM      4  O   UNL A   1      34.753  24.812  25.035  1.00  0.00    -0.249 OA
BRANCH   3   5
ATOM      5  C   UNL A   1      33.812  23.291  23.381  1.00  0.00     0.228 C 
ATOM      6  C   UNL A   1      32.976  25.018  22.048  1.00  0.00     0.138 C 
ATOM      7  C   UNL A   1      31.793  24.239  22.618  1.00  0.00     0.037 C 
ATOM      8  O   UNL A   1      34.169  24.289  22.417  1.00  0.00    -0.361 OA
ATOM      9  C   UNL A   1      32.387  22.916  23.026  1.00  0.00     0.047 C 
BRANCH   6  10
ATOM     10  C   UNL A   1      33.091  26.463  22.576  1.00  0.00     0.149 C 
BRANCH  10  11
ATOM     11  N   UNL A   1      32.002  27.310  22.118  1.00  0.00    -0.336 N 
ATOM     12  N   UNL A   1      30.466  27.495  23.902  1.00  0.00    -0.333 N 
ATOM     13  C   UNL A   1      30.858  27.752  22.651  1.00  0.00     0.315 C 
ATOM     14  H   UNL A   1      29.558  27.826  24.090  1.00  0.00     0.165 HD
ATOM     15  O   UNL A   1      30.117  28.432  21.938  1.00  0.00    -0.249 OA
ATOM     16  H   UNL A   1      32.139  27.634  21.198  1.00  0.00     0.165 HD
BRANCH  12  17
ATOM     17  C   UNL A   1      31.072  26.838  25.055  1.00  0.00     0.109 C 
BRANCH  17  18
ATOM     18  C   UNL A   1      31.577  27.890  26.048  1.00  0.00     0.024 C 
ATOM     19  C   UNL A   1      33.073  27.800  26.301  1.00  0.00     0.006 C 
ENDBRANCH  17  18
BRANCH  17  20
ATOM     20  C   UNL A   1      30.107  25.784  25.636  1.00  0.00     0.184 C 
BRANCH  20  21
ATOM     21  O   UNL A   1      30.684  24.982  26.664  1.00  0.00    -0.383 OA
ATOM     22  C   UNL A   1      30.284  23.620  26.644  1.00  0.00     0.194 C 
ENDBRANCH  20  21
ENDBRANCH  17  20
ENDBRANCH  12  17
ENDBRANCH  10  11
ENDBRANCH   6  10
ENDBRANCH   3   5
ENDBRANCH   2   3
ENDBRANCH   1   2
BRANCH   1  23
ATOM     23  C   UNL A   1      35.578  21.879  26.222  1.00  0.00     0.202 C 
BRANCH  23  24
ATOM     24  O   UNL A   1      36.405  21.076  25.380  1.00  0.00    -0.374 OA
BRANCH  24  25
ATOM     25  C   UNL A   1      37.575  21.679  24.829  1.00  0.00     0.202 C 
BRANCH  25  26
ATOM     26  C   UNL A   1      38.837  21.648  25.702  1.00  0.00     0.261 C 
BRANCH  26  27
ATOM     27  O   UNL A   1      39.189  20.318  26.129  1.00  0.00    -0.460 OA
BRANCH  27  28
ATOM     28  C   UNL A   1      40.518  20.055  26.099  1.00  0.00     0.338 C 
ATOM     29  O   UNL A   1      41.069  19.077  25.608  1.00  0.00    -0.246 OA
BRANCH  28  30
ATOM     30  C   UNL A   1      41.292  21.201  26.608  1.00  0.00     0.060 A 
ATOM     31  C   UNL A   1      41.228  21.457  27.983  1.00  0.00     0.016 A 
ATOM     32  C   UNL A   1      41.969  22.074  25.755  1.00  0.00     0.016 A 
ATOM     33  C   UNL A   1      41.793  22.619  28.507  1.00  0.00     0.010 A 
ATOM     34  C   UNL A   1      42.530  23.245  26.282  1.00  0.00     0.010 A 
ATOM     35  C   UNL A   1      42.412  23.542  27.653  1.00  0.00    -0.014 A 
BRANCH  35  36
ATOM     36  C   UNL A   1      42.802  24.875  28.177  1.00  0.00     0.031 A 
ATOM     37  C   UNL A   1      41.748  25.936  28.345  1.00  0.00     0.074 A 
ATOM     38  C   UNL A   1      44.071  25.135  28.536  1.00  0.00     0.049 A 
ATOM     39  N   UNL A   1      41.876  27.168  28.770  1.00  0.00    -0.248 NA
ATOM     40  C   UNL A   1      40.369  25.556  28.000  1.00  0.00     0.031 C 
ATOM     41  C   UNL A   1      45.173  24.178  28.496  1.00  0.00     0.029 A 
ATOM     42  N   UNL A   1      44.648  26.293  28.995  1.00  0.00    -0.354 N 
ATOM     43  C   UNL A   1      40.596  27.707  28.754  1.00  0.00     0.074 A 
ATOM     44  C   UNL A   1      39.712  26.682  28.238  1.00  0.00     0.031 C 
ATOM     45  C   UNL A   1      46.305  24.798  28.871  1.00  0.00     0.029 A 
ATOM     46  C   UNL A   1      46.006  26.195  29.175  1.00  0.00     0.049 A 
ATOM     47  H   UNL A   1      44.136  27.114  29.178  1.00  0.00     0.167 HD
ATOM     48  C   UNL A   1      40.187  28.936  29.147  1.00  0.00     0.031 A 
ATOM     49  C   UNL A   1      46.908  27.128  29.531  1.00  0.00     0.031 A 
ATOM     50  C   UNL A   1      41.060  29.963  29.650  1.00  0.00     0.049 A 
ATOM     51  C   UNL A   1      46.447  28.522  29.858  1.00  0.00     0.074 A 
ATOM     52  C   UNL A   1      40.732  31.232  30.093  1.00  0.00     0.029 A 
ATOM     53  N   UNL A   1      42.435  29.840  29.768  1.00  0.00    -0.354 N 
ATOM     54  N   UNL A   1      45.229  29.006  29.867  1.00  0.00    -0.248 NA
ATOM     55  C   UNL A   1      47.484  29.490  30.244  1.00  0.00     0.031 C 
ATOM     56  C   UNL A   1      41.916  31.898  30.429  1.00  0.00     0.029 A 
ATOM     57  C   UNL A   1      42.975  31.022  30.245  1.00  0.00     0.049 A 
ATOM     58  H   UNL A   1      42.951  29.032  29.546  1.00  0.00     0.167 HD
ATOM     59  C   UNL A   1      45.349  30.323  30.294  1.00  0.00     0.074 A 
ATOM     60  C   UNL A   1      46.757  30.560  30.537  1.00  0.00     0.031 C 
ATOM     61  C   UNL A   1      44.376  31.248  30.479  1.00  0.00     0.031 A 
BRANCH  48  62
ATOM     62  C   UNL A   1      38.722  29.246  29.024  1.00  0.00    -0.014 A 
ATOM     63  C   UNL A   1      37.852  29.089  30.115  1.00  0.00     0.009 A 
ATOM     64  C   UNL A   1      38.213  29.733  27.811  1.00  0.00     0.009 A 
ATOM     65  C   UNL A   1      36.494  29.386  29.982  1.00  0.00     0.001 A 
ATOM     66  C   UNL A   1      36.860  30.050  27.688  1.00  0.00     0.001 A 
ATOM     67  C   UNL A   1      36.000  29.869  28.770  1.00  0.00     0.000 A 
ENDBRANCH  48  62
BRANCH  49  68
ATOM     68  C   UNL A   1      48.351  26.780  29.587  1.00  0.00    -0.014 A 
ATOM     69  C   UNL A   1      48.907  26.208  30.740  1.00  0.00     0.009 A 
ATOM     70  C   UNL A   1      49.183  27.038  28.486  1.00  0.00     0.009 A 
ATOM     71  C   UNL A   1      50.273  25.922  30.798  1.00  0.00     0.001 A 
ATOM     72  C   UNL A   1      50.544  26.728  28.538  1.00  0.00     0.001 A 
ATOM     73  C   UNL A   1      51.089  26.179  29.696  1.00  0.00     0.000 A 
ENDBRANCH  49  68
BRANCH  61  74
ATOM     74  C   UNL A   1      44.796  32.593  31.002  1.00  0.00    -0.014 A 
ATOM     75  C   UNL A   1      44.783  33.731  30.181  1.00  0.00     0.009 A 
ATOM     76  C   UNL A   1      45.171  32.728  32.348  1.00  0.00     0.009 A 
ATOM     77  C   UNL A   1      45.168  34.972  30.692  1.00  0.00     0.001 A 
ATOM     78  C   UNL A   1      45.530  33.974  32.862  1.00  0.00     0.001 A 
ATOM     79  C   UNL A   1      45.537  35.094  32.031  1.00  0.00     0.000 A 
ENDBRANCH  61  74
ENDBRANCH  35  36
ENDBRANCH  28  30
ENDBRANCH  27  28
ENDBRANCH  26  27
ENDBRANCH  25  26
ENDBRANCH  24  25
ENDBRANCH  23  24
ENDBRANCH   1  23
TORSDOF 20
ENDMDL
MODEL 2
REMARK VINA RESULT:      -9.2      0.326      5.871
REMARK SMILES CC[C@@H](COC)NC(=O)NC[C@@H]1CC[C@H](C(=O)OCCOCCOC(=O)c2ccc(-c3c4nc(c(-c5ccccc5)c5ccc([nH]5)c(-c5ccccc5)c5nc(c(-c6ccccc6)c6ccc3[nH]6)C=C5)C=C4)cc2)O1
REMARK SMILES IDX 19 1 18 2 16 3 17 4 15 5 12 6 13 7 75 8 14 9 11 10 10 11
REMARK SMILES IDX 7 12 8 13 9 15 3 17 2 18 1 19 4 20 5 21 6 22 20 23 21 24
REMARK SMILES IDX 22 25 23 26 24 27 25 28 26 29 27 30 28 31 74 32 29 33 73 34
REMARK SMILES IDX 30 35 31 36 32 37 67 38 33 39 72 40 66 41 68 42 34 43 71 44
REMARK SMILES IDX 65 45 64 46 35 48 57 49 42 50 56 51 43 52 46 53 55 54 69 55
REMARK SMILES IDX 44 56 45 57 54 59 70 60 47 61 36 62 37 63 41 64 38 65 40 66
REMARK SMILES IDX 39 67 58 68 59 69 63 70 60 71 62 72 61 73 48 74 49 75 53 76
REMARK SMILES IDX 50 77 52 78 51 79
REMARK H PARENT 7 14 10 16 68 47 46 58
REMARK Flexibility Score: inf
ROOT
ATOM      1  C   UNL A   1      34.397  21.528  25.885  1.00  0.00     0.261 C 
ENDROOT
BRANCH   1   2
ATOM      2  O   UNL A   1      33.579  22.704  25.752  1.00  0.00    -0.461 OA
BRANCH   2   3
ATOM      3  C   UNL A   1      33.941  23.573  24.767  1.00  0.00     0.335 C 
ATOM      4  O   UNL A   1      34.497  24.647  24.963  1.00  0.00    -0.249 OA
BRANCH   3   5
ATOM      5  C   UNL A   1      33.563  23.065  23.364  1.00  0.00     0.228 C 
ATOM      6  C   UNL A   1      32.737  24.832  22.078  1.00  0.00     0.138 C 
ATOM      7  C   UNL A   1      31.552  24.113  22.719  1.00  0.00     0.037 C 
ATOM      8  O   UNL A   1      33.911  24.044  22.378  1.00  0.00    -0.361 OA
ATOM      9  C   UNL A   1      32.102  22.762  23.094  1.00  0.00     0.047 C 
BRANCH   6  10
ATOM     10  C   UNL A   1      32.954  26.269  22.594  1.00  0.00     0.149 C 
BRANCH  10  11
ATOM     11  N   UNL A   1      31.882  27.169  22.200  1.00  0.00    -0.336 N 
ATOM     12  N   UNL A   1      30.553  27.549  24.114  1.00  0.00    -0.333 N 
ATOM     13  C   UNL A   1      30.831  27.717  22.818  1.00  0.00     0.315 C 
ATOM     14  H   UNL A   1      29.693  27.953  24.373  1.00  0.00     0.165 HD
ATOM     15  O   UNL A   1      30.068  28.413  22.145  1.00  0.00    -0.249 OA
ATOM     16  H   UNL A   1      31.946  27.438  21.254  1.00  0.00     0.165 HD
BRANCH  12  17
ATOM     17  C   UNL A   1      31.229  26.906  25.236  1.00  0.00     0.109 C 
BRANCH  17  18
ATOM     18  C   UNL A   1      31.739  27.969  26.214  1.00  0.00     0.024 C 
ATOM     19  C   UNL A   1      33.244  28.164  26.150  1.00  0.00     0.006 C 
ENDBRANCH  17  18
BRANCH  17  20
ATOM     20  C   UNL A   1      30.325  25.817  25.848  1.00  0.00     0.184 C 
BRANCH  20  21
ATOM     21  O   UNL A   1      31.044  24.798  26.542  1.00  0.00    -0.383 OA
ATOM     22  C   UNL A   1      30.340  23.573  26.684  1.00  0.00     0.194 C 
ENDBRANCH  20  21
ENDBRANCH  17  20
ENDBRANCH  12  17
ENDBRANCH  10  11
ENDBRANCH   6  10
ENDBRANCH   3   5
ENDBRANCH   2   3
ENDBRANCH   1   2
BRANCH   1  23
ATOM     23  C   UNL A   1      35.860  21.910  26.120  1.00  0.00     0.202 C 
BRANCH  23  24
ATOM     24  O   UNL A   1      36.828  21.153  25.394  1.00  0.00    -0.374 OA
BRANCH  24  25
ATOM     25  C   UNL A   1      38.100  21.755  25.158  1.00  0.00     0.202 C 
BRANCH  25  26
ATOM     26  C   UNL A   1      39.236  21.347  26.107  1.00  0.00     0.261 C 
BRANCH  26  27
ATOM     27  O   UNL A   1      39.665  19.985  25.913  1.00  0.00    -0.460 OA
BRANCH  27  28
ATOM     28  C   UNL A   1      40.993  19.786  26.093  1.00  0.00     0.338 C 
ATOM     29  O   UNL A   1      41.644  18.797  25.781  1.00  0.00    -0.246 OA
BRANCH  28  30
ATOM     30  C   UNL A   1      41.644  21.011  26.592  1.00  0.00     0.060 A 
ATOM     31  C   UNL A   1      41.491  21.309  27.952  1.00  0.00     0.016 A 
ATOM     32  C   UNL A   1      42.289  21.907  25.738  1.00  0.00     0.016 A 
ATOM     33  C   UNL A   1      41.932  22.532  28.455  1.00  0.00     0.010 A 
ATOM     34  C   UNL A   1      42.725  23.139  26.244  1.00  0.00     0.010 A 
ATOM     35  C   UNL A   1      42.515  23.473  27.595  1.00  0.00    -0.014 A 
BRANCH  35  36
ATOM     36  C   UNL A   1      42.767  24.852  28.083  1.00  0.00     0.031 A 
ATOM     37  C   UNL A   1      44.166  25.252  28.468  1.00  0.00     0.074 A 
ATOM     38  C   UNL A   1      41.774  25.757  28.151  1.00  0.00     0.049 A 
ATOM     39  N   UNL A   1      44.601  26.396  28.931  1.00  0.00    -0.248 NA
ATOM     40  C   UNL A   1      45.213  24.232  28.298  1.00  0.00     0.031 C 
ATOM     41  C   UNL A   1      40.393  25.527  27.740  1.00  0.00     0.029 A 
ATOM     42  N   UNL A   1      41.779  27.052  28.606  1.00  0.00    -0.354 N 
ATOM     43  C   UNL A   1      45.971  26.239  29.097  1.00  0.00     0.074 A 
ATOM     44  C   UNL A   1      46.289  24.876  28.726  1.00  0.00     0.031 C 
ATOM     45  C   UNL A   1      39.669  26.628  28.002  1.00  0.00     0.029 A 
ATOM     46  C   UNL A   1      40.538  27.639  28.600  1.00  0.00     0.049 A 
ATOM     47  H   UNL A   1      42.594  27.515  28.906  1.00  0.00     0.167 HD
ATOM     48  C   UNL A   1      46.886  27.149  29.507  1.00  0.00     0.031 A 
ATOM     49  C   UNL A   1      40.142  28.848  29.040  1.00  0.00     0.031 A 
ATOM     50  C   UNL A   1      46.577  28.502  29.887  1.00  0.00     0.049 A 
ATOM     51  C   UNL A   1      41.160  29.806  29.595  1.00  0.00     0.074 A 
ATOM     52  C   UNL A   1      47.443  29.501  30.295  1.00  0.00     0.029 A 
ATOM     53  N   UNL A   1      45.301  29.040  29.916  1.00  0.00    -0.354 N 
ATOM     54  N   UNL A   1      42.456  29.653  29.717  1.00  0.00    -0.248 NA
ATOM     55  C   UNL A   1      40.661  31.112  30.052  1.00  0.00     0.031 C 
ATOM     56  C   UNL A   1      46.683  30.630  30.622  1.00  0.00     0.029 A 
ATOM     57  C   UNL A   1      45.351  30.348  30.366  1.00  0.00     0.049 A 
ATOM     58  H   UNL A   1      44.481  28.563  29.655  1.00  0.00     0.167 HD
ATOM     59  C   UNL A   1      42.932  30.853  30.231  1.00  0.00     0.074 A 
ATOM     60  C   UNL A   1      41.786  31.725  30.393  1.00  0.00     0.031 C 
ATOM     61  C   UNL A   1      44.206  31.204  30.529  1.00  0.00     0.031 A 
BRANCH  48  62
ATOM     62  C   UNL A   1      48.317  26.698  29.586  1.00  0.00    -0.014 A 
ATOM     63  C   UNL A   1      48.809  26.037  30.723  1.00  0.00     0.009 A 
ATOM     64  C   UNL A   1      49.174  26.906  28.495  1.00  0.00     0.009 A 
ATOM     65  C   UNL A   1      50.141  25.623  30.776  1.00  0.00     0.001 A 
ATOM     66  C   UNL A   1      50.499  26.470  28.542  1.00  0.00     0.001 A 
ATOM     67  C   UNL A   1      50.983  25.836  29.685  1.00  0.00     0.000 A 
ENDBRANCH  48  62
BRANCH  49  68
ATOM     68  C   UNL A   1      38.706  29.223  28.984  1.00  0.00    -0.014 A 
ATOM     69  C   UNL A   1      37.866  29.012  30.086  1.00  0.00     0.009 A 
ATOM     70  C   UNL A   1      38.166  29.780  27.814  1.00  0.00     0.009 A 
ATOM     71  C   UNL A   1      36.508  29.330  30.011  1.00  0.00     0.001 A 
ATOM     72  C   UNL A   1      36.813  30.120  27.749  1.00  0.00     0.001 A 
ATOM     73  C   UNL A   1      35.984  29.886  28.844  1.00  0.00     0.000 A 
ENDBRANCH  49  68
BRANCH  61  74
ATOM     74  C   UNL A   1      44.436  32.603  31.028  1.00  0.00    -0.014 A 
ATOM     75  C   UNL A   1      44.648  33.668  30.140  1.00  0.00     0.009 A 
ATOM     76  C   UNL A   1      44.398  32.862  32.407  1.00  0.00     0.009 A 
ATOM     77  C   UNL A   1      44.850  34.961  30.627  1.00  0.00     0.001 A 
ATOM     78  C   UNL A   1      44.574  34.160  32.889  1.00  0.00     0.001 A 
ATOM     79  C   UNL A   1      44.808  35.207  31.999  1.00  0.00     0.000 A 
ENDBRANCH  61  74
ENDBRANCH  35  36
ENDBRANCH  28  30
ENDBRANCH  27  28
ENDBRANCH  26  27
ENDBRANCH  25  26
ENDBRANCH  24  25
ENDBRANCH  23  24
ENDBRANCH   1  23
TORSDOF 20
ENDMDL
MODEL 3
REMARK VINA RESULT:      -9.1      1.853      6.324
REMARK SMILES CC[C@@H](COC)NC(=O)NC[C@@H]1CC[C@H](C(=O)OCCOCCOC(=O)c2ccc(-c3c4nc(c(-c5ccccc5)c5ccc([nH]5)c(-c5ccccc5)c5nc(c(-c6ccccc6)c6ccc3[nH]6)C=C5)C=C4)cc2)O1
REMARK SMILES IDX 19 1 18 2 16 3 17 4 15 5 12 6 13 7 75 8 14 9 11 10 10 11
REMARK SMILES IDX 7 12 8 13 9 15 3 17 2 18 1 19 4 20 5 21 6 22 20 23 21 24
REMARK SMILES IDX 22 25 23 26 24 27 25 28 26 29 27 30 28 31 74 32 29 33 73 34
REMARK SMILES IDX 30 35 31 36 32 37 67 38 33 39 72 40 66 41 68 42 34 43 71 44
REMARK SMILES IDX 65 45 64 46 35 48 57 49 42 50 56 51 43 52 46 53 55 54 69 55
REMARK SMILES IDX 44 56 45 57 54 59 70 60 47 61 36 62 37 63 41 64 38 65 40 66
REMARK SMILES IDX 39 67 58 68 59 69 63 70 60 71 62 72 61 73 48 74 49 75 53 76
REMARK SMILES IDX 50 77 52 78 51 79
REMARK H PARENT 7 14 10 16 68 47 46 58
REMARK Flexibility Score: inf
ROOT
ATOM      1  C   UNL A   1      35.932  21.678  25.425  1.00  0.00     0.261 C 
ENDROOT
BRANCH   1   2
ATOM      2  O   UNL A   1      35.204  22.909  25.264  1.00  0.00    -0.461 OA
BRANCH   2   3
ATOM      3  C   UNL A   1      34.490  23.031  24.110  1.00  0.00     0.335 C 
ATOM      4  O   UNL A   1      34.695  23.888  23.258  1.00  0.00    -0.249 OA
BRANCH   3   5
ATOM      5  C   UNL A   1      33.373  21.979  23.992  1.00  0.00     0.228 C 
ATOM      6  C   UNL A   1      31.329  23.033  23.583  1.00  0.00     0.138 C 
ATOM      7  C   UNL A   1      31.458  22.809  25.088  1.00  0.00     0.037 C 
ATOM      8  O   UNL A   1      32.448  22.357  22.966  1.00  0.00    -0.361 OA
ATOM      9  C   UNL A   1      32.504  21.732  25.210  1.00  0.00     0.047 C 
BRANCH   6  10
ATOM     10  C   UNL A   1      31.348  24.518  23.164  1.00  0.00     0.149 C 
BRANCH  10  11
ATOM     11  N   UNL A   1      32.016  24.727  21.890  1.00  0.00    -0.336 N 
ATOM     12  N   UNL A   1      32.266  27.059  21.611  1.00  0.00    -0.333 N 
ATOM     13  C   UNL A   1      32.403  25.798  21.189  1.00  0.00     0.315 C 
ATOM     14  H   UNL A   1      32.524  27.718  20.926  1.00  0.00     0.165 HD
ATOM     15  O   UNL A   1      32.909  25.607  20.082  1.00  0.00    -0.249 OA
ATOM     16  H   UNL A   1      32.234  23.881  21.436  1.00  0.00     0.165 HD
BRANCH  12  17
ATOM     17  C   UNL A   1      31.824  27.686  22.851  1.00  0.00     0.109 C 
BRANCH  17  18
ATOM     18  C   UNL A   1      32.749  28.856  23.202  1.00  0.00     0.024 C 
ATOM     19  C   UNL A   1      34.040  28.415  23.872  1.00  0.00     0.006 C 
ENDBRANCH  17  18
BRANCH  17  20
ATOM     20  C   UNL A   1      30.322  28.026  22.770  1.00  0.00     0.184 C 
BRANCH  20  21
ATOM     21  O   UNL A   1      29.976  28.827  21.641  1.00  0.00    -0.383 OA
ATOM     22  C   UNL A   1      29.598  30.158  21.956  1.00  0.00     0.194 C 
ENDBRANCH  20  21
ENDBRANCH  17  20
ENDBRANCH  12  17
ENDBRANCH  10  11
ENDBRANCH   6  10
ENDBRANCH   3   5
ENDBRANCH   2   3
ENDBRANCH   1   2
BRANCH   1  23
ATOM     23  C   UNL A   1      37.139  21.637  24.485  1.00  0.00     0.202 C 
BRANCH  23  24
ATOM     24  O   UNL A   1      38.304  20.986  24.993  1.00  0.00    -0.374 OA
BRANCH  24  25
ATOM     25  C   UNL A   1      38.945  21.563  26.128  1.00  0.00     0.202 C 
BRANCH  25  26
ATOM     26  C   UNL A   1      40.040  20.721  26.798  1.00  0.00     0.261 C 
BRANCH  26  27
ATOM     27  O   UNL A   1      40.495  19.634  25.969  1.00  0.00    -0.460 OA
BRANCH  27  28
ATOM     28  C   UNL A   1      41.834  19.429  26.001  1.00  0.00     0.338 C 
ATOM     29  O   UNL A   1      42.432  18.390  25.749  1.00  0.00    -0.246 OA
BRANCH  28  30
ATOM     30  C   UNL A   1      42.553  20.695  26.233  1.00  0.00     0.060 A 
ATOM     31  C   UNL A   1      42.686  21.122  27.561  1.00  0.00     0.016 A 
ATOM     32  C   UNL A   1      42.984  21.505  25.182  1.00  0.00     0.016 A 
ATOM     33  C   UNL A   1      43.201  22.386  27.842  1.00  0.00     0.010 A 
ATOM     34  C   UNL A   1      43.494  22.779  25.467  1.00  0.00     0.010 A 
ATOM     35  C   UNL A   1      43.569  23.241  26.795  1.00  0.00    -0.014 A 
BRANCH  35  36
ATOM     36  C   UNL A   1      43.893  24.659  27.087  1.00  0.00     0.031 A 
ATOM     37  C   UNL A   1      45.328  25.112  27.033  1.00  0.00     0.074 A 
ATOM     38  C   UNL A   1      42.924  25.550  27.363  1.00  0.00     0.049 A 
ATOM     39  N   UNL A   1      45.829  26.299  27.267  1.00  0.00    -0.248 NA
ATOM     40  C   UNL A   1      46.325  24.100  26.653  1.00  0.00     0.031 C 
ATOM     41  C   UNL A   1      41.493  25.263  27.374  1.00  0.00     0.029 A 
ATOM     42  N   UNL A   1      43.004  26.878  27.699  1.00  0.00    -0.354 N 
ATOM     43  C   UNL A   1      47.196  26.179  27.054  1.00  0.00     0.074 A 
ATOM     44  C   UNL A   1      47.451  24.795  26.712  1.00  0.00     0.031 C 
ATOM     45  C   UNL A   1      40.828  26.371  27.745  1.00  0.00     0.029 A 
ATOM     46  C   UNL A   1      41.788  27.442  27.998  1.00  0.00     0.049 A 
ATOM     47  H   UNL A   1      43.852  27.378  27.723  1.00  0.00     0.167 HD
ATOM     48  C   UNL A   1      48.153  27.134  27.121  1.00  0.00     0.031 A 
ATOM     49  C   UNL A   1      41.483  28.677  28.438  1.00  0.00     0.031 A 
ATOM     50  C   UNL A   1      47.909  28.509  27.470  1.00  0.00     0.049 A 
ATOM     51  C   UNL A   1      42.577  29.694  28.612  1.00  0.00     0.074 A 
ATOM     52  C   UNL A   1      48.814  29.553  27.542  1.00  0.00     0.029 A 
ATOM     53  N   UNL A   1      46.671  29.026  27.815  1.00  0.00    -0.354 N 
ATOM     54  N   UNL A   1      43.861  29.574  28.377  1.00  0.00    -0.248 NA
ATOM     55  C   UNL A   1      42.174  31.025  29.092  1.00  0.00     0.031 C 
ATOM     56  C   UNL A   1      48.132  30.693  27.984  1.00  0.00     0.029 A 
ATOM     57  C   UNL A   1      46.793  30.368  28.134  1.00  0.00     0.049 A 
ATOM     58  H   UNL A   1      45.830  28.516  27.831  1.00  0.00     0.167 HD
ATOM     59  C   UNL A   1      44.414  30.820  28.645  1.00  0.00     0.074 A 
ATOM     60  C   UNL A   1      43.325  31.683  29.056  1.00  0.00     0.031 C 
ATOM     61  C   UNL A   1      45.706  31.215  28.546  1.00  0.00     0.031 A 
BRANCH  48  62
ATOM     62  C   UNL A   1      49.565  26.715  26.829  1.00  0.00    -0.014 A 
ATOM     63  C   UNL A   1      50.426  26.295  27.856  1.00  0.00     0.009 A 
ATOM     64  C   UNL A   1      50.031  26.709  25.506  1.00  0.00     0.009 A 
ATOM     65  C   UNL A   1      51.735  25.906  27.565  1.00  0.00     0.001 A 
ATOM     66  C   UNL A   1      51.332  26.297  25.215  1.00  0.00     0.001 A 
ATOM     67  C   UNL A   1      52.185  25.904  26.245  1.00  0.00     0.000 A 
ENDBRANCH  48  62
BRANCH  49  68
ATOM     68  C   UNL A   1      40.075  29.022  28.760  1.00  0.00    -0.014 A 
ATOM     69  C   UNL A   1      39.612  28.988  30.083  1.00  0.00     0.009 A 
ATOM     70  C   UNL A   1      39.182  29.370  27.735  1.00  0.00     0.009 A 
ATOM     71  C   UNL A   1      38.276  29.275  30.371  1.00  0.00     0.001 A 
ATOM     72  C   UNL A   1      37.852  29.680  28.028  1.00  0.00     0.001 A 
ATOM     73  C   UNL A   1      37.399  29.624  29.344  1.00  0.00     0.000 A 
ENDBRANCH  49  68
BRANCH  61  74
ATOM     74  C   UNL A   1      46.011  32.654  28.854  1.00  0.00    -0.014 A 
ATOM     75  C   UNL A   1      45.959  33.640  27.857  1.00  0.00     0.009 A 
ATOM     76  C   UNL A   1      46.314  33.033  30.171  1.00  0.00     0.009 A 
ATOM     77  C   UNL A   1      46.237  34.973  28.169  1.00  0.00     0.001 A 
ATOM     78  C   UNL A   1      46.565  34.369  30.485  1.00  0.00     0.001 A 
ATOM     79  C   UNL A   1      46.535  35.336  29.482  1.00  0.00     0.000 A 
ENDBRANCH  61  74
ENDBRANCH  35  36
ENDBRANCH  28  30
ENDBRANCH  27  28
ENDBRANCH  26  27
ENDBRANCH  25  26
ENDBRANCH  24  25
ENDBRANCH  23  24
ENDBRANCH   1  23
TORSDOF 20
ENDMDL
