MODEL 1
REMARK VINA RESULT:     -11.0      0.000      0.000
REMARK SMILES O=C(OCCOCCOC(=O)[C@H]1C[N@H+](Cc2ccc(Cl)c(Cl)c2)CC12CCCCC2)c1ccc(-c2c3nc(c(-c4ccccc4)c4ccc([nH]4)c(-c4ccccc4)c4nc(c(-c5ccccc5)c5ccc2[nH]5)C=C4)C=C3)cc1
REMARK SMILES IDX 6 1 5 2 4 3 3 4 2 5 1 6 31 7 32 8 78 9 33 10 77 11 34 12
REMARK SMILES IDX 35 13 36 14 71 15 37 16 76 17 70 18 72 19 38 20 75 21 69 22
REMARK SMILES IDX 68 23 39 25 61 26 46 27 60 28 47 29 50 30 59 31 73 32 48 33
REMARK SMILES IDX 49 34 58 36 74 37 51 38 40 39 41 40 45 41 42 42 44 43 43 44
REMARK SMILES IDX 62 45 63 46 67 47 64 48 66 49 65 50 52 51 53 52 57 53 54 54
REMARK SMILES IDX 56 55 55 56 7 57 8 58 9 59 10 60 11 61 12 62 13 63 25 64
REMARK SMILES IDX 14 65 24 66 26 67 30 68 27 70 29 71 28 72 15 73 16 74 17 75
REMARK SMILES IDX 23 76 18 77 21 78 19 79 22 80 20 81
REMARK H PARENT 72 24 50 35 14 69
REMARK Flexibility Score: inf
ROOT
ATOM      1  O   UNL A   1      39.369  22.011  26.228  1.00  0.00    -0.374 OA
ENDROOT
BRANCH   1   2
ATOM      2  C   UNL A   1      40.224  20.998  26.709  1.00  0.00     0.202 C 
BRANCH   2   3
ATOM      3  C   UNL A   1      41.633  21.003  26.136  1.00  0.00     0.261 C 
BRANCH   3   4
ATOM      4  O   UNL A   1      41.903  22.237  25.452  1.00  0.00    -0.460 OA
BRANCH   4   5
ATOM      5  C   UNL A   1      42.915  23.076  25.802  1.00  0.00     0.338 C 
ATOM      6  O   UNL A   1      44.045  22.942  25.350  1.00  0.00    -0.246 OA
BRANCH   5   7
ATOM      7  C   UNL A   1      42.607  24.231  26.670  1.00  0.00     0.060 A 
ATOM      8  C   UNL A   1      41.837  24.080  27.819  1.00  0.00     0.016 A 
ATOM      9  C   UNL A   1      43.119  25.485  26.361  1.00  0.00     0.016 A 
ATOM     10  C   UNL A   1      41.352  25.159  28.511  1.00  0.00     0.010 A 
ATOM     11  C   UNL A   1      42.841  26.552  27.217  1.00  0.00     0.010 A 
ATOM     12  C   UNL A   1      41.950  26.383  28.293  1.00  0.00    -0.014 A 
BRANCH  12  13
ATOM     13  C   UNL A   1      41.672  27.457  29.254  1.00  0.00     0.031 A 
ATOM     14  C   UNL A   1      42.540  27.558  30.454  1.00  0.00     0.074 A 
ATOM     15  C   UNL A   1      40.654  28.309  29.017  1.00  0.00     0.049 A 
ATOM     16  N   UNL A   1      42.312  28.168  31.579  1.00  0.00    -0.248 NA
ATOM     17  C   UNL A   1      43.824  26.841  30.388  1.00  0.00     0.031 C 
ATOM     18  C   UNL A   1      39.841  28.360  27.791  1.00  0.00     0.029 A 
ATOM     19  N   UNL A   1      40.122  29.298  29.796  1.00  0.00    -0.354 N 
ATOM     20  C   UNL A   1      43.380  27.829  32.395  1.00  0.00     0.074 A 
ATOM     21  C   UNL A   1      44.264  26.981  31.628  1.00  0.00     0.031 C 
ATOM     22  C   UNL A   1      38.939  29.343  27.894  1.00  0.00     0.029 A 
ATOM     23  C   UNL A   1      39.012  29.886  29.238  1.00  0.00     0.049 A 
ATOM     24  H   UNL A   1      40.497  29.563  30.668  1.00  0.00     0.167 HD
ATOM     25  C   UNL A   1      43.556  28.177  33.689  1.00  0.00     0.031 A 
ATOM     26  C   UNL A   1      38.097  30.699  29.791  1.00  0.00     0.031 A 
ATOM     27  C   UNL A   1      42.625  29.021  34.387  1.00  0.00     0.049 A 
ATOM     28  C   UNL A   1      38.274  31.024  31.242  1.00  0.00     0.074 A 
ATOM     29  C   UNL A   1      42.635  29.429  35.705  1.00  0.00     0.029 A 
ATOM     30  N   UNL A   1      41.501  29.592  33.792  1.00  0.00    -0.354 N 
ATOM     31  N   UNL A   1      39.223  30.628  32.060  1.00  0.00    -0.248 NA
ATOM     32  C   UNL A   1      37.257  31.880  31.857  1.00  0.00     0.031 C 
ATOM     33  C   UNL A   1      41.492  30.209  35.918  1.00  0.00     0.029 A 
ATOM     34  C   UNL A   1      40.804  30.342  34.718  1.00  0.00     0.049 A 
ATOM     35  H   UNL A   1      41.242  29.476  32.850  1.00  0.00     0.167 HD
ATOM     36  C   UNL A   1      38.936  31.206  33.285  1.00  0.00     0.074 A 
ATOM     37  C   UNL A   1      37.723  31.984  33.096  1.00  0.00     0.031 C 
ATOM     38  C   UNL A   1      39.608  31.108  34.458  1.00  0.00     0.031 A 
BRANCH  25  39
ATOM     39  C   UNL A   1      44.711  27.538  34.406  1.00  0.00    -0.014 A 
ATOM     40  C   UNL A   1      45.935  28.203  34.592  1.00  0.00     0.009 A 
ATOM     41  C   UNL A   1      44.602  26.199  34.813  1.00  0.00     0.009 A 
ATOM     42  C   UNL A   1      47.042  27.520  35.103  1.00  0.00     0.001 A 
ATOM     43  C   UNL A   1      45.700  25.528  35.357  1.00  0.00     0.001 A 
ATOM     44  C   UNL A   1      46.923  26.183  35.483  1.00  0.00     0.000 A 
ENDBRANCH  25  39
BRANCH  26  45
ATOM     45  C   UNL A   1      36.930  31.160  28.992  1.00  0.00    -0.014 A 
ATOM     46  C   UNL A   1      35.884  30.280  28.681  1.00  0.00     0.009 A 
ATOM     47  C   UNL A   1      36.818  32.505  28.594  1.00  0.00     0.009 A 
ATOM     48  C   UNL A   1      34.759  30.732  27.984  1.00  0.00     0.001 A 
ATOM     49  C   UNL A   1      35.679  32.961  27.925  1.00  0.00     0.001 A 
ATOM     50  C   UNL A   1      34.653  32.073  27.614  1.00  0.00     0.000 A 
ENDBRANCH  26  45
BRANCH  38  51
ATOM     51  C   UNL A   1      39.079  31.920  35.600  1.00  0.00    -0.014 A 
ATOM     52  C   UNL A   1      38.196  31.372  36.540  1.00  0.00     0.009 A 
ATOM     53  C   UNL A   1      39.557  33.228  35.778  1.00  0.00     0.009 A 
ATOM     54  C   UNL A   1      37.792  32.128  37.638  1.00  0.00     0.001 A 
ATOM     55  C   UNL A   1      39.174  33.969  36.892  1.00  0.00     0.001 A 
ATOM     56  C   UNL A   1      38.289  33.421  37.819  1.00  0.00     0.000 A 
ENDBRANCH  38  51
ENDBRANCH  12  13
ENDBRANCH   5   7
ENDBRANCH   4   5
ENDBRANCH   3   4
ENDBRANCH   2   3
ENDBRANCH   1   2
BRANCH   1  57
ATOM     57  C   UNL A   1      38.318  21.640  25.355  1.00  0.00     0.202 C 
BRANCH  57  58
ATOM     58  C   UNL A   1      37.095  22.462  25.749  1.00  0.00     0.261 C 
BRANCH  58  59
ATOM     59  O   UNL A   1      36.285  22.663  24.582  1.00  0.00    -0.463 OA
BRANCH  59  60
ATOM     60  C   UNL A   1      35.054  22.059  24.508  1.00  0.00     0.315 C 
ATOM     61  O   UNL A   1      34.816  20.870  24.656  1.00  0.00    -0.252 OA
BRANCH  60  62
ATOM     62  C   UNL A   1      34.059  23.144  24.183  1.00  0.00     0.166 C 
ATOM     63  C   UNL A   1      33.976  23.242  22.675  1.00  0.00     0.278 C 
ATOM     64  C   UNL A   1      32.600  23.269  24.720  1.00  0.00     0.038 C 
ATOM     65  N   UNL A   1      32.866  24.149  22.438  1.00  0.00    -0.330 N 
ATOM     66  C   UNL A   1      31.865  23.844  23.468  1.00  0.00     0.270 C 
ATOM     67  C   UNL A   1      31.901  21.976  25.198  1.00  0.00     0.014 C 
ATOM     68  C   UNL A   1      32.578  24.278  25.903  1.00  0.00     0.014 C 
ATOM     69  H   UNL A   1      32.450  23.986  21.521  1.00  0.00     0.348 HD
ATOM     70  C   UNL A   1      30.542  22.215  25.885  1.00  0.00     0.001 C 
ATOM     71  C   UNL A   1      31.202  24.562  26.480  1.00  0.00     0.001 C 
ATOM     72  C   UNL A   1      30.588  23.272  26.988  1.00  0.00     0.000 C 
BRANCH  65  73
ATOM     73  C   UNL A   1      33.215  25.559  22.206  1.00  0.00     0.299 C 
BRANCH  73  74
ATOM     74  C   UNL A   1      32.278  26.640  22.712  1.00  0.00     0.008 A 
ATOM     75  C   UNL A   1      31.074  26.942  22.053  1.00  0.00     0.011 A 
ATOM     76  C   UNL A   1      32.633  27.409  23.834  1.00  0.00     0.031 A 
ATOM     77  C   UNL A   1      30.327  28.071  22.411  1.00  0.00     0.022 A 
ATOM     78  C   UNL A   1      31.871  28.522  24.215  1.00  0.00     0.060 A 
ATOM     79  C   UNL A   1      30.734  28.873  23.479  1.00  0.00     0.059 A 
ATOM     80  Cl  UNL A   1      32.442  29.466  25.544  1.00  0.00    -0.083 Cl
ATOM     81  Cl  UNL A   1      29.830  30.311  23.796  1.00  0.00    -0.083 Cl
ENDBRANCH  73  74
ENDBRANCH  65  73
ENDBRANCH  60  62
ENDBRANCH  59  60
ENDBRANCH  58  59
ENDBRANCH  57  58
ENDBRANCH   1  57
TORSDOF 16
ENDMDL
MODEL 2
REMARK VINA RESULT:     -10.9      3.863      8.642
REMARK SMILES O=C(OCCOCCOC(=O)[C@H]1C[N@H+](Cc2ccc(Cl)c(Cl)c2)CC12CCCCC2)c1ccc(-c2c3nc(c(-c4ccccc4)c4ccc([nH]4)c(-c4ccccc4)c4nc(c(-c5ccccc5)c5ccc2[nH]5)C=C4)C=C3)cc1
REMARK SMILES IDX 6 1 5 2 4 3 3 4 2 5 1 6 31 7 32 8 78 9 33 10 77 11 34 12
REMARK SMILES IDX 35 13 36 14 71 15 37 16 76 17 70 18 72 19 38 20 75 21 69 22
REMARK SMILES IDX 68 23 39 25 61 26 46 27 60 28 47 29 50 30 59 31 73 32 48 33
REMARK SMILES IDX 49 34 58 36 74 37 51 38 40 39 41 40 45 41 42 42 44 43 43 44
REMARK SMILES IDX 62 45 63 46 67 47 64 48 66 49 65 50 52 51 53 52 57 53 54 54
REMARK SMILES IDX 56 55 55 56 7 57 8 58 9 59 10 60 11 61 12 62 13 63 25 64
REMARK SMILES IDX 14 65 24 66 26 67 30 68 27 70 29 71 28 72 15 73 16 74 17 75
REMARK SMILES IDX 23 76 18 77 21 78 19 79 22 80 20 81
REMARK H PARENT 72 24 50 35 14 69
REMARK Flexibility Score: inf
ROOT
ATOM      1  O   UNL A   1      31.881  33.399  27.305  1.00  0.00    -0.374 OA
ENDROOT
BRANCH   1   2
ATOM      2  C   UNL A   1      33.045  33.710  28.039  1.00  0.00     0.202 C 
BRANCH   2   3
ATOM      3  C   UNL A   1      33.177  35.162  28.471  1.00  0.00     0.261 C 
BRANCH   3   4
ATOM      4  O   UNL A   1      32.443  35.404  29.682  1.00  0.00    -0.460 OA
BRANCH   4   5
ATOM      5  C   UNL A   1      33.041  35.689  30.871  1.00  0.00     0.338 C 
ATOM      6  O   UNL A   1      32.691  36.645  31.552  1.00  0.00    -0.246 OA
BRANCH   5   7
ATOM      7  C   UNL A   1      34.065  34.758  31.388  1.00  0.00     0.060 A 
ATOM      8  C   UNL A   1      35.421  35.047  31.271  1.00  0.00     0.016 A 
ATOM      9  C   UNL A   1      33.677  33.591  32.033  1.00  0.00     0.016 A 
ATOM     10  C   UNL A   1      36.385  34.109  31.534  1.00  0.00     0.010 A 
ATOM     11  C   UNL A   1      34.665  32.747  32.543  1.00  0.00     0.010 A 
ATOM     12  C   UNL A   1      36.023  33.010  32.285  1.00  0.00    -0.014 A 
BRANCH  12  13
ATOM     13  C   UNL A   1      37.099  32.186  32.848  1.00  0.00     0.031 A 
ATOM     14  C   UNL A   1      37.591  32.519  34.209  1.00  0.00     0.074 A 
ATOM     15  C   UNL A   1      37.597  31.164  32.123  1.00  0.00     0.049 A 
ATOM     16  N   UNL A   1      38.712  32.187  34.778  1.00  0.00    -0.248 NA
ATOM     17  C   UNL A   1      36.713  33.373  35.024  1.00  0.00     0.031 C 
ATOM     18  C   UNL A   1      37.073  30.687  30.834  1.00  0.00     0.029 A 
ATOM     19  N   UNL A   1      38.660  30.338  32.363  1.00  0.00    -0.354 N 
ATOM     20  C   UNL A   1      38.721  32.873  35.982  1.00  0.00     0.074 A 
ATOM     21  C   UNL A   1      37.486  33.617  36.071  1.00  0.00     0.031 C 
ATOM     22  C   UNL A   1      37.797  29.642  30.416  1.00  0.00     0.029 A 
ATOM     23  C   UNL A   1      38.916  29.474  31.325  1.00  0.00     0.049 A 
ATOM     24  H   UNL A   1      39.187  30.359  33.195  1.00  0.00     0.167 HD
ATOM     25  C   UNL A   1      39.715  32.893  36.897  1.00  0.00     0.031 A 
ATOM     26  C   UNL A   1      39.990  28.703  31.089  1.00  0.00     0.031 A 
ATOM     27  C   UNL A   1      40.921  32.128  36.732  1.00  0.00     0.049 A 
ATOM     28  C   UNL A   1      41.109  28.786  32.082  1.00  0.00     0.074 A 
ATOM     29  C   UNL A   1      42.037  32.073  37.542  1.00  0.00     0.029 A 
ATOM     30  N   UNL A   1      41.153  31.269  35.660  1.00  0.00    -0.354 N 
ATOM     31  N   UNL A   1      41.180  29.510  33.177  1.00  0.00    -0.248 NA
ATOM     32  C   UNL A   1      42.297  27.976  31.808  1.00  0.00     0.031 C 
ATOM     33  C   UNL A   1      42.962  31.215  36.934  1.00  0.00     0.029 A 
ATOM     34  C   UNL A   1      42.398  30.685  35.781  1.00  0.00     0.049 A 
ATOM     35  H   UNL A   1      40.522  31.103  34.924  1.00  0.00     0.167 HD
ATOM     36  C   UNL A   1      42.411  29.225  33.741  1.00  0.00     0.074 A 
ATOM     37  C   UNL A   1      43.050  28.258  32.865  1.00  0.00     0.031 C 
ATOM     38  C   UNL A   1      42.968  29.713  34.877  1.00  0.00     0.031 A 
BRANCH  25  39
ATOM     39  C   UNL A   1      39.556  33.853  38.041  1.00  0.00    -0.014 A 
ATOM     40  C   UNL A   1      38.956  33.476  39.255  1.00  0.00     0.009 A 
ATOM     41  C   UNL A   1      39.924  35.196  37.859  1.00  0.00     0.009 A 
ATOM     42  C   UNL A   1      38.665  34.435  40.229  1.00  0.00     0.001 A 
ATOM     43  C   UNL A   1      39.663  36.146  38.849  1.00  0.00     0.001 A 
ATOM     44  C   UNL A   1      39.016  35.769  40.024  1.00  0.00     0.000 A 
ENDBRANCH  25  39
BRANCH  26  45
ATOM     45  C   UNL A   1      40.067  27.891  29.845  1.00  0.00    -0.014 A 
ATOM     46  C   UNL A   1      39.408  26.657  29.756  1.00  0.00     0.009 A 
ATOM     47  C   UNL A   1      40.741  28.378  28.710  1.00  0.00     0.009 A 
ATOM     48  C   UNL A   1      39.430  25.926  28.564  1.00  0.00     0.001 A 
ATOM     49  C   UNL A   1      40.735  27.660  27.511  1.00  0.00     0.001 A 
ATOM     50  C   UNL A   1      40.085  26.431  27.441  1.00  0.00     0.000 A 
ENDBRANCH  26  45
BRANCH  38  51
ATOM     51  C   UNL A   1      44.300  29.149  35.264  1.00  0.00    -0.014 A 
ATOM     52  C   UNL A   1      44.405  27.981  36.032  1.00  0.00     0.009 A 
ATOM     53  C   UNL A   1      45.462  29.757  34.764  1.00  0.00     0.009 A 
ATOM     54  C   UNL A   1      45.659  27.436  36.301  1.00  0.00     0.001 A 
ATOM     55  C   UNL A   1      46.711  29.192  35.009  1.00  0.00     0.001 A 
ATOM     56  C   UNL A   1      46.809  28.035  35.780  1.00  0.00     0.000 A 
ENDBRANCH  38  51
ENDBRANCH  12  13
ENDBRANCH   5   7
ENDBRANCH   4   5
ENDBRANCH   3   4
ENDBRANCH   2   3
ENDBRANCH   1   2
BRANCH   1  57
ATOM     57  C   UNL A   1      31.768  32.101  26.751  1.00  0.00     0.202 C 
BRANCH  57  58
ATOM     58  C   UNL A   1      32.924  31.273  27.304  1.00  0.00     0.261 C 
BRANCH  58  59
ATOM     59  O   UNL A   1      32.536  29.891  27.305  1.00  0.00    -0.463 OA
BRANCH  59  60
ATOM     60  C   UNL A   1      33.506  28.923  27.220  1.00  0.00     0.315 C 
ATOM     61  O   UNL A   1      34.632  28.976  27.690  1.00  0.00    -0.252 OA
BRANCH  60  62
ATOM     62  C   UNL A   1      32.918  27.794  26.411  1.00  0.00     0.166 C 
ATOM     63  C   UNL A   1      31.581  27.446  27.031  1.00  0.00     0.278 C 
ATOM     64  C   UNL A   1      32.718  27.754  24.865  1.00  0.00     0.038 C 
ATOM     65  N   UNL A   1      30.988  26.508  26.092  1.00  0.00    -0.330 N 
ATOM     66  C   UNL A   1      31.369  26.976  24.754  1.00  0.00     0.270 C 
ATOM     67  C   UNL A   1      32.613  29.106  24.123  1.00  0.00     0.014 C 
ATOM     68  C   UNL A   1      33.888  26.957  24.221  1.00  0.00     0.014 C 
ATOM     69  H   UNL A   1      29.971  26.514  26.162  1.00  0.00     0.348 HD
ATOM     70  C   UNL A   1      32.608  28.979  22.586  1.00  0.00     0.001 C 
ATOM     71  C   UNL A   1      33.785  26.767  22.718  1.00  0.00     0.001 C 
ATOM     72  C   UNL A   1      33.747  28.121  22.037  1.00  0.00     0.000 C 
BRANCH  65  73
ATOM     73  C   UNL A   1      31.160  25.081  26.403  1.00  0.00     0.299 C 
BRANCH  73  74
ATOM     74  C   UNL A   1      32.301  24.320  25.753  1.00  0.00     0.008 A 
ATOM     75  C   UNL A   1      33.553  24.191  26.377  1.00  0.00     0.011 A 
ATOM     76  C   UNL A   1      32.138  23.773  24.468  1.00  0.00     0.031 A 
ATOM     77  C   UNL A   1      34.649  23.667  25.680  1.00  0.00     0.022 A 
ATOM     78  C   UNL A   1      33.226  23.219  23.778  1.00  0.00     0.060 A 
ATOM     79  C   UNL A   1      34.492  23.199  24.373  1.00  0.00     0.059 A 
ATOM     80  Cl  UNL A   1      32.952  22.666  22.165  1.00  0.00    -0.083 Cl
ATOM     81  Cl  UNL A   1      35.906  22.670  23.532  1.00  0.00    -0.083 Cl
ENDBRANCH  73  74
ENDBRANCH  65  73
ENDBRANCH  60  62
ENDBRANCH  59  60
ENDBRANCH  58  59
ENDBRANCH  57  58
ENDBRANCH   1  57
TORSDOF 16
ENDMDL
MODEL 3
REMARK VINA RESULT:     -10.9      4.327      6.390
REMARK SMILES O=C(OCCOCCOC(=O)[C@H]1C[N@H+](Cc2ccc(Cl)c(Cl)c2)CC12CCCCC2)c1ccc(-c2c3nc(c(-c4ccccc4)c4ccc([nH]4)c(-c4ccccc4)c4nc(c(-c5ccccc5)c5ccc2[nH]5)C=C4)C=C3)cc1
REMARK SMILES IDX 6 1 5 2 4 3 3 4 2 5 1 6 31 7 32 8 78 9 33 10 77 11 34 12
REMARK SMILES IDX 35 13 36 14 71 15 37 16 76 17 70 18 72 19 38 20 75 21 69 22
REMARK SMILES IDX 68 23 39 25 61 26 46 27 60 28 47 29 50 30 59 31 73 32 48 33
REMARK SMILES IDX 49 34 58 36 74 37 51 38 40 39 41 40 45 41 42 42 44 43 43 44
REMARK SMILES IDX 62 45 63 46 67 47 64 48 66 49 65 50 52 51 53 52 57 53 54 54
REMARK SMILES IDX 56 55 55 56 7 57 8 58 9 59 10 60 11 61 12 62 13 63 25 64
REMARK SMILES IDX 14 65 24 66 26 67 30 68 27 70 29 71 28 72 15 73 16 74 17 75
REMARK SMILES IDX 23 76 18 77 21 78 19 79 22 80 20 81
REMARK H PARENT 72 24 50 35 14 69
REMARK Flexibility Score: inf
ROOT
ATOM      1  O   UNL A   1      36.949  19.962  24.983  1.00  0.00    -0.374 OA
ENDROOT
BRANCH   1   2
ATOM      2  C   UNL A   1      38.337  20.171  24.848  1.00  0.00     0.202 C 
BRANCH   2   3
ATOM      3  C   UNL A   1      39.186  19.713  26.023  1.00  0.00     0.261 C 
BRANCH   3   4
ATOM      4  O   UNL A   1      40.413  19.120  25.568  1.00  0.00    -0.460 OA
BRANCH   4   5
ATOM      5  C   UNL A   1      41.614  19.343  26.168  1.00  0.00     0.338 C 
ATOM      6  O   UNL A   1      42.375  18.423  26.441  1.00  0.00    -0.246 OA
BRANCH   5   7
ATOM      7  C   UNL A   1      42.041  20.738  26.399  1.00  0.00     0.060 A 
ATOM      8  C   UNL A   1      42.152  21.638  25.343  1.00  0.00     0.016 A 
ATOM      9  C   UNL A   1      42.305  21.177  27.690  1.00  0.00     0.016 A 
ATOM     10  C   UNL A   1      42.756  22.858  25.494  1.00  0.00     0.010 A 
ATOM     11  C   UNL A   1      42.673  22.510  27.883  1.00  0.00     0.010 A 
ATOM     12  C   UNL A   1      42.902  23.348  26.776  1.00  0.00    -0.014 A 
BRANCH  12  13
ATOM     13  C   UNL A   1      43.232  24.770  26.928  1.00  0.00     0.031 A 
ATOM     14  C   UNL A   1      44.644  25.182  26.730  1.00  0.00     0.074 A 
ATOM     15  C   UNL A   1      42.254  25.647  27.235  1.00  0.00     0.049 A 
ATOM     16  N   UNL A   1      45.244  26.266  27.124  1.00  0.00    -0.248 NA
ATOM     17  C   UNL A   1      45.506  24.220  26.023  1.00  0.00     0.031 C 
ATOM     18  C   UNL A   1      40.816  25.341  27.310  1.00  0.00     0.029 A 
ATOM     19  N   UNL A   1      42.316  26.977  27.544  1.00  0.00    -0.354 N 
ATOM     20  C   UNL A   1      46.578  26.078  26.801  1.00  0.00     0.074 A 
ATOM     21  C   UNL A   1      46.695  24.788  26.159  1.00  0.00     0.031 C 
ATOM     22  C   UNL A   1      40.139  26.454  27.616  1.00  0.00     0.029 A 
ATOM     23  C   UNL A   1      41.098  27.505  27.901  1.00  0.00     0.049 A 
ATOM     24  H   UNL A   1      43.148  27.503  27.512  1.00  0.00     0.167 HD
ATOM     25  C   UNL A   1      47.605  26.913  27.071  1.00  0.00     0.031 A 
ATOM     26  C   UNL A   1      40.805  28.676  28.489  1.00  0.00     0.031 A 
ATOM     27  C   UNL A   1      47.409  28.179  27.722  1.00  0.00     0.049 A 
ATOM     28  C   UNL A   1      41.961  29.562  28.838  1.00  0.00     0.074 A 
ATOM     29  C   UNL A   1      48.345  29.119  28.105  1.00  0.00     0.029 A 
ATOM     30  N   UNL A   1      46.159  28.680  28.081  1.00  0.00    -0.354 N 
ATOM     31  N   UNL A   1      43.243  29.355  28.634  1.00  0.00    -0.248 NA
ATOM     32  C   UNL A   1      41.648  30.823  29.513  1.00  0.00     0.031 C 
ATOM     33  C   UNL A   1      47.663  30.165  28.738  1.00  0.00     0.029 A 
ATOM     34  C   UNL A   1      46.298  29.911  28.690  1.00  0.00     0.049 A 
ATOM     35  H   UNL A   1      45.302  28.222  27.924  1.00  0.00     0.167 HD
ATOM     36  C   UNL A   1      43.893  30.470  29.132  1.00  0.00     0.074 A 
ATOM     37  C   UNL A   1      42.858  31.353  29.644  1.00  0.00     0.031 C 
ATOM     38  C   UNL A   1      45.220  30.747  29.164  1.00  0.00     0.031 A 
BRANCH  25  39
ATOM     39  C   UNL A   1      48.985  26.401  26.772  1.00  0.00    -0.014 A 
ATOM     40  C   UNL A   1      49.733  25.674  27.714  1.00  0.00     0.009 A 
ATOM     41  C   UNL A   1      49.589  26.746  25.552  1.00  0.00     0.009 A 
ATOM     42  C   UNL A   1      51.075  25.368  27.468  1.00  0.00     0.001 A 
ATOM     43  C   UNL A   1      50.919  26.407  25.294  1.00  0.00     0.001 A 
ATOM     44  C   UNL A   1      51.666  25.736  26.260  1.00  0.00     0.000 A 
ENDBRANCH  25  39
BRANCH  26  45
ATOM     45  C   UNL A   1      39.398  29.001  28.842  1.00  0.00    -0.014 A 
ATOM     46  C   UNL A   1      38.539  29.581  27.898  1.00  0.00     0.009 A 
ATOM     47  C   UNL A   1      38.879  28.668  30.107  1.00  0.00     0.009 A 
ATOM     48  C   UNL A   1      37.199  29.828  28.213  1.00  0.00     0.001 A 
ATOM     49  C   UNL A   1      37.532  28.886  30.409  1.00  0.00     0.001 A 
ATOM     50  C   UNL A   1      36.695  29.473  29.464  1.00  0.00     0.000 A 
ENDBRANCH  26  45
BRANCH  38  51
ATOM     51  C   UNL A   1      45.610  32.087  29.709  1.00  0.00    -0.014 A 
ATOM     52  C   UNL A   1      45.947  32.257  31.058  1.00  0.00     0.009 A 
ATOM     53  C   UNL A   1      45.729  33.168  28.823  1.00  0.00     0.009 A 
ATOM     54  C   UNL A   1      46.389  33.498  31.514  1.00  0.00     0.001 A 
ATOM     55  C   UNL A   1      46.200  34.398  29.275  1.00  0.00     0.001 A 
ATOM     56  C   UNL A   1      46.525  34.563  30.621  1.00  0.00     0.000 A 
ENDBRANCH  38  51
ENDBRANCH  12  13
ENDBRANCH   5   7
ENDBRANCH   4   5
ENDBRANCH   3   4
ENDBRANCH   2   3
ENDBRANCH   1   2
BRANCH   1  57
ATOM     57  C   UNL A   1      36.083  21.063  24.773  1.00  0.00     0.202 C 
BRANCH  57  58
ATOM     58  C   UNL A   1      36.894  22.143  24.064  1.00  0.00     0.261 C 
BRANCH  58  59
ATOM     59  O   UNL A   1      36.112  23.345  24.018  1.00  0.00    -0.463 OA
BRANCH  59  60
ATOM     60  C   UNL A   1      35.799  23.988  25.191  1.00  0.00     0.315 C 
ATOM     61  O   UNL A   1      36.567  24.253  26.103  1.00  0.00    -0.252 OA
BRANCH  60  62
ATOM     62  C   UNL A   1      34.320  24.280  25.141  1.00  0.00     0.166 C 
ATOM     63  C   UNL A   1      33.672  23.510  26.272  1.00  0.00     0.278 C 
ATOM     64  C   UNL A   1      33.643  25.684  25.110  1.00  0.00     0.038 C 
ATOM     65  N   UNL A   1      32.302  23.994  26.291  1.00  0.00    -0.330 N 
ATOM     66  C   UNL A   1      32.372  25.427  25.979  1.00  0.00     0.270 C 
ATOM     67  C   UNL A   1      34.443  26.877  25.681  1.00  0.00     0.014 C 
ATOM     68  C   UNL A   1      33.266  26.034  23.642  1.00  0.00     0.014 C 
ATOM     69  H   UNL A   1      31.887  23.882  27.216  1.00  0.00     0.348 HD
ATOM     70  C   UNL A   1      33.782  28.249  25.440  1.00  0.00     0.001 C 
ATOM     71  C   UNL A   1      32.523  27.348  23.466  1.00  0.00     0.001 C 
ATOM     72  C   UNL A   1      33.376  28.488  23.986  1.00  0.00     0.000 C 
BRANCH  65  73
ATOM     73  C   UNL A   1      31.313  23.175  25.574  1.00  0.00     0.299 C 
BRANCH  73  74
ATOM     74  C   UNL A   1      31.797  21.994  24.751  1.00  0.00     0.008 A 
ATOM     75  C   UNL A   1      31.872  22.052  23.349  1.00  0.00     0.011 A 
ATOM     76  C   UNL A   1      32.128  20.784  25.386  1.00  0.00     0.031 A 
ATOM     77  C   UNL A   1      32.123  20.897  22.598  1.00  0.00     0.022 A 
ATOM     78  C   UNL A   1      32.410  19.633  24.638  1.00  0.00     0.060 A 
ATOM     79  C   UNL A   1      32.372  19.682  23.241  1.00  0.00     0.059 A 
ATOM     80  Cl  UNL A   1      32.704  18.168  25.505  1.00  0.00    -0.083 Cl
ATOM     81  Cl  UNL A   1      32.563  18.275  22.256  1.00  0.00    -0.083 Cl
ENDBRANCH  73  74
ENDBRANCH  65  73
ENDBRANCH  60  62
ENDBRANCH  59  60
ENDBRANCH  58  59
ENDBRANCH  57  58
ENDBRANCH   1  57
TORSDOF 16
ENDMDL
