MODEL 1
REMARK VINA RESULT:     -11.1      0.000      0.000
REMARK SMILES COc1cccc(Cn2c(=O)c(=O)n(CC(=O)OCCOCCOC(=O)c3ccc(-c4c5nc(c(-c6ccccc6)c6ccc([nH]6)c(-c6ccccc6)c6nc(c(-c7ccccc7)c7ccc4[nH]7)C=C6)C=C5)cc3)c3ccccc32)c1
REMARK SMILES IDX 20 1 19 2 18 3 16 4 17 5 15 6 14 7 9 8 10 9 80 10 11 11
REMARK SMILES IDX 12 12 75 13 79 14 13 15 76 16 78 17 77 18 8 19 7 20 3 21
REMARK SMILES IDX 4 22 81 23 5 24 6 25 2 26 1 27 21 28 22 29 23 30 24 31 25 32
REMARK SMILES IDX 26 33 27 34 28 35 74 36 29 37 73 38 30 39 31 40 32 41 67 42
REMARK SMILES IDX 33 43 72 44 66 45 68 46 34 47 71 48 65 49 64 50 35 52 57 53
REMARK SMILES IDX 42 54 56 55 43 56 46 57 55 58 69 59 44 60 45 61 54 63 70 64
REMARK SMILES IDX 47 65 36 66 37 67 41 68 38 69 40 70 39 71 58 72 59 73 63 74
REMARK SMILES IDX 60 75 62 76 61 77 48 78 49 79 53 80 50 81 52 82 51 83
REMARK H PARENT 68 51 46 62
REMARK Flexibility Score: inf
ROOT
ATOM      1  C   UNL A   1      34.075  20.779  26.020  1.00  0.00     0.202 C 
ENDROOT
BRANCH   1   2
ATOM      2  C   UNL A   1      32.892  21.603  25.486  1.00  0.00     0.261 C 
BRANCH   2   3
ATOM      3  O   UNL A   1      33.244  22.986  25.607  1.00  0.00    -0.462 OA
BRANCH   3   4
ATOM      4  C   UNL A   1      32.665  23.761  26.553  1.00  0.00     0.326 C 
ATOM      5  O   UNL A   1      31.970  23.350  27.471  1.00  0.00    -0.250 OA
BRANCH   4   6
ATOM      6  C   UNL A   1      32.991  25.249  26.308  1.00  0.00     0.248 C 
BRANCH   6   7
ATOM      7  N   UNL A   1      32.130  25.908  25.290  1.00  0.00    -0.291 N 
ATOM      8  N   UNL A   1      32.015  28.664  25.843  1.00  0.00    -0.298 N 
ATOM      9  C   UNL A   1      31.348  27.686  26.611  1.00  0.00     0.317 A 
ATOM     10  C   UNL A   1      32.604  28.217  24.595  1.00  0.00     0.068 A 
ATOM     11  O   UNL A   1      31.120  27.571  27.782  1.00  0.00    -0.263 OA
ATOM     12  C   UNL A   1      30.970  26.510  25.759  1.00  0.00     0.317 A 
ATOM     13  C   UNL A   1      32.782  26.809  24.397  1.00  0.00     0.069 A 
ATOM     14  C   UNL A   1      33.003  29.077  23.575  1.00  0.00     0.028 A 
ATOM     15  O   UNL A   1      29.827  26.354  25.374  1.00  0.00    -0.263 OA
ATOM     16  C   UNL A   1      33.390  26.293  23.257  1.00  0.00     0.028 A 
ATOM     17  C   UNL A   1      33.530  28.546  22.387  1.00  0.00     0.002 A 
ATOM     18  C   UNL A   1      33.741  27.170  22.236  1.00  0.00     0.002 A 
BRANCH   8  19
ATOM     19  C   UNL A   1      32.243  30.027  26.358  1.00  0.00     0.162 C 
BRANCH  19  20
ATOM     20  C   UNL A   1      33.505  30.142  27.197  1.00  0.00    -0.024 A 
ATOM     21  C   UNL A   1      35.291  31.649  27.823  1.00  0.00     0.119 A 
ATOM     22  C   UNL A   1      36.207  30.597  27.774  1.00  0.00     0.046 A 
ATOM     23  C   UNL A   1      33.933  31.421  27.603  1.00  0.00     0.052 A 
ATOM     24  C   UNL A   1      35.761  29.300  27.512  1.00  0.00     0.004 A 
ATOM     25  C   UNL A   1      34.414  29.069  27.218  1.00  0.00     0.006 A 
BRANCH  21  26
ATOM     26  O   UNL A   1      35.747  32.939  27.718  1.00  0.00    -0.497 OA
ATOM     27  C   UNL A   1      34.764  33.890  28.090  1.00  0.00     0.278 C 
ENDBRANCH  21  26
ENDBRANCH  19  20
ENDBRANCH   8  19
ENDBRANCH   6   7
ENDBRANCH   4   6
ENDBRANCH   3   4
ENDBRANCH   2   3
ENDBRANCH   1   2
BRANCH   1  28
ATOM     28  O   UNL A   1      34.778  20.016  25.028  1.00  0.00    -0.374 OA
BRANCH  28  29
ATOM     29  C   UNL A   1      36.175  20.274  24.895  1.00  0.00     0.202 C 
BRANCH  29  30
ATOM     30  C   UNL A   1      36.747  21.446  25.700  1.00  0.00     0.261 C 
BRANCH  30  31
ATOM     31  O   UNL A   1      38.007  21.906  25.200  1.00  0.00    -0.460 OA
BRANCH  31  32
ATOM     32  C   UNL A   1      39.061  21.638  26.001  1.00  0.00     0.338 C 
ATOM     33  O   UNL A   1      39.675  20.588  26.091  1.00  0.00    -0.246 OA
BRANCH  32  34
ATOM     34  C   UNL A   1      39.492  22.860  26.701  1.00  0.00     0.060 A 
ATOM     35  C   UNL A   1      38.879  24.059  26.317  1.00  0.00     0.016 A 
ATOM     36  C   UNL A   1      40.534  22.857  27.631  1.00  0.00     0.016 A 
ATOM     37  C   UNL A   1      39.346  25.268  26.819  1.00  0.00     0.010 A 
ATOM     38  C   UNL A   1      41.009  24.075  28.129  1.00  0.00     0.010 A 
ATOM     39  C   UNL A   1      40.442  25.286  27.692  1.00  0.00    -0.014 A 
BRANCH  39  40
ATOM     40  C   UNL A   1      41.074  26.584  28.019  1.00  0.00     0.031 A 
ATOM     41  C   UNL A   1      42.439  26.886  27.467  1.00  0.00     0.074 A 
ATOM     42  C   UNL A   1      40.411  27.500  28.746  1.00  0.00     0.049 A 
ATOM     43  N   UNL A   1      43.162  27.971  27.589  1.00  0.00    -0.248 NA
ATOM     44  C   UNL A   1      43.076  25.826  26.668  1.00  0.00     0.031 C 
ATOM     45  C   UNL A   1      39.069  27.327  29.300  1.00  0.00     0.029 A 
ATOM     46  N   UNL A   1      40.779  28.762  29.135  1.00  0.00    -0.354 N 
ATOM     47  C   UNL A   1      44.335  27.722  26.887  1.00  0.00     0.074 A 
ATOM     48  C   UNL A   1      44.243  26.375  26.369  1.00  0.00     0.031 C 
ATOM     49  C   UNL A   1      38.723  28.446  29.958  1.00  0.00     0.029 A 
ATOM     50  C   UNL A   1      39.828  29.400  29.893  1.00  0.00     0.049 A 
ATOM     51  H   UNL A   1      41.641  29.172  28.895  1.00  0.00     0.167 HD
ATOM     52  C   UNL A   1      45.391  28.546  26.687  1.00  0.00     0.031 A 
ATOM     53  C   UNL A   1      39.854  30.613  30.476  1.00  0.00     0.031 A 
ATOM     54  C   UNL A   1      45.482  29.878  27.221  1.00  0.00     0.049 A 
ATOM     55  C   UNL A   1      41.065  31.488  30.289  1.00  0.00     0.074 A 
ATOM     56  C   UNL A   1      46.503  30.801  27.069  1.00  0.00     0.029 A 
ATOM     57  N   UNL A   1      44.515  30.475  28.015  1.00  0.00    -0.354 N 
ATOM     58  N   UNL A   1      42.156  31.254  29.598  1.00  0.00    -0.248 NA
ATOM     59  C   UNL A   1      41.045  32.798  30.954  1.00  0.00     0.031 C 
ATOM     60  C   UNL A   1      46.175  31.936  27.818  1.00  0.00     0.029 A 
ATOM     61  C   UNL A   1      44.925  31.744  28.386  1.00  0.00     0.049 A 
ATOM     62  H   UNL A   1      43.661  30.057  28.276  1.00  0.00     0.167 HD
ATOM     63  C   UNL A   1      42.938  32.394  29.724  1.00  0.00     0.074 A 
ATOM     64  C   UNL A   1      42.191  33.325  30.545  1.00  0.00     0.031 C 
ATOM     65  C   UNL A   1      44.166  32.649  29.208  1.00  0.00     0.031 A 
BRANCH  52  66
ATOM     66  C   UNL A   1      46.546  28.009  25.888  1.00  0.00    -0.014 A 
ATOM     67  C   UNL A   1      47.667  27.441  26.513  1.00  0.00     0.009 A 
ATOM     68  C   UNL A   1      46.501  28.051  24.486  1.00  0.00     0.009 A 
ATOM     69  C   UNL A   1      48.733  26.957  25.752  1.00  0.00     0.001 A 
ATOM     70  C   UNL A   1      47.556  27.543  23.726  1.00  0.00     0.001 A 
ATOM     71  C   UNL A   1      48.675  27.004  24.359  1.00  0.00     0.000 A 
ENDBRANCH  52  66
BRANCH  53  72
ATOM     72  C   UNL A   1      38.703  31.066  31.301  1.00  0.00    -0.014 A 
ATOM     73  C   UNL A   1      38.617  30.735  32.661  1.00  0.00     0.009 A 
ATOM     74  C   UNL A   1      37.680  31.836  30.724  1.00  0.00     0.009 A 
ATOM     75  C   UNL A   1      37.522  31.150  33.423  1.00  0.00     0.001 A 
ATOM     76  C   UNL A   1      36.599  32.273  31.494  1.00  0.00     0.001 A 
ATOM     77  C   UNL A   1      36.517  31.923  32.841  1.00  0.00     0.000 A 
ENDBRANCH  53  72
BRANCH  65  78
ATOM     78  C   UNL A   1      44.762  33.999  29.493  1.00  0.00    -0.014 A 
ATOM     79  C   UNL A   1      44.511  35.096  28.656  1.00  0.00     0.009 A 
ATOM     80  C   UNL A   1      45.545  34.181  30.643  1.00  0.00     0.009 A 
ATOM     81  C   UNL A   1      45.059  36.347  28.951  1.00  0.00     0.001 A 
ATOM     82  C   UNL A   1      46.069  35.438  30.950  1.00  0.00     0.001 A 
ATOM     83  C   UNL A   1      45.833  36.517  30.099  1.00  0.00     0.000 A 
ENDBRANCH  65  78
ENDBRANCH  39  40
ENDBRANCH  32  34
ENDBRANCH  31  32
ENDBRANCH  30  31
ENDBRANCH  29  30
ENDBRANCH  28  29
ENDBRANCH   1  28
TORSDOF 18
ENDMDL
MODEL 2
REMARK VINA RESULT:     -10.5      2.735      5.453
REMARK SMILES COc1cccc(Cn2c(=O)c(=O)n(CC(=O)OCCOCCOC(=O)c3ccc(-c4c5nc(c(-c6ccccc6)c6ccc([nH]6)c(-c6ccccc6)c6nc(c(-c7ccccc7)c7ccc4[nH]7)C=C6)C=C5)cc3)c3ccccc32)c1
REMARK SMILES IDX 20 1 19 2 18 3 16 4 17 5 15 6 14 7 9 8 10 9 80 10 11 11
REMARK SMILES IDX 12 12 75 13 79 14 13 15 76 16 78 17 77 18 8 19 7 20 3 21
REMARK SMILES IDX 4 22 81 23 5 24 6 25 2 26 1 27 21 28 22 29 23 30 24 31 25 32
REMARK SMILES IDX 26 33 27 34 28 35 74 36 29 37 73 38 30 39 31 40 32 41 67 42
REMARK SMILES IDX 33 43 72 44 66 45 68 46 34 47 71 48 65 49 64 50 35 52 57 53
REMARK SMILES IDX 42 54 56 55 43 56 46 57 55 58 69 59 44 60 45 61 54 63 70 64
REMARK SMILES IDX 47 65 36 66 37 67 41 68 38 69 40 70 39 71 58 72 59 73 63 74
REMARK SMILES IDX 60 75 62 76 61 77 48 78 49 79 53 80 50 81 52 82 51 83
REMARK H PARENT 68 51 46 62
REMARK Flexibility Score: inf
ROOT
ATOM      1  C   UNL A   1      40.839  21.099  27.504  1.00  0.00     0.202 C 
ENDROOT
BRANCH   1   2
ATOM      2  C   UNL A   1      40.351  21.915  26.296  1.00  0.00     0.261 C 
BRANCH   2   3
ATOM      3  O   UNL A   1      38.970  21.597  26.092  1.00  0.00    -0.462 OA
BRANCH   3   4
ATOM      4  C   UNL A   1      38.082  22.569  25.782  1.00  0.00     0.326 C 
ATOM      5  O   UNL A   1      38.135  23.724  26.177  1.00  0.00    -0.250 OA
BRANCH   4   6
ATOM      6  C   UNL A   1      36.973  22.015  24.862  1.00  0.00     0.248 C 
BRANCH   6   7
ATOM      7  N   UNL A   1      35.698  21.697  25.558  1.00  0.00    -0.291 N 
ATOM      8  N   UNL A   1      33.590  23.011  24.238  1.00  0.00    -0.298 N 
ATOM      9  C   UNL A   1      34.536  23.674  25.050  1.00  0.00     0.317 A 
ATOM     10  C   UNL A   1      33.605  21.561  24.278  1.00  0.00     0.068 A 
ATOM     11  O   UNL A   1      35.074  24.742  24.985  1.00  0.00    -0.263 OA
ATOM     12  C   UNL A   1      35.029  22.765  26.138  1.00  0.00     0.317 A 
ATOM     13  C   UNL A   1      34.757  20.911  24.829  1.00  0.00     0.069 A 
ATOM     14  C   UNL A   1      32.562  20.763  23.815  1.00  0.00     0.028 A 
ATOM     15  O   UNL A   1      34.626  22.877  27.280  1.00  0.00    -0.263 OA
ATOM     16  C   UNL A   1      34.883  19.526  24.855  1.00  0.00     0.028 A 
ATOM     17  C   UNL A   1      32.654  19.367  23.930  1.00  0.00     0.002 A 
ATOM     18  C   UNL A   1      33.811  18.753  24.424  1.00  0.00     0.002 A 
BRANCH   8  19
ATOM     19  C   UNL A   1      32.743  23.747  23.281  1.00  0.00     0.162 C 
BRANCH  19  20
ATOM     20  C   UNL A   1      31.687  24.604  23.960  1.00  0.00    -0.024 A 
ATOM     21  C   UNL A   1      31.238  26.824  24.811  1.00  0.00     0.119 A 
ATOM     22  C   UNL A   1      30.552  26.278  25.897  1.00  0.00     0.046 A 
ATOM     23  C   UNL A   1      31.750  26.003  23.806  1.00  0.00     0.052 A 
ATOM     24  C   UNL A   1      30.364  24.896  25.976  1.00  0.00     0.004 A 
ATOM     25  C   UNL A   1      30.934  24.057  25.014  1.00  0.00     0.006 A 
BRANCH  21  26
ATOM     26  O   UNL A   1      31.733  28.100  24.905  1.00  0.00    -0.497 OA
ATOM     27  C   UNL A   1      30.938  29.039  24.202  1.00  0.00     0.278 C 
ENDBRANCH  21  26
ENDBRANCH  19  20
ENDBRANCH   8  19
ENDBRANCH   6   7
ENDBRANCH   4   6
ENDBRANCH   3   4
ENDBRANCH   2   3
ENDBRANCH   1   2
BRANCH   1  28
ATOM     28  O   UNL A   1      41.936  20.215  27.235  1.00  0.00    -0.374 OA
BRANCH  28  29
ATOM     29  C   UNL A   1      41.993  19.643  25.929  1.00  0.00     0.202 C 
BRANCH  29  30
ATOM     30  C   UNL A   1      43.092  18.605  25.671  1.00  0.00     0.261 C 
BRANCH  30  31
ATOM     31  O   UNL A   1      44.391  19.190  25.532  1.00  0.00    -0.460 OA
BRANCH  31  32
ATOM     32  C   UNL A   1      44.558  19.927  24.413  1.00  0.00     0.338 C 
ATOM     33  O   UNL A   1      44.294  19.604  23.266  1.00  0.00    -0.246 OA
BRANCH  32  34
ATOM     34  C   UNL A   1      44.998  21.289  24.762  1.00  0.00     0.060 A 
ATOM     35  C   UNL A   1      45.426  21.498  26.078  1.00  0.00     0.016 A 
ATOM     36  C   UNL A   1      44.900  22.355  23.865  1.00  0.00     0.016 A 
ATOM     37  C   UNL A   1      45.703  22.786  26.521  1.00  0.00     0.010 A 
ATOM     38  C   UNL A   1      45.172  23.652  24.313  1.00  0.00     0.010 A 
ATOM     39  C   UNL A   1      45.534  23.874  25.654  1.00  0.00    -0.014 A 
BRANCH  39  40
ATOM     40  C   UNL A   1      45.596  25.245  26.208  1.00  0.00     0.031 A 
ATOM     41  C   UNL A   1      46.907  25.981  26.179  1.00  0.00     0.074 A 
ATOM     42  C   UNL A   1      44.485  25.844  26.671  1.00  0.00     0.049 A 
ATOM     43  N   UNL A   1      47.183  27.200  26.568  1.00  0.00    -0.248 NA
ATOM     44  C   UNL A   1      48.062  25.247  25.636  1.00  0.00     0.031 C 
ATOM     45  C   UNL A   1      43.155  25.238  26.713  1.00  0.00     0.029 A 
ATOM     46  N   UNL A   1      44.303  27.100  27.190  1.00  0.00    -0.354 N 
ATOM     47  C   UNL A   1      48.540  27.375  26.321  1.00  0.00     0.074 A 
ATOM     48  C   UNL A   1      49.038  26.131  25.778  1.00  0.00     0.031 C 
ATOM     49  C   UNL A   1      42.289  26.127  27.228  1.00  0.00     0.029 A 
ATOM     50  C   UNL A   1      43.008  27.350  27.574  1.00  0.00     0.049 A 
ATOM     51  H   UNL A   1      45.028  27.760  27.276  1.00  0.00     0.167 HD
ATOM     52  C   UNL A   1      49.299  28.478  26.522  1.00  0.00     0.031 A 
ATOM     53  C   UNL A   1      42.471  28.441  28.153  1.00  0.00     0.031 A 
ATOM     54  C   UNL A   1      48.800  29.707  27.079  1.00  0.00     0.049 A 
ATOM     55  C   UNL A   1      43.349  29.633  28.422  1.00  0.00     0.074 A 
ATOM     56  C   UNL A   1      49.481  30.888  27.315  1.00  0.00     0.029 A 
ATOM     57  N   UNL A   1      47.492  29.908  27.492  1.00  0.00    -0.354 N 
ATOM     58  N   UNL A   1      44.623  29.799  28.156  1.00  0.00    -0.248 NA
ATOM     59  C   UNL A   1      42.713  30.794  29.061  1.00  0.00     0.031 C 
ATOM     60  C   UNL A   1      48.597  31.786  27.921  1.00  0.00     0.029 A 
ATOM     61  C   UNL A   1      47.350  31.185  28.008  1.00  0.00     0.049 A 
ATOM     62  H   UNL A   1      46.769  29.241  27.427  1.00  0.00     0.167 HD
ATOM     63  C   UNL A   1      44.934  31.086  28.571  1.00  0.00     0.074 A 
ATOM     64  C   UNL A   1      43.713  31.664  29.093  1.00  0.00     0.031 C 
ATOM     65  C   UNL A   1      46.125  31.735  28.526  1.00  0.00     0.031 A 
BRANCH  52  66
ATOM     66  C   UNL A   1      50.759  28.387  26.172  1.00  0.00    -0.014 A 
ATOM     67  C   UNL A   1      51.714  27.981  27.117  1.00  0.00     0.009 A 
ATOM     68  C   UNL A   1      51.181  28.689  24.868  1.00  0.00     0.009 A 
ATOM     69  C   UNL A   1      53.065  27.912  26.772  1.00  0.00     0.001 A 
ATOM     70  C   UNL A   1      52.529  28.593  24.518  1.00  0.00     0.001 A 
ATOM     71  C   UNL A   1      53.472  28.213  25.473  1.00  0.00     0.000 A 
ENDBRANCH  52  66
BRANCH  53  72
ATOM     72  C   UNL A   1      41.032  28.450  28.527  1.00  0.00    -0.014 A 
ATOM     73  C   UNL A   1      40.067  28.993  27.667  1.00  0.00     0.009 A 
ATOM     74  C   UNL A   1      40.618  27.910  29.756  1.00  0.00     0.009 A 
ATOM     75  C   UNL A   1      38.720  29.012  28.037  1.00  0.00     0.001 A 
ATOM     76  C   UNL A   1      39.267  27.906  30.112  1.00  0.00     0.001 A 
ATOM     77  C   UNL A   1      38.320  28.464  29.255  1.00  0.00     0.000 A 
ENDBRANCH  53  72
BRANCH  65  78
ATOM     78  C   UNL A   1      46.155  33.150  29.028  1.00  0.00    -0.014 A 
ATOM     79  C   UNL A   1      45.871  34.230  28.179  1.00  0.00     0.009 A 
ATOM     80  C   UNL A   1      46.421  33.399  30.384  1.00  0.00     0.009 A 
ATOM     81  C   UNL A   1      45.884  35.537  28.672  1.00  0.00     0.001 A 
ATOM     82  C   UNL A   1      46.406  34.704  30.879  1.00  0.00     0.001 A 
ATOM     83  C   UNL A   1      46.146  35.771  30.022  1.00  0.00     0.000 A 
ENDBRANCH  65  78
ENDBRANCH  39  40
ENDBRANCH  32  34
ENDBRANCH  31  32
ENDBRANCH  30  31
ENDBRANCH  29  30
ENDBRANCH  28  29
ENDBRANCH   1  28
TORSDOF 18
ENDMDL
MODEL 3
REMARK VINA RESULT:     -10.4      3.721      9.108
REMARK SMILES COc1cccc(Cn2c(=O)c(=O)n(CC(=O)OCCOCCOC(=O)c3ccc(-c4c5nc(c(-c6ccccc6)c6ccc([nH]6)c(-c6ccccc6)c6nc(c(-c7ccccc7)c7ccc4[nH]7)C=C6)C=C5)cc3)c3ccccc32)c1
REMARK SMILES IDX 20 1 19 2 18 3 16 4 17 5 15 6 14 7 9 8 10 9 80 10 11 11
REMARK SMILES IDX 12 12 75 13 79 14 13 15 76 16 78 17 77 18 8 19 7 20 3 21
REMARK SMILES IDX 4 22 81 23 5 24 6 25 2 26 1 27 21 28 22 29 23 30 24 31 25 32
REMARK SMILES IDX 26 33 27 34 28 35 74 36 29 37 73 38 30 39 31 40 32 41 67 42
REMARK SMILES IDX 33 43 72 44 66 45 68 46 34 47 71 48 65 49 64 50 35 52 57 53
REMARK SMILES IDX 42 54 56 55 43 56 46 57 55 58 69 59 44 60 45 61 54 63 70 64
REMARK SMILES IDX 47 65 36 66 37 67 41 68 38 69 40 70 39 71 58 72 59 73 63 74
REMARK SMILES IDX 60 75 62 76 61 77 48 78 49 79 53 80 50 81 52 82 51 83
REMARK H PARENT 68 51 46 62
REMARK Flexibility Score: inf
ROOT
ATOM      1  C   UNL A   1      31.797  30.515  26.679  1.00  0.00     0.202 C 
ENDROOT
BRANCH   1   2
ATOM      2  C   UNL A   1      31.745  29.727  25.361  1.00  0.00     0.261 C 
BRANCH   2   3
ATOM      3  O   UNL A   1      33.060  29.749  24.796  1.00  0.00    -0.462 OA
BRANCH   3   4
ATOM      4  C   UNL A   1      33.408  28.864  23.834  1.00  0.00     0.326 C 
ATOM      5  O   UNL A   1      33.774  29.159  22.705  1.00  0.00    -0.250 OA
BRANCH   4   6
ATOM      6  C   UNL A   1      33.268  27.417  24.352  1.00  0.00     0.248 C 
BRANCH   6   7
ATOM      7  N   UNL A   1      32.027  26.724  23.914  1.00  0.00    -0.291 N 
ATOM      8  N   UNL A   1      32.697  24.146  23.009  1.00  0.00    -0.298 N 
ATOM      9  C   UNL A   1      32.980  25.325  22.286  1.00  0.00     0.317 A 
ATOM     10  C   UNL A   1      31.832  24.287  24.165  1.00  0.00     0.068 A 
ATOM     11  O   UNL A   1      33.896  25.668  21.593  1.00  0.00    -0.263 OA
ATOM     12  C   UNL A   1      31.953  26.382  22.572  1.00  0.00     0.317 A 
ATOM     13  C   UNL A   1      31.620  25.602  24.695  1.00  0.00     0.069 A 
ATOM     14  C   UNL A   1      31.192  23.219  24.789  1.00  0.00     0.028 A 
ATOM     15  O   UNL A   1      31.069  26.631  21.774  1.00  0.00    -0.263 OA
ATOM     16  C   UNL A   1      30.854  25.826  25.834  1.00  0.00     0.028 A 
ATOM     17  C   UNL A   1      30.345  23.462  25.881  1.00  0.00     0.002 A 
ATOM     18  C   UNL A   1      30.193  24.748  26.413  1.00  0.00     0.002 A 
BRANCH   8  19
ATOM     19  C   UNL A   1      33.372  22.872  22.703  1.00  0.00     0.162 C 
BRANCH  19  20
ATOM     20  C   UNL A   1      34.560  22.597  23.610  1.00  0.00    -0.024 A 
ATOM     21  C   UNL A   1      35.180  21.931  25.852  1.00  0.00     0.119 A 
ATOM     22  C   UNL A   1      36.237  22.842  25.839  1.00  0.00     0.046 A 
ATOM     23  C   UNL A   1      34.380  21.753  24.723  1.00  0.00     0.052 A 
ATOM     24  C   UNL A   1      36.506  23.578  24.682  1.00  0.00     0.004 A 
ATOM     25  C   UNL A   1      35.668  23.462  23.570  1.00  0.00     0.006 A 
BRANCH  21  26
ATOM     26  O   UNL A   1      34.693  21.487  27.055  1.00  0.00    -0.497 OA
ATOM     27  C   UNL A   1      33.495  22.146  27.429  1.00  0.00     0.278 C 
ENDBRANCH  21  26
ENDBRANCH  19  20
ENDBRANCH   8  19
ENDBRANCH   6   7
ENDBRANCH   4   6
ENDBRANCH   3   4
ENDBRANCH   2   3
ENDBRANCH   1   2
BRANCH   1  28
ATOM     28  O   UNL A   1      33.057  30.470  27.364  1.00  0.00    -0.374 OA
BRANCH  28  29
ATOM     29  C   UNL A   1      33.655  31.724  27.690  1.00  0.00     0.202 C 
BRANCH  29  30
ATOM     30  C   UNL A   1      32.844  32.985  27.372  1.00  0.00     0.261 C 
BRANCH  30  31
ATOM     31  O   UNL A   1      32.426  33.692  28.544  1.00  0.00    -0.460 OA
BRANCH  31  32
ATOM     32  C   UNL A   1      33.164  34.785  28.834  1.00  0.00     0.338 C 
ATOM     33  O   UNL A   1      32.857  35.953  28.659  1.00  0.00    -0.246 OA
BRANCH  32  34
ATOM     34  C   UNL A   1      34.396  34.395  29.541  1.00  0.00     0.060 A 
ATOM     35  C   UNL A   1      35.600  34.544  28.843  1.00  0.00     0.016 A 
ATOM     36  C   UNL A   1      34.372  33.807  30.807  1.00  0.00     0.016 A 
ATOM     37  C   UNL A   1      36.781  34.051  29.385  1.00  0.00     0.010 A 
ATOM     38  C   UNL A   1      35.560  33.304  31.349  1.00  0.00     0.010 A 
ATOM     39  C   UNL A   1      36.760  33.388  30.619  1.00  0.00    -0.014 A 
BRANCH  39  40
ATOM     40  C   UNL A   1      37.971  32.661  31.061  1.00  0.00     0.031 A 
ATOM     41  C   UNL A   1      38.718  33.159  32.267  1.00  0.00     0.074 A 
ATOM     42  C   UNL A   1      38.359  31.539  30.431  1.00  0.00     0.049 A 
ATOM     43  N   UNL A   1      39.775  32.658  32.854  1.00  0.00    -0.248 NA
ATOM     44  C   UNL A   1      38.204  34.386  32.898  1.00  0.00     0.031 C 
ATOM     45  C   UNL A   1      37.690  30.945  29.275  1.00  0.00     0.029 A 
ATOM     46  N   UNL A   1      39.412  30.696  30.683  1.00  0.00    -0.354 N 
ATOM     47  C   UNL A   1      40.053  33.509  33.918  1.00  0.00     0.074 A 
ATOM     48  C   UNL A   1      39.075  34.573  33.878  1.00  0.00     0.031 C 
ATOM     49  C   UNL A   1      38.347  29.829  28.918  1.00  0.00     0.029 A 
ATOM     50  C   UNL A   1      39.495  29.646  29.803  1.00  0.00     0.049 A 
ATOM     51  H   UNL A   1      40.045  30.830  31.425  1.00  0.00     0.167 HD
ATOM     52  C   UNL A   1      41.031  33.406  34.848  1.00  0.00     0.031 A 
ATOM     53  C   UNL A   1      40.404  28.657  29.716  1.00  0.00     0.031 A 
ATOM     54  C   UNL A   1      42.010  32.353  34.871  1.00  0.00     0.049 A 
ATOM     55  C   UNL A   1      41.518  28.598  30.727  1.00  0.00     0.074 A 
ATOM     56  C   UNL A   1      43.038  32.148  35.775  1.00  0.00     0.029 A 
ATOM     57  N   UNL A   1      42.085  31.328  33.939  1.00  0.00    -0.354 N 
ATOM     58  N   UNL A   1      41.753  29.389  31.746  1.00  0.00    -0.248 NA
ATOM     59  C   UNL A   1      42.487  27.502  30.581  1.00  0.00     0.031 C 
ATOM     60  C   UNL A   1      43.766  31.029  35.358  1.00  0.00     0.029 A 
ATOM     61  C   UNL A   1      43.157  30.503  34.229  1.00  0.00     0.049 A 
ATOM     62  H   UNL A   1      41.465  31.206  33.183  1.00  0.00     0.167 HD
ATOM     63  C   UNL A   1      42.878  28.875  32.376  1.00  0.00     0.074 A 
ATOM     64  C   UNL A   1      43.270  27.695  31.634  1.00  0.00     0.031 C 
ATOM     65  C   UNL A   1      43.530  29.337  33.472  1.00  0.00     0.031 A 
BRANCH  52  66
ATOM     66  C   UNL A   1      41.108  34.484  35.894  1.00  0.00    -0.014 A 
ATOM     67  C   UNL A   1      41.911  35.621  35.714  1.00  0.00     0.009 A 
ATOM     68  C   UNL A   1      40.346  34.371  37.067  1.00  0.00     0.009 A 
ATOM     69  C   UNL A   1      41.975  36.606  36.702  1.00  0.00     0.001 A 
ATOM     70  C   UNL A   1      40.391  35.370  38.042  1.00  0.00     0.001 A 
ATOM     71  C   UNL A   1      41.213  36.482  37.862  1.00  0.00     0.000 A 
ENDBRANCH  52  66
BRANCH  53  72
ATOM     72  C   UNL A   1      40.306  27.651  28.625  1.00  0.00    -0.014 A 
ATOM     73  C   UNL A   1      39.606  26.451  28.813  1.00  0.00     0.009 A 
ATOM     74  C   UNL A   1      40.916  27.893  27.383  1.00  0.00     0.009 A 
ATOM     75  C   UNL A   1      39.535  25.504  27.787  1.00  0.00     0.001 A 
ATOM     76  C   UNL A   1      40.821  26.958  26.350  1.00  0.00     0.001 A 
ATOM     77  C   UNL A   1      40.137  25.762  26.555  1.00  0.00     0.000 A 
ENDBRANCH  53  72
BRANCH  65  78
ATOM     78  C   UNL A   1      44.717  28.547  33.947  1.00  0.00    -0.014 A 
ATOM     79  C   UNL A   1      46.012  28.835  33.491  1.00  0.00     0.009 A 
ATOM     80  C   UNL A   1      44.538  27.536  34.904  1.00  0.00     0.009 A 
ATOM     81  C   UNL A   1      47.103  28.101  33.961  1.00  0.00     0.001 A 
ATOM     82  C   UNL A   1      45.634  26.824  35.393  1.00  0.00     0.001 A 
ATOM     83  C   UNL A   1      46.914  27.101  34.915  1.00  0.00     0.000 A 
ENDBRANCH  65  78
ENDBRANCH  39  40
ENDBRANCH  32  34
ENDBRANCH  31  32
ENDBRANCH  30  31
ENDBRANCH  29  30
ENDBRANCH  28  29
ENDBRANCH   1  28
TORSDOF 18
ENDMDL
