MODEL 1
REMARK VINA RESULT:     -10.2      0.000      0.000
REMARK SMILES COc1ccc(C(=O)N2CC[C@@H](C(=O)OCCOCCOC(=O)c3ccc(-c4c5nc(c(-c6ccccc6)c6ccc([nH]6)c(-c6ccccc6)c6nc(c(-c7ccccc7)c7ccc4[nH]7)C=C6)C=C5)cc3)[C@H]2C)cc1O
REMARK SMILES IDX 17 1 16 2 15 3 13 4 14 5 12 6 9 7 10 8 72 9 11 10 73 11 7 12
REMARK SMILES IDX 8 13 6 14 3 15 4 16 75 17 5 18 74 19 2 20 1 21 76 22 18 24
REMARK SMILES IDX 19 25 20 26 21 27 22 28 23 29 24 30 25 31 71 32 26 33 70 34
REMARK SMILES IDX 27 35 28 36 29 37 64 38 30 39 69 40 63 41 65 42 31 43 68 44
REMARK SMILES IDX 62 45 61 46 32 48 54 49 39 50 53 51 40 52 43 53 52 54 66 55
REMARK SMILES IDX 41 56 42 57 51 59 67 60 44 61 33 62 34 63 38 64 35 65 37 66
REMARK SMILES IDX 36 67 55 68 56 69 60 70 57 71 59 72 58 73 45 74 46 75 50 76
REMARK SMILES IDX 47 77 49 78 48 79
REMARK H PARENT 76 23 65 47 43 58
REMARK Flexibility Score: inf
ROOT
ATOM      1  C   UNL A   1      35.968  21.664  24.978  1.00  0.00     0.202 C 
ENDROOT
BRANCH   1   2
ATOM      2  C   UNL A   1      35.172  21.865  26.272  1.00  0.00     0.261 C 
BRANCH   2   3
ATOM      3  O   UNL A   1      34.031  20.985  26.300  1.00  0.00    -0.463 OA
BRANCH   3   4
ATOM      4  C   UNL A   1      32.982  21.344  25.527  1.00  0.00     0.311 C 
ATOM      5  O   UNL A   1      32.596  20.716  24.548  1.00  0.00    -0.252 OA
BRANCH   4   6
ATOM      6  C   UNL A   1      32.314  22.627  25.966  1.00  0.00     0.123 C 
ATOM      7  N   UNL A   1      31.285  24.737  25.564  1.00  0.00    -0.335 N 
ATOM      8  C   UNL A   1      30.379  23.894  26.326  1.00  0.00     0.121 C 
ATOM      9  C   UNL A   1      32.549  23.999  25.277  1.00  0.00     0.096 C 
ATOM     10  C   UNL A   1      30.798  22.484  25.978  1.00  0.00     0.039 C 
ATOM     11  C   UNL A   1      32.893  23.975  23.793  1.00  0.00     0.032 C 
BRANCH   7  12
ATOM     12  C   UNL A   1      31.187  26.112  25.772  1.00  0.00     0.254 C 
ATOM     13  O   UNL A   1      31.294  26.610  26.891  1.00  0.00    -0.269 OA
BRANCH  12  14
ATOM     14  C   UNL A   1      30.808  26.993  24.631  1.00  0.00     0.043 A 
ATOM     15  C   UNL A   1      30.045  28.663  22.481  1.00  0.00     0.160 A 
ATOM     16  C   UNL A   1      29.098  27.886  23.160  1.00  0.00     0.051 A 
ATOM     17  C   UNL A   1      31.378  28.564  22.878  1.00  0.00     0.158 A 
ATOM     18  C   UNL A   1      29.468  27.074  24.240  1.00  0.00     0.018 A 
ATOM     19  C   UNL A   1      31.764  27.674  23.880  1.00  0.00     0.064 A 
BRANCH  15  20
ATOM     20  O   UNL A   1      29.514  29.443  21.494  1.00  0.00    -0.493 OA
ATOM     21  C   UNL A   1      28.238  30.034  21.695  1.00  0.00     0.278 C 
ENDBRANCH  15  20
BRANCH  17  22
ATOM     22  O   UNL A   1      32.379  29.360  22.400  1.00  0.00    -0.504 OA
ATOM     23  H   UNL A   1      32.582  30.167  22.830  1.00  0.00     0.293 HD
ENDBRANCH  17  22
ENDBRANCH  12  14
ENDBRANCH   7  12
ENDBRANCH   4   6
ENDBRANCH   3   4
ENDBRANCH   2   3
ENDBRANCH   1   2
BRANCH   1  24
ATOM     24  O   UNL A   1      36.891  20.576  24.976  1.00  0.00    -0.374 OA
BRANCH  24  25
ATOM     25  C   UNL A   1      38.251  20.863  25.298  1.00  0.00     0.202 C 
BRANCH  25  26
ATOM     26  C   UNL A   1      39.210  19.663  25.343  1.00  0.00     0.261 C 
BRANCH  26  27
ATOM     27  O   UNL A   1      40.112  19.721  26.465  1.00  0.00    -0.460 OA
BRANCH  27  28
ATOM     28  C   UNL A   1      41.423  19.790  26.137  1.00  0.00     0.338 C 
ATOM     29  O   UNL A   1      42.045  19.015  25.423  1.00  0.00    -0.246 OA
BRANCH  28  30
ATOM     30  C   UNL A   1      42.004  21.064  26.607  1.00  0.00     0.060 A 
ATOM     31  C   UNL A   1      41.993  21.300  27.989  1.00  0.00     0.016 A 
ATOM     32  C   UNL A   1      42.495  22.035  25.731  1.00  0.00     0.016 A 
ATOM     33  C   UNL A   1      42.407  22.531  28.494  1.00  0.00     0.010 A 
ATOM     34  C   UNL A   1      42.907  23.274  26.241  1.00  0.00     0.010 A 
ATOM     35  C   UNL A   1      42.823  23.543  27.621  1.00  0.00    -0.014 A 
BRANCH  35  36
ATOM     36  C   UNL A   1      43.004  24.923  28.138  1.00  0.00     0.031 A 
ATOM     37  C   UNL A   1      44.388  25.385  28.515  1.00  0.00     0.074 A 
ATOM     38  C   UNL A   1      41.969  25.778  28.229  1.00  0.00     0.049 A 
ATOM     39  N   UNL A   1      44.776  26.537  29.000  1.00  0.00    -0.248 NA
ATOM     40  C   UNL A   1      45.479  24.416  28.318  1.00  0.00     0.031 C 
ATOM     41  C   UNL A   1      40.589  25.482  27.847  1.00  0.00     0.029 A 
ATOM     42  N   UNL A   1      41.925  27.077  28.671  1.00  0.00    -0.354 N 
ATOM     43  C   UNL A   1      46.151  26.429  29.175  1.00  0.00     0.074 A 
ATOM     44  C   UNL A   1      46.523  25.088  28.779  1.00  0.00     0.031 C 
ATOM     45  C   UNL A   1      39.832  26.570  28.072  1.00  0.00     0.029 A 
ATOM     46  C   UNL A   1      40.666  27.625  28.647  1.00  0.00     0.049 A 
ATOM     47  H   UNL A   1      42.721  27.571  28.976  1.00  0.00     0.167 HD
ATOM     48  C   UNL A   1      47.028  27.361  29.618  1.00  0.00     0.031 A 
ATOM     49  C   UNL A   1      40.229  28.831  29.061  1.00  0.00     0.031 A 
ATOM     50  C   UNL A   1      46.663  28.694  30.020  1.00  0.00     0.049 A 
ATOM     51  C   UNL A   1      41.211  29.820  29.634  1.00  0.00     0.074 A 
ATOM     52  C   UNL A   1      47.486  29.713  30.468  1.00  0.00     0.029 A 
ATOM     53  N   UNL A   1      45.369  29.189  30.030  1.00  0.00    -0.354 N 
ATOM     54  N   UNL A   1      42.510  29.712  29.775  1.00  0.00    -0.248 NA
ATOM     55  C   UNL A   1      40.663  31.103  30.098  1.00  0.00     0.031 C 
ATOM     56  C   UNL A   1      46.681  30.804  30.812  1.00  0.00     0.029 A 
ATOM     57  C   UNL A   1      45.366  30.489  30.508  1.00  0.00     0.049 A 
ATOM     58  H   UNL A   1      44.571  28.692  29.739  1.00  0.00     0.167 HD
ATOM     59  C   UNL A   1      42.937  30.922  30.310  1.00  0.00     0.074 A 
ATOM     60  C   UNL A   1      41.761  31.754  30.455  1.00  0.00     0.031 C 
ATOM     61  C   UNL A   1      44.191  31.310  30.649  1.00  0.00     0.031 A 
BRANCH  48  62
ATOM     62  C   UNL A   1      48.473  26.956  29.727  1.00  0.00    -0.014 A 
ATOM     63  C   UNL A   1      49.395  27.241  28.707  1.00  0.00     0.009 A 
ATOM     64  C   UNL A   1      48.925  26.307  30.888  1.00  0.00     0.009 A 
ATOM     65  C   UNL A   1      50.731  26.851  28.832  1.00  0.00     0.001 A 
ATOM     66  C   UNL A   1      50.266  25.947  31.023  1.00  0.00     0.001 A 
ATOM     67  C   UNL A   1      51.166  26.210  29.991  1.00  0.00     0.000 A 
ENDBRANCH  48  62
BRANCH  49  68
ATOM     68  C   UNL A   1      38.784  29.172  28.973  1.00  0.00    -0.014 A 
ATOM     69  C   UNL A   1      38.243  29.714  27.796  1.00  0.00     0.009 A 
ATOM     70  C   UNL A   1      37.943  28.987  30.081  1.00  0.00     0.009 A 
ATOM     71  C   UNL A   1      36.898  30.087  27.742  1.00  0.00     0.001 A 
ATOM     72  C   UNL A   1      36.591  29.330  30.013  1.00  0.00     0.001 A 
ATOM     73  C   UNL A   1      36.073  29.890  28.848  1.00  0.00     0.000 A 
ENDBRANCH  49  68
BRANCH  61  74
ATOM     74  C   UNL A   1      44.369  32.712  31.167  1.00  0.00    -0.014 A 
ATOM     75  C   UNL A   1      44.327  32.999  32.540  1.00  0.00     0.009 A 
ATOM     76  C   UNL A   1      44.629  33.756  30.264  1.00  0.00     0.009 A 
ATOM     77  C   UNL A   1      44.504  34.308  32.995  1.00  0.00     0.001 A 
ATOM     78  C   UNL A   1      44.839  35.057  30.724  1.00  0.00     0.001 A 
ATOM     79  C   UNL A   1      44.766  35.334  32.087  1.00  0.00     0.000 A 
ENDBRANCH  61  74
ENDBRANCH  35  36
ENDBRANCH  28  30
ENDBRANCH  27  28
ENDBRANCH  26  27
ENDBRANCH  25  26
ENDBRANCH  24  25
ENDBRANCH   1  24
TORSDOF 18
ENDMDL
MODEL 2
REMARK VINA RESULT:     -10.0      3.952      9.152
REMARK SMILES COc1ccc(C(=O)N2CC[C@@H](C(=O)OCCOCCOC(=O)c3ccc(-c4c5nc(c(-c6ccccc6)c6ccc([nH]6)c(-c6ccccc6)c6nc(c(-c7ccccc7)c7ccc4[nH]7)C=C6)C=C5)cc3)[C@H]2C)cc1O
REMARK SMILES IDX 17 1 16 2 15 3 13 4 14 5 12 6 9 7 10 8 72 9 11 10 73 11 7 12
REMARK SMILES IDX 8 13 6 14 3 15 4 16 75 17 5 18 74 19 2 20 1 21 76 22 18 24
REMARK SMILES IDX 19 25 20 26 21 27 22 28 23 29 24 30 25 31 71 32 26 33 70 34
REMARK SMILES IDX 27 35 28 36 29 37 64 38 30 39 69 40 63 41 65 42 31 43 68 44
REMARK SMILES IDX 62 45 61 46 32 48 54 49 39 50 53 51 40 52 43 53 52 54 66 55
REMARK SMILES IDX 41 56 42 57 51 59 67 60 44 61 33 62 34 63 38 64 35 65 37 66
REMARK SMILES IDX 36 67 55 68 56 69 60 70 57 71 59 72 58 73 45 74 46 75 50 76
REMARK SMILES IDX 47 77 49 78 48 79
REMARK H PARENT 76 23 65 47 43 58
REMARK Flexibility Score: inf
ROOT
ATOM      1  C   UNL A   1      32.833  30.574  27.179  1.00  0.00     0.202 C 
ENDROOT
BRANCH   1   2
ATOM      2  C   UNL A   1      33.517  29.407  26.460  1.00  0.00     0.261 C 
BRANCH   2   3
ATOM      3  O   UNL A   1      33.312  28.181  27.189  1.00  0.00    -0.463 OA
BRANCH   3   4
ATOM      4  C   UNL A   1      32.176  27.503  26.911  1.00  0.00     0.311 C 
ATOM      5  O   UNL A   1      31.162  27.539  27.598  1.00  0.00    -0.252 OA
BRANCH   4   6
ATOM      6  C   UNL A   1      32.263  26.657  25.662  1.00  0.00     0.123 C 
ATOM      7  N   UNL A   1      31.861  24.678  24.399  1.00  0.00    -0.335 N 
ATOM      8  C   UNL A   1      31.301  25.822  23.698  1.00  0.00     0.121 C 
ATOM      9  C   UNL A   1      32.488  25.120  25.678  1.00  0.00     0.096 C 
ATOM     10  C   UNL A   1      31.029  26.832  24.789  1.00  0.00     0.039 C 
ATOM     11  C   UNL A   1      31.959  24.358  26.886  1.00  0.00     0.032 C 
BRANCH   7  12
ATOM     12  C   UNL A   1      32.303  23.616  23.611  1.00  0.00     0.254 C 
ATOM     13  O   UNL A   1      31.568  23.058  22.799  1.00  0.00    -0.269 OA
BRANCH  12  14
ATOM     14  C   UNL A   1      33.660  23.050  23.854  1.00  0.00     0.043 A 
ATOM     15  C   UNL A   1      36.254  22.018  24.303  1.00  0.00     0.160 A 
ATOM     16  C   UNL A   1      36.061  23.158  23.514  1.00  0.00     0.051 A 
ATOM     17  C   UNL A   1      35.128  21.391  24.835  1.00  0.00     0.158 A 
ATOM     18  C   UNL A   1      34.779  23.686  23.306  1.00  0.00     0.018 A 
ATOM     19  C   UNL A   1      33.844  21.851  24.539  1.00  0.00     0.064 A 
BRANCH  15  20
ATOM     20  O   UNL A   1      37.565  21.668  24.456  1.00  0.00    -0.493 OA
ATOM     21  C   UNL A   1      38.233  22.011  25.663  1.00  0.00     0.278 C 
ENDBRANCH  15  20
BRANCH  17  22
ATOM     22  O   UNL A   1      35.176  20.359  25.728  1.00  0.00    -0.504 OA
ATOM     23  H   UNL A   1      34.383  20.000  26.072  1.00  0.00     0.293 HD
ENDBRANCH  17  22
ENDBRANCH  12  14
ENDBRANCH   7  12
ENDBRANCH   4   6
ENDBRANCH   3   4
ENDBRANCH   2   3
ENDBRANCH   1   2
BRANCH   1  24
ATOM     24  O   UNL A   1      31.627  31.053  26.584  1.00  0.00    -0.374 OA
BRANCH  24  25
ATOM     25  C   UNL A   1      31.403  32.462  26.585  1.00  0.00     0.202 C 
BRANCH  25  26
ATOM     26  C   UNL A   1      32.570  33.339  27.065  1.00  0.00     0.261 C 
BRANCH  26  27
ATOM     27  O   UNL A   1      32.222  34.137  28.213  1.00  0.00    -0.460 OA
BRANCH  27  28
ATOM     28  C   UNL A   1      33.227  34.901  28.699  1.00  0.00     0.338 C 
ATOM     29  O   UNL A   1      33.179  36.092  28.976  1.00  0.00    -0.246 OA
BRANCH  28  30
ATOM     30  C   UNL A   1      34.390  34.060  29.049  1.00  0.00     0.060 A 
ATOM     31  C   UNL A   1      34.171  33.008  29.949  1.00  0.00     0.016 A 
ATOM     32  C   UNL A   1      35.675  34.315  28.563  1.00  0.00     0.016 A 
ATOM     33  C   UNL A   1      35.243  32.254  30.421  1.00  0.00     0.010 A 
ATOM     34  C   UNL A   1      36.752  33.558  29.042  1.00  0.00     0.010 A 
ATOM     35  C   UNL A   1      36.547  32.553  30.007  1.00  0.00    -0.014 A 
BRANCH  35  36
ATOM     36  C   UNL A   1      37.696  31.929  30.711  1.00  0.00     0.031 A 
ATOM     37  C   UNL A   1      38.467  30.834  30.020  1.00  0.00     0.074 A 
ATOM     38  C   UNL A   1      38.089  32.355  31.926  1.00  0.00     0.049 A 
ATOM     39  N   UNL A   1      39.491  30.140  30.449  1.00  0.00    -0.248 NA
ATOM     40  C   UNL A   1      38.022  30.474  28.663  1.00  0.00     0.031 C 
ATOM     41  C   UNL A   1      37.469  33.441  32.683  1.00  0.00     0.029 A 
ATOM     42  N   UNL A   1      39.111  31.921  32.732  1.00  0.00    -0.354 N 
ATOM     43  C   UNL A   1      39.806  29.258  29.423  1.00  0.00     0.074 A 
ATOM     44  C   UNL A   1      38.843  29.478  28.365  1.00  0.00     0.031 C 
ATOM     45  C   UNL A   1      38.125  33.589  33.847  1.00  0.00     0.029 A 
ATOM     46  C   UNL A   1      39.186  32.586  33.932  1.00  0.00     0.049 A 
ATOM     47  H   UNL A   1      39.733  31.203  32.476  1.00  0.00     0.167 HD
ATOM     48  C   UNL A   1      40.809  28.350  29.359  1.00  0.00     0.031 A 
ATOM     49  C   UNL A   1      40.001  32.394  34.988  1.00  0.00     0.031 A 
ATOM     50  C   UNL A   1      41.765  28.121  30.410  1.00  0.00     0.049 A 
ATOM     51  C   UNL A   1      41.052  31.317  34.929  1.00  0.00     0.074 A 
ATOM     52  C   UNL A   1      42.827  27.232  30.429  1.00  0.00     0.029 A 
ATOM     53  N   UNL A   1      41.772  28.779  31.629  1.00  0.00    -0.354 N 
ATOM     54  N   UNL A   1      41.352  30.503  33.945  1.00  0.00    -0.248 NA
ATOM     55  C   UNL A   1      41.885  31.139  36.128  1.00  0.00     0.031 C 
ATOM     56  C   UNL A   1      43.436  27.306  31.686  1.00  0.00     0.029 A 
ATOM     57  C   UNL A   1      42.798  28.293  32.422  1.00  0.00     0.049 A 
ATOM     58  H   UNL A   1      41.141  29.488  31.893  1.00  0.00     0.167 HD
ATOM     59  C   UNL A   1      42.426  29.743  34.394  1.00  0.00     0.074 A 
ATOM     60  C   UNL A   1      42.735  30.201  35.731  1.00  0.00     0.031 C 
ATOM     61  C   UNL A   1      43.098  28.756  33.752  1.00  0.00     0.031 A 
BRANCH  48  62
ATOM     62  C   UNL A   1      40.900  27.504  28.118  1.00  0.00    -0.014 A 
ATOM     63  C   UNL A   1      40.235  26.271  28.019  1.00  0.00     0.009 A 
ATOM     64  C   UNL A   1      41.637  27.967  27.016  1.00  0.00     0.009 A 
ATOM     65  C   UNL A   1      40.337  25.503  26.857  1.00  0.00     0.001 A 
ATOM     66  C   UNL A   1      41.711  27.213  25.844  1.00  0.00     0.001 A 
ATOM     67  C   UNL A   1      41.070  25.977  25.769  1.00  0.00     0.000 A 
ENDBRANCH  48  62
BRANCH  49  68
ATOM     68  C   UNL A   1      39.846  33.227  36.211  1.00  0.00    -0.014 A 
ATOM     69  C   UNL A   1      40.504  34.461  36.330  1.00  0.00     0.009 A 
ATOM     70  C   UNL A   1      39.062  32.772  37.283  1.00  0.00     0.009 A 
ATOM     71  C   UNL A   1      40.401  35.208  37.506  1.00  0.00     0.001 A 
ATOM     72  C   UNL A   1      38.934  33.537  38.445  1.00  0.00     0.001 A 
ATOM     73  C   UNL A   1      39.613  34.748  38.559  1.00  0.00     0.000 A 
ENDBRANCH  49  68
BRANCH  61  74
ATOM     74  C   UNL A   1      44.266  28.131  34.468  1.00  0.00    -0.014 A 
ATOM     75  C   UNL A   1      45.559  28.667  34.374  1.00  0.00     0.009 A 
ATOM     76  C   UNL A   1      44.055  27.010  35.288  1.00  0.00     0.009 A 
ATOM     77  C   UNL A   1      46.623  28.072  35.056  1.00  0.00     0.001 A 
ATOM     78  C   UNL A   1      45.114  26.437  35.995  1.00  0.00     0.001 A 
ATOM     79  C   UNL A   1      46.399  26.962  35.870  1.00  0.00     0.000 A 
ENDBRANCH  61  74
ENDBRANCH  35  36
ENDBRANCH  28  30
ENDBRANCH  27  28
ENDBRANCH  26  27
ENDBRANCH  25  26
ENDBRANCH  24  25
ENDBRANCH   1  24
TORSDOF 18
ENDMDL
MODEL 3
REMARK VINA RESULT:     -10.0      3.468      8.207
REMARK SMILES COc1ccc(C(=O)N2CC[C@@H](C(=O)OCCOCCOC(=O)c3ccc(-c4c5nc(c(-c6ccccc6)c6ccc([nH]6)c(-c6ccccc6)c6nc(c(-c7ccccc7)c7ccc4[nH]7)C=C6)C=C5)cc3)[C@H]2C)cc1O
REMARK SMILES IDX 17 1 16 2 15 3 13 4 14 5 12 6 9 7 10 8 72 9 11 10 73 11 7 12
REMARK SMILES IDX 8 13 6 14 3 15 4 16 75 17 5 18 74 19 2 20 1 21 76 22 18 24
REMARK SMILES IDX 19 25 20 26 21 27 22 28 23 29 24 30 25 31 71 32 26 33 70 34
REMARK SMILES IDX 27 35 28 36 29 37 64 38 30 39 69 40 63 41 65 42 31 43 68 44
REMARK SMILES IDX 62 45 61 46 32 48 54 49 39 50 53 51 40 52 43 53 52 54 66 55
REMARK SMILES IDX 41 56 42 57 51 59 67 60 44 61 33 62 34 63 38 64 35 65 37 66
REMARK SMILES IDX 36 67 55 68 56 69 60 70 57 71 59 72 58 73 45 74 46 75 50 76
REMARK SMILES IDX 47 77 49 78 48 79
REMARK H PARENT 76 23 65 47 43 58
REMARK Flexibility Score: inf
ROOT
ATOM      1  C   UNL A   1      30.022  28.081  23.154  1.00  0.00     0.202 C 
ENDROOT
BRANCH   1   2
ATOM      2  C   UNL A   1      29.277  26.975  23.908  1.00  0.00     0.261 C 
BRANCH   2   3
ATOM      3  O   UNL A   1      29.904  25.698  23.671  1.00  0.00    -0.463 OA
BRANCH   3   4
ATOM      4  C   UNL A   1      30.712  25.239  24.652  1.00  0.00     0.311 C 
ATOM      5  O   UNL A   1      30.565  25.485  25.843  1.00  0.00    -0.252 OA
BRANCH   4   6
ATOM      6  C   UNL A   1      31.857  24.389  24.148  1.00  0.00     0.123 C 
ATOM      7  N   UNL A   1      34.087  23.558  24.229  1.00  0.00    -0.335 N 
ATOM      8  C   UNL A   1      33.154  22.444  24.268  1.00  0.00     0.121 C 
ATOM      9  C   UNL A   1      33.341  24.847  24.164  1.00  0.00     0.096 C 
ATOM     10  C   UNL A   1      31.889  23.037  24.846  1.00  0.00     0.039 C 
ATOM     11  C   UNL A   1      33.750  25.820  25.262  1.00  0.00     0.032 C 
BRANCH   7  12
ATOM     12  C   UNL A   1      35.327  23.316  23.638  1.00  0.00     0.254 C 
ATOM     13  O   UNL A   1      35.466  23.259  22.418  1.00  0.00    -0.269 OA
BRANCH  12  14
ATOM     14  C   UNL A   1      36.491  22.984  24.508  1.00  0.00     0.043 A 
ATOM     15  C   UNL A   1      38.709  22.317  26.130  1.00  0.00     0.160 A 
ATOM     16  C   UNL A   1      38.123  21.366  25.286  1.00  0.00     0.051 A 
ATOM     17  C   UNL A   1      38.146  23.593  26.168  1.00  0.00     0.158 A 
ATOM     18  C   UNL A   1      37.038  21.697  24.464  1.00  0.00     0.018 A 
ATOM     19  C   UNL A   1      36.999  23.893  25.433  1.00  0.00     0.064 A 
BRANCH  15  20
ATOM     20  O   UNL A   1      39.792  21.853  26.818  1.00  0.00    -0.493 OA
ATOM     21  C   UNL A   1      40.386  20.625  26.420  1.00  0.00     0.278 C 
ENDBRANCH  15  20
BRANCH  17  22
ATOM     22  O   UNL A   1      38.693  24.650  26.837  1.00  0.00    -0.504 OA
ATOM     23  H   UNL A   1      39.266  25.242  26.390  1.00  0.00     0.293 HD
ENDBRANCH  17  22
ENDBRANCH  12  14
ENDBRANCH   7  12
ENDBRANCH   4   6
ENDBRANCH   3   4
ENDBRANCH   2   3
ENDBRANCH   1   2
BRANCH   1  24
ATOM     24  O   UNL A   1      30.490  29.171  23.948  1.00  0.00    -0.374 OA
BRANCH  24  25
ATOM     25  C   UNL A   1      31.406  28.878  25.000  1.00  0.00     0.202 C 
BRANCH  25  26
ATOM     26  C   UNL A   1      32.392  29.995  25.380  1.00  0.00     0.261 C 
BRANCH  26  27
ATOM     27  O   UNL A   1      32.429  30.237  26.799  1.00  0.00    -0.460 OA
BRANCH  27  28
ATOM     28  C   UNL A   1      33.088  31.360  27.167  1.00  0.00     0.338 C 
ATOM     29  O   UNL A   1      32.627  32.491  27.249  1.00  0.00    -0.246 OA
BRANCH  28  30
ATOM     30  C   UNL A   1      34.440  31.024  27.657  1.00  0.00     0.060 A 
ATOM     31  C   UNL A   1      34.677  29.691  28.019  1.00  0.00     0.016 A 
ATOM     32  C   UNL A   1      35.441  31.986  27.821  1.00  0.00     0.016 A 
ATOM     33  C   UNL A   1      35.886  29.327  28.607  1.00  0.00     0.010 A 
ATOM     34  C   UNL A   1      36.655  31.619  28.417  1.00  0.00     0.010 A 
ATOM     35  C   UNL A   1      36.866  30.297  28.854  1.00  0.00    -0.014 A 
BRANCH  35  36
ATOM     36  C   UNL A   1      38.028  29.957  29.714  1.00  0.00     0.031 A 
ATOM     37  C   UNL A   1      39.104  29.058  29.164  1.00  0.00     0.074 A 
ATOM     38  C   UNL A   1      38.159  30.475  30.949  1.00  0.00     0.049 A 
ATOM     39  N   UNL A   1      40.195  28.619  29.740  1.00  0.00    -0.248 NA
ATOM     40  C   UNL A   1      38.925  28.592  27.779  1.00  0.00     0.031 C 
ATOM     41  C   UNL A   1      37.222  31.401  31.584  1.00  0.00     0.029 A 
ATOM     42  N   UNL A   1      39.143  30.293  31.889  1.00  0.00    -0.354 N 
ATOM     43  C   UNL A   1      40.826  27.819  28.795  1.00  0.00     0.074 A 
ATOM     44  C   UNL A   1      39.979  27.804  27.621  1.00  0.00     0.031 C 
ATOM     45  C   UNL A   1      37.677  31.706  32.811  1.00  0.00     0.029 A 
ATOM     46  C   UNL A   1      38.915  30.971  33.063  1.00  0.00     0.049 A 
ATOM     47  H   UNL A   1      39.937  29.731  31.738  1.00  0.00     0.167 HD
ATOM     48  C   UNL A   1      42.006  27.162  28.887  1.00  0.00     0.031 A 
ATOM     49  C   UNL A   1      39.613  30.981  34.215  1.00  0.00     0.031 A 
ATOM     50  C   UNL A   1      42.849  27.167  30.054  1.00  0.00     0.049 A 
ATOM     51  C   UNL A   1      40.878  30.169  34.325  1.00  0.00     0.074 A 
ATOM     52  C   UNL A   1      44.072  26.542  30.235  1.00  0.00     0.029 A 
ATOM     53  N   UNL A   1      42.555  27.823  31.238  1.00  0.00    -0.354 N 
ATOM     54  N   UNL A   1      41.473  29.433  33.417  1.00  0.00    -0.248 NA
ATOM     55  C   UNL A   1      41.572  30.198  35.622  1.00  0.00     0.031 C 
ATOM     56  C   UNL A   1      44.485  26.766  31.552  1.00  0.00     0.029 A 
ATOM     57  C   UNL A   1      43.556  27.592  32.166  1.00  0.00     0.049 A 
ATOM     58  H   UNL A   1      41.754  28.373  31.396  1.00  0.00     0.167 HD
ATOM     59  C   UNL A   1      42.625  28.942  34.021  1.00  0.00     0.074 A 
ATOM     60  C   UNL A   1      42.653  29.473  35.366  1.00  0.00     0.031 C 
ATOM     61  C   UNL A   1      43.576  28.125  33.504  1.00  0.00     0.031 A 
BRANCH  48  62
ATOM     62  C   UNL A   1      42.439  26.345  27.700  1.00  0.00    -0.014 A 
ATOM     63  C   UNL A   1      42.060  24.999  27.557  1.00  0.00     0.009 A 
ATOM     64  C   UNL A   1      43.211  26.943  26.691  1.00  0.00     0.009 A 
ATOM     65  C   UNL A   1      42.477  24.262  26.447  1.00  0.00     0.001 A 
ATOM     66  C   UNL A   1      43.600  26.212  25.568  1.00  0.00     0.001 A 
ATOM     67  C   UNL A   1      43.242  24.870  25.451  1.00  0.00     0.000 A 
ENDBRANCH  48  62
BRANCH  49  68
ATOM     68  C   UNL A   1      39.124  31.770  35.377  1.00  0.00    -0.014 A 
ATOM     69  C   UNL A   1      38.271  31.193  36.330  1.00  0.00     0.009 A 
ATOM     70  C   UNL A   1      39.485  33.119  35.521  1.00  0.00     0.009 A 
ATOM     71  C   UNL A   1      37.768  31.959  37.385  1.00  0.00     0.001 A 
ATOM     72  C   UNL A   1      39.008  33.873  36.595  1.00  0.00     0.001 A 
ATOM     73  C   UNL A   1      38.141  33.295  37.520  1.00  0.00     0.000 A 
ENDBRANCH  49  68
BRANCH  61  74
ATOM     74  C   UNL A   1      44.754  27.789  34.379  1.00  0.00    -0.014 A 
ATOM     75  C   UNL A   1      45.896  28.603  34.418  1.00  0.00     0.009 A 
ATOM     76  C   UNL A   1      44.697  26.659  35.212  1.00  0.00     0.009 A 
ATOM     77  C   UNL A   1      46.972  28.272  35.246  1.00  0.00     0.001 A 
ATOM     78  C   UNL A   1      45.759  26.350  36.063  1.00  0.00     0.001 A 
ATOM     79  C   UNL A   1      46.900  27.150  36.071  1.00  0.00     0.000 A 
ENDBRANCH  61  74
ENDBRANCH  35  36
ENDBRANCH  28  30
ENDBRANCH  27  28
ENDBRANCH  26  27
ENDBRANCH  25  26
ENDBRANCH  24  25
ENDBRANCH   1  24
TORSDOF 18
ENDMDL
