MODEL 1
REMARK VINA RESULT:     -10.4      0.000      0.000
REMARK SMILES CC(C)(C)OC(=O)N1CC(Cc2ccc(C(=O)OCCOCCOC(=O)c3ccc(-c4c5nc(c(-c6ccccc6)c6ccc([nH]6)c(-c6ccccc6)c6nc(c(-c7ccccc7)c7ccc4[nH]7)C=C6)C=C5)cc3)cc2)C1
REMARK SMILES IDX 20 1 19 2 18 3 16 4 17 5 15 6 12 7 13 8 76 9 14 10 75 11
REMARK SMILES IDX 11 12 10 13 6 14 7 15 8 16 9 17 77 18 5 19 2 20 1 21 3 22
REMARK SMILES IDX 4 23 21 24 22 25 23 26 24 27 25 28 26 29 27 30 28 31 74 32
REMARK SMILES IDX 29 33 73 34 30 35 31 36 32 37 67 38 33 39 72 40 66 41 68 42
REMARK SMILES IDX 34 43 71 44 65 45 64 46 35 48 57 49 42 50 56 51 43 52 46 53
REMARK SMILES IDX 55 54 69 55 44 56 45 57 54 59 70 60 47 61 36 62 37 63 41 64
REMARK SMILES IDX 38 65 40 66 39 67 58 68 59 69 63 70 60 71 62 72 61 73 48 74
REMARK SMILES IDX 49 75 53 76 50 77 52 78 51 79
REMARK H PARENT 68 47 46 58
REMARK Flexibility Score: inf
ROOT
ATOM      1  C   UNL A   1      43.253  19.894  25.395  1.00  0.00     0.202 C 
ENDROOT
BRANCH   1   2
ATOM      2  C   UNL A   1      42.589  20.942  26.288  1.00  0.00     0.261 C 
BRANCH   2   3
ATOM      3  O   UNL A   1      41.160  20.858  26.161  1.00  0.00    -0.460 OA
BRANCH   3   4
ATOM      4  C   UNL A   1      40.455  21.730  26.921  1.00  0.00     0.338 C 
ATOM      5  O   UNL A   1      40.813  22.231  27.975  1.00  0.00    -0.246 OA
BRANCH   4   6
ATOM      6  C   UNL A   1      39.184  22.093  26.248  1.00  0.00     0.060 A 
ATOM      7  C   UNL A   1      36.829  22.684  24.840  1.00  0.00    -0.048 A 
ATOM      8  C   UNL A   1      37.419  21.421  24.727  1.00  0.00     0.004 A 
ATOM      9  C   UNL A   1      37.397  23.632  25.705  1.00  0.00     0.004 A 
ATOM     10  C   UNL A   1      38.589  21.128  25.426  1.00  0.00     0.016 A 
ATOM     11  C   UNL A   1      38.572  23.342  26.404  1.00  0.00     0.016 A 
BRANCH   7  12
ATOM     12  C   UNL A   1      35.651  23.053  23.970  1.00  0.00     0.042 C 
BRANCH  12  13
ATOM     13  C   UNL A   1      34.940  24.245  24.593  1.00  0.00     0.033 C 
ATOM     14  C   UNL A   1      32.349  26.106  25.382  1.00  0.00     0.410 C 
ATOM     15  O   UNL A   1      31.976  26.094  26.550  1.00  0.00    -0.224 OA
ATOM     16  N   UNL A   1      33.132  25.134  24.846  1.00  0.00    -0.307 N 
ATOM     17  C   UNL A   1      33.690  23.937  25.442  1.00  0.00     0.128 C 
ATOM     18  C   UNL A   1      34.007  25.103  23.694  1.00  0.00     0.128 C 
BRANCH  14  19
ATOM     19  O   UNL A   1      32.039  27.054  24.465  1.00  0.00    -0.444 OA
BRANCH  19  20
ATOM     20  C   UNL A   1      32.426  28.444  24.648  1.00  0.00     0.106 C 
ATOM     21  C   UNL A   1      33.298  28.777  23.428  1.00  0.00     0.056 C 
ATOM     22  C   UNL A   1      33.269  28.564  25.919  1.00  0.00     0.056 C 
ATOM     23  C   UNL A   1      31.243  29.423  24.666  1.00  0.00     0.056 C 
ENDBRANCH  19  20
ENDBRANCH  14  19
ENDBRANCH  12  13
ENDBRANCH   7  12
ENDBRANCH   4   6
ENDBRANCH   3   4
ENDBRANCH   2   3
ENDBRANCH   1   2
BRANCH   1  24
ATOM     24  O   UNL A   1      44.101  20.449  24.387  1.00  0.00    -0.374 OA
BRANCH  24  25
ATOM     25  C   UNL A   1      45.186  21.255  24.858  1.00  0.00     0.202 C 
BRANCH  25  26
ATOM     26  C   UNL A   1      45.302  22.607  24.149  1.00  0.00     0.261 C 
BRANCH  26  27
ATOM     27  O   UNL A   1      44.354  23.542  24.699  1.00  0.00    -0.460 OA
BRANCH  27  28
ATOM     28  C   UNL A   1      44.862  24.759  25.003  1.00  0.00     0.338 C 
ATOM     29  O   UNL A   1      45.858  25.283  24.532  1.00  0.00    -0.246 OA
BRANCH  28  30
ATOM     30  C   UNL A   1      43.940  25.479  25.905  1.00  0.00     0.060 A 
ATOM     31  C   UNL A   1      44.220  26.827  26.157  1.00  0.00     0.016 A 
ATOM     32  C   UNL A   1      42.862  24.851  26.537  1.00  0.00     0.016 A 
ATOM     33  C   UNL A   1      43.468  27.534  27.092  1.00  0.00     0.010 A 
ATOM     34  C   UNL A   1      42.110  25.562  27.482  1.00  0.00     0.010 A 
ATOM     35  C   UNL A   1      42.439  26.892  27.793  1.00  0.00    -0.014 A 
BRANCH  35  36
ATOM     36  C   UNL A   1      41.846  27.572  28.969  1.00  0.00     0.031 A 
ATOM     37  C   UNL A   1      42.555  27.479  30.293  1.00  0.00     0.074 A 
ATOM     38  C   UNL A   1      40.736  28.321  28.852  1.00  0.00     0.049 A 
ATOM     39  N   UNL A   1      42.273  28.066  31.427  1.00  0.00    -0.248 NA
ATOM     40  C   UNL A   1      43.743  26.610  30.342  1.00  0.00     0.031 C 
ATOM     41  C   UNL A   1      39.973  28.521  27.622  1.00  0.00     0.029 A 
ATOM     42  N   UNL A   1      40.069  29.067  29.791  1.00  0.00    -0.354 N 
ATOM     43  C   UNL A   1      43.249  27.646  32.321  1.00  0.00     0.074 A 
ATOM     44  C   UNL A   1      44.112  26.728  31.607  1.00  0.00     0.031 C 
ATOM     45  C   UNL A   1      38.942  29.346  27.881  1.00  0.00     0.029 A 
ATOM     46  C   UNL A   1      38.970  29.720  29.294  1.00  0.00     0.049 A 
ATOM     47  H   UNL A   1      40.353  29.127  30.732  1.00  0.00     0.167 HD
ATOM     48  C   UNL A   1      43.424  27.997  33.616  1.00  0.00     0.031 A 
ATOM     49  C   UNL A   1      38.088  30.532  29.909  1.00  0.00     0.031 A 
ATOM     50  C   UNL A   1      42.567  28.895  34.339  1.00  0.00     0.049 A 
ATOM     51  C   UNL A   1      38.270  30.862  31.366  1.00  0.00     0.074 A 
ATOM     52  C   UNL A   1      42.673  29.323  35.651  1.00  0.00     0.029 A 
ATOM     53  N   UNL A   1      41.437  29.498  33.810  1.00  0.00    -0.354 N 
ATOM     54  N   UNL A   1      39.222  30.490  32.187  1.00  0.00    -0.248 NA
ATOM     55  C   UNL A   1      37.256  31.736  31.975  1.00  0.00     0.031 C 
ATOM     56  C   UNL A   1      41.582  30.156  35.928  1.00  0.00     0.029 A 
ATOM     57  C   UNL A   1      40.823  30.277  34.776  1.00  0.00     0.049 A 
ATOM     58  H   UNL A   1      41.118  29.389  32.885  1.00  0.00     0.167 HD
ATOM     59  C   UNL A   1      38.939  31.106  33.399  1.00  0.00     0.074 A 
ATOM     60  C   UNL A   1      37.731  31.881  33.205  1.00  0.00     0.031 C 
ATOM     61  C   UNL A   1      39.622  31.041  34.568  1.00  0.00     0.031 A 
BRANCH  48  62
ATOM     62  C   UNL A   1      44.582  27.375  34.341  1.00  0.00    -0.014 A 
ATOM     63  C   UNL A   1      45.854  27.967  34.314  1.00  0.00     0.009 A 
ATOM     64  C   UNL A   1      44.396  26.189  35.065  1.00  0.00     0.009 A 
ATOM     65  C   UNL A   1      46.926  27.365  34.976  1.00  0.00     0.001 A 
ATOM     66  C   UNL A   1      45.464  25.600  35.742  1.00  0.00     0.001 A 
ATOM     67  C   UNL A   1      46.730  26.183  35.690  1.00  0.00     0.000 A 
ENDBRANCH  48  62
BRANCH  49  68
ATOM     68  C   UNL A   1      36.952  31.106  29.148  1.00  0.00    -0.014 A 
ATOM     69  C   UNL A   1      35.844  30.313  28.813  1.00  0.00     0.009 A 
ATOM     70  C   UNL A   1      36.980  32.446  28.733  1.00  0.00     0.009 A 
ATOM     71  C   UNL A   1      34.796  30.846  28.059  1.00  0.00     0.001 A 
ATOM     72  C   UNL A   1      35.922  32.981  27.997  1.00  0.00     0.001 A 
ATOM     73  C   UNL A   1      34.835  32.180  27.655  1.00  0.00     0.000 A 
ENDBRANCH  49  68
BRANCH  61  74
ATOM     74  C   UNL A   1      39.097  31.854  35.715  1.00  0.00    -0.014 A 
ATOM     75  C   UNL A   1      38.216  31.298  36.655  1.00  0.00     0.009 A 
ATOM     76  C   UNL A   1      39.519  33.182  35.876  1.00  0.00     0.009 A 
ATOM     77  C   UNL A   1      37.744  32.070  37.719  1.00  0.00     0.001 A 
ATOM     78  C   UNL A   1      39.062  33.944  36.953  1.00  0.00     0.001 A 
ATOM     79  C   UNL A   1      38.169  33.390  37.868  1.00  0.00     0.000 A 
ENDBRANCH  61  74
ENDBRANCH  35  36
ENDBRANCH  28  30
ENDBRANCH  27  28
ENDBRANCH  26  27
ENDBRANCH  25  26
ENDBRANCH  24  25
ENDBRANCH   1  24
TORSDOF 18
ENDMDL
MODEL 2
REMARK VINA RESULT:     -10.1      3.696      9.498
REMARK SMILES CC(C)(C)OC(=O)N1CC(Cc2ccc(C(=O)OCCOCCOC(=O)c3ccc(-c4c5nc(c(-c6ccccc6)c6ccc([nH]6)c(-c6ccccc6)c6nc(c(-c7ccccc7)c7ccc4[nH]7)C=C6)C=C5)cc3)cc2)C1
REMARK SMILES IDX 20 1 19 2 18 3 16 4 17 5 15 6 12 7 13 8 76 9 14 10 75 11
REMARK SMILES IDX 11 12 10 13 6 14 7 15 8 16 9 17 77 18 5 19 2 20 1 21 3 22
REMARK SMILES IDX 4 23 21 24 22 25 23 26 24 27 25 28 26 29 27 30 28 31 74 32
REMARK SMILES IDX 29 33 73 34 30 35 31 36 32 37 67 38 33 39 72 40 66 41 68 42
REMARK SMILES IDX 34 43 71 44 65 45 64 46 35 48 57 49 42 50 56 51 43 52 46 53
REMARK SMILES IDX 55 54 69 55 44 56 45 57 54 59 70 60 47 61 36 62 37 63 41 64
REMARK SMILES IDX 38 65 40 66 39 67 58 68 59 69 63 70 60 71 62 72 61 73 48 74
REMARK SMILES IDX 49 75 53 76 50 77 52 78 51 79
REMARK H PARENT 68 47 46 58
REMARK Flexibility Score: inf
ROOT
ATOM      1  C   UNL A   1      34.374  32.632  29.073  1.00  0.00     0.202 C 
ENDROOT
BRANCH   1   2
ATOM      2  C   UNL A   1      34.380  31.900  27.730  1.00  0.00     0.261 C 
BRANCH   2   3
ATOM      3  O   UNL A   1      33.394  30.854  27.739  1.00  0.00    -0.460 OA
BRANCH   3   4
ATOM      4  C   UNL A   1      32.274  31.103  27.020  1.00  0.00     0.338 C 
ATOM      5  O   UNL A   1      31.733  32.187  26.868  1.00  0.00    -0.246 OA
BRANCH   4   6
ATOM      6  C   UNL A   1      31.817  29.871  26.331  1.00  0.00     0.060 A 
ATOM      7  C   UNL A   1      31.065  27.452  25.122  1.00  0.00    -0.048 A 
ATOM      8  C   UNL A   1      31.431  27.482  26.472  1.00  0.00     0.004 A 
ATOM      9  C   UNL A   1      31.027  28.653  24.396  1.00  0.00     0.004 A 
ATOM     10  C   UNL A   1      31.804  28.683  27.072  1.00  0.00     0.016 A 
ATOM     11  C   UNL A   1      31.405  29.858  24.993  1.00  0.00     0.016 A 
BRANCH   7  12
ATOM     12  C   UNL A   1      30.808  26.133  24.433  1.00  0.00     0.042 C 
BRANCH  12  13
ATOM     13  C   UNL A   1      32.110  25.348  24.384  1.00  0.00     0.033 C 
ATOM     14  C   UNL A   1      34.123  22.954  23.377  1.00  0.00     0.410 C 
ATOM     15  O   UNL A   1      35.030  23.260  22.610  1.00  0.00    -0.224 OA
ATOM     16  N   UNL A   1      33.024  23.729  23.568  1.00  0.00    -0.307 N 
ATOM     17  C   UNL A   1      32.655  25.002  22.984  1.00  0.00     0.128 C 
ATOM     18  C   UNL A   1      32.061  23.817  24.645  1.00  0.00     0.128 C 
BRANCH  14  19
ATOM     19  O   UNL A   1      34.069  21.824  24.123  1.00  0.00    -0.444 OA
BRANCH  19  20
ATOM     20  C   UNL A   1      34.843  21.682  25.346  1.00  0.00     0.106 C 
ATOM     21  C   UNL A   1      35.947  20.671  25.000  1.00  0.00     0.056 C 
ATOM     22  C   UNL A   1      33.946  21.097  26.438  1.00  0.00     0.056 C 
ATOM     23  C   UNL A   1      35.518  22.981  25.810  1.00  0.00     0.056 C 
ENDBRANCH  19  20
ENDBRANCH  14  19
ENDBRANCH  12  13
ENDBRANCH   7  12
ENDBRANCH   4   6
ENDBRANCH   3   4
ENDBRANCH   2   3
ENDBRANCH   1   2
BRANCH   1  24
ATOM     24  O   UNL A   1      34.600  34.039  28.963  1.00  0.00    -0.374 OA
BRANCH  24  25
ATOM     25  C   UNL A   1      33.471  34.824  28.567  1.00  0.00     0.202 C 
BRANCH  25  26
ATOM     26  C   UNL A   1      32.958  35.762  29.663  1.00  0.00     0.261 C 
BRANCH  26  27
ATOM     27  O   UNL A   1      32.528  35.002  30.810  1.00  0.00    -0.460 OA
BRANCH  27  28
ATOM     28  C   UNL A   1      32.824  35.559  32.007  1.00  0.00     0.338 C 
ATOM     29  O   UNL A   1      32.167  36.383  32.622  1.00  0.00    -0.246 OA
BRANCH  28  30
ATOM     30  C   UNL A   1      34.017  34.906  32.585  1.00  0.00     0.060 A 
ATOM     31  C   UNL A   1      35.242  35.566  32.428  1.00  0.00     0.016 A 
ATOM     32  C   UNL A   1      33.962  33.658  33.214  1.00  0.00     0.016 A 
ATOM     33  C   UNL A   1      36.422  34.952  32.837  1.00  0.00     0.010 A 
ATOM     34  C   UNL A   1      35.152  33.039  33.620  1.00  0.00     0.010 A 
ATOM     35  C   UNL A   1      36.388  33.667  33.393  1.00  0.00    -0.014 A 
BRANCH  35  36
ATOM     36  C   UNL A   1      37.663  32.927  33.557  1.00  0.00     0.031 A 
ATOM     37  C   UNL A   1      38.467  33.141  34.811  1.00  0.00     0.074 A 
ATOM     38  C   UNL A   1      38.067  32.027  32.645  1.00  0.00     0.049 A 
ATOM     39  N   UNL A   1      39.556  32.537  35.210  1.00  0.00    -0.248 NA
ATOM     40  C   UNL A   1      37.971  34.170  35.742  1.00  0.00     0.031 C 
ATOM     41  C   UNL A   1      37.366  31.702  31.405  1.00  0.00     0.029 A 
ATOM     42  N   UNL A   1      39.169  31.209  32.637  1.00  0.00    -0.354 N 
ATOM     43  C   UNL A   1      39.874  33.105  36.437  1.00  0.00     0.074 A 
ATOM     44  C   UNL A   1      38.881  34.125  36.702  1.00  0.00     0.031 C 
ATOM     45  C   UNL A   1      38.053  30.743  30.757  1.00  0.00     0.029 A 
ATOM     46  C   UNL A   1      39.243  30.399  31.532  1.00  0.00     0.049 A 
ATOM     47  H   UNL A   1      39.842  31.204  33.356  1.00  0.00     0.167 HD
ATOM     48  C   UNL A   1      40.891  32.803  37.276  1.00  0.00     0.031 A 
ATOM     49  C   UNL A   1      40.166  29.480  31.188  1.00  0.00     0.031 A 
ATOM     50  C   UNL A   1      41.890  31.803  37.018  1.00  0.00     0.049 A 
ATOM     51  C   UNL A   1      41.322  29.202  32.110  1.00  0.00     0.074 A 
ATOM     52  C   UNL A   1      42.952  31.415  37.817  1.00  0.00     0.029 A 
ATOM     53  N   UNL A   1      41.955  31.038  35.865  1.00  0.00    -0.354 N 
ATOM     54  N   UNL A   1      41.585  29.718  33.286  1.00  0.00    -0.248 NA
ATOM     55  C   UNL A   1      42.301  28.203  31.658  1.00  0.00     0.031 C 
ATOM     56  C   UNL A   1      43.684  30.441  37.127  1.00  0.00     0.029 A 
ATOM     57  C   UNL A   1      43.052  30.196  35.919  1.00  0.00     0.049 A 
ATOM     58  H   UNL A   1      41.316  31.087  35.117  1.00  0.00     0.167 HD
ATOM     59  C   UNL A   1      42.741  29.087  33.727  1.00  0.00     0.074 A 
ATOM     60  C   UNL A   1      43.125  28.146  32.695  1.00  0.00     0.031 C 
ATOM     61  C   UNL A   1      43.421  29.266  34.885  1.00  0.00     0.031 A 
BRANCH  48  62
ATOM     62  C   UNL A   1      40.983  33.593  38.549  1.00  0.00    -0.014 A 
ATOM     63  C   UNL A   1      41.715  34.788  38.608  1.00  0.00     0.009 A 
ATOM     64  C   UNL A   1      40.322  33.139  39.700  1.00  0.00     0.009 A 
ATOM     65  C   UNL A   1      41.808  35.500  39.806  1.00  0.00     0.001 A 
ATOM     66  C   UNL A   1      40.399  33.863  40.890  1.00  0.00     0.001 A 
ATOM     67  C   UNL A   1      41.149  35.037  40.945  1.00  0.00     0.000 A 
ENDBRANCH  48  62
BRANCH  49  68
ATOM     68  C   UNL A   1      40.035  28.740  29.909  1.00  0.00    -0.014 A 
ATOM     69  C   UNL A   1      40.504  29.297  28.710  1.00  0.00     0.009 A 
ATOM     70  C   UNL A   1      39.418  27.480  29.879  1.00  0.00     0.009 A 
ATOM     71  C   UNL A   1      40.339  28.614  27.502  1.00  0.00     0.001 A 
ATOM     72  C   UNL A   1      39.273  26.791  28.673  1.00  0.00     0.001 A 
ATOM     73  C   UNL A   1      39.727  27.362  27.487  1.00  0.00     0.000 A 
ENDBRANCH  49  68
BRANCH  61  74
ATOM     74  C   UNL A   1      44.629  28.405  35.112  1.00  0.00    -0.014 A 
ATOM     75  C   UNL A   1      44.510  27.114  35.648  1.00  0.00     0.009 A 
ATOM     76  C   UNL A   1      45.899  28.880  34.751  1.00  0.00     0.009 A 
ATOM     77  C   UNL A   1      45.646  26.326  35.846  1.00  0.00     0.001 A 
ATOM     78  C   UNL A   1      47.031  28.083  34.930  1.00  0.00     0.001 A 
ATOM     79  C   UNL A   1      46.904  26.810  35.485  1.00  0.00     0.000 A 
ENDBRANCH  61  74
ENDBRANCH  35  36
ENDBRANCH  28  30
ENDBRANCH  27  28
ENDBRANCH  26  27
ENDBRANCH  25  26
ENDBRANCH  24  25
ENDBRANCH   1  24
TORSDOF 18
ENDMDL
MODEL 3
REMARK VINA RESULT:      -9.9      3.825     10.037
REMARK SMILES CC(C)(C)OC(=O)N1CC(Cc2ccc(C(=O)OCCOCCOC(=O)c3ccc(-c4c5nc(c(-c6ccccc6)c6ccc([nH]6)c(-c6ccccc6)c6nc(c(-c7ccccc7)c7ccc4[nH]7)C=C6)C=C5)cc3)cc2)C1
REMARK SMILES IDX 20 1 19 2 18 3 16 4 17 5 15 6 12 7 13 8 76 9 14 10 75 11
REMARK SMILES IDX 11 12 10 13 6 14 7 15 8 16 9 17 77 18 5 19 2 20 1 21 3 22
REMARK SMILES IDX 4 23 21 24 22 25 23 26 24 27 25 28 26 29 27 30 28 31 74 32
REMARK SMILES IDX 29 33 73 34 30 35 31 36 32 37 67 38 33 39 72 40 66 41 68 42
REMARK SMILES IDX 34 43 71 44 65 45 64 46 35 48 57 49 42 50 56 51 43 52 46 53
REMARK SMILES IDX 55 54 69 55 44 56 45 57 54 59 70 60 47 61 36 62 37 63 41 64
REMARK SMILES IDX 38 65 40 66 39 67 58 68 59 69 63 70 60 71 62 72 61 73 48 74
REMARK SMILES IDX 49 75 53 76 50 77 52 78 51 79
REMARK H PARENT 68 47 46 58
REMARK Flexibility Score: inf
ROOT
ATOM      1  C   UNL A   1      34.761  32.369  29.194  1.00  0.00     0.202 C 
ENDROOT
BRANCH   1   2
ATOM      2  C   UNL A   1      34.639  31.802  27.778  1.00  0.00     0.261 C 
BRANCH   2   3
ATOM      3  O   UNL A   1      33.659  30.751  27.755  1.00  0.00    -0.460 OA
BRANCH   3   4
ATOM      4  C   UNL A   1      32.491  31.057  27.142  1.00  0.00     0.338 C 
ATOM      5  O   UNL A   1      31.979  32.161  27.062  1.00  0.00    -0.246 OA
BRANCH   4   6
ATOM      6  C   UNL A   1      31.931  29.859  26.469  1.00  0.00     0.060 A 
ATOM      7  C   UNL A   1      30.982  27.497  25.287  1.00  0.00    -0.048 A 
ATOM      8  C   UNL A   1      31.386  27.501  26.626  1.00  0.00     0.004 A 
ATOM      9  C   UNL A   1      31.006  28.697  24.559  1.00  0.00     0.004 A 
ATOM     10  C   UNL A   1      31.858  28.675  27.213  1.00  0.00     0.016 A 
ATOM     11  C   UNL A   1      31.482  29.873  25.143  1.00  0.00     0.016 A 
BRANCH   7  12
ATOM     12  C   UNL A   1      30.616  26.198  24.608  1.00  0.00     0.042 C 
BRANCH  12  13
ATOM     13  C   UNL A   1      31.893  25.516  24.140  1.00  0.00     0.033 C 
ATOM     14  C   UNL A   1      33.717  23.017  23.036  1.00  0.00     0.410 C 
ATOM     15  O   UNL A   1      34.068  23.045  21.861  1.00  0.00    -0.224 OA
ATOM     16  N   UNL A   1      32.682  23.753  23.516  1.00  0.00    -0.307 N 
ATOM     17  C   UNL A   1      31.796  24.683  22.846  1.00  0.00     0.128 C 
ATOM     18  C   UNL A   1      32.332  24.204  24.846  1.00  0.00     0.128 C 
BRANCH  14  19
ATOM     19  O   UNL A   1      34.281  22.260  24.009  1.00  0.00    -0.444 OA
BRANCH  19  20
ATOM     20  C   UNL A   1      35.668  22.444  24.408  1.00  0.00     0.106 C 
ATOM     21  C   UNL A   1      36.140  21.051  24.851  1.00  0.00     0.056 C 
ATOM     22  C   UNL A   1      35.721  23.399  25.602  1.00  0.00     0.056 C 
ATOM     23  C   UNL A   1      36.585  22.916  23.271  1.00  0.00     0.056 C 
ENDBRANCH  19  20
ENDBRANCH  14  19
ENDBRANCH  12  13
ENDBRANCH   7  12
ENDBRANCH   4   6
ENDBRANCH   3   4
ENDBRANCH   2   3
ENDBRANCH   1   2
BRANCH   1  24
ATOM     24  O   UNL A   1      35.024  33.773  29.232  1.00  0.00    -0.374 OA
BRANCH  24  25
ATOM     25  C   UNL A   1      34.127  34.597  28.481  1.00  0.00     0.202 C 
BRANCH  25  26
ATOM     26  C   UNL A   1      33.348  35.600  29.337  1.00  0.00     0.261 C 
BRANCH  26  27
ATOM     27  O   UNL A   1      32.761  34.936  30.474  1.00  0.00    -0.460 OA
BRANCH  27  28
ATOM     28  C   UNL A   1      32.936  35.568  31.657  1.00  0.00     0.338 C 
ATOM     29  O   UNL A   1      32.248  36.459  32.129  1.00  0.00    -0.246 OA
BRANCH  28  30
ATOM     30  C   UNL A   1      34.020  34.916  32.421  1.00  0.00     0.060 A 
ATOM     31  C   UNL A   1      35.261  35.563  32.442  1.00  0.00     0.016 A 
ATOM     32  C   UNL A   1      33.856  33.680  33.054  1.00  0.00     0.016 A 
ATOM     33  C   UNL A   1      36.359  34.947  33.036  1.00  0.00     0.010 A 
ATOM     34  C   UNL A   1      34.963  33.059  33.647  1.00  0.00     0.010 A 
ATOM     35  C   UNL A   1      36.227  33.672  33.600  1.00  0.00    -0.014 A 
BRANCH  35  36
ATOM     36  C   UNL A   1      37.454  32.926  33.969  1.00  0.00     0.031 A 
ATOM     37  C   UNL A   1      38.017  31.930  32.991  1.00  0.00     0.074 A 
ATOM     38  C   UNL A   1      38.100  33.176  35.120  1.00  0.00     0.049 A 
ATOM     39  N   UNL A   1      39.124  31.236  33.059  1.00  0.00    -0.248 NA
ATOM     40  C   UNL A   1      37.228  31.690  31.770  1.00  0.00     0.031 C 
ATOM     41  C   UNL A   1      37.681  34.137  36.138  1.00  0.00     0.029 A 
ATOM     42  N   UNL A   1      39.264  32.645  35.615  1.00  0.00    -0.354 N 
ATOM     43  C   UNL A   1      39.168  30.484  31.893  1.00  0.00     0.074 A 
ATOM     44  C   UNL A   1      37.962  30.781  31.149  1.00  0.00     0.031 C 
ATOM     45  C   UNL A   1      38.582  34.134  37.137  1.00  0.00     0.029 A 
ATOM     46  C   UNL A   1      39.632  33.164  36.831  1.00  0.00     0.049 A 
ATOM     47  H   UNL A   1      39.787  31.956  35.142  1.00  0.00     0.167 HD
ATOM     48  C   UNL A   1      40.128  29.630  31.468  1.00  0.00     0.031 A 
ATOM     49  C   UNL A   1      40.698  32.889  37.608  1.00  0.00     0.031 A 
ATOM     50  C   UNL A   1      41.322  29.317  32.203  1.00  0.00     0.049 A 
ATOM     51  C   UNL A   1      41.723  31.892  37.141  1.00  0.00     0.074 A 
ATOM     52  C   UNL A   1      42.361  28.474  31.846  1.00  0.00     0.029 A 
ATOM     53  N   UNL A   1      41.632  29.829  33.453  1.00  0.00    -0.354 N 
ATOM     54  N   UNL A   1      41.772  31.220  36.016  1.00  0.00    -0.248 NA
ATOM     55  C   UNL A   1      42.847  31.626  38.051  1.00  0.00     0.031 C 
ATOM     56  C   UNL A   1      43.282  28.446  32.900  1.00  0.00     0.029 A 
ATOM     57  C   UNL A   1      42.835  29.303  33.892  1.00  0.00     0.049 A 
ATOM     58  H   UNL A   1      41.079  30.471  33.954  1.00  0.00     0.167 HD
ATOM     59  C   UNL A   1      42.945  30.476  36.070  1.00  0.00     0.074 A 
ATOM     60  C   UNL A   1      43.579  30.784  37.336  1.00  0.00     0.031 C 
ATOM     61  C   UNL A   1      43.453  29.619  35.153  1.00  0.00     0.031 A 
BRANCH  48  62
ATOM     62  C   UNL A   1      39.903  28.952  30.148  1.00  0.00    -0.014 A 
ATOM     63  C   UNL A   1      40.212  29.597  28.941  1.00  0.00     0.009 A 
ATOM     64  C   UNL A   1      39.383  27.650  30.113  1.00  0.00     0.009 A 
ATOM     65  C   UNL A   1      39.976  28.961  27.721  1.00  0.00     0.001 A 
ATOM     66  C   UNL A   1      39.167  27.009  28.893  1.00  0.00     0.001 A 
ATOM     67  C   UNL A   1      39.455  27.667  27.698  1.00  0.00     0.000 A 
ENDBRANCH  48  62
BRANCH  49  68
ATOM     68  C   UNL A   1      40.862  33.577  38.912  1.00  0.00    -0.014 A 
ATOM     69  C   UNL A   1      40.288  33.046  40.076  1.00  0.00     0.009 A 
ATOM     70  C   UNL A   1      41.577  34.781  38.992  1.00  0.00     0.009 A 
ATOM     71  C   UNL A   1      40.410  33.720  41.294  1.00  0.00     0.001 A 
ATOM     72  C   UNL A   1      41.714  35.442  40.215  1.00  0.00     0.001 A 
ATOM     73  C   UNL A   1      41.124  34.915  41.361  1.00  0.00     0.000 A 
ENDBRANCH  49  68
BRANCH  61  74
ATOM     74  C   UNL A   1      44.774  28.979  35.468  1.00  0.00    -0.014 A 
ATOM     75  C   UNL A   1      44.842  27.743  36.128  1.00  0.00     0.009 A 
ATOM     76  C   UNL A   1      45.963  29.606  35.068  1.00  0.00     0.009 A 
ATOM     77  C   UNL A   1      46.081  27.162  36.408  1.00  0.00     0.001 A 
ATOM     78  C   UNL A   1      47.199  29.013  35.329  1.00  0.00     0.001 A 
ATOM     79  C   UNL A   1      47.257  27.795  36.006  1.00  0.00     0.000 A 
ENDBRANCH  61  74
ENDBRANCH  35  36
ENDBRANCH  28  30
ENDBRANCH  27  28
ENDBRANCH  26  27
ENDBRANCH  25  26
ENDBRANCH  24  25
ENDBRANCH   1  24
TORSDOF 18
ENDMDL
