MODEL 1
REMARK VINA RESULT:     -10.1      0.000      0.000
REMARK SMILES O=C(OCCOCCOC(=O)[C@@H]1CSCN1C(=O)c1cccc(Cl)c1)c1ccc(-c2c3nc(c(-c4ccccc4)c4ccc([nH]4)c(-c4ccccc4)c4nc(c(-c5ccccc5)c5ccc2[nH]5)C=C4)C=C3)cc1
REMARK SMILES IDX 6 1 5 2 4 3 3 4 2 5 1 6 26 7 27 8 73 9 28 10 72 11 29 12
REMARK SMILES IDX 30 13 31 14 66 15 32 16 71 17 65 18 67 19 33 20 70 21 64 22
REMARK SMILES IDX 63 23 34 25 56 26 41 27 55 28 42 29 45 30 54 31 68 32 43 33
REMARK SMILES IDX 44 34 53 36 69 37 46 38 35 39 36 40 40 41 37 42 39 43 38 44
REMARK SMILES IDX 57 45 58 46 62 47 59 48 61 49 60 50 47 51 48 52 52 53 49 54
REMARK SMILES IDX 51 55 50 56 7 57 8 58 9 59 10 60 11 61 12 62 13 63 16 64
REMARK SMILES IDX 14 65 15 66 17 67 18 68 19 69 20 70 25 71 21 72 23 73 22 74
REMARK SMILES IDX 24 75
REMARK H PARENT 67 24 45 35
REMARK Flexibility Score: inf
ROOT
ATOM      1  O   UNL A   1      33.471  30.529  27.514  1.00  0.00    -0.374 OA
ENDROOT
BRANCH   1   2
ATOM      2  C   UNL A   1      32.430  31.084  26.717  1.00  0.00     0.202 C 
BRANCH   2   3
ATOM      3  C   UNL A   1      31.741  32.308  27.310  1.00  0.00     0.261 C 
BRANCH   3   4
ATOM      4  O   UNL A   1      32.612  33.448  27.250  1.00  0.00    -0.460 OA
BRANCH   4   5
ATOM      5  C   UNL A   1      33.061  34.161  28.310  1.00  0.00     0.338 C 
ATOM      6  O   UNL A   1      32.446  35.146  28.700  1.00  0.00    -0.246 OA
BRANCH   5   7
ATOM      7  C   UNL A   1      34.288  33.755  29.041  1.00  0.00     0.060 A 
ATOM      8  C   UNL A   1      34.287  32.757  30.014  1.00  0.00     0.016 A 
ATOM      9  C   UNL A   1      35.505  34.324  28.660  1.00  0.00     0.016 A 
ATOM     10  C   UNL A   1      35.437  32.380  30.672  1.00  0.00     0.010 A 
ATOM     11  C   UNL A   1      36.692  33.882  29.251  1.00  0.00     0.010 A 
ATOM     12  C   UNL A   1      36.652  32.901  30.253  1.00  0.00    -0.014 A 
BRANCH  12  13
ATOM     13  C   UNL A   1      37.866  32.383  30.894  1.00  0.00     0.031 A 
ATOM     14  C   UNL A   1      38.600  31.268  30.234  1.00  0.00     0.074 A 
ATOM     15  C   UNL A   1      38.325  32.991  32.005  1.00  0.00     0.049 A 
ATOM     16  N   UNL A   1      39.589  30.554  30.691  1.00  0.00    -0.248 NA
ATOM     17  C   UNL A   1      38.163  30.906  28.874  1.00  0.00     0.031 C 
ATOM     18  C   UNL A   1      37.733  34.184  32.626  1.00  0.00     0.029 A 
ATOM     19  N   UNL A   1      39.402  32.710  32.797  1.00  0.00    -0.354 N 
ATOM     20  C   UNL A   1      39.850  29.614  29.705  1.00  0.00     0.074 A 
ATOM     21  C   UNL A   1      38.938  29.864  28.613  1.00  0.00     0.031 C 
ATOM     22  C   UNL A   1      38.470  34.541  33.688  1.00  0.00     0.029 A 
ATOM     23  C   UNL A   1      39.513  33.544  33.884  1.00  0.00     0.049 A 
ATOM     24  H   UNL A   1      40.037  31.981  32.608  1.00  0.00     0.167 HD
ATOM     25  C   UNL A   1      40.757  28.613  29.746  1.00  0.00     0.031 A 
ATOM     26  C   UNL A   1      40.322  33.459  34.953  1.00  0.00     0.031 A 
ATOM     27  C   UNL A   1      41.642  28.411  30.858  1.00  0.00     0.049 A 
ATOM     28  C   UNL A   1      41.256  32.283  35.013  1.00  0.00     0.074 A 
ATOM     29  C   UNL A   1      42.580  27.417  31.051  1.00  0.00     0.029 A 
ATOM     30  N   UNL A   1      41.687  29.237  31.976  1.00  0.00    -0.354 N 
ATOM     31  N   UNL A   1      41.460  31.349  34.114  1.00  0.00    -0.248 NA
ATOM     32  C   UNL A   1      42.041  32.126  36.241  1.00  0.00     0.031 C 
ATOM     33  C   UNL A   1      43.155  27.611  32.311  1.00  0.00     0.029 A 
ATOM     34  C   UNL A   1      42.615  28.757  32.879  1.00  0.00     0.049 A 
ATOM     35  H   UNL A   1      41.139  30.044  32.104  1.00  0.00     0.167 HD
ATOM     36  C   UNL A   1      42.400  30.493  34.664  1.00  0.00     0.074 A 
ATOM     37  C   UNL A   1      42.747  31.038  35.962  1.00  0.00     0.031 C 
ATOM     38  C   UNL A   1      42.923  29.350  34.155  1.00  0.00     0.031 A 
BRANCH  25  39
ATOM     39  C   UNL A   1      40.740  27.628  28.615  1.00  0.00    -0.014 A 
ATOM     40  C   UNL A   1      41.551  27.780  27.480  1.00  0.00     0.009 A 
ATOM     41  C   UNL A   1      39.860  26.535  28.680  1.00  0.00     0.009 A 
ATOM     42  C   UNL A   1      41.454  26.875  26.419  1.00  0.00     0.001 A 
ATOM     43  C   UNL A   1      39.784  25.620  27.630  1.00  0.00     0.001 A 
ATOM     44  C   UNL A   1      40.573  25.796  26.496  1.00  0.00     0.000 A 
ENDBRANCH  25  39
BRANCH  26  45
ATOM     45  C   UNL A   1      40.202  34.425  36.079  1.00  0.00    -0.014 A 
ATOM     46  C   UNL A   1      40.941  35.617  36.093  1.00  0.00     0.009 A 
ATOM     47  C   UNL A   1      39.351  34.150  37.164  1.00  0.00     0.009 A 
ATOM     48  C   UNL A   1      40.852  36.495  37.178  1.00  0.00     0.001 A 
ATOM     49  C   UNL A   1      39.237  35.045  38.231  1.00  0.00     0.001 A 
ATOM     50  C   UNL A   1      39.997  36.211  38.243  1.00  0.00     0.000 A 
ENDBRANCH  26  45
BRANCH  38  51
ATOM     51  C   UNL A   1      43.937  28.643  35.003  1.00  0.00    -0.014 A 
ATOM     52  C   UNL A   1      45.297  28.976  34.929  1.00  0.00     0.009 A 
ATOM     53  C   UNL A   1      43.509  27.683  35.933  1.00  0.00     0.009 A 
ATOM     54  C   UNL A   1      46.216  28.344  35.764  1.00  0.00     0.001 A 
ATOM     55  C   UNL A   1      44.428  27.076  36.785  1.00  0.00     0.001 A 
ATOM     56  C   UNL A   1      45.781  27.401  36.695  1.00  0.00     0.000 A 
ENDBRANCH  38  51
ENDBRANCH  12  13
ENDBRANCH   5   7
ENDBRANCH   4   5
ENDBRANCH   3   4
ENDBRANCH   2   3
ENDBRANCH   1   2
BRANCH   1  57
ATOM     57  C   UNL A   1      33.529  29.095  27.583  1.00  0.00     0.202 C 
BRANCH  57  58
ATOM     58  C   UNL A   1      34.314  28.600  26.374  1.00  0.00     0.261 C 
BRANCH  58  59
ATOM     59  O   UNL A   1      33.508  27.578  25.779  1.00  0.00    -0.462 OA
BRANCH  59  60
ATOM     60  C   UNL A   1      32.634  28.016  24.828  1.00  0.00     0.329 C 
ATOM     61  O   UNL A   1      32.900  28.785  23.910  1.00  0.00    -0.250 OA
BRANCH  60  62
ATOM     62  C   UNL A   1      31.252  27.415  25.082  1.00  0.00     0.206 C 
ATOM     63  C   UNL A   1      31.295  26.493  26.303  1.00  0.00     0.108 C 
ATOM     64  N   UNL A   1      30.917  26.643  23.896  1.00  0.00    -0.315 N 
ATOM     65  S   UNL A   1      30.765  24.857  25.741  1.00  0.00    -0.138 SA
ATOM     66  C   UNL A   1      31.181  25.227  24.031  1.00  0.00     0.191 C 
BRANCH  64  67
ATOM     67  C   UNL A   1      30.584  27.343  22.753  1.00  0.00     0.255 C 
ATOM     68  O   UNL A   1      31.094  27.155  21.660  1.00  0.00    -0.269 OA
BRANCH  67  69
ATOM     69  C   UNL A   1      29.491  28.311  22.853  1.00  0.00     0.041 A 
ATOM     70  C   UNL A   1      28.221  27.886  23.243  1.00  0.00     0.014 A 
ATOM     71  C   UNL A   1      29.754  29.637  22.512  1.00  0.00     0.034 A 
ATOM     72  C   UNL A   1      27.172  28.797  23.232  1.00  0.00     0.002 A 
ATOM     73  C   UNL A   1      28.701  30.541  22.519  1.00  0.00     0.041 A 
ATOM     74  C   UNL A   1      27.412  30.124  22.863  1.00  0.00     0.020 A 
ATOM     75  Cl  UNL A   1      28.982  32.179  22.076  1.00  0.00    -0.084 Cl
ENDBRANCH  67  69
ENDBRANCH  64  67
ENDBRANCH  60  62
ENDBRANCH  59  60
ENDBRANCH  58  59
ENDBRANCH  57  58
ENDBRANCH   1  57
TORSDOF 16
ENDMDL
MODEL 2
REMARK VINA RESULT:     -10.0      5.945      9.962
REMARK SMILES O=C(OCCOCCOC(=O)[C@@H]1CSCN1C(=O)c1cccc(Cl)c1)c1ccc(-c2c3nc(c(-c4ccccc4)c4ccc([nH]4)c(-c4ccccc4)c4nc(c(-c5ccccc5)c5ccc2[nH]5)C=C4)C=C3)cc1
REMARK SMILES IDX 6 1 5 2 4 3 3 4 2 5 1 6 26 7 27 8 73 9 28 10 72 11 29 12
REMARK SMILES IDX 30 13 31 14 66 15 32 16 71 17 65 18 67 19 33 20 70 21 64 22
REMARK SMILES IDX 63 23 34 25 56 26 41 27 55 28 42 29 45 30 54 31 68 32 43 33
REMARK SMILES IDX 44 34 53 36 69 37 46 38 35 39 36 40 40 41 37 42 39 43 38 44
REMARK SMILES IDX 57 45 58 46 62 47 59 48 61 49 60 50 47 51 48 52 52 53 49 54
REMARK SMILES IDX 51 55 50 56 7 57 8 58 9 59 10 60 11 61 12 62 13 63 16 64
REMARK SMILES IDX 14 65 15 66 17 67 18 68 19 69 20 70 25 71 21 72 23 73 22 74
REMARK SMILES IDX 24 75
REMARK H PARENT 67 24 45 35
REMARK Flexibility Score: inf
ROOT
ATOM      1  O   UNL A   1      36.980  20.380  24.979  1.00  0.00    -0.374 OA
ENDROOT
BRANCH   1   2
ATOM      2  C   UNL A   1      38.149  19.570  24.910  1.00  0.00     0.202 C 
BRANCH   2   3
ATOM      3  C   UNL A   1      39.292  20.000  25.823  1.00  0.00     0.261 C 
BRANCH   3   4
ATOM      4  O   UNL A   1      40.370  19.055  25.751  1.00  0.00    -0.460 OA
BRANCH   4   5
ATOM      5  C   UNL A   1      41.654  19.285  26.113  1.00  0.00     0.338 C 
ATOM      6  O   UNL A   1      42.449  18.356  26.202  1.00  0.00    -0.246 OA
BRANCH   5   7
ATOM      7  C   UNL A   1      42.138  20.661  26.384  1.00  0.00     0.060 A 
ATOM      8  C   UNL A   1      42.355  21.594  25.371  1.00  0.00     0.016 A 
ATOM      9  C   UNL A   1      42.278  21.066  27.713  1.00  0.00     0.016 A 
ATOM     10  C   UNL A   1      42.788  22.874  25.640  1.00  0.00     0.010 A 
ATOM     11  C   UNL A   1      42.624  22.388  28.003  1.00  0.00     0.010 A 
ATOM     12  C   UNL A   1      42.870  23.293  26.959  1.00  0.00    -0.014 A 
BRANCH  12  13
ATOM     13  C   UNL A   1      43.215  24.698  27.202  1.00  0.00     0.031 A 
ATOM     14  C   UNL A   1      44.627  25.130  27.010  1.00  0.00     0.074 A 
ATOM     15  C   UNL A   1      42.229  25.565  27.502  1.00  0.00     0.049 A 
ATOM     16  N   UNL A   1      45.185  26.266  27.316  1.00  0.00    -0.248 NA
ATOM     17  C   UNL A   1      45.535  24.151  26.387  1.00  0.00     0.031 C 
ATOM     18  C   UNL A   1      40.798  25.237  27.565  1.00  0.00     0.029 A 
ATOM     19  N   UNL A   1      42.270  26.902  27.786  1.00  0.00    -0.354 N 
ATOM     20  C   UNL A   1      46.524  26.118  26.988  1.00  0.00     0.074 A 
ATOM     21  C   UNL A   1      46.692  24.795  26.431  1.00  0.00     0.031 C 
ATOM     22  C   UNL A   1      40.101  26.348  27.847  1.00  0.00     0.029 A 
ATOM     23  C   UNL A   1      41.040  27.433  28.091  1.00  0.00     0.049 A 
ATOM     24  H   UNL A   1      43.100  27.432  27.774  1.00  0.00     0.167 HD
ATOM     25  C   UNL A   1      47.518  27.013  27.177  1.00  0.00     0.031 A 
ATOM     26  C   UNL A   1      40.725  28.642  28.585  1.00  0.00     0.031 A 
ATOM     27  C   UNL A   1      47.295  28.317  27.734  1.00  0.00     0.049 A 
ATOM     28  C   UNL A   1      41.862  29.582  28.871  1.00  0.00     0.074 A 
ATOM     29  C   UNL A   1      48.213  29.309  28.018  1.00  0.00     0.029 A 
ATOM     30  N   UNL A   1      46.043  28.805  28.093  1.00  0.00    -0.354 N 
ATOM     31  N   UNL A   1      43.142  29.423  28.626  1.00  0.00    -0.248 NA
ATOM     32  C   UNL A   1      41.523  30.847  29.530  1.00  0.00     0.031 C 
ATOM     33  C   UNL A   1      47.522  30.376  28.601  1.00  0.00     0.029 A 
ATOM     34  C   UNL A   1      46.168  30.072  28.628  1.00  0.00     0.049 A 
ATOM     35  H   UNL A   1      45.195  28.319  27.983  1.00  0.00     0.167 HD
ATOM     36  C   UNL A   1      43.764  30.567  29.098  1.00  0.00     0.074 A 
ATOM     37  C   UNL A   1      42.715  31.425  29.615  1.00  0.00     0.031 C 
ATOM     38  C   UNL A   1      45.082  30.882  29.120  1.00  0.00     0.031 A 
BRANCH  25  39
ATOM     39  C   UNL A   1      48.916  26.555  26.881  1.00  0.00    -0.014 A 
ATOM     40  C   UNL A   1      49.517  26.754  25.629  1.00  0.00     0.009 A 
ATOM     41  C   UNL A   1      49.633  25.877  27.881  1.00  0.00     0.009 A 
ATOM     42  C   UNL A   1      50.797  26.252  25.375  1.00  0.00     0.001 A 
ATOM     43  C   UNL A   1      50.921  25.399  27.631  1.00  0.00     0.001 A 
ATOM     44  C   UNL A   1      51.497  25.577  26.375  1.00  0.00     0.000 A 
ENDBRANCH  25  39
BRANCH  26  45
ATOM     45  C   UNL A   1      39.320  28.977  28.944  1.00  0.00    -0.014 A 
ATOM     46  C   UNL A   1      38.804  28.675  30.213  1.00  0.00     0.009 A 
ATOM     47  C   UNL A   1      38.474  29.593  28.004  1.00  0.00     0.009 A 
ATOM     48  C   UNL A   1      37.469  28.955  30.522  1.00  0.00     0.001 A 
ATOM     49  C   UNL A   1      37.150  29.904  28.327  1.00  0.00     0.001 A 
ATOM     50  C   UNL A   1      36.645  29.574  29.581  1.00  0.00     0.000 A 
ENDBRANCH  26  45
BRANCH  38  51
ATOM     51  C   UNL A   1      45.442  32.217  29.700  1.00  0.00    -0.014 A 
ATOM     52  C   UNL A   1      45.459  33.369  28.901  1.00  0.00     0.009 A 
ATOM     53  C   UNL A   1      45.698  32.324  31.075  1.00  0.00     0.009 A 
ATOM     54  C   UNL A   1      45.744  34.608  29.470  1.00  0.00     0.001 A 
ATOM     55  C   UNL A   1      45.954  33.569  31.644  1.00  0.00     0.001 A 
ATOM     56  C   UNL A   1      45.983  34.709  30.841  1.00  0.00     0.000 A 
ENDBRANCH  38  51
ENDBRANCH  12  13
ENDBRANCH   5   7
ENDBRANCH   4   5
ENDBRANCH   3   4
ENDBRANCH   2   3
ENDBRANCH   1   2
BRANCH   1  57
ATOM     57  C   UNL A   1      37.182  21.801  24.902  1.00  0.00     0.202 C 
BRANCH  57  58
ATOM     58  C   UNL A   1      36.196  22.358  23.882  1.00  0.00     0.261 C 
BRANCH  58  59
ATOM     59  O   UNL A   1      35.805  23.642  24.380  1.00  0.00    -0.462 OA
BRANCH  59  60
ATOM     60  C   UNL A   1      34.536  23.705  24.876  1.00  0.00     0.329 C 
ATOM     61  O   UNL A   1      34.206  24.229  25.935  1.00  0.00    -0.250 OA
BRANCH  60  62
ATOM     62  C   UNL A   1      33.573  23.003  23.920  1.00  0.00     0.206 C 
ATOM     63  C   UNL A   1      32.754  24.039  23.144  1.00  0.00     0.108 C 
ATOM     64  N   UNL A   1      32.688  22.200  24.747  1.00  0.00    -0.315 N 
ATOM     65  S   UNL A   1      31.013  23.703  23.501  1.00  0.00    -0.138 SA
ATOM     66  C   UNL A   1      31.415  22.833  25.022  1.00  0.00     0.191 C 
BRANCH  64  67
ATOM     67  C   UNL A   1      33.212  21.057  25.318  1.00  0.00     0.255 C 
ATOM     68  O   UNL A   1      33.626  20.991  26.465  1.00  0.00    -0.269 OA
BRANCH  67  69
ATOM     69  C   UNL A   1      33.188  19.834  24.515  1.00  0.00     0.041 A 
ATOM     70  C   UNL A   1      32.372  19.761  23.386  1.00  0.00     0.014 A 
ATOM     71  C   UNL A   1      33.965  18.755  24.935  1.00  0.00     0.034 A 
ATOM     72  C   UNL A   1      32.282  18.559  22.696  1.00  0.00     0.002 A 
ATOM     73  C   UNL A   1      33.878  17.564  24.229  1.00  0.00     0.041 A 
ATOM     74  C   UNL A   1      33.031  17.458  23.123  1.00  0.00     0.020 A 
ATOM     75  Cl  UNL A   1      34.800  16.204  24.736  1.00  0.00    -0.084 Cl
ENDBRANCH  67  69
ENDBRANCH  64  67
ENDBRANCH  60  62
ENDBRANCH  59  60
ENDBRANCH  58  59
ENDBRANCH  57  58
ENDBRANCH   1  57
TORSDOF 16
ENDMDL
MODEL 3
REMARK VINA RESULT:      -9.9      5.144      9.214
REMARK SMILES O=C(OCCOCCOC(=O)[C@@H]1CSCN1C(=O)c1cccc(Cl)c1)c1ccc(-c2c3nc(c(-c4ccccc4)c4ccc([nH]4)c(-c4ccccc4)c4nc(c(-c5ccccc5)c5ccc2[nH]5)C=C4)C=C3)cc1
REMARK SMILES IDX 6 1 5 2 4 3 3 4 2 5 1 6 26 7 27 8 73 9 28 10 72 11 29 12
REMARK SMILES IDX 30 13 31 14 66 15 32 16 71 17 65 18 67 19 33 20 70 21 64 22
REMARK SMILES IDX 63 23 34 25 56 26 41 27 55 28 42 29 45 30 54 31 68 32 43 33
REMARK SMILES IDX 44 34 53 36 69 37 46 38 35 39 36 40 40 41 37 42 39 43 38 44
REMARK SMILES IDX 57 45 58 46 62 47 59 48 61 49 60 50 47 51 48 52 52 53 49 54
REMARK SMILES IDX 51 55 50 56 7 57 8 58 9 59 10 60 11 61 12 62 13 63 16 64
REMARK SMILES IDX 14 65 15 66 17 67 18 68 19 69 20 70 25 71 21 72 23 73 22 74
REMARK SMILES IDX 24 75
REMARK H PARENT 67 24 45 35
REMARK Flexibility Score: inf
ROOT
ATOM      1  O   UNL A   1      36.760  20.416  24.743  1.00  0.00    -0.374 OA
ENDROOT
BRANCH   1   2
ATOM      2  C   UNL A   1      37.849  19.527  24.971  1.00  0.00     0.202 C 
BRANCH   2   3
ATOM      3  C   UNL A   1      39.112  20.177  25.525  1.00  0.00     0.261 C 
BRANCH   3   4
ATOM      4  O   UNL A   1      40.099  19.177  25.819  1.00  0.00    -0.460 OA
BRANCH   4   5
ATOM      5  C   UNL A   1      41.410  19.405  26.070  1.00  0.00     0.338 C 
ATOM      6  O   UNL A   1      42.226  18.493  25.982  1.00  0.00    -0.246 OA
BRANCH   5   7
ATOM      7  C   UNL A   1      41.898  20.760  26.427  1.00  0.00     0.060 A 
ATOM      8  C   UNL A   1      42.273  21.700  25.468  1.00  0.00     0.016 A 
ATOM      9  C   UNL A   1      41.878  21.139  27.770  1.00  0.00     0.016 A 
ATOM     10  C   UNL A   1      42.707  22.961  25.816  1.00  0.00     0.010 A 
ATOM     11  C   UNL A   1      42.224  22.445  28.128  1.00  0.00     0.010 A 
ATOM     12  C   UNL A   1      42.631  23.356  27.142  1.00  0.00    -0.014 A 
BRANCH  12  13
ATOM     13  C   UNL A   1      42.984  24.746  27.455  1.00  0.00     0.031 A 
ATOM     14  C   UNL A   1      44.419  25.142  27.418  1.00  0.00     0.074 A 
ATOM     15  C   UNL A   1      41.995  25.633  27.674  1.00  0.00     0.049 A 
ATOM     16  N   UNL A   1      44.972  26.255  27.808  1.00  0.00    -0.248 NA
ATOM     17  C   UNL A   1      45.361  24.153  26.865  1.00  0.00     0.031 C 
ATOM     18  C   UNL A   1      40.558  25.343  27.584  1.00  0.00     0.029 A 
ATOM     19  N   UNL A   1      42.042  26.961  27.996  1.00  0.00    -0.354 N 
ATOM     20  C   UNL A   1      46.333  26.077  27.614  1.00  0.00     0.074 A 
ATOM     21  C   UNL A   1      46.524  24.763  27.043  1.00  0.00     0.031 C 
ATOM     22  C   UNL A   1      39.864  26.467  27.822  1.00  0.00     0.029 A 
ATOM     23  C   UNL A   1      40.801  27.520  28.187  1.00  0.00     0.049 A 
ATOM     24  H   UNL A   1      42.882  27.468  28.081  1.00  0.00     0.167 HD
ATOM     25  C   UNL A   1      47.326  26.940  27.925  1.00  0.00     0.031 A 
ATOM     26  C   UNL A   1      40.468  28.726  28.677  1.00  0.00     0.031 A 
ATOM     27  C   UNL A   1      47.080  28.237  28.490  1.00  0.00     0.049 A 
ATOM     28  C   UNL A   1      41.593  29.626  29.101  1.00  0.00     0.074 A 
ATOM     29  C   UNL A   1      47.989  29.195  28.890  1.00  0.00     0.029 A 
ATOM     30  N   UNL A   1      45.811  28.751  28.732  1.00  0.00    -0.354 N 
ATOM     31  N   UNL A   1      42.887  29.437  28.984  1.00  0.00    -0.248 NA
ATOM     32  C   UNL A   1      41.221  30.885  29.754  1.00  0.00     0.031 C 
ATOM     33  C   UNL A   1      47.270  30.268  29.427  1.00  0.00     0.029 A 
ATOM     34  C   UNL A   1      45.913  30.002  29.309  1.00  0.00     0.049 A 
ATOM     35  H   UNL A   1      44.966  28.292  28.524  1.00  0.00     0.167 HD
ATOM     36  C   UNL A   1      43.486  30.553  29.545  1.00  0.00     0.074 A 
ATOM     37  C   UNL A   1      42.412  31.428  29.974  1.00  0.00     0.031 C 
ATOM     38  C   UNL A   1      44.803  30.830  29.708  1.00  0.00     0.031 A 
BRANCH  25  39
ATOM     39  C   UNL A   1      48.734  26.450  27.761  1.00  0.00    -0.014 A 
ATOM     40  C   UNL A   1      49.434  25.829  28.807  1.00  0.00     0.009 A 
ATOM     41  C   UNL A   1      49.383  26.648  26.532  1.00  0.00     0.009 A 
ATOM     42  C   UNL A   1      50.768  25.449  28.633  1.00  0.00     0.001 A 
ATOM     43  C   UNL A   1      50.707  26.244  26.353  1.00  0.00     0.001 A 
ATOM     44  C   UNL A   1      51.402  25.654  27.407  1.00  0.00     0.000 A 
ENDBRANCH  25  39
BRANCH  26  45
ATOM     45  C   UNL A   1      39.043  29.092  28.900  1.00  0.00    -0.014 A 
ATOM     46  C   UNL A   1      38.405  28.816  30.119  1.00  0.00     0.009 A 
ATOM     47  C   UNL A   1      38.299  29.710  27.879  1.00  0.00     0.009 A 
ATOM     48  C   UNL A   1      37.053  29.125  30.299  1.00  0.00     0.001 A 
ATOM     49  C   UNL A   1      36.958  30.051  28.073  1.00  0.00     0.001 A 
ATOM     50  C   UNL A   1      36.333  29.747  29.279  1.00  0.00     0.000 A 
ENDBRANCH  26  45
BRANCH  38  51
ATOM     51  C   UNL A   1      45.135  32.140  30.355  1.00  0.00    -0.014 A 
ATOM     52  C   UNL A   1      45.331  32.231  31.741  1.00  0.00     0.009 A 
ATOM     53  C   UNL A   1      45.319  33.278  29.555  1.00  0.00     0.009 A 
ATOM     54  C   UNL A   1      45.691  33.448  32.316  1.00  0.00     0.001 A 
ATOM     55  C   UNL A   1      45.707  34.484  30.131  1.00  0.00     0.001 A 
ATOM     56  C   UNL A   1      45.887  34.570  31.512  1.00  0.00     0.000 A 
ENDBRANCH  38  51
ENDBRANCH  12  13
ENDBRANCH   5   7
ENDBRANCH   4   5
ENDBRANCH   3   4
ENDBRANCH   2   3
ENDBRANCH   1   2
BRANCH   1  57
ATOM     57  C   UNL A   1      37.076  21.817  24.704  1.00  0.00     0.202 C 
BRANCH  57  58
ATOM     58  C   UNL A   1      36.223  22.518  25.754  1.00  0.00     0.261 C 
BRANCH  58  59
ATOM     59  O   UNL A   1      35.285  21.537  26.212  1.00  0.00    -0.462 OA
BRANCH  59  60
ATOM     60  C   UNL A   1      34.267  22.026  26.976  1.00  0.00     0.329 C 
ATOM     61  O   UNL A   1      34.393  22.736  27.967  1.00  0.00    -0.250 OA
BRANCH  60  62
ATOM     62  C   UNL A   1      32.927  21.542  26.422  1.00  0.00     0.206 C 
ATOM     63  C   UNL A   1      33.138  20.316  25.529  1.00  0.00     0.108 C 
ATOM     64  N   UNL A   1      32.393  22.638  25.630  1.00  0.00    -0.315 N 
ATOM     65  S   UNL A   1      32.488  20.740  23.896  1.00  0.00    -0.138 SA
ATOM     66  C   UNL A   1      32.641  22.504  24.210  1.00  0.00     0.191 C 
BRANCH  64  67
ATOM     67  C   UNL A   1      31.902  23.736  26.309  1.00  0.00     0.255 C 
ATOM     68  O   UNL A   1      31.262  23.670  27.346  1.00  0.00    -0.269 OA
BRANCH  67  69
ATOM     69  C   UNL A   1      32.248  25.058  25.787  1.00  0.00     0.041 A 
ATOM     70  C   UNL A   1      33.525  25.576  26.001  1.00  0.00     0.014 A 
ATOM     71  C   UNL A   1      31.260  25.780  25.117  1.00  0.00     0.034 A 
ATOM     72  C   UNL A   1      33.803  26.875  25.591  1.00  0.00     0.002 A 
ATOM     73  C   UNL A   1      31.555  27.070  24.699  1.00  0.00     0.041 A 
ATOM     74  C   UNL A   1      32.814  27.623  24.944  1.00  0.00     0.020 A 
ATOM     75  Cl  UNL A   1      30.353  28.000  23.895  1.00  0.00    -0.084 Cl
ENDBRANCH  67  69
ENDBRANCH  64  67
ENDBRANCH  60  62
ENDBRANCH  59  60
ENDBRANCH  58  59
ENDBRANCH  57  58
ENDBRANCH   1  57
TORSDOF 16
ENDMDL
