MODEL 1
REMARK VINA RESULT:     -11.0      0.000      0.000
REMARK SMILES C[C@H]1[C@@H](C(=O)OCCOCCOC(=O)c2ccc(-c3c4nc(c(-c5ccccc5)c5ccc([nH]5)c(-c5ccccc5)c5nc(c(-c6ccccc6)c6ccc3[nH]6)C=C5)C=C4)cc2)CCN1C(=O)NC1CCCCC1
REMARK SMILES IDX 9 1 8 2 7 3 6 4 4 5 5 6 3 7 1 8 2 9 65 10 63 11 64 12 66 13
REMARK SMILES IDX 67 14 68 15 69 17 70 18 74 19 71 20 73 21 72 22 10 23 11 24
REMARK SMILES IDX 12 25 13 26 14 27 15 28 16 29 62 30 17 31 61 32 18 33 19 34
REMARK SMILES IDX 20 35 55 36 21 37 60 38 54 39 56 40 22 41 59 42 53 43 52 44
REMARK SMILES IDX 23 46 45 47 30 48 44 49 31 50 34 51 43 52 57 53 32 54 33 55
REMARK SMILES IDX 42 57 58 58 35 59 24 60 25 61 29 62 26 63 28 64 27 65 46 66
REMARK SMILES IDX 47 67 51 68 48 69 50 70 49 71 36 72 37 73 41 74 38 75 40 76
REMARK SMILES IDX 39 77
REMARK H PARENT 68 16 56 45 34 56
REMARK Flexibility Score: inf
ROOT
ATOM      1  O   UNL A   1      31.352  28.116  26.101  1.00  0.00    -0.374 OA
ENDROOT
BRANCH   1   2
ATOM      2  C   UNL A   1      30.938  27.070  25.217  1.00  0.00     0.202 C 
BRANCH   2   3
ATOM      3  C   UNL A   1      30.150  25.927  25.876  1.00  0.00     0.261 C 
BRANCH   3   4
ATOM      4  O   UNL A   1      31.043  25.038  26.571  1.00  0.00    -0.463 OA
BRANCH   4   5
ATOM      5  C   UNL A   1      30.658  23.749  26.699  1.00  0.00     0.311 C 
ATOM      6  O   UNL A   1      29.697  23.373  27.359  1.00  0.00    -0.252 OA
BRANCH   5   7
ATOM      7  C   UNL A   1      31.537  22.807  25.899  1.00  0.00     0.123 C 
ATOM      8  C   UNL A   1      33.270  22.513  27.922  1.00  0.00     0.032 C 
ATOM      9  C   UNL A   1      32.677  22.039  26.593  1.00  0.00     0.098 C 
ATOM     10  N   UNL A   1      33.745  21.924  25.619  1.00  0.00    -0.321 N 
ATOM     11  C   UNL A   1      32.185  23.463  24.676  1.00  0.00     0.039 C 
ATOM     12  C   UNL A   1      33.639  23.008  24.661  1.00  0.00     0.122 C 
BRANCH  10  13
ATOM     13  C   UNL A   1      34.837  21.116  25.592  1.00  0.00     0.317 C 
ATOM     14  O   UNL A   1      35.917  21.524  26.040  1.00  0.00    -0.249 OA
ATOM     15  N   UNL A   1      34.881  19.865  25.101  1.00  0.00    -0.335 N 
ATOM     16  H   UNL A   1      35.816  19.560  25.147  1.00  0.00     0.165 HD
BRANCH  15  17
ATOM     17  C   UNL A   1      34.072  18.756  24.514  1.00  0.00     0.083 C 
ATOM     18  C   UNL A   1      34.836  17.512  24.087  1.00  0.00     0.025 C 
ATOM     19  C   UNL A   1      32.976  18.367  25.533  1.00  0.00     0.025 C 
ATOM     20  C   UNL A   1      34.065  16.245  23.794  1.00  0.00     0.002 C 
ATOM     21  C   UNL A   1      32.186  17.118  25.137  1.00  0.00     0.002 C 
ATOM     22  C   UNL A   1      33.102  15.924  24.908  1.00  0.00     0.000 C 
ENDBRANCH  15  17
ENDBRANCH  10  13
ENDBRANCH   5   7
ENDBRANCH   4   5
ENDBRANCH   3   4
ENDBRANCH   2   3
ENDBRANCH   1   2
BRANCH   1  23
ATOM     23  C   UNL A   1      31.547  29.409  25.534  1.00  0.00     0.202 C 
BRANCH  23  24
ATOM     24  C   UNL A   1      32.851  30.131  25.897  1.00  0.00     0.261 C 
BRANCH  24  25
ATOM     25  O   UNL A   1      32.963  30.353  27.311  1.00  0.00    -0.460 OA
BRANCH  25  26
ATOM     26  C   UNL A   1      33.669  31.457  27.633  1.00  0.00     0.338 C 
ATOM     27  O   UNL A   1      33.225  32.583  27.822  1.00  0.00    -0.246 OA
BRANCH  26  28
ATOM     28  C   UNL A   1      35.084  31.124  27.881  1.00  0.00     0.060 A 
ATOM     29  C   UNL A   1      35.377  29.770  28.074  1.00  0.00     0.016 A 
ATOM     30  C   UNL A   1      36.083  32.093  28.024  1.00  0.00     0.016 A 
ATOM     31  C   UNL A   1      36.632  29.387  28.529  1.00  0.00     0.010 A 
ATOM     32  C   UNL A   1      37.353  31.704  28.470  1.00  0.00     0.010 A 
ATOM     33  C   UNL A   1      37.608  30.359  28.792  1.00  0.00    -0.014 A 
BRANCH  33  34
ATOM     34  C   UNL A   1      38.796  29.955  29.583  1.00  0.00     0.031 A 
ATOM     35  C   UNL A   1      38.891  30.380  31.027  1.00  0.00     0.074 A 
ATOM     36  C   UNL A   1      39.713  29.118  29.067  1.00  0.00     0.049 A 
ATOM     37  N   UNL A   1      39.772  30.043  31.935  1.00  0.00    -0.248 NA
ATOM     38  C   UNL A   1      37.853  31.304  31.514  1.00  0.00     0.031 C 
ATOM     39  C   UNL A   1      39.709  28.596  27.701  1.00  0.00     0.029 A 
ATOM     40  N   UNL A   1      40.814  28.537  29.647  1.00  0.00    -0.354 N 
ATOM     41  C   UNL A   1      39.395  30.712  33.095  1.00  0.00     0.074 A 
ATOM     42  C   UNL A   1      38.235  31.510  32.765  1.00  0.00     0.031 C 
ATOM     43  C   UNL A   1      40.746  27.755  27.553  1.00  0.00     0.029 A 
ATOM     44  C   UNL A   1      41.500  27.700  28.803  1.00  0.00     0.049 A 
ATOM     45  H   UNL A   1      41.084  28.706  30.578  1.00  0.00     0.167 HD
ATOM     46  C   UNL A   1      39.953  30.659  34.328  1.00  0.00     0.031 A 
ATOM     47  C   UNL A   1      42.613  26.971  29.016  1.00  0.00     0.031 A 
ATOM     48  C   UNL A   1      41.112  29.873  34.659  1.00  0.00     0.049 A 
ATOM     49  C   UNL A   1      43.253  26.981  30.378  1.00  0.00     0.074 A 
ATOM     50  C   UNL A   1      41.746  29.743  35.882  1.00  0.00     0.029 A 
ATOM     51  N   UNL A   1      41.815  29.090  33.757  1.00  0.00    -0.354 N 
ATOM     52  N   UNL A   1      42.867  27.594  31.471  1.00  0.00    -0.248 NA
ATOM     53  C   UNL A   1      44.476  26.181  30.537  1.00  0.00     0.031 C 
ATOM     54  C   UNL A   1      42.869  28.929  35.706  1.00  0.00     0.029 A 
ATOM     55  C   UNL A   1      42.894  28.496  34.390  1.00  0.00     0.049 A 
ATOM     56  H   UNL A   1      41.582  28.972  32.808  1.00  0.00     0.167 HD
ATOM     57  C   UNL A   1      43.780  27.228  32.454  1.00  0.00     0.074 A 
ATOM     58  C   UNL A   1      44.725  26.325  31.831  1.00  0.00     0.031 C 
ATOM     59  C   UNL A   1      43.831  27.604  33.756  1.00  0.00     0.031 A 
BRANCH  46  60
ATOM     60  C   UNL A   1      39.331  31.506  35.405  1.00  0.00    -0.014 A 
ATOM     61  C   UNL A   1      38.327  31.001  36.249  1.00  0.00     0.009 A 
ATOM     62  C   UNL A   1      39.777  32.823  35.598  1.00  0.00     0.009 A 
ATOM     63  C   UNL A   1      37.758  31.812  37.236  1.00  0.00     0.001 A 
ATOM     64  C   UNL A   1      39.229  33.619  36.605  1.00  0.00     0.001 A 
ATOM     65  C   UNL A   1      38.213  33.117  37.417  1.00  0.00     0.000 A 
ENDBRANCH  46  60
BRANCH  47  66
ATOM     66  C   UNL A   1      43.201  26.170  27.909  1.00  0.00    -0.014 A 
ATOM     67  C   UNL A   1      42.854  24.822  27.729  1.00  0.00     0.009 A 
ATOM     68  C   UNL A   1      44.138  26.750  27.037  1.00  0.00     0.009 A 
ATOM     69  C   UNL A   1      43.456  24.065  26.721  1.00  0.00     0.001 A 
ATOM     70  C   UNL A   1      44.712  26.000  26.011  1.00  0.00     0.001 A 
ATOM     71  C   UNL A   1      44.380  24.655  25.859  1.00  0.00     0.000 A 
ENDBRANCH  47  66
BRANCH  59  72
ATOM     72  C   UNL A   1      44.922  27.004  34.602  1.00  0.00    -0.014 A 
ATOM     73  C   UNL A   1      44.744  25.787  35.278  1.00  0.00     0.009 A 
ATOM     74  C   UNL A   1      46.159  27.662  34.704  1.00  0.00     0.009 A 
ATOM     75  C   UNL A   1      45.764  25.269  36.081  1.00  0.00     0.001 A 
ATOM     76  C   UNL A   1      47.188  27.124  35.478  1.00  0.00     0.001 A 
ATOM     77  C   UNL A   1      46.984  25.935  36.176  1.00  0.00     0.000 A 
ENDBRANCH  59  72
ENDBRANCH  33  34
ENDBRANCH  26  28
ENDBRANCH  25  26
ENDBRANCH  24  25
ENDBRANCH  23  24
ENDBRANCH   1  23
TORSDOF 16
ENDMDL
MODEL 2
REMARK VINA RESULT:     -10.9      1.449      2.671
REMARK SMILES C[C@H]1[C@@H](C(=O)OCCOCCOC(=O)c2ccc(-c3c4nc(c(-c5ccccc5)c5ccc([nH]5)c(-c5ccccc5)c5nc(c(-c6ccccc6)c6ccc3[nH]6)C=C5)C=C4)cc2)CCN1C(=O)NC1CCCCC1
REMARK SMILES IDX 9 1 8 2 7 3 6 4 4 5 5 6 3 7 1 8 2 9 65 10 63 11 64 12 66 13
REMARK SMILES IDX 67 14 68 15 69 17 70 18 74 19 71 20 73 21 72 22 10 23 11 24
REMARK SMILES IDX 12 25 13 26 14 27 15 28 16 29 62 30 17 31 61 32 18 33 19 34
REMARK SMILES IDX 20 35 55 36 21 37 60 38 54 39 56 40 22 41 59 42 53 43 52 44
REMARK SMILES IDX 23 46 45 47 30 48 44 49 31 50 34 51 43 52 57 53 32 54 33 55
REMARK SMILES IDX 42 57 58 58 35 59 24 60 25 61 29 62 26 63 28 64 27 65 46 66
REMARK SMILES IDX 47 67 51 68 48 69 50 70 49 71 36 72 37 73 41 74 38 75 40 76
REMARK SMILES IDX 39 77
REMARK H PARENT 68 16 56 45 34 56
REMARK Flexibility Score: inf
ROOT
ATOM      1  O   UNL A   1      31.373  28.790  25.848  1.00  0.00    -0.374 OA
ENDROOT
BRANCH   1   2
ATOM      2  C   UNL A   1      31.547  27.725  24.908  1.00  0.00     0.202 C 
BRANCH   2   3
ATOM      3  C   UNL A   1      32.597  26.672  25.296  1.00  0.00     0.261 C 
BRANCH   3   4
ATOM      4  O   UNL A   1      32.286  25.406  24.687  1.00  0.00    -0.463 OA
BRANCH   4   5
ATOM      5  C   UNL A   1      32.021  24.370  25.514  1.00  0.00     0.311 C 
ATOM      6  O   UNL A   1      30.901  24.053  25.893  1.00  0.00    -0.252 OA
BRANCH   5   7
ATOM      7  C   UNL A   1      33.275  23.610  25.899  1.00  0.00     0.123 C 
ATOM      8  C   UNL A   1      33.364  22.327  23.548  1.00  0.00     0.032 C 
ATOM      9  C   UNL A   1      34.040  22.794  24.840  1.00  0.00     0.098 C 
ATOM     10  N   UNL A   1      34.586  21.641  25.526  1.00  0.00    -0.321 N 
ATOM     11  C   UNL A   1      33.074  22.647  27.073  1.00  0.00     0.039 C 
ATOM     12  C   UNL A   1      33.774  21.349  26.693  1.00  0.00     0.122 C 
BRANCH  10  13
ATOM     13  C   UNL A   1      35.558  20.767  25.157  1.00  0.00     0.317 C 
ATOM     14  O   UNL A   1      35.256  19.616  24.814  1.00  0.00    -0.249 OA
ATOM     15  N   UNL A   1      36.878  21.021  25.130  1.00  0.00    -0.335 N 
ATOM     16  H   UNL A   1      37.338  20.183  24.897  1.00  0.00     0.165 HD
BRANCH  15  17
ATOM     17  C   UNL A   1      37.922  22.073  25.313  1.00  0.00     0.083 C 
ATOM     18  C   UNL A   1      37.488  23.341  26.032  1.00  0.00     0.025 C 
ATOM     19  C   UNL A   1      39.120  21.440  26.056  1.00  0.00     0.025 C 
ATOM     20  C   UNL A   1      38.547  24.295  26.536  1.00  0.00     0.002 C 
ATOM     21  C   UNL A   1      40.189  22.452  26.473  1.00  0.00     0.002 C 
ATOM     22  C   UNL A   1      39.602  23.567  27.327  1.00  0.00     0.000 C 
ENDBRANCH  15  17
ENDBRANCH  10  13
ENDBRANCH   5   7
ENDBRANCH   4   5
ENDBRANCH   3   4
ENDBRANCH   2   3
ENDBRANCH   1   2
BRANCH   1  23
ATOM     23  C   UNL A   1      31.739  30.101  25.423  1.00  0.00     0.202 C 
BRANCH  23  24
ATOM     24  C   UNL A   1      31.785  31.187  26.505  1.00  0.00     0.261 C 
BRANCH  24  25
ATOM     25  O   UNL A   1      32.840  30.956  27.451  1.00  0.00    -0.460 OA
BRANCH  25  26
ATOM     26  C   UNL A   1      33.607  32.041  27.685  1.00  0.00     0.338 C 
ATOM     27  O   UNL A   1      33.221  33.195  27.835  1.00  0.00    -0.246 OA
BRANCH  26  28
ATOM     28  C   UNL A   1      35.015  31.657  27.886  1.00  0.00     0.060 A 
ATOM     29  C   UNL A   1      35.277  30.285  27.972  1.00  0.00     0.016 A 
ATOM     30  C   UNL A   1      36.040  32.588  28.089  1.00  0.00     0.016 A 
ATOM     31  C   UNL A   1      36.528  29.839  28.379  1.00  0.00     0.010 A 
ATOM     32  C   UNL A   1      37.306  32.135  28.486  1.00  0.00     0.010 A 
ATOM     33  C   UNL A   1      37.531  30.764  28.700  1.00  0.00    -0.014 A 
BRANCH  33  34
ATOM     34  C   UNL A   1      38.719  30.272  29.442  1.00  0.00     0.031 A 
ATOM     35  C   UNL A   1      38.835  30.572  30.915  1.00  0.00     0.074 A 
ATOM     36  C   UNL A   1      39.615  29.465  28.847  1.00  0.00     0.049 A 
ATOM     37  N   UNL A   1      39.718  30.143  31.782  1.00  0.00    -0.248 NA
ATOM     38  C   UNL A   1      37.820  31.471  31.490  1.00  0.00     0.031 C 
ATOM     39  C   UNL A   1      39.587  29.061  27.442  1.00  0.00     0.029 A 
ATOM     40  N   UNL A   1      40.709  28.817  29.364  1.00  0.00    -0.354 N 
ATOM     41  C   UNL A   1      39.365  30.718  32.998  1.00  0.00     0.074 A 
ATOM     42  C   UNL A   1      38.217  31.562  32.750  1.00  0.00     0.031 C 
ATOM     43  C   UNL A   1      40.607  28.216  27.212  1.00  0.00     0.029 A 
ATOM     44  C   UNL A   1      41.371  28.042  28.444  1.00  0.00     0.049 A 
ATOM     45  H   UNL A   1      40.991  28.902  30.303  1.00  0.00     0.167 HD
ATOM     46  C   UNL A   1      39.933  30.550  34.216  1.00  0.00     0.031 A 
ATOM     47  C   UNL A   1      42.472  27.277  28.583  1.00  0.00     0.031 A 
ATOM     48  C   UNL A   1      41.079  29.718  34.466  1.00  0.00     0.049 A 
ATOM     49  C   UNL A   1      43.124  27.160  29.934  1.00  0.00     0.074 A 
ATOM     50  C   UNL A   1      41.722  29.473  35.667  1.00  0.00     0.029 A 
ATOM     51  N   UNL A   1      41.758  29.001  33.494  1.00  0.00    -0.354 N 
ATOM     52  N   UNL A   1      42.761  27.685  31.079  1.00  0.00    -0.248 NA
ATOM     53  C   UNL A   1      44.333  26.327  30.011  1.00  0.00     0.031 C 
ATOM     54  C   UNL A   1      42.828  28.657  35.411  1.00  0.00     0.029 A 
ATOM     55  C   UNL A   1      42.832  28.336  34.063  1.00  0.00     0.049 A 
ATOM     56  H   UNL A   1      41.515  28.968  32.541  1.00  0.00     0.167 HD
ATOM     57  C   UNL A   1      43.675  27.221  32.017  1.00  0.00     0.074 A 
ATOM     58  C   UNL A   1      44.596  26.356  31.309  1.00  0.00     0.031 C 
ATOM     59  C   UNL A   1      43.746  27.483  33.346  1.00  0.00     0.031 A 
BRANCH  46  60
ATOM     60  C   UNL A   1      39.338  31.314  35.368  1.00  0.00    -0.014 A 
ATOM     61  C   UNL A   1      38.317  30.767  36.164  1.00  0.00     0.009 A 
ATOM     62  C   UNL A   1      39.825  32.594  35.679  1.00  0.00     0.009 A 
ATOM     63  C   UNL A   1      37.774  31.501  37.223  1.00  0.00     0.001 A 
ATOM     64  C   UNL A   1      39.302  33.311  36.757  1.00  0.00     0.001 A 
ATOM     65  C   UNL A   1      38.270  32.769  37.521  1.00  0.00     0.000 A 
ENDBRANCH  46  60
BRANCH  47  66
ATOM     66  C   UNL A   1      43.034  26.563  27.405  1.00  0.00    -0.014 A 
ATOM     67  C   UNL A   1      43.968  27.184  26.562  1.00  0.00     0.009 A 
ATOM     68  C   UNL A   1      42.615  25.256  27.106  1.00  0.00     0.009 A 
ATOM     69  C   UNL A   1      44.446  26.523  25.428  1.00  0.00     0.001 A 
ATOM     70  C   UNL A   1      43.119  24.587  25.990  1.00  0.00     0.001 A 
ATOM     71  C   UNL A   1      44.025  25.224  25.145  1.00  0.00     0.000 A 
ENDBRANCH  47  66
BRANCH  59  72
ATOM     72  C   UNL A   1      44.833  26.794  34.125  1.00  0.00    -0.014 A 
ATOM     73  C   UNL A   1      44.646  25.517  34.676  1.00  0.00     0.009 A 
ATOM     74  C   UNL A   1      46.074  27.430  34.292  1.00  0.00     0.009 A 
ATOM     75  C   UNL A   1      45.663  24.913  35.421  1.00  0.00     0.001 A 
ATOM     76  C   UNL A   1      47.100  26.809  35.006  1.00  0.00     0.001 A 
ATOM     77  C   UNL A   1      46.888  25.558  35.582  1.00  0.00     0.000 A 
ENDBRANCH  59  72
ENDBRANCH  33  34
ENDBRANCH  26  28
ENDBRANCH  25  26
ENDBRANCH  24  25
ENDBRANCH  23  24
ENDBRANCH   1  23
TORSDOF 16
ENDMDL
MODEL 3
REMARK VINA RESULT:     -10.7      3.964      9.151
REMARK SMILES C[C@H]1[C@@H](C(=O)OCCOCCOC(=O)c2ccc(-c3c4nc(c(-c5ccccc5)c5ccc([nH]5)c(-c5ccccc5)c5nc(c(-c6ccccc6)c6ccc3[nH]6)C=C5)C=C4)cc2)CCN1C(=O)NC1CCCCC1
REMARK SMILES IDX 9 1 8 2 7 3 6 4 4 5 5 6 3 7 1 8 2 9 65 10 63 11 64 12 66 13
REMARK SMILES IDX 67 14 68 15 69 17 70 18 74 19 71 20 73 21 72 22 10 23 11 24
REMARK SMILES IDX 12 25 13 26 14 27 15 28 16 29 62 30 17 31 61 32 18 33 19 34
REMARK SMILES IDX 20 35 55 36 21 37 60 38 54 39 56 40 22 41 59 42 53 43 52 44
REMARK SMILES IDX 23 46 45 47 30 48 44 49 31 50 34 51 43 52 57 53 32 54 33 55
REMARK SMILES IDX 42 57 58 58 35 59 24 60 25 61 29 62 26 63 28 64 27 65 46 66
REMARK SMILES IDX 47 67 51 68 48 69 50 70 49 71 36 72 37 73 41 74 38 75 40 76
REMARK SMILES IDX 39 77
REMARK H PARENT 68 16 56 45 34 56
REMARK Flexibility Score: inf
ROOT
ATOM      1  O   UNL A   1      35.414  21.735  25.799  1.00  0.00    -0.374 OA
ENDROOT
BRANCH   1   2
ATOM      2  C   UNL A   1      34.277  21.080  26.368  1.00  0.00     0.202 C 
BRANCH   2   3
ATOM      3  C   UNL A   1      33.653  21.785  27.583  1.00  0.00     0.261 C 
BRANCH   3   4
ATOM      4  O   UNL A   1      33.379  23.164  27.275  1.00  0.00    -0.463 OA
BRANCH   4   5
ATOM      5  C   UNL A   1      32.192  23.444  26.691  1.00  0.00     0.311 C 
ATOM      6  O   UNL A   1      31.140  23.604  27.296  1.00  0.00    -0.252 OA
BRANCH   5   7
ATOM      7  C   UNL A   1      32.313  23.574  25.185  1.00  0.00     0.123 C 
ATOM      8  C   UNL A   1      33.545  25.947  25.369  1.00  0.00     0.032 C 
ATOM      9  C   UNL A   1      33.179  24.691  24.574  1.00  0.00     0.098 C 
ATOM     10  N   UNL A   1      32.525  25.091  23.344  1.00  0.00    -0.321 N 
ATOM     11  C   UNL A   1      30.963  23.681  24.468  1.00  0.00     0.039 C 
ATOM     12  C   UNL A   1      31.108  24.791  23.435  1.00  0.00     0.122 C 
BRANCH  10  13
ATOM     13  C   UNL A   1      32.986  25.808  22.286  1.00  0.00     0.317 C 
ATOM     14  O   UNL A   1      33.507  25.224  21.326  1.00  0.00    -0.249 OA
ATOM     15  N   UNL A   1      32.947  27.146  22.163  1.00  0.00    -0.335 N 
ATOM     16  H   UNL A   1      33.420  27.382  21.332  1.00  0.00     0.165 HD
BRANCH  15  17
ATOM     17  C   UNL A   1      32.470  28.415  22.787  1.00  0.00     0.083 C 
ATOM     18  C   UNL A   1      31.002  28.468  23.179  1.00  0.00     0.025 C 
ATOM     19  C   UNL A   1      33.348  28.702  24.027  1.00  0.00     0.025 C 
ATOM     20  C   UNL A   1      30.529  29.573  24.097  1.00  0.00     0.002 C 
ATOM     21  C   UNL A   1      32.853  29.878  24.871  1.00  0.00     0.002 C 
ATOM     22  C   UNL A   1      31.410  29.684  25.313  1.00  0.00     0.000 C 
ENDBRANCH  15  17
ENDBRANCH  10  13
ENDBRANCH   5   7
ENDBRANCH   4   5
ENDBRANCH   3   4
ENDBRANCH   2   3
ENDBRANCH   1   2
BRANCH   1  23
ATOM     23  C   UNL A   1      36.058  21.088  24.703  1.00  0.00     0.202 C 
BRANCH  23  24
ATOM     24  C   UNL A   1      37.464  20.534  24.961  1.00  0.00     0.261 C 
BRANCH  24  25
ATOM     25  O   UNL A   1      38.431  21.583  25.127  1.00  0.00    -0.460 OA
BRANCH  25  26
ATOM     26  C   UNL A   1      39.421  21.277  25.990  1.00  0.00     0.338 C 
ATOM     27  O   UNL A   1      40.050  20.226  26.044  1.00  0.00    -0.246 OA
BRANCH  26  28
ATOM     28  C   UNL A   1      39.781  22.445  26.814  1.00  0.00     0.060 A 
ATOM     29  C   UNL A   1      39.100  23.635  26.533  1.00  0.00     0.016 A 
ATOM     30  C   UNL A   1      40.812  22.425  27.760  1.00  0.00     0.016 A 
ATOM     31  C   UNL A   1      39.524  24.830  27.101  1.00  0.00     0.010 A 
ATOM     32  C   UNL A   1      41.229  23.629  28.343  1.00  0.00     0.010 A 
ATOM     33  C   UNL A   1      40.632  24.844  27.959  1.00  0.00    -0.014 A 
BRANCH  33  34
ATOM     34  C   UNL A   1      41.253  26.155  28.271  1.00  0.00     0.031 A 
ATOM     35  C   UNL A   1      42.577  26.504  27.639  1.00  0.00     0.074 A 
ATOM     36  C   UNL A   1      40.594  27.071  29.002  1.00  0.00     0.049 A 
ATOM     37  N   UNL A   1      43.240  27.633  27.672  1.00  0.00    -0.248 NA
ATOM     38  C   UNL A   1      43.239  25.443  26.861  1.00  0.00     0.031 C 
ATOM     39  C   UNL A   1      39.288  26.874  29.628  1.00  0.00     0.029 A 
ATOM     40  N   UNL A   1      40.927  28.365  29.315  1.00  0.00    -0.354 N 
ATOM     41  C   UNL A   1      44.392  27.416  26.924  1.00  0.00     0.074 A 
ATOM     42  C   UNL A   1      44.362  26.038  26.488  1.00  0.00     0.031 C 
ATOM     43  C   UNL A   1      38.919  28.015  30.234  1.00  0.00     0.029 A 
ATOM     44  C   UNL A   1      39.973  29.011  30.062  1.00  0.00     0.049 A 
ATOM     45  H   UNL A   1      41.770  28.788  29.032  1.00  0.00     0.167 HD
ATOM     46  C   UNL A   1      45.382  28.287  26.613  1.00  0.00     0.031 A 
ATOM     47  C   UNL A   1      39.953  30.266  30.551  1.00  0.00     0.031 A 
ATOM     48  C   UNL A   1      45.421  29.657  27.052  1.00  0.00     0.049 A 
ATOM     49  C   UNL A   1      41.098  31.195  30.248  1.00  0.00     0.074 A 
ATOM     50  C   UNL A   1      46.374  30.623  26.781  1.00  0.00     0.029 A 
ATOM     51  N   UNL A   1      44.466  30.252  27.861  1.00  0.00    -0.354 N 
ATOM     52  N   UNL A   1      42.164  30.985  29.514  1.00  0.00    -0.248 NA
ATOM     53  C   UNL A   1      41.023  32.542  30.830  1.00  0.00     0.031 C 
ATOM     54  C   UNL A   1      46.028  31.785  27.477  1.00  0.00     0.029 A 
ATOM     55  C   UNL A   1      44.822  31.564  28.123  1.00  0.00     0.049 A 
ATOM     56  H   UNL A   1      43.655  29.809  28.198  1.00  0.00     0.167 HD
ATOM     57  C   UNL A   1      42.870  32.183  29.519  1.00  0.00     0.074 A 
ATOM     58  C   UNL A   1      42.100  33.118  30.312  1.00  0.00     0.031 C 
ATOM     59  C   UNL A   1      44.049  32.483  28.920  1.00  0.00     0.031 A 
BRANCH  46  60
ATOM     60  C   UNL A   1      46.525  27.769  25.783  1.00  0.00    -0.014 A 
ATOM     61  C   UNL A   1      47.558  27.003  26.351  1.00  0.00     0.009 A 
ATOM     62  C   UNL A   1      46.556  28.029  24.404  1.00  0.00     0.009 A 
ATOM     63  C   UNL A   1      48.614  26.542  25.560  1.00  0.00     0.001 A 
ATOM     64  C   UNL A   1      47.596  27.539  23.611  1.00  0.00     0.001 A 
ATOM     65  C   UNL A   1      48.629  26.805  24.191  1.00  0.00     0.000 A 
ENDBRANCH  46  60
BRANCH  47  66
ATOM     66  C   UNL A   1      38.810  30.720  31.387  1.00  0.00    -0.014 A 
ATOM     67  C   UNL A   1      37.710  31.376  30.812  1.00  0.00     0.009 A 
ATOM     68  C   UNL A   1      38.828  30.521  32.778  1.00  0.00     0.009 A 
ATOM     69  C   UNL A   1      36.669  31.848  31.615  1.00  0.00     0.001 A 
ATOM     70  C   UNL A   1      37.771  30.965  33.573  1.00  0.00     0.001 A 
ATOM     71  C   UNL A   1      36.697  31.638  32.994  1.00  0.00     0.000 A 
ENDBRANCH  47  66
BRANCH  59  72
ATOM     72  C   UNL A   1      44.555  33.893  29.067  1.00  0.00    -0.014 A 
ATOM     73  C   UNL A   1      44.184  34.904  28.167  1.00  0.00     0.009 A 
ATOM     74  C   UNL A   1      45.401  34.216  30.140  1.00  0.00     0.009 A 
ATOM     75  C   UNL A   1      44.693  36.198  28.310  1.00  0.00     0.001 A 
ATOM     76  C   UNL A   1      45.879  35.518  30.301  1.00  0.00     0.001 A 
ATOM     77  C   UNL A   1      45.536  36.504  29.377  1.00  0.00     0.000 A 
ENDBRANCH  59  72
ENDBRANCH  33  34
ENDBRANCH  26  28
ENDBRANCH  25  26
ENDBRANCH  24  25
ENDBRANCH  23  24
ENDBRANCH   1  23
TORSDOF 16
ENDMDL
