MODEL 1
REMARK VINA RESULT:      -9.1      0.000      0.000
REMARK SMILES C[NH2+]C[C@H](C)C(=O)N1CCc2cc(C(=O)OCCOCCOC(=O)c3ccc(-c4c5nc(c(-c6ccccc6)c6ccc([nH]6)c(-c6ccccc6)c6nc(c(-c7ccccc7)c7ccc4[nH]7)C=C6)C=C5)cc3)ccc21
REMARK SMILES IDX 18 1 17 2 16 3 14 4 15 5 13 6 8 7 9 8 75 9 10 10 11 11 74 12
REMARK SMILES IDX 12 13 73 14 6 15 7 16 4 17 5 18 3 19 2 20 1 21 19 24 20 25
REMARK SMILES IDX 21 26 22 27 23 28 24 29 25 30 26 31 72 32 27 33 71 34 28 35
REMARK SMILES IDX 29 36 30 37 65 38 31 39 70 40 64 41 66 42 32 43 69 44 63 45
REMARK SMILES IDX 62 46 33 48 55 49 40 50 54 51 41 52 44 53 53 54 67 55 42 56
REMARK SMILES IDX 43 57 52 59 68 60 45 61 34 62 35 63 39 64 36 65 38 66 37 67
REMARK SMILES IDX 56 68 57 69 61 70 58 71 60 72 59 73 46 74 47 75 51 76 48 77
REMARK SMILES IDX 50 78 49 79
REMARK H PARENT 2 22 2 23 66 47 44 58
REMARK Flexibility Score: inf
ROOT
ATOM      1  C   UNL A   1      34.105  32.187  28.184  1.00  0.00     0.202 C 
ENDROOT
BRANCH   1   2
ATOM      2  C   UNL A   1      34.067  30.884  27.380  1.00  0.00     0.261 C 
BRANCH   2   3
ATOM      3  O   UNL A   1      32.815  30.209  27.559  1.00  0.00    -0.460 OA
BRANCH   3   4
ATOM      4  C   UNL A   1      32.072  30.075  26.435  1.00  0.00     0.338 C 
ATOM      5  O   UNL A   1      31.417  30.946  25.882  1.00  0.00    -0.246 OA
BRANCH   4   6
ATOM      6  C   UNL A   1      32.276  28.728  25.850  1.00  0.00     0.060 A 
ATOM      7  N   UNL A   1      32.715  25.138  23.799  1.00  0.00    -0.311 N 
ATOM      8  C   UNL A   1      33.218  25.600  22.495  1.00  0.00     0.130 C 
ATOM      9  C   UNL A   1      32.588  26.243  24.647  1.00  0.00     0.047 A 
ATOM     10  C   UNL A   1      33.433  27.113  22.590  1.00  0.00     0.059 C 
ATOM     11  C   UNL A   1      32.863  27.412  23.939  1.00  0.00    -0.022 A 
ATOM     12  C   UNL A   1      32.335  26.301  26.002  1.00  0.00     0.027 A 
ATOM     13  C   UNL A   1      32.684  28.660  24.512  1.00  0.00     0.021 A 
ATOM     14  C   UNL A   1      32.160  27.550  26.607  1.00  0.00     0.018 A 
BRANCH   7  15
ATOM     15  C   UNL A   1      32.350  23.821  23.944  1.00  0.00     0.235 C 
ATOM     16  O   UNL A   1      31.250  23.443  23.517  1.00  0.00    -0.274 OA
BRANCH  15  17
ATOM     17  C   UNL A   1      33.158  22.854  24.824  1.00  0.00     0.131 C 
ATOM     18  C   UNL A   1      34.633  23.188  25.011  1.00  0.00     0.024 C 
BRANCH  17  19
ATOM     19  C   UNL A   1      32.489  22.495  26.167  1.00  0.00     0.273 C 
BRANCH  19  20
ATOM     20  N   UNL A   1      31.081  22.088  26.158  1.00  0.00    -0.348 N 
ATOM     21  C   UNL A   1      30.198  22.988  26.885  1.00  0.00     0.330 C 
ATOM     22  H   UNL A   1      30.767  22.042  25.190  1.00  0.00     0.346 HD
ATOM     23  H   UNL A   1      31.034  21.185  26.632  1.00  0.00     0.346 HD
ENDBRANCH  19  20
ENDBRANCH  17  19
ENDBRANCH  15  17
ENDBRANCH   7  15
ENDBRANCH   4   6
ENDBRANCH   3   4
ENDBRANCH   2   3
ENDBRANCH   1   2
BRANCH   1  24
ATOM     24  O   UNL A   1      33.145  33.185  27.844  1.00  0.00    -0.374 OA
BRANCH  24  25
ATOM     25  C   UNL A   1      33.505  34.550  28.062  1.00  0.00     0.202 C 
BRANCH  25  26
ATOM     26  C   UNL A   1      32.928  35.241  29.304  1.00  0.00     0.261 C 
BRANCH  26  27
ATOM     27  O   UNL A   1      33.938  35.550  30.280  1.00  0.00    -0.460 OA
BRANCH  27  28
ATOM     28  C   UNL A   1      33.935  34.742  31.367  1.00  0.00     0.338 C 
ATOM     29  O   UNL A   1      33.073  34.656  32.226  1.00  0.00    -0.246 OA
BRANCH  28  30
ATOM     30  C   UNL A   1      35.071  33.805  31.293  1.00  0.00     0.060 A 
ATOM     31  C   UNL A   1      34.992  32.631  32.052  1.00  0.00     0.016 A 
ATOM     32  C   UNL A   1      36.219  34.104  30.559  1.00  0.00     0.016 A 
ATOM     33  C   UNL A   1      36.087  31.773  32.122  1.00  0.00     0.010 A 
ATOM     34  C   UNL A   1      37.318  33.244  30.635  1.00  0.00     0.010 A 
ATOM     35  C   UNL A   1      37.269  32.093  31.445  1.00  0.00    -0.014 A 
BRANCH  35  36
ATOM     36  C   UNL A   1      38.497  31.299  31.691  1.00  0.00     0.031 A 
ATOM     37  C   UNL A   1      39.370  31.644  32.866  1.00  0.00     0.074 A 
ATOM     38  C   UNL A   1      38.818  30.268  30.891  1.00  0.00     0.049 A 
ATOM     39  N   UNL A   1      40.505  31.111  33.241  1.00  0.00    -0.248 NA
ATOM     40  C   UNL A   1      38.905  32.740  33.732  1.00  0.00     0.031 C 
ATOM     41  C   UNL A   1      38.030  29.804  29.750  1.00  0.00     0.029 A 
ATOM     42  N   UNL A   1      39.902  29.427  30.919  1.00  0.00    -0.354 N 
ATOM     43  C   UNL A   1      40.895  31.812  34.376  1.00  0.00     0.074 A 
ATOM     44  C   UNL A   1      39.893  32.829  34.610  1.00  0.00     0.031 C 
ATOM     45  C   UNL A   1      38.660  28.761  29.182  1.00  0.00     0.029 A 
ATOM     46  C   UNL A   1      39.911  28.511  29.895  1.00  0.00     0.049 A 
ATOM     47  H   UNL A   1      40.604  29.474  31.605  1.00  0.00     0.167 HD
ATOM     48  C   UNL A   1      41.985  31.623  35.157  1.00  0.00     0.031 A 
ATOM     49  C   UNL A   1      40.836  27.593  29.557  1.00  0.00     0.031 A 
ATOM     50  C   UNL A   1      42.987  30.619  34.915  1.00  0.00     0.049 A 
ATOM     51  C   UNL A   1      42.082  27.459  30.391  1.00  0.00     0.074 A 
ATOM     52  C   UNL A   1      44.121  30.336  35.658  1.00  0.00     0.029 A 
ATOM     53  N   UNL A   1      42.982  29.740  33.843  1.00  0.00    -0.354 N 
ATOM     54  N   UNL A   1      42.427  28.109  31.476  1.00  0.00    -0.248 NA
ATOM     55  C   UNL A   1      43.064  26.454  29.956  1.00  0.00     0.031 C 
ATOM     56  C   UNL A   1      44.835  29.331  34.999  1.00  0.00     0.029 A 
ATOM     57  C   UNL A   1      44.109  28.936  33.886  1.00  0.00     0.049 A 
ATOM     58  H   UNL A   1      42.281  29.694  33.153  1.00  0.00     0.167 HD
ATOM     59  C   UNL A   1      43.646  27.570  31.872  1.00  0.00     0.074 A 
ATOM     60  C   UNL A   1      43.972  26.531  30.917  1.00  0.00     0.031 C 
ATOM     61  C   UNL A   1      44.423  27.904  32.931  1.00  0.00     0.031 A 
BRANCH  48  62
ATOM     62  C   UNL A   1      42.170  32.549  36.328  1.00  0.00    -0.014 A 
ATOM     63  C   UNL A   1      41.658  32.238  37.597  1.00  0.00     0.009 A 
ATOM     64  C   UNL A   1      42.901  33.737  36.165  1.00  0.00     0.009 A 
ATOM     65  C   UNL A   1      41.844  33.114  38.670  1.00  0.00     0.001 A 
ATOM     66  C   UNL A   1      43.112  34.595  37.245  1.00  0.00     0.001 A 
ATOM     67  C   UNL A   1      42.574  34.288  38.494  1.00  0.00     0.000 A 
ENDBRANCH  48  62
BRANCH  49  68
ATOM     68  C   UNL A   1      40.632  26.737  28.357  1.00  0.00    -0.014 A 
ATOM     69  C   UNL A   1      41.272  27.037  27.144  1.00  0.00     0.009 A 
ATOM     70  C   UNL A   1      39.778  25.624  28.415  1.00  0.00     0.009 A 
ATOM     71  C   UNL A   1      41.036  26.259  26.010  1.00  0.00     0.001 A 
ATOM     72  C   UNL A   1      39.570  24.828  27.286  1.00  0.00     0.001 A 
ATOM     73  C   UNL A   1      40.191  25.153  26.082  1.00  0.00     0.000 A 
ENDBRANCH  49  68
BRANCH  61  74
ATOM     74  C   UNL A   1      45.682  27.108  33.145  1.00  0.00    -0.014 A 
ATOM     75  C   UNL A   1      46.918  27.534  32.633  1.00  0.00     0.009 A 
ATOM     76  C   UNL A   1      45.633  25.929  33.907  1.00  0.00     0.009 A 
ATOM     77  C   UNL A   1      48.071  26.777  32.852  1.00  0.00     0.001 A 
ATOM     78  C   UNL A   1      46.794  25.193  34.152  1.00  0.00     0.001 A 
ATOM     79  C   UNL A   1      48.009  25.612  33.615  1.00  0.00     0.000 A 
ENDBRANCH  61  74
ENDBRANCH  35  36
ENDBRANCH  28  30
ENDBRANCH  27  28
ENDBRANCH  26  27
ENDBRANCH  25  26
ENDBRANCH  24  25
ENDBRANCH   1  24
TORSDOF 18
ENDMDL
MODEL 2
REMARK VINA RESULT:      -9.0      3.842      7.209
REMARK SMILES C[NH2+]C[C@H](C)C(=O)N1CCc2cc(C(=O)OCCOCCOC(=O)c3ccc(-c4c5nc(c(-c6ccccc6)c6ccc([nH]6)c(-c6ccccc6)c6nc(c(-c7ccccc7)c7ccc4[nH]7)C=C6)C=C5)cc3)ccc21
REMARK SMILES IDX 18 1 17 2 16 3 14 4 15 5 13 6 8 7 9 8 75 9 10 10 11 11 74 12
REMARK SMILES IDX 12 13 73 14 6 15 7 16 4 17 5 18 3 19 2 20 1 21 19 24 20 25
REMARK SMILES IDX 21 26 22 27 23 28 24 29 25 30 26 31 72 32 27 33 71 34 28 35
REMARK SMILES IDX 29 36 30 37 65 38 31 39 70 40 64 41 66 42 32 43 69 44 63 45
REMARK SMILES IDX 62 46 33 48 55 49 40 50 54 51 41 52 44 53 53 54 67 55 42 56
REMARK SMILES IDX 43 57 52 59 68 60 45 61 34 62 35 63 39 64 36 65 38 66 37 67
REMARK SMILES IDX 56 68 57 69 61 70 58 71 60 72 59 73 46 74 47 75 51 76 48 77
REMARK SMILES IDX 50 78 49 79
REMARK H PARENT 2 22 2 23 66 47 44 58
REMARK Flexibility Score: inf
ROOT
ATOM      1  C   UNL A   1      34.208  31.493  27.804  1.00  0.00     0.202 C 
ENDROOT
BRANCH   1   2
ATOM      2  C   UNL A   1      32.852  31.058  27.242  1.00  0.00     0.261 C 
BRANCH   2   3
ATOM      3  O   UNL A   1      32.750  29.629  27.201  1.00  0.00    -0.460 OA
BRANCH   3   4
ATOM      4  C   UNL A   1      32.284  29.122  26.035  1.00  0.00     0.338 C 
ATOM      5  O   UNL A   1      31.880  29.754  25.071  1.00  0.00    -0.246 OA
BRANCH   4   6
ATOM      6  C   UNL A   1      32.469  27.651  26.013  1.00  0.00     0.060 A 
ATOM      7  N   UNL A   1      32.625  23.503  26.253  1.00  0.00    -0.311 N 
ATOM      8  C   UNL A   1      31.197  23.158  26.361  1.00  0.00     0.130 C 
ATOM      9  C   UNL A   1      32.738  24.886  26.083  1.00  0.00     0.047 A 
ATOM     10  C   UNL A   1      30.395  24.452  26.213  1.00  0.00     0.059 C 
ATOM     11  C   UNL A   1      31.481  25.478  26.192  1.00  0.00    -0.022 A 
ATOM     12  C   UNL A   1      33.836  25.656  25.757  1.00  0.00     0.027 A 
ATOM     13  C   UNL A   1      31.330  26.855  26.190  1.00  0.00     0.021 A 
ATOM     14  C   UNL A   1      33.708  27.049  25.738  1.00  0.00     0.018 A 
BRANCH   7  15
ATOM     15  C   UNL A   1      33.565  22.520  26.450  1.00  0.00     0.235 C 
ATOM     16  O   UNL A   1      34.079  22.383  27.569  1.00  0.00    -0.274 OA
BRANCH  15  17
ATOM     17  C   UNL A   1      34.171  21.739  25.272  1.00  0.00     0.131 C 
ATOM     18  C   UNL A   1      34.007  22.368  23.894  1.00  0.00     0.024 C 
BRANCH  17  19
ATOM     19  C   UNL A   1      35.617  21.254  25.499  1.00  0.00     0.273 C 
BRANCH  19  20
ATOM     20  N   UNL A   1      36.573  22.176  26.120  1.00  0.00    -0.348 N 
ATOM     21  C   UNL A   1      36.788  23.404  25.369  1.00  0.00     0.330 C 
ATOM     22  H   UNL A   1      36.224  22.423  27.046  1.00  0.00     0.346 HD
ATOM     23  H   UNL A   1      37.470  21.691  26.153  1.00  0.00     0.346 HD
ENDBRANCH  19  20
ENDBRANCH  17  19
ENDBRANCH  15  17
ENDBRANCH   7  15
ENDBRANCH   4   6
ENDBRANCH   3   4
ENDBRANCH   2   3
ENDBRANCH   1   2
BRANCH   1  24
ATOM     24  O   UNL A   1      34.466  32.895  27.862  1.00  0.00    -0.374 OA
BRANCH  24  25
ATOM     25  C   UNL A   1      34.191  33.567  29.092  1.00  0.00     0.202 C 
BRANCH  25  26
ATOM     26  C   UNL A   1      35.158  33.327  30.257  1.00  0.00     0.261 C 
BRANCH  26  27
ATOM     27  O   UNL A   1      35.185  31.951  30.674  1.00  0.00    -0.460 OA
BRANCH  27  28
ATOM     28  C   UNL A   1      36.106  31.672  31.628  1.00  0.00     0.338 C 
ATOM     29  O   UNL A   1      36.007  31.852  32.830  1.00  0.00    -0.246 OA
BRANCH  28  30
ATOM     30  C   UNL A   1      37.229  30.926  31.032  1.00  0.00     0.060 A 
ATOM     31  C   UNL A   1      38.145  30.328  31.906  1.00  0.00     0.016 A 
ATOM     32  C   UNL A   1      37.425  30.877  29.652  1.00  0.00     0.016 A 
ATOM     33  C   UNL A   1      39.293  29.721  31.403  1.00  0.00     0.010 A 
ATOM     34  C   UNL A   1      38.580  30.272  29.150  1.00  0.00     0.010 A 
ATOM     35  C   UNL A   1      39.537  29.723  30.024  1.00  0.00    -0.014 A 
BRANCH  35  36
ATOM     36  C   UNL A   1      40.852  29.274  29.508  1.00  0.00     0.031 A 
ATOM     37  C   UNL A   1      40.998  27.864  29.004  1.00  0.00     0.074 A 
ATOM     38  C   UNL A   1      41.898  30.117  29.469  1.00  0.00     0.049 A 
ATOM     39  N   UNL A   1      42.063  27.252  28.551  1.00  0.00    -0.248 NA
ATOM     40  C   UNL A   1      39.785  27.032  29.015  1.00  0.00     0.031 C 
ATOM     41  C   UNL A   1      41.871  31.519  29.883  1.00  0.00     0.029 A 
ATOM     42  N   UNL A   1      43.191  29.910  29.060  1.00  0.00    -0.354 N 
ATOM     43  C   UNL A   1      41.651  25.963  28.235  1.00  0.00     0.074 A 
ATOM     44  C   UNL A   1      40.249  25.870  28.579  1.00  0.00     0.031 C 
ATOM     45  C   UNL A   1      43.095  32.047  29.711  1.00  0.00     0.029 A 
ATOM     46  C   UNL A   1      43.998  31.011  29.213  1.00  0.00     0.049 A 
ATOM     47  H   UNL A   1      43.511  29.055  28.693  1.00  0.00     0.167 HD
ATOM     48  C   UNL A   1      42.373  24.949  27.703  1.00  0.00     0.031 A 
ATOM     49  C   UNL A   1      45.319  31.158  29.000  1.00  0.00     0.031 A 
ATOM     50  C   UNL A   1      43.772  25.038  27.373  1.00  0.00     0.049 A 
ATOM     51  C   UNL A   1      46.119  29.990  28.488  1.00  0.00     0.074 A 
ATOM     52  C   UNL A   1      44.589  24.071  26.813  1.00  0.00     0.029 A 
ATOM     53  N   UNL A   1      44.562  26.158  27.584  1.00  0.00    -0.354 N 
ATOM     54  N   UNL A   1      45.713  28.785  28.169  1.00  0.00    -0.248 NA
ATOM     55  C   UNL A   1      47.560  30.209  28.298  1.00  0.00     0.031 C 
ATOM     56  C   UNL A   1      45.888  24.583  26.747  1.00  0.00     0.029 A 
ATOM     57  C   UNL A   1      45.866  25.895  27.196  1.00  0.00     0.049 A 
ATOM     58  H   UNL A   1      44.245  27.012  27.954  1.00  0.00     0.167 HD
ATOM     59  C   UNL A   1      46.841  28.113  27.710  1.00  0.00     0.074 A 
ATOM     60  C   UNL A   1      47.943  29.051  27.779  1.00  0.00     0.031 C 
ATOM     61  C   UNL A   1      46.953  26.837  27.268  1.00  0.00     0.031 A 
BRANCH  48  62
ATOM     62  C   UNL A   1      41.670  23.638  27.478  1.00  0.00    -0.014 A 
ATOM     63  C   UNL A   1      40.874  23.418  26.342  1.00  0.00     0.009 A 
ATOM     64  C   UNL A   1      41.836  22.594  28.402  1.00  0.00     0.009 A 
ATOM     65  C   UNL A   1      40.232  22.191  26.155  1.00  0.00     0.001 A 
ATOM     66  C   UNL A   1      41.218  21.359  28.197  1.00  0.00     0.001 A 
ATOM     67  C   UNL A   1      40.408  21.162  27.079  1.00  0.00     0.000 A 
ENDBRANCH  48  62
BRANCH  49  68
ATOM     68  C   UNL A   1      45.980  32.460  29.289  1.00  0.00    -0.014 A 
ATOM     69  C   UNL A   1      46.279  32.835  30.608  1.00  0.00     0.009 A 
ATOM     70  C   UNL A   1      46.295  33.344  28.245  1.00  0.00     0.009 A 
ATOM     71  C   UNL A   1      46.853  34.079  30.876  1.00  0.00     0.001 A 
ATOM     72  C   UNL A   1      46.899  34.574  28.514  1.00  0.00     0.001 A 
ATOM     73  C   UNL A   1      47.167  34.945  29.830  1.00  0.00     0.000 A 
ENDBRANCH  49  68
BRANCH  61  74
ATOM     74  C   UNL A   1      48.305  26.389  26.780  1.00  0.00    -0.014 A 
ATOM     75  C   UNL A   1      48.738  26.651  25.471  1.00  0.00     0.009 A 
ATOM     76  C   UNL A   1      49.173  25.725  27.662  1.00  0.00     0.009 A 
ATOM     77  C   UNL A   1      49.999  26.226  25.047  1.00  0.00     0.001 A 
ATOM     78  C   UNL A   1      50.447  25.333  27.246  1.00  0.00     0.001 A 
ATOM     79  C   UNL A   1      50.853  25.575  25.935  1.00  0.00     0.000 A 
ENDBRANCH  61  74
ENDBRANCH  35  36
ENDBRANCH  28  30
ENDBRANCH  27  28
ENDBRANCH  26  27
ENDBRANCH  25  26
ENDBRANCH  24  25
ENDBRANCH   1  24
TORSDOF 18
ENDMDL
MODEL 3
REMARK VINA RESULT:      -8.9      6.767     10.280
REMARK SMILES C[NH2+]C[C@H](C)C(=O)N1CCc2cc(C(=O)OCCOCCOC(=O)c3ccc(-c4c5nc(c(-c6ccccc6)c6ccc([nH]6)c(-c6ccccc6)c6nc(c(-c7ccccc7)c7ccc4[nH]7)C=C6)C=C5)cc3)ccc21
REMARK SMILES IDX 18 1 17 2 16 3 14 4 15 5 13 6 8 7 9 8 75 9 10 10 11 11 74 12
REMARK SMILES IDX 12 13 73 14 6 15 7 16 4 17 5 18 3 19 2 20 1 21 19 24 20 25
REMARK SMILES IDX 21 26 22 27 23 28 24 29 25 30 26 31 72 32 27 33 71 34 28 35
REMARK SMILES IDX 29 36 30 37 65 38 31 39 70 40 64 41 66 42 32 43 69 44 63 45
REMARK SMILES IDX 62 46 33 48 55 49 40 50 54 51 41 52 44 53 53 54 67 55 42 56
REMARK SMILES IDX 43 57 52 59 68 60 45 61 34 62 35 63 39 64 36 65 38 66 37 67
REMARK SMILES IDX 56 68 57 69 61 70 58 71 60 72 59 73 46 74 47 75 51 76 48 77
REMARK SMILES IDX 50 78 49 79
REMARK H PARENT 2 22 2 23 66 47 44 58
REMARK Flexibility Score: inf
ROOT
ATOM      1  C   UNL A   1      37.947  22.056  25.520  1.00  0.00     0.202 C 
ENDROOT
BRANCH   1   2
ATOM      2  C   UNL A   1      36.637  21.321  25.224  1.00  0.00     0.261 C 
BRANCH   2   3
ATOM      3  O   UNL A   1      35.641  22.228  24.732  1.00  0.00    -0.460 OA
BRANCH   3   4
ATOM      4  C   UNL A   1      34.473  22.221  25.416  1.00  0.00     0.338 C 
ATOM      5  O   UNL A   1      34.016  21.300  26.076  1.00  0.00    -0.246 OA
BRANCH   4   6
ATOM      6  C   UNL A   1      33.861  23.571  25.388  1.00  0.00     0.060 A 
ATOM      7  N   UNL A   1      31.782  27.159  25.085  1.00  0.00    -0.311 N 
ATOM      8  C   UNL A   1      30.390  26.712  25.262  1.00  0.00     0.130 C 
ATOM      9  C   UNL A   1      32.629  26.058  25.242  1.00  0.00     0.047 A 
ATOM     10  C   UNL A   1      30.421  25.215  25.579  1.00  0.00     0.059 C 
ATOM     11  C   UNL A   1      31.870  24.898  25.391  1.00  0.00    -0.022 A 
ATOM     12  C   UNL A   1      34.003  25.999  25.348  1.00  0.00     0.027 A 
ATOM     13  C   UNL A   1      32.464  23.648  25.435  1.00  0.00     0.021 A 
ATOM     14  C   UNL A   1      34.628  24.748  25.404  1.00  0.00     0.018 A 
BRANCH   7  15
ATOM     15  C   UNL A   1      32.021  28.455  24.696  1.00  0.00     0.235 C 
ATOM     16  O   UNL A   1      31.870  29.375  25.512  1.00  0.00    -0.274 OA
BRANCH  15  17
ATOM     17  C   UNL A   1      32.241  28.824  23.219  1.00  0.00     0.131 C 
ATOM     18  C   UNL A   1      33.369  28.090  22.505  1.00  0.00     0.024 C 
BRANCH  17  19
ATOM     19  C   UNL A   1      30.958  28.848  22.364  1.00  0.00     0.273 C 
BRANCH  19  20
ATOM     20  N   UNL A   1      30.368  30.148  22.029  1.00  0.00    -0.348 N 
ATOM     21  C   UNL A   1      29.319  30.577  22.941  1.00  0.00     0.330 C 
ATOM     22  H   UNL A   1      31.108  30.848  22.038  1.00  0.00     0.346 HD
ATOM     23  H   UNL A   1      29.934  30.045  21.111  1.00  0.00     0.346 HD
ENDBRANCH  19  20
ENDBRANCH  17  19
ENDBRANCH  15  17
ENDBRANCH   7  15
ENDBRANCH   4   6
ENDBRANCH   3   4
ENDBRANCH   2   3
ENDBRANCH   1   2
BRANCH   1  24
ATOM     24  O   UNL A   1      37.843  23.361  26.087  1.00  0.00    -0.374 OA
BRANCH  24  25
ATOM     25  C   UNL A   1      38.950  23.838  26.854  1.00  0.00     0.202 C 
BRANCH  25  26
ATOM     26  C   UNL A   1      40.037  22.823  27.228  1.00  0.00     0.261 C 
BRANCH  26  27
ATOM     27  O   UNL A   1      41.281  23.454  27.580  1.00  0.00    -0.460 OA
BRANCH  27  28
ATOM     28  C   UNL A   1      42.209  23.452  26.593  1.00  0.00     0.338 C 
ATOM     29  O   UNL A   1      42.320  22.652  25.679  1.00  0.00    -0.246 OA
BRANCH  28  30
ATOM     30  C   UNL A   1      43.003  24.692  26.656  1.00  0.00     0.060 A 
ATOM     31  C   UNL A   1      43.302  25.332  25.447  1.00  0.00     0.016 A 
ATOM     32  C   UNL A   1      43.509  25.177  27.863  1.00  0.00     0.016 A 
ATOM     33  C   UNL A   1      44.155  26.433  25.434  1.00  0.00     0.010 A 
ATOM     34  C   UNL A   1      44.369  26.278  27.846  1.00  0.00     0.010 A 
ATOM     35  C   UNL A   1      44.724  26.889  26.629  1.00  0.00    -0.014 A 
BRANCH  35  36
ATOM     36  C   UNL A   1      45.793  27.916  26.590  1.00  0.00     0.031 A 
ATOM     37  C   UNL A   1      45.417  29.369  26.690  1.00  0.00     0.074 A 
ATOM     38  C   UNL A   1      47.084  27.558  26.490  1.00  0.00     0.049 A 
ATOM     39  N   UNL A   1      46.183  30.429  26.635  1.00  0.00    -0.248 NA
ATOM     40  C   UNL A   1      43.987  29.668  26.872  1.00  0.00     0.031 C 
ATOM     41  C   UNL A   1      47.580  26.183  26.434  1.00  0.00     0.029 A 
ATOM     42  N   UNL A   1      48.216  28.329  26.414  1.00  0.00    -0.354 N 
ATOM     43  C   UNL A   1      45.329  31.518  26.763  1.00  0.00     0.074 A 
ATOM     44  C   UNL A   1      43.985  30.993  26.865  1.00  0.00     0.031 C 
ATOM     45  C   UNL A   1      48.920  26.208  26.328  1.00  0.00     0.029 A 
ATOM     46  C   UNL A   1      49.370  27.597  26.269  1.00  0.00     0.049 A 
ATOM     47  H   UNL A   1      48.204  29.312  26.459  1.00  0.00     0.167 HD
ATOM     48  C   UNL A   1      45.636  32.837  26.798  1.00  0.00     0.031 A 
ATOM     49  C   UNL A   1      50.640  28.003  26.085  1.00  0.00     0.031 A 
ATOM     50  C   UNL A   1      46.973  33.359  26.684  1.00  0.00     0.049 A 
ATOM     51  C   UNL A   1      50.946  29.476  26.042  1.00  0.00     0.074 A 
ATOM     52  C   UNL A   1      47.390  34.678  26.725  1.00  0.00     0.029 A 
ATOM     53  N   UNL A   1      48.108  32.586  26.495  1.00  0.00    -0.354 N 
ATOM     54  N   UNL A   1      50.135  30.496  26.190  1.00  0.00    -0.248 NA
ATOM     55  C   UNL A   1      52.349  29.854  25.815  1.00  0.00     0.031 C 
ATOM     56  C   UNL A   1      48.768  34.708  26.494  1.00  0.00     0.029 A 
ATOM     57  C   UNL A   1      49.222  33.403  26.385  1.00  0.00     0.049 A 
ATOM     58  H   UNL A   1      48.122  31.603  26.447  1.00  0.00     0.167 HD
ATOM     59  C   UNL A   1      50.932  31.631  26.107  1.00  0.00     0.074 A 
ATOM     60  C   UNL A   1      52.292  31.174  25.911  1.00  0.00     0.031 C 
ATOM     61  C   UNL A   1      50.571  32.935  26.190  1.00  0.00     0.031 A 
BRANCH  48  62
ATOM     62  C   UNL A   1      44.498  33.812  26.929  1.00  0.00    -0.014 A 
ATOM     63  C   UNL A   1      44.051  34.253  28.185  1.00  0.00     0.009 A 
ATOM     64  C   UNL A   1      43.887  34.324  25.774  1.00  0.00     0.009 A 
ATOM     65  C   UNL A   1      42.993  35.161  28.281  1.00  0.00     0.001 A 
ATOM     66  C   UNL A   1      42.851  35.254  25.872  1.00  0.00     0.001 A 
ATOM     67  C   UNL A   1      42.398  35.663  27.125  1.00  0.00     0.000 A 
ENDBRANCH  48  62
BRANCH  49  68
ATOM     68  C   UNL A   1      51.724  26.999  25.906  1.00  0.00    -0.014 A 
ATOM     69  C   UNL A   1      52.446  26.519  27.010  1.00  0.00     0.009 A 
ATOM     70  C   UNL A   1      52.058  26.534  24.624  1.00  0.00     0.009 A 
ATOM     71  C   UNL A   1      53.495  25.615  26.829  1.00  0.00     0.001 A 
ATOM     72  C   UNL A   1      53.086  25.605  24.451  1.00  0.00     0.001 A 
ATOM     73  C   UNL A   1      53.811  25.155  25.552  1.00  0.00     0.000 A 
ENDBRANCH  49  68
BRANCH  61  74
ATOM     74  C   UNL A   1      51.667  33.964  26.115  1.00  0.00    -0.014 A 
ATOM     75  C   UNL A   1      52.370  34.374  27.258  1.00  0.00     0.009 A 
ATOM     76  C   UNL A   1      52.025  34.503  24.868  1.00  0.00     0.009 A 
ATOM     77  C   UNL A   1      53.385  35.328  27.158  1.00  0.00     0.001 A 
ATOM     78  C   UNL A   1      53.063  35.430  24.766  1.00  0.00     0.001 A 
ATOM     79  C   UNL A   1      53.735  35.850  25.913  1.00  0.00     0.000 A 
ENDBRANCH  61  74
ENDBRANCH  35  36
ENDBRANCH  28  30
ENDBRANCH  27  28
ENDBRANCH  26  27
ENDBRANCH  25  26
ENDBRANCH  24  25
ENDBRANCH   1  24
TORSDOF 18
ENDMDL
