MODEL 1
REMARK VINA RESULT:     -12.8      0.000      0.000
REMARK SMILES O=C(OCCOCCOC(=O)c1ccc(-c2c3nc(c(-c4ccccc4)c4ccc([nH]4)c(-c4ccccc4)c4nc(c(-c5ccccc5)c5ccc2[nH]5)C=C4)C=C3)cc1)C1=Cc2cc(Cl)cc(C#Cc3ccccc3)c2O[C@@H]1C(F)(F)F
REMARK SMILES IDX 6 1 5 2 4 3 3 4 2 5 1 6 60 7 61 8 78 9 62 10 77 11 63 12
REMARK SMILES IDX 76 13 64 14 67 15 65 16 66 17 79 18 80 19 81 20 82 21 68 22
REMARK SMILES IDX 69 23 70 24 71 25 75 26 72 27 74 28 73 29 7 30 8 31 9 32
REMARK SMILES IDX 10 33 11 34 12 35 13 36 59 37 14 38 58 39 15 40 16 41 17 42
REMARK SMILES IDX 52 43 18 44 57 45 51 46 53 47 19 48 56 49 50 50 49 51 20 53
REMARK SMILES IDX 42 54 27 55 41 56 28 57 31 58 40 59 54 60 29 61 30 62 39 64
REMARK SMILES IDX 55 65 32 66 21 67 22 68 26 69 23 70 25 71 24 72 43 73 44 74
REMARK SMILES IDX 48 75 45 76 47 77 46 78 33 79 34 80 38 81 35 82 37 83 36 84
REMARK H PARENT 53 52 31 63
REMARK Flexibility Score: inf
ROOT
ATOM      1  O   UNL A   1      34.157  19.725  24.763  1.00  0.00    -0.374 OA
ENDROOT
BRANCH   1   2
ATOM      2  C   UNL A   1      32.696  20.055  25.185  1.00  0.00     0.202 C 
BRANCH   2   3
ATOM      3  C   UNL A   1      31.761  21.900  25.886  1.00  0.00     0.261 C 
BRANCH   3   4
ATOM      4  O   UNL A   1      31.407  23.135  25.055  1.00  0.00    -0.460 OA
BRANCH   4   5
ATOM      5  C   UNL A   1      31.491  24.272  25.750  1.00  0.00     0.338 C 
ATOM      6  O   UNL A   1      30.904  24.608  26.745  1.00  0.00    -0.246 OA
BRANCH   5   7
ATOM      7  C   UNL A   1      32.223  25.011  24.744  1.00  0.00     0.087 C 
ATOM      8  C   UNL A   1      31.324  25.992  24.081  1.00  0.00     0.027 C 
ATOM      9  C   UNL A   1      33.720  25.481  25.875  1.00  0.00     0.316 C 
ATOM     10  C   UNL A   1      31.405  27.784  24.383  1.00  0.00     0.020 A 
ATOM     11  O   UNL A   1      33.790  27.368  26.255  1.00  0.00    -0.474 OA
ATOM     12  C   UNL A   1      30.441  28.569  23.824  1.00  0.00     0.032 A 
ATOM     13  C   UNL A   1      32.529  28.479  25.549  1.00  0.00     0.143 A 
ATOM     14  C   UNL A   1      30.434  29.872  24.316  1.00  0.00     0.043 A 
ATOM     15  C   UNL A   1      32.396  29.746  26.030  1.00  0.00     0.069 A 
ATOM     16  Cl  UNL A   1      29.277  30.970  23.632  1.00  0.00    -0.084 Cl
ATOM     17  C   UNL A   1      31.317  30.390  25.362  1.00  0.00     0.041 A 
BRANCH   9  18
ATOM     18  C   UNL A   1      34.818  24.514  25.267  1.00  0.00     0.430 C 
ATOM     19  F   UNL A   1      35.051  24.648  23.950  1.00  0.00    -0.167 F 
ATOM     20  F   UNL A   1      36.003  24.829  25.877  1.00  0.00    -0.167 F 
ATOM     21  F   UNL A   1      34.636  23.203  25.560  1.00  0.00    -0.167 F 
ENDBRANCH   9  18
BRANCH  15  22
ATOM     22  C   UNL A   1      33.176  30.408  27.043  1.00  0.00    -0.058 C 
ATOM     23  C   UNL A   1      33.845  31.106  27.765  1.00  0.00    -0.062 C 
BRANCH  23  24
ATOM     24  C   UNL A   1      34.712  32.101  28.370  1.00  0.00     0.025 A 
ATOM     25  C   UNL A   1      34.425  32.584  29.655  1.00  0.00     0.017 A 
ATOM     26  C   UNL A   1      35.971  32.381  27.822  1.00  0.00     0.017 A 
ATOM     27  C   UNL A   1      35.411  33.237  30.411  1.00  0.00     0.001 A 
ATOM     28  C   UNL A   1      36.962  33.022  28.581  1.00  0.00     0.001 A 
ATOM     29  C   UNL A   1      36.688  33.432  29.884  1.00  0.00     0.000 A 
ENDBRANCH  23  24
ENDBRANCH  15  22
ENDBRANCH   5   7
ENDBRANCH   4   5
ENDBRANCH   3   4
ENDBRANCH   2   3
ENDBRANCH   1   2
BRANCH   1  30
ATOM     30  C   UNL A   1      35.402  20.390  24.995  1.00  0.00     0.202 C 
BRANCH  30  31
ATOM     31  C   UNL A   1      36.753  19.696  24.946  1.00  0.00     0.261 C 
BRANCH  31  32
ATOM     32  O   UNL A   1      37.893  20.534  24.968  1.00  0.00    -0.460 OA
BRANCH  32  33
ATOM     33  C   UNL A   1      39.011  20.008  25.527  1.00  0.00     0.338 C 
ATOM     34  O   UNL A   1      39.378  18.852  25.529  1.00  0.00    -0.246 OA
BRANCH  33  35
ATOM     35  C   UNL A   1      39.670  21.140  26.213  1.00  0.00     0.060 A 
ATOM     36  C   UNL A   1      40.970  21.059  26.710  1.00  0.00     0.016 A 
ATOM     37  C   UNL A   1      39.017  22.363  26.198  1.00  0.00     0.016 A 
ATOM     38  C   UNL A   1      41.681  22.243  27.023  1.00  0.00     0.010 A 
ATOM     39  C   UNL A   1      39.736  23.519  26.490  1.00  0.00     0.010 A 
ATOM     40  C   UNL A   1      41.099  23.505  26.836  1.00  0.00    -0.014 A 
BRANCH  40  41
ATOM     41  C   UNL A   1      41.795  24.824  27.076  1.00  0.00     0.031 A 
ATOM     42  C   UNL A   1      41.065  25.854  27.903  1.00  0.00     0.074 A 
ATOM     43  C   UNL A   1      42.941  25.228  26.469  1.00  0.00     0.049 A 
ATOM     44  N   UNL A   1      41.374  27.108  28.124  1.00  0.00    -0.248 NA
ATOM     45  C   UNL A   1      39.772  25.447  28.478  1.00  0.00     0.031 C 
ATOM     46  C   UNL A   1      43.689  24.486  25.467  1.00  0.00     0.029 A 
ATOM     47  N   UNL A   1      43.663  26.407  26.557  1.00  0.00    -0.354 N 
ATOM     48  C   UNL A   1      40.299  27.628  28.826  1.00  0.00     0.074 A 
ATOM     49  C   UNL A   1      39.281  26.607  28.871  1.00  0.00     0.031 C 
ATOM     50  C   UNL A   1      44.788  25.159  25.090  1.00  0.00     0.029 A 
ATOM     51  C   UNL A   1      44.799  26.448  25.767  1.00  0.00     0.049 A 
ATOM     52  H   UNL A   1      43.390  27.156  27.135  1.00  0.00     0.167 HD
ATOM     53  C   UNL A   1      40.182  28.818  29.457  1.00  0.00     0.031 A 
ATOM     54  C   UNL A   1      45.730  27.408  25.575  1.00  0.00     0.031 A 
ATOM     55  C   UNL A   1      41.199  29.826  29.484  1.00  0.00     0.049 A 
ATOM     56  C   UNL A   1      45.591  28.724  26.300  1.00  0.00     0.074 A 
ATOM     57  C   UNL A   1      41.215  31.001  30.213  1.00  0.00     0.029 A 
ATOM     58  N   UNL A   1      42.374  29.784  28.757  1.00  0.00    -0.354 N 
ATOM     59  N   UNL A   1      44.649  29.120  27.118  1.00  0.00    -0.248 NA
ATOM     60  C   UNL A   1      46.655  29.724  26.089  1.00  0.00     0.031 C 
ATOM     61  C   UNL A   1      42.371  31.706  29.875  1.00  0.00     0.029 A 
ATOM     62  C   UNL A   1      43.108  30.933  28.993  1.00  0.00     0.049 A 
ATOM     63  H   UNL A   1      42.646  29.049  28.162  1.00  0.00     0.167 HD
ATOM     64  C   UNL A   1      45.032  30.385  27.552  1.00  0.00     0.074 A 
ATOM     65  C   UNL A   1      46.298  30.685  26.926  1.00  0.00     0.031 C 
ATOM     66  C   UNL A   1      44.382  31.222  28.395  1.00  0.00     0.031 A 
BRANCH  53  67
ATOM     67  C   UNL A   1      38.919  29.055  30.230  1.00  0.00    -0.014 A 
ATOM     68  C   UNL A   1      37.749  29.486  29.581  1.00  0.00     0.009 A 
ATOM     69  C   UNL A   1      38.887  28.820  31.611  1.00  0.00     0.009 A 
ATOM     70  C   UNL A   1      36.585  29.724  30.307  1.00  0.00     0.001 A 
ATOM     71  C   UNL A   1      37.707  29.017  32.328  1.00  0.00     0.001 A 
ATOM     72  C   UNL A   1      36.562  29.479  31.678  1.00  0.00     0.000 A 
ENDBRANCH  53  67
BRANCH  54  73
ATOM     73  C   UNL A   1      46.912  27.206  24.674  1.00  0.00    -0.014 A 
ATOM     74  C   UNL A   1      48.025  26.474  25.128  1.00  0.00     0.009 A 
ATOM     75  C   UNL A   1      46.996  27.835  23.422  1.00  0.00     0.009 A 
ATOM     76  C   UNL A   1      49.211  26.433  24.387  1.00  0.00     0.001 A 
ATOM     77  C   UNL A   1      48.171  27.758  22.663  1.00  0.00     0.001 A 
ATOM     78  C   UNL A   1      49.283  27.075  23.154  1.00  0.00     0.000 A 
ENDBRANCH  54  73
BRANCH  66  79
ATOM     79  C   UNL A   1      45.045  32.523  28.753  1.00  0.00    -0.014 A 
ATOM     80  C   UNL A   1      45.961  32.615  29.812  1.00  0.00     0.009 A 
ATOM     81  C   UNL A   1      44.804  33.659  27.963  1.00  0.00     0.009 A 
ATOM     82  C   UNL A   1      46.600  33.826  30.088  1.00  0.00     0.001 A 
ATOM     83  C   UNL A   1      45.472  34.857  28.217  1.00  0.00     0.001 A 
ATOM     84  C   UNL A   1      46.363  34.941  29.285  1.00  0.00     0.000 A 
ENDBRANCH  66  79
ENDBRANCH  40  41
ENDBRANCH  33  35
ENDBRANCH  32  33
ENDBRANCH  31  32
ENDBRANCH  30  31
ENDBRANCH   1  30
TORSDOF 17
ENDMDL
MODEL 2
REMARK VINA RESULT:     -12.3      1.283      5.818
REMARK SMILES O=C(OCCOCCOC(=O)c1ccc(-c2c3nc(c(-c4ccccc4)c4ccc([nH]4)c(-c4ccccc4)c4nc(c(-c5ccccc5)c5ccc2[nH]5)C=C4)C=C3)cc1)C1=Cc2cc(Cl)cc(C#Cc3ccccc3)c2O[C@@H]1C(F)(F)F
REMARK SMILES IDX 6 1 5 2 4 3 3 4 2 5 1 6 60 7 61 8 78 9 62 10 77 11 63 12
REMARK SMILES IDX 76 13 64 14 67 15 65 16 66 17 79 18 80 19 81 20 82 21 68 22
REMARK SMILES IDX 69 23 70 24 71 25 75 26 72 27 74 28 73 29 7 30 8 31 9 32
REMARK SMILES IDX 10 33 11 34 12 35 13 36 59 37 14 38 58 39 15 40 16 41 17 42
REMARK SMILES IDX 52 43 18 44 57 45 51 46 53 47 19 48 56 49 50 50 49 51 20 53
REMARK SMILES IDX 42 54 27 55 41 56 28 57 31 58 40 59 54 60 29 61 30 62 39 64
REMARK SMILES IDX 55 65 32 66 21 67 22 68 26 69 23 70 25 71 24 72 43 73 44 74
REMARK SMILES IDX 48 75 45 76 47 77 46 78 33 79 34 80 38 81 35 82 37 83 36 84
REMARK H PARENT 53 52 31 63
REMARK Flexibility Score: inf
ROOT
ATOM      1  O   UNL A   1      34.863  20.210  24.434  1.00  0.00    -0.374 OA
ENDROOT
BRANCH   1   2
ATOM      2  C   UNL A   1      33.419  20.053  24.995  1.00  0.00     0.202 C 
BRANCH   2   3
ATOM      3  C   UNL A   1      32.125  21.425  26.096  1.00  0.00     0.261 C 
BRANCH   3   4
ATOM      4  O   UNL A   1      31.266  22.554  25.521  1.00  0.00    -0.460 OA
BRANCH   4   5
ATOM      5  C   UNL A   1      31.494  23.731  26.107  1.00  0.00     0.338 C 
ATOM      6  O   UNL A   1      31.023  24.191  27.114  1.00  0.00    -0.246 OA
BRANCH   5   7
ATOM      7  C   UNL A   1      32.185  24.328  24.984  1.00  0.00     0.087 C 
ATOM      8  C   UNL A   1      31.254  25.201  24.221  1.00  0.00     0.027 C 
ATOM      9  C   UNL A   1      33.711  24.962  25.989  1.00  0.00     0.316 C 
ATOM     10  C   UNL A   1      31.323  27.018  24.268  1.00  0.00     0.020 A 
ATOM     11  O   UNL A   1      33.771  26.885  26.100  1.00  0.00    -0.474 OA
ATOM     12  C   UNL A   1      30.333  27.711  23.637  1.00  0.00     0.032 A 
ATOM     13  C   UNL A   1      32.476  27.876  25.288  1.00  0.00     0.143 A 
ATOM     14  C   UNL A   1      30.327  29.069  23.943  1.00  0.00     0.043 A 
ATOM     15  C   UNL A   1      32.343  29.197  25.593  1.00  0.00     0.069 A 
ATOM     16  Cl  UNL A   1      29.136  30.053  23.151  1.00  0.00    -0.084 Cl
ATOM     17  C   UNL A   1      31.236  29.734  24.877  1.00  0.00     0.041 A 
BRANCH   9  18
ATOM     18  C   UNL A   1      34.801  23.928  25.486  1.00  0.00     0.430 C 
ATOM     19  F   UNL A   1      34.448  23.172  24.433  1.00  0.00    -0.167 F 
ATOM     20  F   UNL A   1      35.875  24.662  25.060  1.00  0.00    -0.167 F 
ATOM     21  F   UNL A   1      35.312  23.133  26.458  1.00  0.00    -0.167 F 
ENDBRANCH   9  18
BRANCH  15  22
ATOM     22  C   UNL A   1      33.146  30.000  26.478  1.00  0.00    -0.058 C 
ATOM     23  C   UNL A   1      33.693  30.813  27.183  1.00  0.00    -0.062 C 
BRANCH  23  24
ATOM     24  C   UNL A   1      34.174  31.994  27.876  1.00  0.00     0.025 A 
ATOM     25  C   UNL A   1      35.534  32.109  28.194  1.00  0.00     0.017 A 
ATOM     26  C   UNL A   1      33.368  33.137  27.984  1.00  0.00     0.017 A 
ATOM     27  C   UNL A   1      36.094  33.357  28.508  1.00  0.00     0.001 A 
ATOM     28  C   UNL A   1      33.928  34.388  28.286  1.00  0.00     0.001 A 
ATOM     29  C   UNL A   1      35.296  34.501  28.527  1.00  0.00     0.000 A 
ENDBRANCH  23  24
ENDBRANCH  15  22
ENDBRANCH   5   7
ENDBRANCH   4   5
ENDBRANCH   3   4
ENDBRANCH   2   3
ENDBRANCH   1   2
BRANCH   1  30
ATOM     30  C   UNL A   1      36.152  19.965  25.003  1.00  0.00     0.202 C 
BRANCH  30  31
ATOM     31  C   UNL A   1      37.392  20.774  24.665  1.00  0.00     0.261 C 
BRANCH  31  32
ATOM     32  O   UNL A   1      37.872  21.644  25.672  1.00  0.00    -0.460 OA
BRANCH  32  33
ATOM     33  C   UNL A   1      39.141  21.428  26.097  1.00  0.00     0.338 C 
ATOM     34  O   UNL A   1      39.813  20.424  25.979  1.00  0.00    -0.246 OA
BRANCH  33  35
ATOM     35  C   UNL A   1      39.526  22.662  26.813  1.00  0.00     0.060 A 
ATOM     36  C   UNL A   1      40.640  22.726  27.649  1.00  0.00     0.016 A 
ATOM     37  C   UNL A   1      38.841  23.824  26.495  1.00  0.00     0.016 A 
ATOM     38  C   UNL A   1      41.175  23.984  28.018  1.00  0.00     0.010 A 
ATOM     39  C   UNL A   1      39.391  25.054  26.848  1.00  0.00     0.010 A 
ATOM     40  C   UNL A   1      40.604  25.176  27.550  1.00  0.00    -0.014 A 
BRANCH  40  41
ATOM     41  C   UNL A   1      41.138  26.561  27.830  1.00  0.00     0.031 A 
ATOM     42  C   UNL A   1      42.499  26.907  27.277  1.00  0.00     0.074 A 
ATOM     43  C   UNL A   1      40.577  27.460  28.681  1.00  0.00     0.049 A 
ATOM     44  N   UNL A   1      43.240  27.963  27.504  1.00  0.00    -0.248 NA
ATOM     45  C   UNL A   1      43.150  25.888  26.435  1.00  0.00     0.031 C 
ATOM     46  C   UNL A   1      39.388  27.248  29.490  1.00  0.00     0.029 A 
ATOM     47  N   UNL A   1      40.968  28.732  29.063  1.00  0.00    -0.354 N 
ATOM     48  C   UNL A   1      44.441  27.707  26.862  1.00  0.00     0.074 A 
ATOM     49  C   UNL A   1      44.383  26.355  26.363  1.00  0.00     0.031 C 
ATOM     50  C   UNL A   1      39.090  28.347  30.203  1.00  0.00     0.029 A 
ATOM     51  C   UNL A   1      40.123  29.346  29.971  1.00  0.00     0.049 A 
ATOM     52  H   UNL A   1      41.783  29.165  28.719  1.00  0.00     0.167 HD
ATOM     53  C   UNL A   1      45.480  28.538  26.626  1.00  0.00     0.031 A 
ATOM     54  C   UNL A   1      40.174  30.553  30.578  1.00  0.00     0.031 A 
ATOM     55  C   UNL A   1      45.541  29.905  27.052  1.00  0.00     0.049 A 
ATOM     56  C   UNL A   1      41.334  31.474  30.289  1.00  0.00     0.074 A 
ATOM     57  C   UNL A   1      46.496  30.853  26.737  1.00  0.00     0.029 A 
ATOM     58  N   UNL A   1      44.618  30.516  27.880  1.00  0.00    -0.354 N 
ATOM     59  N   UNL A   1      42.373  31.276  29.518  1.00  0.00    -0.248 NA
ATOM     60  C   UNL A   1      41.322  32.796  30.943  1.00  0.00     0.031 C 
ATOM     61  C   UNL A   1      46.188  32.025  27.430  1.00  0.00     0.029 A 
ATOM     62  C   UNL A   1      45.001  31.824  28.116  1.00  0.00     0.049 A 
ATOM     63  H   UNL A   1      43.812  30.086  28.246  1.00  0.00     0.167 HD
ATOM     64  C   UNL A   1      43.104  32.458  29.557  1.00  0.00     0.074 A 
ATOM     65  C   UNL A   1      42.385  33.376  30.409  1.00  0.00     0.031 C 
ATOM     66  C   UNL A   1      44.274  32.749  28.939  1.00  0.00     0.031 A 
BRANCH  53  67
ATOM     67  C   UNL A   1      46.611  27.995  25.804  1.00  0.00    -0.014 A 
ATOM     68  C   UNL A   1      46.572  28.052  24.399  1.00  0.00     0.009 A 
ATOM     69  C   UNL A   1      47.737  27.449  26.434  1.00  0.00     0.009 A 
ATOM     70  C   UNL A   1      47.616  27.529  23.642  1.00  0.00     0.001 A 
ATOM     71  C   UNL A   1      48.801  26.966  25.672  1.00  0.00     0.001 A 
ATOM     72  C   UNL A   1      48.734  26.995  24.279  1.00  0.00     0.000 A 
ENDBRANCH  53  67
BRANCH  54  73
ATOM     73  C   UNL A   1      39.104  31.019  31.519  1.00  0.00    -0.014 A 
ATOM     74  C   UNL A   1      39.294  30.910  32.909  1.00  0.00     0.009 A 
ATOM     75  C   UNL A   1      37.853  31.452  31.052  1.00  0.00     0.009 A 
ATOM     76  C   UNL A   1      38.245  31.156  33.802  1.00  0.00     0.001 A 
ATOM     77  C   UNL A   1      36.816  31.738  31.950  1.00  0.00     0.001 A 
ATOM     78  C   UNL A   1      37.006  31.569  33.321  1.00  0.00     0.000 A 
ENDBRANCH  54  73
BRANCH  66  79
ATOM     79  C   UNL A   1      44.833  34.136  29.100  1.00  0.00    -0.014 A 
ATOM     80  C   UNL A   1      44.425  35.194  28.273  1.00  0.00     0.009 A 
ATOM     81  C   UNL A   1      45.728  34.400  30.149  1.00  0.00     0.009 A 
ATOM     82  C   UNL A   1      44.924  36.482  28.478  1.00  0.00     0.001 A 
ATOM     83  C   UNL A   1      46.195  35.695  30.376  1.00  0.00     0.001 A 
ATOM     84  C   UNL A   1      45.799  36.734  29.535  1.00  0.00     0.000 A 
ENDBRANCH  66  79
ENDBRANCH  40  41
ENDBRANCH  33  35
ENDBRANCH  32  33
ENDBRANCH  31  32
ENDBRANCH  30  31
ENDBRANCH   1  30
TORSDOF 17
ENDMDL
MODEL 3
REMARK VINA RESULT:     -11.7      6.517     11.712
REMARK SMILES O=C(OCCOCCOC(=O)c1ccc(-c2c3nc(c(-c4ccccc4)c4ccc([nH]4)c(-c4ccccc4)c4nc(c(-c5ccccc5)c5ccc2[nH]5)C=C4)C=C3)cc1)C1=Cc2cc(Cl)cc(C#Cc3ccccc3)c2O[C@@H]1C(F)(F)F
REMARK SMILES IDX 6 1 5 2 4 3 3 4 2 5 1 6 60 7 61 8 78 9 62 10 77 11 63 12
REMARK SMILES IDX 76 13 64 14 67 15 65 16 66 17 79 18 80 19 81 20 82 21 68 22
REMARK SMILES IDX 69 23 70 24 71 25 75 26 72 27 74 28 73 29 7 30 8 31 9 32
REMARK SMILES IDX 10 33 11 34 12 35 13 36 59 37 14 38 58 39 15 40 16 41 17 42
REMARK SMILES IDX 52 43 18 44 57 45 51 46 53 47 19 48 56 49 50 50 49 51 20 53
REMARK SMILES IDX 42 54 27 55 41 56 28 57 31 58 40 59 54 60 29 61 30 62 39 64
REMARK SMILES IDX 55 65 32 66 21 67 22 68 26 69 23 70 25 71 24 72 43 73 44 74
REMARK SMILES IDX 48 75 45 76 47 77 46 78 33 79 34 80 38 81 35 82 37 83 36 84
REMARK H PARENT 53 52 31 63
REMARK Flexibility Score: inf
ROOT
ATOM      1  O   UNL A   1      34.303  37.034  33.026  1.00  0.00    -0.374 OA
ENDROOT
BRANCH   1   2
ATOM      2  C   UNL A   1      34.337  35.941  34.133  1.00  0.00     0.202 C 
BRANCH   2   3
ATOM      3  C   UNL A   1      35.462  34.078  34.310  1.00  0.00     0.261 C 
BRANCH   3   4
ATOM      4  O   UNL A   1      36.982  33.913  34.371  1.00  0.00    -0.460 OA
BRANCH   4   5
ATOM      5  C   UNL A   1      37.390  32.701  33.988  1.00  0.00     0.338 C 
ATOM      6  O   UNL A   1      36.743  31.745  33.649  1.00  0.00    -0.246 OA
BRANCH   5   7
ATOM      7  C   UNL A   1      38.757  32.852  34.438  1.00  0.00     0.087 C 
ATOM      8  C   UNL A   1      38.946  34.195  35.048  1.00  0.00     0.027 C 
ATOM      9  C   UNL A   1      38.847  31.181  35.407  1.00  0.00     0.316 C 
ATOM     10  C   UNL A   1      39.118  34.462  36.839  1.00  0.00     0.020 A 
ATOM     11  O   UNL A   1      38.971  31.442  37.312  1.00  0.00    -0.474 OA
ATOM     12  C   UNL A   1      39.147  35.748  37.292  1.00  0.00     0.032 A 
ATOM     13  C   UNL A   1      39.006  33.133  37.991  1.00  0.00     0.143 A 
ATOM     14  C   UNL A   1      39.021  35.849  38.675  1.00  0.00     0.043 A 
ATOM     15  C   UNL A   1      38.806  33.332  39.323  1.00  0.00     0.069 A 
ATOM     16  Cl  UNL A   1      39.098  37.442  39.361  1.00  0.00    -0.084 Cl
ATOM     17  C   UNL A   1      38.825  34.729  39.596  1.00  0.00     0.041 A 
BRANCH   9  18
ATOM     18  C   UNL A   1      39.774  30.357  34.421  1.00  0.00     0.430 C 
ATOM     19  F   UNL A   1      40.768  31.049  33.839  1.00  0.00    -0.167 F 
ATOM     20  F   UNL A   1      40.394  29.396  35.172  1.00  0.00    -0.167 F 
ATOM     21  F   UNL A   1      39.103  29.654  33.476  1.00  0.00    -0.167 F 
ENDBRANCH   9  18
BRANCH  15  22
ATOM     22  C   UNL A   1      38.604  32.351  40.357  1.00  0.00    -0.058 C 
ATOM     23  C   UNL A   1      38.261  31.609  41.245  1.00  0.00    -0.062 C 
BRANCH  23  24
ATOM     24  C   UNL A   1      37.625  30.928  42.358  1.00  0.00     0.025 A 
ATOM     25  C   UNL A   1      38.303  29.893  43.019  1.00  0.00     0.017 A 
ATOM     26  C   UNL A   1      36.478  31.461  42.961  1.00  0.00     0.017 A 
ATOM     27  C   UNL A   1      37.902  29.478  44.299  1.00  0.00     0.001 A 
ATOM     28  C   UNL A   1      36.084  31.056  44.246  1.00  0.00     0.001 A 
ATOM     29  C   UNL A   1      36.809  30.079  44.923  1.00  0.00     0.000 A 
ENDBRANCH  23  24
ENDBRANCH  15  22
ENDBRANCH   5   7
ENDBRANCH   4   5
ENDBRANCH   3   4
ENDBRANCH   2   3
ENDBRANCH   1   2
BRANCH   1  30
ATOM     30  C   UNL A   1      33.611  37.122  31.777  1.00  0.00     0.202 C 
BRANCH  30  31
ATOM     31  C   UNL A   1      32.485  36.189  31.367  1.00  0.00     0.261 C 
BRANCH  31  32
ATOM     32  O   UNL A   1      32.866  34.954  30.794  1.00  0.00    -0.460 OA
BRANCH  32  33
ATOM     33  C   UNL A   1      33.238  34.988  29.491  1.00  0.00     0.338 C 
ATOM     34  O   UNL A   1      32.725  35.601  28.578  1.00  0.00    -0.246 OA
BRANCH  33  35
ATOM     35  C   UNL A   1      34.375  34.049  29.387  1.00  0.00     0.060 A 
ATOM     36  C   UNL A   1      35.360  34.170  28.407  1.00  0.00     0.016 A 
ATOM     37  C   UNL A   1      34.537  33.128  30.411  1.00  0.00     0.016 A 
ATOM     38  C   UNL A   1      36.595  33.493  28.560  1.00  0.00     0.010 A 
ATOM     39  C   UNL A   1      35.764  32.486  30.558  1.00  0.00     0.010 A 
ATOM     40  C   UNL A   1      36.849  32.703  29.689  1.00  0.00    -0.014 A 
BRANCH  40  41
ATOM     41  C   UNL A   1      38.154  31.997  29.976  1.00  0.00     0.031 A 
ATOM     42  C   UNL A   1      39.221  32.777  30.704  1.00  0.00     0.074 A 
ATOM     43  C   UNL A   1      38.512  30.782  29.484  1.00  0.00     0.049 A 
ATOM     44  N   UNL A   1      40.470  32.456  30.933  1.00  0.00    -0.248 NA
ATOM     45  C   UNL A   1      38.861  34.135  31.150  1.00  0.00     0.031 C 
ATOM     46  C   UNL A   1      37.729  29.957  28.579  1.00  0.00     0.029 A 
ATOM     47  N   UNL A   1      39.672  30.039  29.626  1.00  0.00    -0.354 N 
ATOM     48  C   UNL A   1      41.034  33.581  31.511  1.00  0.00     0.074 A 
ATOM     49  C   UNL A   1      40.043  34.629  31.469  1.00  0.00     0.031 C 
ATOM     50  C   UNL A   1      38.364  28.806  28.306  1.00  0.00     0.029 A 
ATOM     51  C   UNL A   1      39.665  28.827  28.957  1.00  0.00     0.049 A 
ATOM     52  H   UNL A   1      40.441  30.348  30.158  1.00  0.00     0.167 HD
ATOM     53  C   UNL A   1      42.239  33.727  32.104  1.00  0.00     0.031 A 
ATOM     54  C   UNL A   1      40.596  27.852  28.846  1.00  0.00     0.031 A 
ATOM     55  C   UNL A   1      43.220  32.689  32.219  1.00  0.00     0.049 A 
ATOM     56  C   UNL A   1      41.930  28.026  29.529  1.00  0.00     0.074 A 
ATOM     57  C   UNL A   1      44.409  32.714  32.924  1.00  0.00     0.029 A 
ATOM     58  N   UNL A   1      43.129  31.447  31.618  1.00  0.00    -0.354 N 
ATOM     59  N   UNL A   1      42.369  29.035  30.237  1.00  0.00    -0.248 NA
ATOM     60  C   UNL A   1      42.895  26.918  29.411  1.00  0.00     0.031 C 
ATOM     61  C   UNL A   1      45.074  31.509  32.695  1.00  0.00     0.029 A 
ATOM     62  C   UNL A   1      44.262  30.708  31.909  1.00  0.00     0.049 A 
ATOM     63  H   UNL A   1      42.375  31.137  31.068  1.00  0.00     0.167 HD
ATOM     64  C   UNL A   1      43.631  28.663  30.686  1.00  0.00     0.074 A 
ATOM     65  C   UNL A   1      43.883  27.330  30.189  1.00  0.00     0.031 C 
ATOM     66  C   UNL A   1      44.503  29.371  31.441  1.00  0.00     0.031 A 
BRANCH  53  67
ATOM     67  C   UNL A   1      42.528  35.056  32.738  1.00  0.00    -0.014 A 
ATOM     68  C   UNL A   1      42.018  35.372  34.010  1.00  0.00     0.009 A 
ATOM     69  C   UNL A   1      43.338  35.987  32.076  1.00  0.00     0.009 A 
ATOM     70  C   UNL A   1      42.273  36.614  34.584  1.00  0.00     0.001 A 
ATOM     71  C   UNL A   1      43.628  37.214  32.674  1.00  0.00     0.001 A 
ATOM     72  C   UNL A   1      43.087  37.530  33.920  1.00  0.00     0.000 A 
ENDBRANCH  53  67
BRANCH  54  73
ATOM     73  C   UNL A   1      40.342  26.591  28.077  1.00  0.00    -0.014 A 
ATOM     74  C   UNL A   1      40.829  26.457  26.763  1.00  0.00     0.009 A 
ATOM     75  C   UNL A   1      39.518  25.575  28.585  1.00  0.00     0.009 A 
ATOM     76  C   UNL A   1      40.447  25.378  25.959  1.00  0.00     0.001 A 
ATOM     77  C   UNL A   1      39.169  24.474  27.791  1.00  0.00     0.001 A 
ATOM     78  C   UNL A   1      39.616  24.387  26.474  1.00  0.00     0.000 A 
ENDBRANCH  54  73
BRANCH  66  79
ATOM     79  C   UNL A   1      45.793  28.710  31.842  1.00  0.00    -0.014 A 
ATOM     80  C   UNL A   1      45.884  27.910  32.991  1.00  0.00     0.009 A 
ATOM     81  C   UNL A   1      46.917  28.830  31.008  1.00  0.00     0.009 A 
ATOM     82  C   UNL A   1      47.082  27.267  33.311  1.00  0.00     0.001 A 
ATOM     83  C   UNL A   1      48.101  28.156  31.309  1.00  0.00     0.001 A 
ATOM     84  C   UNL A   1      48.185  27.382  32.465  1.00  0.00     0.000 A 
ENDBRANCH  66  79
ENDBRANCH  40  41
ENDBRANCH  33  35
ENDBRANCH  32  33
ENDBRANCH  31  32
ENDBRANCH  30  31
ENDBRANCH   1  30
TORSDOF 17
ENDMDL
