MODEL 1
REMARK VINA RESULT:     -11.4      0.000      0.000
REMARK SMILES C[C@@H](C(=O)OCCOCCOC(=O)c1ccc(-c2c3nc(c(-c4ccccc4)c4ccc([nH]4)c(-c4ccccc4)c4nc(c(-c5ccccc5)c5ccc2[nH]5)C=C4)C=C3)cc1)c1ccc(C[C@H]2CCC[C@H]2O)cc1-c1ccc(O)cc1
REMARK SMILES IDX 7 1 6 2 5 3 3 4 4 5 2 6 1 7 62 8 63 9 74 10 64 11 73 12
REMARK SMILES IDX 65 13 75 14 76 15 81 16 77 17 80 18 78 19 79 20 66 22 67 23
REMARK SMILES IDX 68 24 71 25 69 26 70 27 72 28 8 30 9 31 10 32 11 33 12 34
REMARK SMILES IDX 13 35 14 36 15 37 61 38 16 39 60 40 17 41 18 42 19 43 54 44
REMARK SMILES IDX 20 45 59 46 53 47 55 48 21 49 58 50 52 51 51 52 22 54 44 55
REMARK SMILES IDX 29 56 43 57 30 58 33 59 42 60 56 61 31 62 32 63 41 65 57 66
REMARK SMILES IDX 34 67 23 68 24 69 28 70 25 71 27 72 26 73 45 74 46 75 50 76
REMARK SMILES IDX 47 77 49 78 48 79 35 80 36 81 40 82 37 83 39 84 38 85
REMARK H PARENT 79 21 72 29 55 53 33 64
REMARK Flexibility Score: inf
ROOT
ATOM      1  C   UNL A   1      40.339  21.566  27.208  1.00  0.00     0.202 C 
ENDROOT
BRANCH   1   2
ATOM      2  C   UNL A   1      39.575  21.853  25.906  1.00  0.00     0.261 C 
BRANCH   2   3
ATOM      3  O   UNL A   1      38.152  21.836  26.100  1.00  0.00    -0.463 OA
BRANCH   3   4
ATOM      4  C   UNL A   1      37.502  22.964  25.690  1.00  0.00     0.313 C 
ATOM      5  O   UNL A   1      37.689  24.074  26.175  1.00  0.00    -0.252 OA
BRANCH   4   6
ATOM      6  C   UNL A   1      36.433  22.650  24.649  1.00  0.00     0.127 C 
ATOM      7  C   UNL A   1      36.789  22.742  23.159  1.00  0.00     0.025 C 
BRANCH   6   8
ATOM      8  C   UNL A   1      35.098  23.334  24.938  1.00  0.00    -0.026 A 
ATOM      9  C   UNL A   1      35.208  24.702  25.262  1.00  0.00     0.005 A 
ATOM     10  C   UNL A   1      33.807  22.740  24.923  1.00  0.00    -0.014 A 
ATOM     11  C   UNL A   1      34.103  25.456  25.625  1.00  0.00     0.004 A 
ATOM     12  C   UNL A   1      32.718  23.520  25.364  1.00  0.00     0.012 A 
ATOM     13  C   UNL A   1      32.860  24.852  25.757  1.00  0.00    -0.047 A 
BRANCH  10  14
ATOM     14  C   UNL A   1      33.439  21.395  24.436  1.00  0.00    -0.018 A 
ATOM     15  C   UNL A   1      32.576  21.252  23.333  1.00  0.00     0.012 A 
ATOM     16  C   UNL A   1      33.754  20.238  25.173  1.00  0.00     0.012 A 
ATOM     17  C   UNL A   1      32.122  19.996  22.918  1.00  0.00     0.047 A 
ATOM     18  C   UNL A   1      33.259  18.984  24.792  1.00  0.00     0.047 A 
ATOM     19  C   UNL A   1      32.490  18.872  23.640  1.00  0.00     0.115 A 
BRANCH  19  20
ATOM     20  O   UNL A   1      32.180  17.626  23.181  1.00  0.00    -0.508 OA
ATOM     21  H   UNL A   1      31.693  17.528  22.386  1.00  0.00     0.293 HD
ENDBRANCH  19  20
ENDBRANCH  10  14
BRANCH  13  22
ATOM     22  C   UNL A   1      31.705  25.599  26.358  1.00  0.00     0.041 C 
BRANCH  22  23
ATOM     23  C   UNL A   1      30.953  26.548  25.411  1.00  0.00     0.022 C 
ATOM     24  C   UNL A   1      31.793  27.212  24.305  1.00  0.00     0.007 C 
ATOM     25  C   UNL A   1      29.714  26.012  24.672  1.00  0.00     0.117 C 
ATOM     26  C   UNL A   1      30.814  27.528  23.169  1.00  0.00     0.003 C 
ATOM     27  C   UNL A   1      29.430  27.129  23.677  1.00  0.00     0.032 C 
BRANCH  25  28
ATOM     28  O   UNL A   1      29.911  24.817  23.936  1.00  0.00    -0.393 OA
ATOM     29  H   UNL A   1      29.083  24.570  23.494  1.00  0.00     0.210 HD
ENDBRANCH  25  28
ENDBRANCH  22  23
ENDBRANCH  13  22
ENDBRANCH   6   8
ENDBRANCH   4   6
ENDBRANCH   3   4
ENDBRANCH   2   3
ENDBRANCH   1   2
BRANCH   1  30
ATOM     30  O   UNL A   1      41.487  20.717  27.121  1.00  0.00    -0.374 OA
BRANCH  30  31
ATOM     31  C   UNL A   1      42.213  20.850  25.898  1.00  0.00     0.202 C 
BRANCH  31  32
ATOM     32  C   UNL A   1      43.286  21.937  25.906  1.00  0.00     0.261 C 
BRANCH  32  33
ATOM     33  O   UNL A   1      42.790  23.082  25.237  1.00  0.00    -0.460 OA
BRANCH  33  34
ATOM     34  C   UNL A   1      43.659  24.119  25.284  1.00  0.00     0.338 C 
ATOM     35  O   UNL A   1      44.630  24.318  24.574  1.00  0.00    -0.246 OA
BRANCH  34  36
ATOM     36  C   UNL A   1      43.039  25.096  26.189  1.00  0.00     0.060 A 
ATOM     37  C   UNL A   1      43.572  26.387  26.227  1.00  0.00     0.016 A 
ATOM     38  C   UNL A   1      41.894  24.756  26.920  1.00  0.00     0.016 A 
ATOM     39  C   UNL A   1      42.997  27.331  27.065  1.00  0.00     0.010 A 
ATOM     40  C   UNL A   1      41.303  25.702  27.734  1.00  0.00     0.010 A 
ATOM     41  C   UNL A   1      41.894  26.967  27.847  1.00  0.00    -0.014 A 
BRANCH  41  42
ATOM     42  C   UNL A   1      41.476  27.811  28.971  1.00  0.00     0.031 A 
ATOM     43  C   UNL A   1      42.235  27.664  30.256  1.00  0.00     0.074 A 
ATOM     44  C   UNL A   1      40.419  28.623  28.841  1.00  0.00     0.049 A 
ATOM     45  N   UNL A   1      42.016  28.223  31.413  1.00  0.00    -0.248 NA
ATOM     46  C   UNL A   1      43.384  26.737  30.240  1.00  0.00     0.031 C 
ATOM     47  C   UNL A   1      39.634  28.806  27.619  1.00  0.00     0.029 A 
ATOM     48  N   UNL A   1      39.817  29.435  29.759  1.00  0.00    -0.354 N 
ATOM     49  C   UNL A   1      42.986  27.705  32.262  1.00  0.00     0.074 A 
ATOM     50  C   UNL A   1      43.766  26.756  31.505  1.00  0.00     0.031 C 
ATOM     51  C   UNL A   1      38.647  29.684  27.866  1.00  0.00     0.029 A 
ATOM     52  C   UNL A   1      38.720  30.093  29.266  1.00  0.00     0.049 A 
ATOM     53  H   UNL A   1      40.139  29.538  30.683  1.00  0.00     0.167 HD
ATOM     54  C   UNL A   1      43.206  28.007  33.560  1.00  0.00     0.031 A 
ATOM     55  C   UNL A   1      37.872  30.925  29.895  1.00  0.00     0.031 A 
ATOM     56  C   UNL A   1      42.403  28.950  34.287  1.00  0.00     0.049 A 
ATOM     57  C   UNL A   1      38.123  31.227  31.347  1.00  0.00     0.074 A 
ATOM     58  C   UNL A   1      42.538  29.375  35.595  1.00  0.00     0.029 A 
ATOM     59  N   UNL A   1      41.303  29.608  33.755  1.00  0.00    -0.354 N 
ATOM     60  N   UNL A   1      39.075  30.778  32.133  1.00  0.00    -0.248 NA
ATOM     61  C   UNL A   1      37.195  32.161  31.994  1.00  0.00     0.031 C 
ATOM     62  C   UNL A   1      41.487  30.256  35.869  1.00  0.00     0.029 A 
ATOM     63  C   UNL A   1      40.733  30.423  34.715  1.00  0.00     0.049 A 
ATOM     64  H   UNL A   1      40.978  29.511  32.831  1.00  0.00     0.167 HD
ATOM     65  C   UNL A   1      38.878  31.395  33.360  1.00  0.00     0.074 A 
ATOM     66  C   UNL A   1      37.724  32.261  33.206  1.00  0.00     0.031 C 
ATOM     67  C   UNL A   1      39.582  31.266  34.512  1.00  0.00     0.031 A 
BRANCH  54  68
ATOM     68  C   UNL A   1      44.329  27.293  34.257  1.00  0.00    -0.014 A 
ATOM     69  C   UNL A   1      44.136  26.039  34.862  1.00  0.00     0.009 A 
ATOM     70  C   UNL A   1      45.598  27.886  34.320  1.00  0.00     0.009 A 
ATOM     71  C   UNL A   1      45.180  25.413  35.546  1.00  0.00     0.001 A 
ATOM     72  C   UNL A   1      46.649  27.245  34.979  1.00  0.00     0.001 A 
ATOM     73  C   UNL A   1      46.437  26.014  35.600  1.00  0.00     0.000 A 
ENDBRANCH  54  68
BRANCH  55  74
ATOM     74  C   UNL A   1      36.739  31.534  29.155  1.00  0.00    -0.014 A 
ATOM     75  C   UNL A   1      35.557  30.809  28.943  1.00  0.00     0.009 A 
ATOM     76  C   UNL A   1      36.824  32.849  28.669  1.00  0.00     0.009 A 
ATOM     77  C   UNL A   1      34.492  31.380  28.241  1.00  0.00     0.001 A 
ATOM     78  C   UNL A   1      35.748  33.427  27.992  1.00  0.00     0.001 A 
ATOM     79  C   UNL A   1      34.587  32.689  27.771  1.00  0.00     0.000 A 
ENDBRANCH  55  74
BRANCH  67  80
ATOM     80  C   UNL A   1      39.138  32.106  35.673  1.00  0.00    -0.014 A 
ATOM     81  C   UNL A   1      39.597  33.421  35.836  1.00  0.00     0.009 A 
ATOM     82  C   UNL A   1      38.207  31.586  36.585  1.00  0.00     0.009 A 
ATOM     83  C   UNL A   1      39.158  34.188  36.916  1.00  0.00     0.001 A 
ATOM     84  C   UNL A   1      37.745  32.366  37.644  1.00  0.00     0.001 A 
ATOM     85  C   UNL A   1      38.229  33.663  37.814  1.00  0.00     0.000 A 
ENDBRANCH  67  80
ENDBRANCH  41  42
ENDBRANCH  34  36
ENDBRANCH  33  34
ENDBRANCH  32  33
ENDBRANCH  31  32
ENDBRANCH  30  31
ENDBRANCH   1  30
TORSDOF 20
ENDMDL
MODEL 2
REMARK VINA RESULT:     -11.3      2.449      8.258
REMARK SMILES C[C@@H](C(=O)OCCOCCOC(=O)c1ccc(-c2c3nc(c(-c4ccccc4)c4ccc([nH]4)c(-c4ccccc4)c4nc(c(-c5ccccc5)c5ccc2[nH]5)C=C4)C=C3)cc1)c1ccc(C[C@H]2CCC[C@H]2O)cc1-c1ccc(O)cc1
REMARK SMILES IDX 7 1 6 2 5 3 3 4 4 5 2 6 1 7 62 8 63 9 74 10 64 11 73 12
REMARK SMILES IDX 65 13 75 14 76 15 81 16 77 17 80 18 78 19 79 20 66 22 67 23
REMARK SMILES IDX 68 24 71 25 69 26 70 27 72 28 8 30 9 31 10 32 11 33 12 34
REMARK SMILES IDX 13 35 14 36 15 37 61 38 16 39 60 40 17 41 18 42 19 43 54 44
REMARK SMILES IDX 20 45 59 46 53 47 55 48 21 49 58 50 52 51 51 52 22 54 44 55
REMARK SMILES IDX 29 56 43 57 30 58 33 59 42 60 56 61 31 62 32 63 41 65 57 66
REMARK SMILES IDX 34 67 23 68 24 69 28 70 25 71 27 72 26 73 45 74 46 75 50 76
REMARK SMILES IDX 47 77 49 78 48 79 35 80 36 81 40 82 37 83 39 84 38 85
REMARK H PARENT 79 21 72 29 55 53 33 64
REMARK Flexibility Score: inf
ROOT
ATOM      1  C   UNL A   1      31.866  28.461  26.876  1.00  0.00     0.202 C 
ENDROOT
BRANCH   1   2
ATOM      2  C   UNL A   1      33.029  27.488  26.630  1.00  0.00     0.261 C 
BRANCH   2   3
ATOM      3  O   UNL A   1      32.870  26.756  25.405  1.00  0.00    -0.463 OA
BRANCH   3   4
ATOM      4  C   UNL A   1      33.116  25.416  25.499  1.00  0.00     0.313 C 
ATOM      5  O   UNL A   1      32.895  24.751  26.504  1.00  0.00    -0.252 OA
BRANCH   4   6
ATOM      6  C   UNL A   1      33.813  24.884  24.252  1.00  0.00     0.127 C 
ATOM      7  C   UNL A   1      33.639  25.630  22.922  1.00  0.00     0.025 C 
BRANCH   6   8
ATOM      8  C   UNL A   1      33.634  23.378  24.064  1.00  0.00    -0.026 A 
ATOM      9  C   UNL A   1      32.405  23.011  23.481  1.00  0.00     0.005 A 
ATOM     10  C   UNL A   1      34.552  22.353  24.420  1.00  0.00    -0.014 A 
ATOM     11  C   UNL A   1      32.049  21.682  23.307  1.00  0.00     0.004 A 
ATOM     12  C   UNL A   1      34.127  21.015  24.293  1.00  0.00     0.012 A 
ATOM     13  C   UNL A   1      32.872  20.673  23.786  1.00  0.00    -0.047 A 
BRANCH  10  14
ATOM     14  C   UNL A   1      35.953  22.511  24.861  1.00  0.00    -0.018 A 
ATOM     15  C   UNL A   1      36.837  21.417  24.818  1.00  0.00     0.012 A 
ATOM     16  C   UNL A   1      36.384  23.673  25.529  1.00  0.00     0.012 A 
ATOM     17  C   UNL A   1      38.135  21.504  25.332  1.00  0.00     0.047 A 
ATOM     18  C   UNL A   1      37.665  23.747  26.091  1.00  0.00     0.047 A 
ATOM     19  C   UNL A   1      38.543  22.680  25.941  1.00  0.00     0.115 A 
BRANCH  19  20
ATOM     20  O   UNL A   1      39.841  22.844  26.324  1.00  0.00    -0.508 OA
ATOM     21  H   UNL A   1      40.203  23.705  26.394  1.00  0.00     0.293 HD
ENDBRANCH  19  20
ENDBRANCH  10  14
BRANCH  13  22
ATOM     22  C   UNL A   1      32.403  19.246  23.805  1.00  0.00     0.041 C 
BRANCH  22  23
ATOM     23  C   UNL A   1      33.292  18.256  24.576  1.00  0.00     0.022 C 
ATOM     24  C   UNL A   1      32.560  17.215  25.440  1.00  0.00     0.007 C 
ATOM     25  C   UNL A   1      34.323  17.433  23.786  1.00  0.00     0.117 C 
ATOM     26  C   UNL A   1      33.510  16.017  25.547  1.00  0.00     0.003 C 
ATOM     27  C   UNL A   1      34.795  16.428  24.829  1.00  0.00     0.032 C 
BRANCH  25  28
ATOM     28  O   UNL A   1      33.810  16.703  22.685  1.00  0.00    -0.393 OA
ATOM     29  H   UNL A   1      34.533  16.481  22.078  1.00  0.00     0.210 HD
ENDBRANCH  25  28
ENDBRANCH  22  23
ENDBRANCH  13  22
ENDBRANCH   6   8
ENDBRANCH   4   6
ENDBRANCH   3   4
ENDBRANCH   2   3
ENDBRANCH   1   2
BRANCH   1  30
ATOM     30  O   UNL A   1      31.946  29.749  26.257  1.00  0.00    -0.374 OA
BRANCH  30  31
ATOM     31  C   UNL A   1      32.957  30.593  26.810  1.00  0.00     0.202 C 
BRANCH  31  32
ATOM     32  C   UNL A   1      32.470  31.973  27.245  1.00  0.00     0.261 C 
BRANCH  32  33
ATOM     33  O   UNL A   1      33.561  32.877  27.226  1.00  0.00    -0.460 OA
BRANCH  33  34
ATOM     34  C   UNL A   1      33.461  33.820  28.192  1.00  0.00     0.338 C 
ATOM     35  O   UNL A   1      32.536  34.587  28.400  1.00  0.00    -0.246 OA
BRANCH  34  36
ATOM     36  C   UNL A   1      34.578  33.551  29.106  1.00  0.00     0.060 A 
ATOM     37  C   UNL A   1      35.804  34.169  28.846  1.00  0.00     0.016 A 
ATOM     38  C   UNL A   1      34.383  32.766  30.250  1.00  0.00     0.016 A 
ATOM     39  C   UNL A   1      36.871  33.940  29.702  1.00  0.00     0.010 A 
ATOM     40  C   UNL A   1      35.436  32.559  31.118  1.00  0.00     0.010 A 
ATOM     41  C   UNL A   1      36.691  33.099  30.806  1.00  0.00    -0.014 A 
BRANCH  41  42
ATOM     42  C   UNL A   1      37.853  32.570  31.528  1.00  0.00     0.031 A 
ATOM     43  C   UNL A   1      38.576  31.413  30.905  1.00  0.00     0.074 A 
ATOM     44  C   UNL A   1      38.190  33.080  32.719  1.00  0.00     0.049 A 
ATOM     45  N   UNL A   1      39.570  30.711  31.374  1.00  0.00    -0.248 NA
ATOM     46  C   UNL A   1      38.094  30.969  29.582  1.00  0.00     0.031 C 
ATOM     47  C   UNL A   1      37.521  34.201  33.382  1.00  0.00     0.029 A 
ATOM     48  N   UNL A   1      39.174  32.707  33.588  1.00  0.00    -0.354 N 
ATOM     49  C   UNL A   1      39.819  29.738  30.414  1.00  0.00     0.074 A 
ATOM     50  C   UNL A   1      38.849  29.907  29.360  1.00  0.00     0.031 C 
ATOM     51  C   UNL A   1      38.122  34.426  34.563  1.00  0.00     0.029 A 
ATOM     52  C   UNL A   1      39.190  33.446  34.743  1.00  0.00     0.049 A 
ATOM     53  H   UNL A   1      39.810  31.978  33.404  1.00  0.00     0.167 HD
ATOM     54  C   UNL A   1      40.784  28.793  30.416  1.00  0.00     0.031 A 
ATOM     55  C   UNL A   1      39.981  33.324  35.822  1.00  0.00     0.031 A 
ATOM     56  C   UNL A   1      41.728  28.645  31.487  1.00  0.00     0.049 A 
ATOM     57  C   UNL A   1      41.032  32.247  35.811  1.00  0.00     0.074 A 
ATOM     58  C   UNL A   1      42.778  27.754  31.600  1.00  0.00     0.029 A 
ATOM     59  N   UNL A   1      41.724  29.419  32.641  1.00  0.00    -0.354 N 
ATOM     60  N   UNL A   1      41.301  31.364  34.878  1.00  0.00    -0.248 NA
ATOM     61  C   UNL A   1      41.897  32.161  36.993  1.00  0.00     0.031 C 
ATOM     62  C   UNL A   1      43.378  27.956  32.847  1.00  0.00     0.029 A 
ATOM     63  C   UNL A   1      42.739  29.011  33.484  1.00  0.00     0.049 A 
ATOM     64  H   UNL A   1      41.091  30.149  32.829  1.00  0.00     0.167 HD
ATOM     65  C   UNL A   1      42.384  30.633  35.345  1.00  0.00     0.074 A 
ATOM     66  C   UNL A   1      42.729  31.190  36.640  1.00  0.00     0.031 C 
ATOM     67  C   UNL A   1      43.041  29.598  34.765  1.00  0.00     0.031 A 
BRANCH  54  68
ATOM     68  C   UNL A   1      40.833  27.851  29.247  1.00  0.00    -0.014 A 
ATOM     69  C   UNL A   1      39.974  26.741  29.164  1.00  0.00     0.009 A 
ATOM     70  C   UNL A   1      41.758  28.068  28.216  1.00  0.00     0.009 A 
ATOM     71  C   UNL A   1      40.067  25.851  28.093  1.00  0.00     0.001 A 
ATOM     72  C   UNL A   1      41.829  27.192  27.131  1.00  0.00     0.001 A 
ATOM     73  C   UNL A   1      40.991  26.079  27.074  1.00  0.00     0.000 A 
ENDBRANCH  54  68
BRANCH  55  74
ATOM     74  C   UNL A   1      39.822  34.248  36.972  1.00  0.00    -0.014 A 
ATOM     75  C   UNL A   1      39.043  33.877  38.079  1.00  0.00     0.009 A 
ATOM     76  C   UNL A   1      40.459  35.499  36.981  1.00  0.00     0.009 A 
ATOM     77  C   UNL A   1      38.887  34.750  39.159  1.00  0.00     0.001 A 
ATOM     78  C   UNL A   1      40.325  36.357  38.074  1.00  0.00     0.001 A 
ATOM     79  C   UNL A   1      39.532  35.985  39.158  1.00  0.00     0.000 A 
ENDBRANCH  55  74
BRANCH  67  80
ATOM     80  C   UNL A   1      44.212  29.035  35.516  1.00  0.00    -0.014 A 
ATOM     81  C   UNL A   1      44.054  27.976  36.421  1.00  0.00     0.009 A 
ATOM     82  C   UNL A   1      45.497  29.544  35.271  1.00  0.00     0.009 A 
ATOM     83  C   UNL A   1      45.161  27.459  37.096  1.00  0.00     0.001 A 
ATOM     84  C   UNL A   1      46.605  29.004  35.923  1.00  0.00     0.001 A 
ATOM     85  C   UNL A   1      46.434  27.969  36.842  1.00  0.00     0.000 A 
ENDBRANCH  67  80
ENDBRANCH  41  42
ENDBRANCH  34  36
ENDBRANCH  33  34
ENDBRANCH  32  33
ENDBRANCH  31  32
ENDBRANCH  30  31
ENDBRANCH   1  30
TORSDOF 20
ENDMDL
MODEL 3
REMARK VINA RESULT:     -10.9      4.966     12.162
REMARK SMILES C[C@@H](C(=O)OCCOCCOC(=O)c1ccc(-c2c3nc(c(-c4ccccc4)c4ccc([nH]4)c(-c4ccccc4)c4nc(c(-c5ccccc5)c5ccc2[nH]5)C=C4)C=C3)cc1)c1ccc(C[C@H]2CCC[C@H]2O)cc1-c1ccc(O)cc1
REMARK SMILES IDX 7 1 6 2 5 3 3 4 4 5 2 6 1 7 62 8 63 9 74 10 64 11 73 12
REMARK SMILES IDX 65 13 75 14 76 15 81 16 77 17 80 18 78 19 79 20 66 22 67 23
REMARK SMILES IDX 68 24 71 25 69 26 70 27 72 28 8 30 9 31 10 32 11 33 12 34
REMARK SMILES IDX 13 35 14 36 15 37 61 38 16 39 60 40 17 41 18 42 19 43 54 44
REMARK SMILES IDX 20 45 59 46 53 47 55 48 21 49 58 50 52 51 51 52 22 54 44 55
REMARK SMILES IDX 29 56 43 57 30 58 33 59 42 60 56 61 31 62 32 63 41 65 57 66
REMARK SMILES IDX 34 67 23 68 24 69 28 70 25 71 27 72 26 73 45 74 46 75 50 76
REMARK SMILES IDX 47 77 49 78 48 79 35 80 36 81 40 82 37 83 39 84 38 85
REMARK H PARENT 79 21 72 29 55 53 33 64
REMARK Flexibility Score: inf
ROOT
ATOM      1  C   UNL A   1      34.596  34.274  31.710  1.00  0.00     0.202 C 
ENDROOT
BRANCH   1   2
ATOM      2  C   UNL A   1      35.234  33.078  32.431  1.00  0.00     0.261 C 
BRANCH   2   3
ATOM      3  O   UNL A   1      36.638  33.274  32.664  1.00  0.00    -0.463 OA
BRANCH   3   4
ATOM      4  C   UNL A   1      36.955  33.740  33.908  1.00  0.00     0.313 C 
ATOM      5  O   UNL A   1      37.047  34.929  34.188  1.00  0.00    -0.252 OA
BRANCH   4   6
ATOM      6  C   UNL A   1      37.302  32.603  34.862  1.00  0.00     0.127 C 
ATOM      7  C   UNL A   1      37.662  32.931  36.318  1.00  0.00     0.025 C 
BRANCH   6   8
ATOM      8  C   UNL A   1      38.288  31.601  34.265  1.00  0.00    -0.026 A 
ATOM      9  C   UNL A   1      37.684  30.452  33.714  1.00  0.00     0.005 A 
ATOM     10  C   UNL A   1      39.705  31.710  34.225  1.00  0.00    -0.014 A 
ATOM     11  C   UNL A   1      38.437  29.409  33.197  1.00  0.00     0.004 A 
ATOM     12  C   UNL A   1      40.438  30.600  33.756  1.00  0.00     0.012 A 
ATOM     13  C   UNL A   1      39.821  29.438  33.288  1.00  0.00    -0.047 A 
BRANCH  10  14
ATOM     14  C   UNL A   1      40.528  32.888  34.565  1.00  0.00    -0.018 A 
ATOM     15  C   UNL A   1      41.257  32.921  35.769  1.00  0.00     0.012 A 
ATOM     16  C   UNL A   1      40.443  34.080  33.820  1.00  0.00     0.012 A 
ATOM     17  C   UNL A   1      41.956  34.064  36.170  1.00  0.00     0.047 A 
ATOM     18  C   UNL A   1      41.099  35.243  34.245  1.00  0.00     0.047 A 
ATOM     19  C   UNL A   1      41.888  35.207  35.389  1.00  0.00     0.115 A 
BRANCH  19  20
ATOM     20  O   UNL A   1      42.667  36.287  35.678  1.00  0.00    -0.508 OA
ATOM     21  H   UNL A   1      42.294  37.146  35.682  1.00  0.00     0.293 HD
ENDBRANCH  19  20
ENDBRANCH  10  14
BRANCH  13  22
ATOM     22  C   UNL A   1      40.638  28.228  32.937  1.00  0.00     0.041 C 
BRANCH  22  23
ATOM     23  C   UNL A   1      41.912  28.012  33.770  1.00  0.00     0.022 C 
ATOM     24  C   UNL A   1      41.947  26.746  34.644  1.00  0.00     0.007 C 
ATOM     25  C   UNL A   1      43.267  28.005  33.042  1.00  0.00     0.117 C 
ATOM     26  C   UNL A   1      43.429  26.401  34.822  1.00  0.00     0.003 C 
ATOM     27  C   UNL A   1      44.212  27.518  34.134  1.00  0.00     0.032 C 
BRANCH  25  28
ATOM     28  O   UNL A   1      43.371  27.107  31.950  1.00  0.00    -0.393 OA
ATOM     29  H   UNL A   1      42.836  26.318  32.128  1.00  0.00     0.210 HD
ENDBRANCH  25  28
ENDBRANCH  22  23
ENDBRANCH  13  22
ENDBRANCH   6   8
ENDBRANCH   4   6
ENDBRANCH   3   4
ENDBRANCH   2   3
ENDBRANCH   1   2
BRANCH   1  30
ATOM     30  O   UNL A   1      33.684  33.987  30.645  1.00  0.00    -0.374 OA
BRANCH  30  31
ATOM     31  C   UNL A   1      34.102  34.490  29.375  1.00  0.00     0.202 C 
BRANCH  31  32
ATOM     32  C   UNL A   1      34.448  33.418  28.345  1.00  0.00     0.261 C 
BRANCH  32  33
ATOM     33  O   UNL A   1      35.214  32.404  28.971  1.00  0.00    -0.460 OA
BRANCH  33  34
ATOM     34  C   UNL A   1      34.952  31.177  28.461  1.00  0.00     0.338 C 
ATOM     35  O   UNL A   1      33.971  30.818  27.833  1.00  0.00    -0.246 OA
BRANCH  34  36
ATOM     36  C   UNL A   1      36.214  30.436  28.585  1.00  0.00     0.060 A 
ATOM     37  C   UNL A   1      36.468  29.764  29.783  1.00  0.00     0.016 A 
ATOM     38  C   UNL A   1      37.088  30.339  27.493  1.00  0.00     0.016 A 
ATOM     39  C   UNL A   1      37.647  29.047  29.920  1.00  0.00     0.010 A 
ATOM     40  C   UNL A   1      38.249  29.604  27.618  1.00  0.00     0.010 A 
ATOM     41  C   UNL A   1      38.550  29.010  28.851  1.00  0.00    -0.014 A 
BRANCH  41  42
ATOM     42  C   UNL A   1      39.929  28.559  29.066  1.00  0.00     0.031 A 
ATOM     43  C   UNL A   1      40.893  29.555  29.640  1.00  0.00     0.074 A 
ATOM     44  C   UNL A   1      40.294  27.325  28.698  1.00  0.00     0.049 A 
ATOM     45  N   UNL A   1      42.175  29.439  29.845  1.00  0.00    -0.248 NA
ATOM     46  C   UNL A   1      40.338  30.872  30.007  1.00  0.00     0.031 C 
ATOM     47  C   UNL A   1      39.405  26.311  28.127  1.00  0.00     0.029 A 
ATOM     48  N   UNL A   1      41.518  26.722  28.738  1.00  0.00    -0.354 N 
ATOM     49  C   UNL A   1      42.580  30.669  30.349  1.00  0.00     0.074 A 
ATOM     50  C   UNL A   1      41.423  31.531  30.376  1.00  0.00     0.031 C 
ATOM     51  C   UNL A   1      40.121  25.204  27.870  1.00  0.00     0.029 A 
ATOM     52  C   UNL A   1      41.514  25.448  28.231  1.00  0.00     0.049 A 
ATOM     53  H   UNL A   1      42.325  27.159  29.095  1.00  0.00     0.167 HD
ATOM     54  C   UNL A   1      43.813  31.037  30.759  1.00  0.00     0.031 A 
ATOM     55  C   UNL A   1      42.537  24.591  28.073  1.00  0.00     0.031 A 
ATOM     56  C   UNL A   1      44.946  30.157  30.708  1.00  0.00     0.049 A 
ATOM     57  C   UNL A   1      43.906  25.033  28.514  1.00  0.00     0.074 A 
ATOM     58  C   UNL A   1      46.243  30.390  31.123  1.00  0.00     0.029 A 
ATOM     59  N   UNL A   1      44.907  28.867  30.197  1.00  0.00    -0.354 N 
ATOM     60  N   UNL A   1      44.275  26.177  29.041  1.00  0.00    -0.248 NA
ATOM     61  C   UNL A   1      44.994  24.062  28.354  1.00  0.00     0.031 C 
ATOM     62  C   UNL A   1      47.001  29.254  30.817  1.00  0.00     0.029 A 
ATOM     63  C   UNL A   1      46.162  28.295  30.266  1.00  0.00     0.049 A 
ATOM     64  H   UNL A   1      44.103  28.424  29.840  1.00  0.00     0.167 HD
ATOM     65  C   UNL A   1      45.633  26.056  29.303  1.00  0.00     0.074 A 
ATOM     66  C   UNL A   1      46.015  24.719  28.887  1.00  0.00     0.031 C 
ATOM     67  C   UNL A   1      46.492  26.959  29.837  1.00  0.00     0.031 A 
BRANCH  54  68
ATOM     68  C   UNL A   1      43.986  32.442  31.262  1.00  0.00    -0.014 A 
ATOM     69  C   UNL A   1      44.005  32.731  32.637  1.00  0.00     0.009 A 
ATOM     70  C   UNL A   1      44.121  33.497  30.347  1.00  0.00     0.009 A 
ATOM     71  C   UNL A   1      44.119  34.049  33.083  1.00  0.00     0.001 A 
ATOM     72  C   UNL A   1      44.265  34.811  30.796  1.00  0.00     0.001 A 
ATOM     73  C   UNL A   1      44.254  35.088  32.163  1.00  0.00     0.000 A 
ENDBRANCH  54  68
BRANCH  55  74
ATOM     74  C   UNL A   1      42.299  23.244  27.497  1.00  0.00    -0.014 A 
ATOM     75  C   UNL A   1      42.596  22.984  26.151  1.00  0.00     0.009 A 
ATOM     76  C   UNL A   1      41.791  22.204  28.292  1.00  0.00     0.009 A 
ATOM     77  C   UNL A   1      42.366  21.717  25.607  1.00  0.00     0.001 A 
ATOM     78  C   UNL A   1      41.589  20.932  27.754  1.00  0.00     0.001 A 
ATOM     79  C   UNL A   1      41.868  20.692  26.409  1.00  0.00     0.000 A 
ENDBRANCH  55  74
BRANCH  67  80
ATOM     80  C   UNL A   1      47.911  26.510  30.030  1.00  0.00    -0.014 A 
ATOM     81  C   UNL A   1      48.310  25.845  31.199  1.00  0.00     0.009 A 
ATOM     82  C   UNL A   1      48.844  26.713  29.003  1.00  0.00     0.009 A 
ATOM     83  C   UNL A   1      49.631  25.424  31.350  1.00  0.00     0.001 A 
ATOM     84  C   UNL A   1      50.156  26.262  29.143  1.00  0.00     0.001 A 
ATOM     85  C   UNL A   1      50.551  25.627  30.320  1.00  0.00     0.000 A 
ENDBRANCH  67  80
ENDBRANCH  41  42
ENDBRANCH  34  36
ENDBRANCH  33  34
ENDBRANCH  32  33
ENDBRANCH  31  32
ENDBRANCH  30  31
ENDBRANCH   1  30
TORSDOF 20
ENDMDL
