MODEL 1
REMARK VINA RESULT:      -9.3      0.000      0.000
REMARK SMILES CC(C)[NH2+][C@@]1(C(=O)OCCOCCOC(=O)c2ccc(-c3c4nc(c(-c5ccccc5)c5ccc([nH]5)c(-c5ccccc5)c5nc(c(-c6ccccc6)c6ccc3[nH]6)C=C5)C=C4)cc2)CC[C@@H](Sc2cccs2)C1
REMARK SMILES IDX 11 1 10 2 9 3 8 4 6 5 7 6 5 7 65 8 74 9 66 10 67 11 4 12
REMARK SMILES IDX 2 15 1 16 3 17 68 18 69 19 70 20 73 21 71 22 72 23 12 24
REMARK SMILES IDX 13 25 14 26 15 27 16 28 17 29 18 30 64 31 19 32 63 33 20 34
REMARK SMILES IDX 21 35 22 36 57 37 23 38 62 39 56 40 58 41 24 42 61 43 55 44
REMARK SMILES IDX 54 45 25 47 47 48 32 49 46 50 33 51 36 52 45 53 59 54 34 55
REMARK SMILES IDX 35 56 44 58 60 59 37 60 26 61 27 62 31 63 28 64 30 65 29 66
REMARK SMILES IDX 48 67 49 68 53 69 50 70 52 71 51 72 38 73 39 74 43 75 40 76
REMARK SMILES IDX 42 77 41 78
REMARK H PARENT 4 13 4 14 58 46 36 57
REMARK Flexibility Score: inf
ROOT
ATOM      1  O   UNL A   1      38.987  22.309  26.459  1.00  0.00    -0.374 OA
ENDROOT
BRANCH   1   2
ATOM      2  C   UNL A   1      38.181  23.451  26.177  1.00  0.00     0.202 C 
BRANCH   2   3
ATOM      3  C   UNL A   1      37.465  23.478  24.823  1.00  0.00     0.261 C 
BRANCH   3   4
ATOM      4  O   UNL A   1      36.175  24.104  24.918  1.00  0.00    -0.459 OA
BRANCH   4   5
ATOM      5  C   UNL A   1      35.263  23.681  23.998  1.00  0.00     0.368 C 
ATOM      6  O   UNL A   1      35.507  23.552  22.801  1.00  0.00    -0.245 OA
BRANCH   5   7
ATOM      7  C   UNL A   1      33.877  23.304  24.636  1.00  0.00     0.195 C 
ATOM      8  C   UNL A   1      34.213  22.706  26.013  1.00  0.00     0.082 C 
ATOM      9  C   UNL A   1      33.134  22.144  23.942  1.00  0.00     0.096 C 
ATOM     10  C   UNL A   1      34.619  21.267  25.686  1.00  0.00     0.022 C 
ATOM     11  C   UNL A   1      33.707  20.845  24.533  1.00  0.00     0.059 C 
BRANCH   7  12
ATOM     12  N   UNL A   1      33.135  24.581  24.694  1.00  0.00    -0.330 N 
ATOM     13  H   UNL A   1      33.629  25.227  24.077  1.00  0.00     0.347 HD
ATOM     14  H   UNL A   1      32.188  24.289  24.451  1.00  0.00     0.347 HD
BRANCH  12  15
ATOM     15  C   UNL A   1      32.922  25.295  25.943  1.00  0.00     0.176 C 
ATOM     16  C   UNL A   1      33.698  26.614  25.832  1.00  0.00     0.075 C 
ATOM     17  C   UNL A   1      31.448  25.639  26.192  1.00  0.00     0.075 C 
ENDBRANCH  12  15
ENDBRANCH   7  12
BRANCH  11  18
ATOM     18  S   UNL A   1      32.406  19.626  24.971  1.00  0.00    -0.112 SA
BRANCH  18  19
ATOM     19  C   UNL A   1      33.240  18.079  24.905  1.00  0.00     0.060 A 
ATOM     20  C   UNL A   1      34.438  17.814  24.276  1.00  0.00     0.027 A 
ATOM     21  S   UNL A   1      32.647  16.697  25.724  1.00  0.00    -0.137 S 
ATOM     22  C   UNL A   1      34.810  16.439  24.371  1.00  0.00     0.013 A 
ATOM     23  C   UNL A   1      33.916  15.718  25.130  1.00  0.00     0.066 A 
ENDBRANCH  18  19
ENDBRANCH  11  18
ENDBRANCH   5   7
ENDBRANCH   4   5
ENDBRANCH   3   4
ENDBRANCH   2   3
ENDBRANCH   1   2
BRANCH   1  24
ATOM     24  C   UNL A   1      38.929  21.209  25.554  1.00  0.00     0.202 C 
BRANCH  24  25
ATOM     25  C   UNL A   1      39.579  19.893  26.002  1.00  0.00     0.261 C 
BRANCH  25  26
ATOM     26  O   UNL A   1      40.839  19.650  25.349  1.00  0.00    -0.460 OA
BRANCH  26  27
ATOM     27  C   UNL A   1      41.906  19.557  26.181  1.00  0.00     0.338 C 
ATOM     28  O   UNL A   1      42.548  18.554  26.455  1.00  0.00    -0.246 OA
BRANCH  27  29
ATOM     29  C   UNL A   1      42.338  20.904  26.593  1.00  0.00     0.060 A 
ATOM     30  C   UNL A   1      42.220  21.243  27.947  1.00  0.00     0.016 A 
ATOM     31  C   UNL A   1      42.790  21.841  25.663  1.00  0.00     0.016 A 
ATOM     32  C   UNL A   1      42.544  22.530  28.377  1.00  0.00     0.010 A 
ATOM     33  C   UNL A   1      43.097  23.137  26.094  1.00  0.00     0.010 A 
ATOM     34  C   UNL A   1      42.961  23.492  27.448  1.00  0.00    -0.014 A 
BRANCH  34  35
ATOM     35  C   UNL A   1      43.190  24.893  27.879  1.00  0.00     0.031 A 
ATOM     36  C   UNL A   1      44.581  25.347  28.221  1.00  0.00     0.074 A 
ATOM     37  C   UNL A   1      42.158  25.750  27.969  1.00  0.00     0.049 A 
ATOM     38  N   UNL A   1      44.980  26.501  28.692  1.00  0.00    -0.248 NA
ATOM     39  C   UNL A   1      45.666  24.376  28.001  1.00  0.00     0.031 C 
ATOM     40  C   UNL A   1      40.772  25.448  27.616  1.00  0.00     0.029 A 
ATOM     41  N   UNL A   1      42.119  27.052  28.401  1.00  0.00    -0.354 N 
ATOM     42  C   UNL A   1      46.358  26.392  28.839  1.00  0.00     0.074 A 
ATOM     43  C   UNL A   1      46.725  25.058  28.417  1.00  0.00     0.031 C 
ATOM     44  C   UNL A   1      40.013  26.530  27.861  1.00  0.00     0.029 A 
ATOM     45  C   UNL A   1      40.852  27.584  28.428  1.00  0.00     0.049 A 
ATOM     46  H   UNL A   1      42.921  27.557  28.668  1.00  0.00     0.167 HD
ATOM     47  C   UNL A   1      47.234  27.322  29.287  1.00  0.00     0.031 A 
ATOM     48  C   UNL A   1      40.415  28.771  28.890  1.00  0.00     0.031 A 
ATOM     49  C   UNL A   1      46.868  28.645  29.711  1.00  0.00     0.049 A 
ATOM     50  C   UNL A   1      41.400  29.741  29.486  1.00  0.00     0.074 A 
ATOM     51  C   UNL A   1      47.695  29.671  30.140  1.00  0.00     0.029 A 
ATOM     52  N   UNL A   1      45.570  29.123  29.777  1.00  0.00    -0.354 N 
ATOM     53  N   UNL A   1      42.704  29.644  29.577  1.00  0.00    -0.248 NA
ATOM     54  C   UNL A   1      40.848  30.982  30.050  1.00  0.00     0.031 C 
ATOM     55  C   UNL A   1      46.890  30.747  30.528  1.00  0.00     0.029 A 
ATOM     56  C   UNL A   1      45.568  30.411  30.288  1.00  0.00     0.049 A 
ATOM     57  H   UNL A   1      44.768  28.622  29.503  1.00  0.00     0.167 HD
ATOM     58  C   UNL A   1      43.129  30.816  30.190  1.00  0.00     0.074 A 
ATOM     59  C   UNL A   1      41.948  31.619  30.429  1.00  0.00     0.031 C 
ATOM     60  C   UNL A   1      44.385  31.195  30.526  1.00  0.00     0.031 A 
BRANCH  47  61
ATOM     61  C   UNL A   1      48.682  26.931  29.384  1.00  0.00    -0.014 A 
ATOM     62  C   UNL A   1      49.199  26.328  30.540  1.00  0.00     0.009 A 
ATOM     63  C   UNL A   1      49.518  27.099  28.269  1.00  0.00     0.009 A 
ATOM     64  C   UNL A   1      50.533  25.916  30.581  1.00  0.00     0.001 A 
ATOM     65  C   UNL A   1      50.844  26.667  28.306  1.00  0.00     0.001 A 
ATOM     66  C   UNL A   1      51.352  26.079  29.463  1.00  0.00     0.000 A 
ENDBRANCH  47  61
BRANCH  48  67
ATOM     67  C   UNL A   1      38.965  29.099  28.867  1.00  0.00    -0.014 A 
ATOM     68  C   UNL A   1      38.385  29.703  27.742  1.00  0.00     0.009 A 
ATOM     69  C   UNL A   1      38.163  28.853  29.994  1.00  0.00     0.009 A 
ATOM     70  C   UNL A   1      37.040  30.081  27.756  1.00  0.00     0.001 A 
ATOM     71  C   UNL A   1      36.813  29.205  29.994  1.00  0.00     0.001 A 
ATOM     72  C   UNL A   1      36.255  29.829  28.881  1.00  0.00     0.000 A 
ENDBRANCH  48  67
BRANCH  60  73
ATOM     73  C   UNL A   1      44.552  32.540  31.173  1.00  0.00    -0.014 A 
ATOM     74  C   UNL A   1      44.707  33.701  30.401  1.00  0.00     0.009 A 
ATOM     75  C   UNL A   1      44.504  32.654  32.572  1.00  0.00     0.009 A 
ATOM     76  C   UNL A   1      44.837  34.947  31.018  1.00  0.00     0.001 A 
ATOM     77  C   UNL A   1      44.607  33.904  33.184  1.00  0.00     0.001 A 
ATOM     78  C   UNL A   1      44.781  35.048  32.407  1.00  0.00     0.000 A 
ENDBRANCH  60  73
ENDBRANCH  34  35
ENDBRANCH  27  29
ENDBRANCH  26  27
ENDBRANCH  25  26
ENDBRANCH  24  25
ENDBRANCH   1  24
TORSDOF 18
ENDMDL
MODEL 2
REMARK VINA RESULT:      -9.3      1.715      3.574
REMARK SMILES CC(C)[NH2+][C@@]1(C(=O)OCCOCCOC(=O)c2ccc(-c3c4nc(c(-c5ccccc5)c5ccc([nH]5)c(-c5ccccc5)c5nc(c(-c6ccccc6)c6ccc3[nH]6)C=C5)C=C4)cc2)CC[C@@H](Sc2cccs2)C1
REMARK SMILES IDX 11 1 10 2 9 3 8 4 6 5 7 6 5 7 65 8 74 9 66 10 67 11 4 12
REMARK SMILES IDX 2 15 1 16 3 17 68 18 69 19 70 20 73 21 71 22 72 23 12 24
REMARK SMILES IDX 13 25 14 26 15 27 16 28 17 29 18 30 64 31 19 32 63 33 20 34
REMARK SMILES IDX 21 35 22 36 57 37 23 38 62 39 56 40 58 41 24 42 61 43 55 44
REMARK SMILES IDX 54 45 25 47 47 48 32 49 46 50 33 51 36 52 45 53 59 54 34 55
REMARK SMILES IDX 35 56 44 58 60 59 37 60 26 61 27 62 31 63 28 64 30 65 29 66
REMARK SMILES IDX 48 67 49 68 53 69 50 70 52 71 51 72 38 73 39 74 43 75 40 76
REMARK SMILES IDX 42 77 41 78
REMARK H PARENT 4 13 4 14 58 46 36 57
REMARK Flexibility Score: inf
ROOT
ATOM      1  O   UNL A   1      38.959  22.197  26.067  1.00  0.00    -0.374 OA
ENDROOT
BRANCH   1   2
ATOM      2  C   UNL A   1      38.105  23.339  26.099  1.00  0.00     0.202 C 
BRANCH   2   3
ATOM      3  C   UNL A   1      36.598  23.082  26.010  1.00  0.00     0.261 C 
BRANCH   3   4
ATOM      4  O   UNL A   1      35.934  24.089  25.229  1.00  0.00    -0.459 OA
BRANCH   4   5
ATOM      5  C   UNL A   1      35.380  23.641  24.067  1.00  0.00     0.368 C 
ATOM      6  O   UNL A   1      36.024  23.399  23.050  1.00  0.00    -0.245 OA
BRANCH   5   7
ATOM      7  C   UNL A   1      33.832  23.396  24.181  1.00  0.00     0.195 C 
ATOM      8  C   UNL A   1      33.196  24.319  23.128  1.00  0.00     0.082 C 
ATOM      9  C   UNL A   1      33.187  23.893  25.492  1.00  0.00     0.096 C 
ATOM     10  C   UNL A   1      33.177  25.685  23.817  1.00  0.00     0.022 C 
ATOM     11  C   UNL A   1      32.888  25.388  25.289  1.00  0.00     0.059 C 
BRANCH   7  12
ATOM     12  N   UNL A   1      33.663  21.953  23.905  1.00  0.00    -0.330 N 
ATOM     13  H   UNL A   1      32.775  21.860  23.411  1.00  0.00     0.347 HD
ATOM     14  H   UNL A   1      34.529  21.726  23.415  1.00  0.00     0.347 HD
BRANCH  12  15
ATOM     15  C   UNL A   1      33.645  20.960  24.966  1.00  0.00     0.176 C 
ATOM     16  C   UNL A   1      32.380  20.117  24.756  1.00  0.00     0.075 C 
ATOM     17  C   UNL A   1      34.850  20.013  24.921  1.00  0.00     0.075 C 
ENDBRANCH  12  15
ENDBRANCH   7  12
BRANCH  11  18
ATOM     18  S   UNL A   1      31.213  25.865  25.869  1.00  0.00    -0.112 SA
BRANCH  18  19
ATOM     19  C   UNL A   1      30.737  27.150  24.766  1.00  0.00     0.060 A 
ATOM     20  C   UNL A   1      29.820  27.060  23.741  1.00  0.00     0.027 A 
ATOM     21  S   UNL A   1      31.346  28.743  24.919  1.00  0.00    -0.137 S 
ATOM     22  C   UNL A   1      29.706  28.277  23.004  1.00  0.00     0.013 A 
ATOM     23  C   UNL A   1      30.490  29.275  23.538  1.00  0.00     0.066 A 
ENDBRANCH  18  19
ENDBRANCH  11  18
ENDBRANCH   5   7
ENDBRANCH   4   5
ENDBRANCH   3   4
ENDBRANCH   2   3
ENDBRANCH   1   2
BRANCH   1  24
ATOM     24  C   UNL A   1      38.408  20.963  25.609  1.00  0.00     0.202 C 
BRANCH  24  25
ATOM     25  C   UNL A   1      39.391  19.828  25.292  1.00  0.00     0.261 C 
BRANCH  25  26
ATOM     26  O   UNL A   1      40.309  19.576  26.372  1.00  0.00    -0.460 OA
BRANCH  26  27
ATOM     27  C   UNL A   1      41.618  19.757  26.065  1.00  0.00     0.338 C 
ATOM     28  O   UNL A   1      42.326  19.035  25.379  1.00  0.00    -0.246 OA
BRANCH  27  29
ATOM     29  C   UNL A   1      42.059  21.086  26.523  1.00  0.00     0.060 A 
ATOM     30  C   UNL A   1      41.946  21.379  27.889  1.00  0.00     0.016 A 
ATOM     31  C   UNL A   1      42.517  22.051  25.626  1.00  0.00     0.016 A 
ATOM     32  C   UNL A   1      42.279  22.648  28.362  1.00  0.00     0.010 A 
ATOM     33  C   UNL A   1      42.834  23.329  26.101  1.00  0.00     0.010 A 
ATOM     34  C   UNL A   1      42.702  23.638  27.467  1.00  0.00    -0.014 A 
BRANCH  34  35
ATOM     35  C   UNL A   1      42.941  25.021  27.946  1.00  0.00     0.031 A 
ATOM     36  C   UNL A   1      44.331  25.445  28.328  1.00  0.00     0.074 A 
ATOM     37  C   UNL A   1      41.919  25.890  28.044  1.00  0.00     0.049 A 
ATOM     38  N   UNL A   1      44.737  26.578  28.843  1.00  0.00    -0.248 NA
ATOM     39  C   UNL A   1      45.407  24.467  28.098  1.00  0.00     0.031 C 
ATOM     40  C   UNL A   1      40.536  25.618  27.655  1.00  0.00     0.029 A 
ATOM     41  N   UNL A   1      41.889  27.178  28.516  1.00  0.00    -0.354 N 
ATOM     42  C   UNL A   1      46.109  26.446  29.012  1.00  0.00     0.074 A 
ATOM     43  C   UNL A   1      46.467  25.121  28.555  1.00  0.00     0.031 C 
ATOM     44  C   UNL A   1      39.787  26.703  27.920  1.00  0.00     0.029 A 
ATOM     45  C   UNL A   1      40.629  27.726  28.536  1.00  0.00     0.049 A 
ATOM     46  H   UNL A   1      42.692  27.663  28.814  1.00  0.00     0.167 HD
ATOM     47  C   UNL A   1      46.990  27.349  29.506  1.00  0.00     0.031 A 
ATOM     48  C   UNL A   1      40.199  28.904  29.027  1.00  0.00     0.031 A 
ATOM     49  C   UNL A   1      46.633  28.664  29.965  1.00  0.00     0.049 A 
ATOM     50  C   UNL A   1      41.185  29.841  29.672  1.00  0.00     0.074 A 
ATOM     51  C   UNL A   1      47.465  29.663  30.441  1.00  0.00     0.029 A 
ATOM     52  N   UNL A   1      45.341  29.157  30.021  1.00  0.00    -0.354 N 
ATOM     53  N   UNL A   1      42.486  29.723  29.784  1.00  0.00    -0.248 NA
ATOM     54  C   UNL A   1      40.639  31.072  30.264  1.00  0.00     0.031 C 
ATOM     55  C   UNL A   1      46.667  30.738  30.847  1.00  0.00     0.029 A 
ATOM     56  C   UNL A   1      45.345  30.428  30.572  1.00  0.00     0.049 A 
ATOM     57  H   UNL A   1      44.537  28.676  29.717  1.00  0.00     0.167 HD
ATOM     58  C   UNL A   1      42.915  30.870  30.441  1.00  0.00     0.074 A 
ATOM     59  C   UNL A   1      41.740  31.681  30.684  1.00  0.00     0.031 C 
ATOM     60  C   UNL A   1      44.169  31.220  30.813  1.00  0.00     0.031 A 
BRANCH  47  61
ATOM     61  C   UNL A   1      48.430  26.935  29.617  1.00  0.00    -0.014 A 
ATOM     62  C   UNL A   1      48.908  26.257  30.748  1.00  0.00     0.009 A 
ATOM     63  C   UNL A   1      49.297  27.160  28.537  1.00  0.00     0.009 A 
ATOM     64  C   UNL A   1      50.237  25.827  30.800  1.00  0.00     0.001 A 
ATOM     65  C   UNL A   1      50.618  26.711  28.583  1.00  0.00     0.001 A 
ATOM     66  C   UNL A   1      51.087  26.047  29.716  1.00  0.00     0.000 A 
ENDBRANCH  47  61
BRANCH  48  67
ATOM     67  C   UNL A   1      38.754  29.253  28.988  1.00  0.00    -0.014 A 
ATOM     68  C   UNL A   1      38.200  29.884  27.863  1.00  0.00     0.009 A 
ATOM     69  C   UNL A   1      37.932  29.000  30.097  1.00  0.00     0.009 A 
ATOM     70  C   UNL A   1      36.861  30.281  27.863  1.00  0.00     0.001 A 
ATOM     71  C   UNL A   1      36.586  29.370  30.083  1.00  0.00     0.001 A 
ATOM     72  C   UNL A   1      36.055  30.021  28.971  1.00  0.00     0.000 A 
ENDBRANCH  48  67
BRANCH  60  73
ATOM     73  C   UNL A   1      44.341  32.542  31.505  1.00  0.00    -0.014 A 
ATOM     74  C   UNL A   1      44.518  33.726  30.772  1.00  0.00     0.009 A 
ATOM     75  C   UNL A   1      44.276  32.612  32.906  1.00  0.00     0.009 A 
ATOM     76  C   UNL A   1      44.653  34.950  31.431  1.00  0.00     0.001 A 
ATOM     77  C   UNL A   1      44.384  33.840  33.560  1.00  0.00     0.001 A 
ATOM     78  C   UNL A   1      44.580  35.006  32.822  1.00  0.00     0.000 A 
ENDBRANCH  60  73
ENDBRANCH  34  35
ENDBRANCH  27  29
ENDBRANCH  26  27
ENDBRANCH  25  26
ENDBRANCH  24  25
ENDBRANCH   1  24
TORSDOF 18
ENDMDL
MODEL 3
REMARK VINA RESULT:      -9.3      3.790      5.787
REMARK SMILES CC(C)[NH2+][C@@]1(C(=O)OCCOCCOC(=O)c2ccc(-c3c4nc(c(-c5ccccc5)c5ccc([nH]5)c(-c5ccccc5)c5nc(c(-c6ccccc6)c6ccc3[nH]6)C=C5)C=C4)cc2)CC[C@@H](Sc2cccs2)C1
REMARK SMILES IDX 11 1 10 2 9 3 8 4 6 5 7 6 5 7 65 8 74 9 66 10 67 11 4 12
REMARK SMILES IDX 2 15 1 16 3 17 68 18 69 19 70 20 73 21 71 22 72 23 12 24
REMARK SMILES IDX 13 25 14 26 15 27 16 28 17 29 18 30 64 31 19 32 63 33 20 34
REMARK SMILES IDX 21 35 22 36 57 37 23 38 62 39 56 40 58 41 24 42 61 43 55 44
REMARK SMILES IDX 54 45 25 47 47 48 32 49 46 50 33 51 36 52 45 53 59 54 34 55
REMARK SMILES IDX 35 56 44 58 60 59 37 60 26 61 27 62 31 63 28 64 30 65 29 66
REMARK SMILES IDX 48 67 49 68 53 69 50 70 52 71 51 72 38 73 39 74 43 75 40 76
REMARK SMILES IDX 42 77 41 78
REMARK H PARENT 4 13 4 14 58 46 36 57
REMARK Flexibility Score: inf
ROOT
ATOM      1  O   UNL A   1      39.657  21.851  26.601  1.00  0.00    -0.374 OA
ENDROOT
BRANCH   1   2
ATOM      2  C   UNL A   1      38.516  21.933  25.752  1.00  0.00     0.202 C 
BRANCH   2   3
ATOM      3  C   UNL A   1      37.476  23.006  26.086  1.00  0.00     0.261 C 
BRANCH   3   4
ATOM      4  O   UNL A   1      36.302  22.880  25.267  1.00  0.00    -0.459 OA
BRANCH   4   5
ATOM      5  C   UNL A   1      35.126  22.819  25.953  1.00  0.00     0.368 C 
ATOM      6  O   UNL A   1      35.050  22.647  27.167  1.00  0.00    -0.245 OA
BRANCH   5   7
ATOM      7  C   UNL A   1      33.871  23.065  25.041  1.00  0.00     0.195 C 
ATOM      8  C   UNL A   1      34.182  24.351  24.257  1.00  0.00     0.082 C 
ATOM      9  C   UNL A   1      32.579  23.441  25.797  1.00  0.00     0.096 C 
ATOM     10  C   UNL A   1      33.856  25.464  25.257  1.00  0.00     0.022 C 
ATOM     11  C   UNL A   1      32.642  24.959  26.038  1.00  0.00     0.059 C 
BRANCH   7  12
ATOM     12  N   UNL A   1      33.777  21.852  24.202  1.00  0.00    -0.330 N 
ATOM     13  H   UNL A   1      34.149  22.108  23.287  1.00  0.00     0.347 HD
ATOM     14  H   UNL A   1      34.277  21.163  24.765  1.00  0.00     0.347 HD
BRANCH  12  15
ATOM     15  C   UNL A   1      32.512  21.180  23.952  1.00  0.00     0.176 C 
ATOM     16  C   UNL A   1      32.152  21.454  22.486  1.00  0.00     0.075 C 
ATOM     17  C   UNL A   1      32.595  19.659  24.136  1.00  0.00     0.075 C 
ENDBRANCH  12  15
ENDBRANCH   7  12
BRANCH  11  18
ATOM     18  S   UNL A   1      31.059  25.808  25.659  1.00  0.00    -0.112 SA
BRANCH  18  19
ATOM     19  C   UNL A   1      31.415  27.507  25.945  1.00  0.00     0.060 A 
ATOM     20  C   UNL A   1      31.756  28.088  27.148  1.00  0.00     0.027 A 
ATOM     21  S   UNL A   1      31.447  28.649  24.670  1.00  0.00    -0.137 S 
ATOM     22  C   UNL A   1      31.929  29.500  27.040  1.00  0.00     0.013 A 
ATOM     23  C   UNL A   1      31.783  29.937  25.743  1.00  0.00     0.066 A 
ENDBRANCH  18  19
ENDBRANCH  11  18
ENDBRANCH   5   7
ENDBRANCH   4   5
ENDBRANCH   3   4
ENDBRANCH   2   3
ENDBRANCH   1   2
BRANCH   1  24
ATOM     24  C   UNL A   1      40.636  20.854  26.313  1.00  0.00     0.202 C 
BRANCH  24  25
ATOM     25  C   UNL A   1      42.077  21.328  26.080  1.00  0.00     0.261 C 
BRANCH  25  26
ATOM     26  O   UNL A   1      42.142  22.519  25.273  1.00  0.00    -0.460 OA
BRANCH  26  27
ATOM     27  C   UNL A   1      43.146  23.372  25.591  1.00  0.00     0.338 C 
ATOM     28  O   UNL A   1      44.267  23.414  25.105  1.00  0.00    -0.246 OA
BRANCH  27  29
ATOM     29  C   UNL A   1      42.647  24.415  26.504  1.00  0.00     0.060 A 
ATOM     30  C   UNL A   1      43.254  25.677  26.450  1.00  0.00     0.016 A 
ATOM     31  C   UNL A   1      41.648  24.147  27.440  1.00  0.00     0.016 A 
ATOM     32  C   UNL A   1      42.870  26.676  27.345  1.00  0.00     0.010 A 
ATOM     33  C   UNL A   1      41.276  25.146  28.347  1.00  0.00     0.010 A 
ATOM     34  C   UNL A   1      41.896  26.409  28.315  1.00  0.00    -0.014 A 
BRANCH  34  35
ATOM     35  C   UNL A   1      41.571  27.426  29.344  1.00  0.00     0.031 A 
ATOM     36  C   UNL A   1      42.338  27.446  30.635  1.00  0.00     0.074 A 
ATOM     37  C   UNL A   1      40.590  28.320  29.126  1.00  0.00     0.049 A 
ATOM     38  N   UNL A   1      42.158  28.198  31.691  1.00  0.00    -0.248 NA
ATOM     39  C   UNL A   1      43.459  26.499  30.754  1.00  0.00     0.031 C 
ATOM     40  C   UNL A   1      39.808  28.438  27.896  1.00  0.00     0.029 A 
ATOM     41  N   UNL A   1      40.077  29.294  29.946  1.00  0.00    -0.354 N 
ATOM     42  C   UNL A   1      43.129  27.807  32.604  1.00  0.00     0.074 A 
ATOM     43  C   UNL A   1      43.892  26.745  31.984  1.00  0.00     0.031 C 
ATOM     44  C   UNL A   1      38.902  29.419  28.048  1.00  0.00     0.029 A 
ATOM     45  C   UNL A   1      39.011  29.967  29.399  1.00  0.00     0.049 A 
ATOM     46  H   UNL A   1      40.437  29.491  30.841  1.00  0.00     0.167 HD
ATOM     47  C   UNL A   1      43.362  28.290  33.848  1.00  0.00     0.031 A 
ATOM     48  C   UNL A   1      38.196  30.892  29.938  1.00  0.00     0.031 A 
ATOM     49  C   UNL A   1      42.602  29.341  34.466  1.00  0.00     0.049 A 
ATOM     50  C   UNL A   1      38.411  31.329  31.362  1.00  0.00     0.074 A 
ATOM     51  C   UNL A   1      42.794  29.926  35.707  1.00  0.00     0.029 A 
ATOM     52  N   UNL A   1      41.497  29.955  33.901  1.00  0.00    -0.354 N 
ATOM     53  N   UNL A   1      39.360  30.985  32.197  1.00  0.00    -0.248 NA
ATOM     54  C   UNL A   1      37.435  32.278  31.919  1.00  0.00     0.031 C 
ATOM     55  C   UNL A   1      41.764  30.847  35.919  1.00  0.00     0.029 A 
ATOM     56  C   UNL A   1      40.964  30.876  34.788  1.00  0.00     0.049 A 
ATOM     57  H   UNL A   1      41.141  29.764  33.003  1.00  0.00     0.167 HD
ATOM     58  C   UNL A   1      39.107  31.688  33.369  1.00  0.00     0.074 A 
ATOM     59  C   UNL A   1      37.928  32.494  33.131  1.00  0.00     0.031 C 
ATOM     60  C   UNL A   1      39.788  31.666  34.540  1.00  0.00     0.031 A 
BRANCH  47  61
ATOM     61  C   UNL A   1      44.465  27.659  34.650  1.00  0.00    -0.014 A 
ATOM     62  C   UNL A   1      44.246  26.494  35.400  1.00  0.00     0.009 A 
ATOM     63  C   UNL A   1      45.759  28.197  34.586  1.00  0.00     0.009 A 
ATOM     64  C   UNL A   1      45.303  25.890  36.087  1.00  0.00     0.001 A 
ATOM     65  C   UNL A   1      46.818  27.579  35.255  1.00  0.00     0.001 A 
ATOM     66  C   UNL A   1      46.588  26.429  36.007  1.00  0.00     0.000 A 
ENDBRANCH  47  61
BRANCH  48  67
ATOM     67  C   UNL A   1      37.055  31.437  29.155  1.00  0.00    -0.014 A 
ATOM     68  C   UNL A   1      37.041  32.780  28.748  1.00  0.00     0.009 A 
ATOM     69  C   UNL A   1      35.949  30.626  28.853  1.00  0.00     0.009 A 
ATOM     70  C   UNL A   1      35.932  33.306  28.082  1.00  0.00     0.001 A 
ATOM     71  C   UNL A   1      34.854  31.147  28.161  1.00  0.00     0.001 A 
ATOM     72  C   UNL A   1      34.841  32.489  27.787  1.00  0.00     0.000 A 
ENDBRANCH  48  67
BRANCH  60  73
ATOM     73  C   UNL A   1      39.289  32.551  35.646  1.00  0.00    -0.014 A 
ATOM     74  C   UNL A   1      39.741  33.873  35.776  1.00  0.00     0.009 A 
ATOM     75  C   UNL A   1      38.318  32.073  36.540  1.00  0.00     0.009 A 
ATOM     76  C   UNL A   1      39.249  34.690  36.797  1.00  0.00     0.001 A 
ATOM     77  C   UNL A   1      37.808  32.900  37.541  1.00  0.00     0.001 A 
ATOM     78  C   UNL A   1      38.280  34.205  37.673  1.00  0.00     0.000 A 
ENDBRANCH  60  73
ENDBRANCH  34  35
ENDBRANCH  27  29
ENDBRANCH  26  27
ENDBRANCH  25  26
ENDBRANCH  24  25
ENDBRANCH   1  24
TORSDOF 18
ENDMDL
