MODEL 1
REMARK VINA RESULT:     -10.2      0.000      0.000
REMARK SMILES C[C@](NC(=O)c1ccc(Br)o1)(C(=O)OCCOCCOC(=O)c1ccc(-c2c3nc(c(-c4ccccc4)c4ccc([nH]4)c(-c4ccccc4)c4nc(c(-c5ccccc5)c5ccc2[nH]5)C=C4)C=C3)cc1)C(F)(F)F
REMARK SMILES IDX 17 1 16 2 15 3 14 4 12 5 13 6 2 7 1 8 71 9 72 10 73 11 74 12
REMARK SMILES IDX 3 13 4 14 5 16 6 17 7 18 11 19 8 20 9 21 10 22 18 23 19 24
REMARK SMILES IDX 20 25 21 26 22 27 23 28 24 29 70 30 25 31 69 32 26 33 27 34
REMARK SMILES IDX 28 35 63 36 29 37 68 38 62 39 64 40 30 41 67 42 61 43 60 44
REMARK SMILES IDX 31 46 53 47 38 48 52 49 39 50 42 51 51 52 65 53 40 54 41 55
REMARK SMILES IDX 50 57 66 58 43 59 32 60 33 61 37 62 34 63 36 64 35 65 54 66
REMARK SMILES IDX 55 67 59 68 56 69 58 70 57 71 44 72 45 73 49 74 46 75 48 76
REMARK SMILES IDX 47 77
REMARK H PARENT 3 15 64 45 42 56
REMARK Flexibility Score: inf
ROOT
ATOM      1  O   UNL A   1      37.388  21.673  24.213  1.00  0.00    -0.374 OA
ENDROOT
BRANCH   1   2
ATOM      2  C   UNL A   1      36.528  22.673  23.669  1.00  0.00     0.202 C 
BRANCH   2   3
ATOM      3  C   UNL A   1      35.927  23.667  24.665  1.00  0.00     0.261 C 
BRANCH   3   4
ATOM      4  O   UNL A   1      34.488  23.625  24.666  1.00  0.00    -0.461 OA
BRANCH   4   5
ATOM      5  C   UNL A   1      33.918  22.908  25.674  1.00  0.00     0.341 C 
ATOM      6  O   UNL A   1      34.344  22.888  26.822  1.00  0.00    -0.249 OA
BRANCH   5   7
ATOM      7  C   UNL A   1      32.721  22.072  25.207  1.00  0.00     0.231 C 
ATOM      8  C   UNL A   1      32.465  22.447  23.748  1.00  0.00     0.058 C 
BRANCH   7   9
ATOM      9  C   UNL A   1      33.227  20.615  25.251  1.00  0.00     0.422 C 
ATOM     10  F   UNL A   1      33.228  20.134  26.518  1.00  0.00    -0.168 F 
ATOM     11  F   UNL A   1      32.386  19.812  24.544  1.00  0.00    -0.168 F 
ATOM     12  F   UNL A   1      34.457  20.433  24.735  1.00  0.00    -0.168 F 
ENDBRANCH   7   9
BRANCH   7  13
ATOM     13  N   UNL A   1      31.517  22.187  26.111  1.00  0.00    -0.326 N 
ATOM     14  C   UNL A   1      30.814  23.211  26.681  1.00  0.00     0.288 C 
ATOM     15  H   UNL A   1      31.147  21.306  26.349  1.00  0.00     0.165 HD
ATOM     16  O   UNL A   1      30.059  22.905  27.604  1.00  0.00    -0.266 OA
BRANCH  14  17
ATOM     17  C   UNL A   1      30.932  24.554  26.188  1.00  0.00     0.192 A 
ATOM     18  C   UNL A   1      30.502  25.155  25.018  1.00  0.00     0.057 A 
ATOM     19  O   UNL A   1      31.473  25.499  27.014  1.00  0.00    -0.444 OA
ATOM     20  C   UNL A   1      30.849  26.525  25.115  1.00  0.00     0.059 A 
ATOM     21  C   UNL A   1      31.418  26.688  26.358  1.00  0.00     0.170 A 
ATOM     22  Br  UNL A   1      32.021  28.306  27.060  1.00  0.00    -0.008 Br
ENDBRANCH  14  17
ENDBRANCH   7  13
ENDBRANCH   5   7
ENDBRANCH   4   5
ENDBRANCH   3   4
ENDBRANCH   2   3
ENDBRANCH   1   2
BRANCH   1  23
ATOM     23  C   UNL A   1      37.723  21.773  25.596  1.00  0.00     0.202 C 
BRANCH  23  24
ATOM     24  C   UNL A   1      39.199  21.616  25.972  1.00  0.00     0.261 C 
BRANCH  24  25
ATOM     25  O   UNL A   1      39.548  20.238  26.195  1.00  0.00    -0.460 OA
BRANCH  25  26
ATOM     26  C   UNL A   1      40.871  19.980  26.127  1.00  0.00     0.338 C 
ATOM     27  O   UNL A   1      41.410  19.018  25.590  1.00  0.00    -0.246 OA
BRANCH  26  28
ATOM     28  C   UNL A   1      41.657  21.117  26.639  1.00  0.00     0.060 A 
ATOM     29  C   UNL A   1      41.652  21.314  28.026  1.00  0.00     0.016 A 
ATOM     30  C   UNL A   1      42.279  22.037  25.792  1.00  0.00     0.016 A 
ATOM     31  C   UNL A   1      42.176  22.482  28.565  1.00  0.00     0.010 A 
ATOM     32  C   UNL A   1      42.801  23.217  26.336  1.00  0.00     0.010 A 
ATOM     33  C   UNL A   1      42.692  23.469  27.715  1.00  0.00    -0.014 A 
BRANCH  33  34
ATOM     34  C   UNL A   1      42.886  24.833  28.264  1.00  0.00     0.031 A 
ATOM     35  C   UNL A   1      44.288  25.289  28.576  1.00  0.00     0.074 A 
ATOM     36  C   UNL A   1      41.855  25.686  28.391  1.00  0.00     0.049 A 
ATOM     37  N   UNL A   1      44.711  26.462  28.976  1.00  0.00    -0.248 NA
ATOM     38  C   UNL A   1      45.356  24.289  28.408  1.00  0.00     0.031 C 
ATOM     39  C   UNL A   1      40.461  25.384  28.072  1.00  0.00     0.029 A 
ATOM     40  N   UNL A   1      41.833  26.993  28.807  1.00  0.00    -0.354 N 
ATOM     41  C   UNL A   1      46.088  26.337  29.112  1.00  0.00     0.074 A 
ATOM     42  C   UNL A   1      46.427  24.970  28.783  1.00  0.00     0.031 C 
ATOM     43  C   UNL A   1      39.718  26.483  28.292  1.00  0.00     0.029 A 
ATOM     44  C   UNL A   1      40.581  27.555  28.786  1.00  0.00     0.049 A 
ATOM     45  H   UNL A   1      42.639  27.481  29.093  1.00  0.00     0.167 HD
ATOM     46  C   UNL A   1      46.995  27.277  29.471  1.00  0.00     0.031 A 
ATOM     47  C   UNL A   1      40.180  28.795  29.126  1.00  0.00     0.031 A 
ATOM     48  C   UNL A   1      46.663  28.635  29.806  1.00  0.00     0.049 A 
ATOM     49  C   UNL A   1      41.199  29.804  29.582  1.00  0.00     0.074 A 
ATOM     50  C   UNL A   1      47.511  29.666  30.169  1.00  0.00     0.029 A 
ATOM     51  N   UNL A   1      45.376  29.147  29.824  1.00  0.00    -0.354 N 
ATOM     52  N   UNL A   1      42.501  29.683  29.678  1.00  0.00    -0.248 NA
ATOM     53  C   UNL A   1      40.689  31.129  29.962  1.00  0.00     0.031 C 
ATOM     54  C   UNL A   1      46.731  30.792  30.455  1.00  0.00     0.029 A 
ATOM     55  C   UNL A   1      45.403  30.474  30.214  1.00  0.00     0.049 A 
ATOM     56  H   UNL A   1      44.564  28.642  29.593  1.00  0.00     0.167 HD
ATOM     57  C   UNL A   1      42.969  30.924  30.091  1.00  0.00     0.074 A 
ATOM     58  C   UNL A   1      41.811  31.785  30.222  1.00  0.00     0.031 C 
ATOM     59  C   UNL A   1      44.243  31.319  30.333  1.00  0.00     0.031 A 
BRANCH  46  60
ATOM     60  C   UNL A   1      48.432  26.845  29.559  1.00  0.00    -0.014 A 
ATOM     61  C   UNL A   1      48.961  26.295  30.737  1.00  0.00     0.009 A 
ATOM     62  C   UNL A   1      49.266  26.982  28.439  1.00  0.00     0.009 A 
ATOM     63  C   UNL A   1      50.307  25.927  30.803  1.00  0.00     0.001 A 
ATOM     64  C   UNL A   1      50.603  26.588  28.499  1.00  0.00     0.001 A 
ATOM     65  C   UNL A   1      51.125  26.071  29.684  1.00  0.00     0.000 A 
ENDBRANCH  46  60
BRANCH  47  66
ATOM     66  C   UNL A   1      38.743  29.161  29.037  1.00  0.00    -0.014 A 
ATOM     67  C   UNL A   1      38.212  29.687  27.850  1.00  0.00     0.009 A 
ATOM     68  C   UNL A   1      37.900  29.005  30.148  1.00  0.00     0.009 A 
ATOM     69  C   UNL A   1      36.871  30.073  27.785  1.00  0.00     0.001 A 
ATOM     70  C   UNL A   1      36.554  29.368  30.073  1.00  0.00     0.001 A 
ATOM     71  C   UNL A   1      36.043  29.909  28.895  1.00  0.00     0.000 A 
ENDBRANCH  47  66
BRANCH  59  72
ATOM     72  C   UNL A   1      44.457  32.758  30.712  1.00  0.00    -0.014 A 
ATOM     73  C   UNL A   1      44.642  33.753  29.741  1.00  0.00     0.009 A 
ATOM     74  C   UNL A   1      44.439  33.124  32.068  1.00  0.00     0.009 A 
ATOM     75  C   UNL A   1      44.844  35.081  30.123  1.00  0.00     0.001 A 
ATOM     76  C   UNL A   1      44.612  34.455  32.445  1.00  0.00     0.001 A 
ATOM     77  C   UNL A   1      44.825  35.432  31.473  1.00  0.00     0.000 A 
ENDBRANCH  59  72
ENDBRANCH  33  34
ENDBRANCH  26  28
ENDBRANCH  25  26
ENDBRANCH  24  25
ENDBRANCH  23  24
ENDBRANCH   1  23
TORSDOF 17
ENDMDL
MODEL 2
REMARK VINA RESULT:     -10.1      4.697      9.205
REMARK SMILES C[C@](NC(=O)c1ccc(Br)o1)(C(=O)OCCOCCOC(=O)c1ccc(-c2c3nc(c(-c4ccccc4)c4ccc([nH]4)c(-c4ccccc4)c4nc(c(-c5ccccc5)c5ccc2[nH]5)C=C4)C=C3)cc1)C(F)(F)F
REMARK SMILES IDX 17 1 16 2 15 3 14 4 12 5 13 6 2 7 1 8 71 9 72 10 73 11 74 12
REMARK SMILES IDX 3 13 4 14 5 16 6 17 7 18 11 19 8 20 9 21 10 22 18 23 19 24
REMARK SMILES IDX 20 25 21 26 22 27 23 28 24 29 70 30 25 31 69 32 26 33 27 34
REMARK SMILES IDX 28 35 63 36 29 37 68 38 62 39 64 40 30 41 67 42 61 43 60 44
REMARK SMILES IDX 31 46 53 47 38 48 52 49 39 50 42 51 51 52 65 53 40 54 41 55
REMARK SMILES IDX 50 57 66 58 43 59 32 60 33 61 37 62 34 63 36 64 35 65 54 66
REMARK SMILES IDX 55 67 59 68 56 69 58 70 57 71 44 72 45 73 49 74 46 75 48 76
REMARK SMILES IDX 47 77
REMARK H PARENT 3 15 64 45 42 56
REMARK Flexibility Score: inf
ROOT
ATOM      1  O   UNL A   1      32.534  30.812  26.602  1.00  0.00    -0.374 OA
ENDROOT
BRANCH   1   2
ATOM      2  C   UNL A   1      32.242  29.573  27.244  1.00  0.00     0.202 C 
BRANCH   2   3
ATOM      3  C   UNL A   1      32.567  28.304  26.451  1.00  0.00     0.261 C 
BRANCH   3   4
ATOM      4  O   UNL A   1      31.580  28.035  25.438  1.00  0.00    -0.461 OA
BRANCH   4   5
ATOM      5  C   UNL A   1      32.014  28.123  24.150  1.00  0.00     0.341 C 
ATOM      6  O   UNL A   1      33.068  28.655  23.820  1.00  0.00    -0.249 OA
BRANCH   5   7
ATOM      7  C   UNL A   1      31.013  27.546  23.142  1.00  0.00     0.231 C 
ATOM      8  C   UNL A   1      30.156  26.537  23.905  1.00  0.00     0.058 C 
BRANCH   7   9
ATOM      9  C   UNL A   1      30.122  28.744  22.754  1.00  0.00     0.422 C 
ATOM     10  F   UNL A   1      30.220  29.742  23.666  1.00  0.00    -0.168 F 
ATOM     11  F   UNL A   1      30.544  29.270  21.573  1.00  0.00    -0.168 F 
ATOM     12  F   UNL A   1      28.819  28.446  22.599  1.00  0.00    -0.168 F 
ENDBRANCH   7   9
BRANCH   7  13
ATOM     13  N   UNL A   1      31.663  27.007  21.891  1.00  0.00    -0.326 N 
ATOM     14  C   UNL A   1      32.603  26.057  21.605  1.00  0.00     0.288 C 
ATOM     15  H   UNL A   1      31.325  27.449  21.078  1.00  0.00     0.165 HD
ATOM     16  O   UNL A   1      33.096  26.101  20.478  1.00  0.00    -0.266 OA
BRANCH  14  17
ATOM     17  C   UNL A   1      32.951  25.049  22.566  1.00  0.00     0.192 A 
ATOM     18  C   UNL A   1      32.538  23.738  22.728  1.00  0.00     0.057 A 
ATOM     19  O   UNL A   1      33.944  25.327  23.462  1.00  0.00    -0.444 OA
ATOM     20  C   UNL A   1      33.277  23.211  23.815  1.00  0.00     0.059 A 
ATOM     21  C   UNL A   1      34.135  24.211  24.213  1.00  0.00     0.170 A 
ATOM     22  Br  UNL A   1      35.396  24.065  25.579  1.00  0.00    -0.008 Br
ENDBRANCH  14  17
ENDBRANCH   7  13
ENDBRANCH   5   7
ENDBRANCH   4   5
ENDBRANCH   3   4
ENDBRANCH   2   3
ENDBRANCH   1   2
BRANCH   1  23
ATOM     23  C   UNL A   1      31.473  31.759  26.481  1.00  0.00     0.202 C 
BRANCH  23  24
ATOM     24  C   UNL A   1      31.789  33.214  26.838  1.00  0.00     0.261 C 
BRANCH  24  25
ATOM     25  O   UNL A   1      32.231  33.344  28.200  1.00  0.00    -0.460 OA
BRANCH  25  26
ATOM     26  C   UNL A   1      33.340  34.100  28.356  1.00  0.00     0.338 C 
ATOM     27  O   UNL A   1      33.387  35.309  28.560  1.00  0.00    -0.246 OA
BRANCH  26  28
ATOM     28  C   UNL A   1      34.546  33.257  28.434  1.00  0.00     0.060 A 
ATOM     29  C   UNL A   1      34.409  32.017  29.070  1.00  0.00     0.016 A 
ATOM     30  C   UNL A   1      35.800  33.708  28.015  1.00  0.00     0.016 A 
ATOM     31  C   UNL A   1      35.536  31.267  29.383  1.00  0.00     0.010 A 
ATOM     32  C   UNL A   1      36.935  32.955  28.337  1.00  0.00     0.010 A 
ATOM     33  C   UNL A   1      36.810  31.766  29.078  1.00  0.00    -0.014 A 
BRANCH  33  34
ATOM     34  C   UNL A   1      37.981  31.151  29.747  1.00  0.00     0.031 A 
ATOM     35  C   UNL A   1      38.225  31.466  31.200  1.00  0.00     0.074 A 
ATOM     36  C   UNL A   1      38.756  30.255  29.111  1.00  0.00     0.049 A 
ATOM     37  N   UNL A   1      39.127  30.979  32.016  1.00  0.00    -0.248 NA
ATOM     38  C   UNL A   1      37.329  32.457  31.817  1.00  0.00     0.031 C 
ATOM     39  C   UNL A   1      38.590  29.825  27.724  1.00  0.00     0.029 A 
ATOM     40  N   UNL A   1      39.829  29.531  29.565  1.00  0.00    -0.354 N 
ATOM     41  C   UNL A   1      38.909  31.609  33.234  1.00  0.00     0.074 A 
ATOM     42  C   UNL A   1      37.813  32.534  33.046  1.00  0.00     0.031 C 
ATOM     43  C   UNL A   1      39.523  28.899  27.443  1.00  0.00     0.029 A 
ATOM     44  C   UNL A   1      40.362  28.688  28.622  1.00  0.00     0.049 A 
ATOM     45  H   UNL A   1      40.182  29.609  30.481  1.00  0.00     0.167 HD
ATOM     46  C   UNL A   1      39.556  31.432  34.411  1.00  0.00     0.031 A 
ATOM     47  C   UNL A   1      41.406  27.843  28.704  1.00  0.00     0.031 A 
ATOM     48  C   UNL A   1      40.650  30.520  34.602  1.00  0.00     0.049 A 
ATOM     49  C   UNL A   1      42.150  27.709  30.006  1.00  0.00     0.074 A 
ATOM     50  C   UNL A   1      41.363  30.258  35.759  1.00  0.00     0.029 A 
ATOM     51  N   UNL A   1      41.193  29.725  33.606  1.00  0.00    -0.354 N 
ATOM     52  N   UNL A   1      41.916  28.288  31.159  1.00  0.00    -0.248 NA
ATOM     53  C   UNL A   1      43.296  26.789  30.018  1.00  0.00     0.031 C 
ATOM     54  C   UNL A   1      42.372  29.338  35.450  1.00  0.00     0.029 A 
ATOM     55  C   UNL A   1      42.248  28.988  34.114  1.00  0.00     0.049 A 
ATOM     56  H   UNL A   1      40.876  29.690  32.675  1.00  0.00     0.167 HD
ATOM     57  C   UNL A   1      42.858  27.774  32.042  1.00  0.00     0.074 A 
ATOM     58  C   UNL A   1      43.663  26.832  31.291  1.00  0.00     0.031 C 
ATOM     59  C   UNL A   1      43.036  28.050  33.357  1.00  0.00     0.031 A 
BRANCH  46  60
ATOM     60  C   UNL A   1      39.115  32.280  35.571  1.00  0.00    -0.014 A 
ATOM     61  C   UNL A   1      38.134  31.837  36.472  1.00  0.00     0.009 A 
ATOM     62  C   UNL A   1      39.700  33.541  35.769  1.00  0.00     0.009 A 
ATOM     63  C   UNL A   1      37.721  32.655  37.525  1.00  0.00     0.001 A 
ATOM     64  C   UNL A   1      39.304  34.345  36.838  1.00  0.00     0.001 A 
ATOM     65  C   UNL A   1      38.308  33.906  37.709  1.00  0.00     0.000 A 
ENDBRANCH  46  60
BRANCH  47  66
ATOM     66  C   UNL A   1      41.810  27.043  27.519  1.00  0.00    -0.014 A 
ATOM     67  C   UNL A   1      41.291  25.757  27.316  1.00  0.00     0.009 A 
ATOM     68  C   UNL A   1      42.734  27.557  26.596  1.00  0.00     0.009 A 
ATOM     69  C   UNL A   1      41.707  24.989  26.225  1.00  0.00     0.001 A 
ATOM     70  C   UNL A   1      43.129  26.799  25.493  1.00  0.00     0.001 A 
ATOM     71  C   UNL A   1      42.623  25.513  25.313  1.00  0.00     0.000 A 
ENDBRANCH  47  66
BRANCH  59  72
ATOM     72  C   UNL A   1      44.108  27.286  34.080  1.00  0.00    -0.014 A 
ATOM     73  C   UNL A   1      45.415  27.784  34.195  1.00  0.00     0.009 A 
ATOM     74  C   UNL A   1      43.792  26.059  34.687  1.00  0.00     0.009 A 
ATOM     75  C   UNL A   1      46.393  27.050  34.869  1.00  0.00     0.001 A 
ATOM     76  C   UNL A   1      44.764  25.342  35.384  1.00  0.00     0.001 A 
ATOM     77  C   UNL A   1      46.066  25.832  35.466  1.00  0.00     0.000 A 
ENDBRANCH  59  72
ENDBRANCH  33  34
ENDBRANCH  26  28
ENDBRANCH  25  26
ENDBRANCH  24  25
ENDBRANCH  23  24
ENDBRANCH   1  23
TORSDOF 17
ENDMDL
MODEL 3
REMARK VINA RESULT:     -10.0      2.676      6.290
REMARK SMILES C[C@](NC(=O)c1ccc(Br)o1)(C(=O)OCCOCCOC(=O)c1ccc(-c2c3nc(c(-c4ccccc4)c4ccc([nH]4)c(-c4ccccc4)c4nc(c(-c5ccccc5)c5ccc2[nH]5)C=C4)C=C3)cc1)C(F)(F)F
REMARK SMILES IDX 17 1 16 2 15 3 14 4 12 5 13 6 2 7 1 8 71 9 72 10 73 11 74 12
REMARK SMILES IDX 3 13 4 14 5 16 6 17 7 18 11 19 8 20 9 21 10 22 18 23 19 24
REMARK SMILES IDX 20 25 21 26 22 27 23 28 24 29 70 30 25 31 69 32 26 33 27 34
REMARK SMILES IDX 28 35 63 36 29 37 68 38 62 39 64 40 30 41 67 42 61 43 60 44
REMARK SMILES IDX 31 46 53 47 38 48 52 49 39 50 42 51 51 52 65 53 40 54 41 55
REMARK SMILES IDX 50 57 66 58 43 59 32 60 33 61 37 62 34 63 36 64 35 65 54 66
REMARK SMILES IDX 55 67 59 68 56 69 58 70 57 71 44 72 45 73 49 74 46 75 48 76
REMARK SMILES IDX 47 77
REMARK H PARENT 3 15 64 45 42 56
REMARK Flexibility Score: inf
ROOT
ATOM      1  O   UNL A   1      34.480  20.969  25.635  1.00  0.00    -0.374 OA
ENDROOT
BRANCH   1   2
ATOM      2  C   UNL A   1      34.522  21.490  26.961  1.00  0.00     0.202 C 
BRANCH   2   3
ATOM      3  C   UNL A   1      33.255  22.192  27.457  1.00  0.00     0.261 C 
BRANCH   3   4
ATOM      4  O   UNL A   1      32.424  22.635  26.368  1.00  0.00    -0.461 OA
BRANCH   4   5
ATOM      5  C   UNL A   1      31.471  23.554  26.686  1.00  0.00     0.341 C 
ATOM      6  O   UNL A   1      30.493  23.309  27.383  1.00  0.00    -0.249 OA
BRANCH   5   7
ATOM      7  C   UNL A   1      31.712  24.916  26.025  1.00  0.00     0.231 C 
ATOM      8  C   UNL A   1      33.164  24.922  25.549  1.00  0.00     0.058 C 
BRANCH   7   9
ATOM      9  C   UNL A   1      30.796  24.910  24.784  1.00  0.00     0.422 C 
ATOM     10  F   UNL A   1      30.510  23.644  24.392  1.00  0.00    -0.168 F 
ATOM     11  F   UNL A   1      29.603  25.488  25.088  1.00  0.00    -0.168 F 
ATOM     12  F   UNL A   1      31.286  25.574  23.721  1.00  0.00    -0.168 F 
ENDBRANCH   7   9
BRANCH   7  13
ATOM     13  N   UNL A   1      31.327  26.085  26.898  1.00  0.00    -0.326 N 
ATOM     14  C   UNL A   1      31.475  27.443  26.841  1.00  0.00     0.288 C 
ATOM     15  H   UNL A   1      30.852  25.799  27.712  1.00  0.00     0.165 HD
ATOM     16  O   UNL A   1      31.287  28.056  27.892  1.00  0.00    -0.266 OA
BRANCH  14  17
ATOM     17  C   UNL A   1      31.790  28.100  25.604  1.00  0.00     0.192 A 
ATOM     18  C   UNL A   1      32.994  28.418  25.001  1.00  0.00     0.057 A 
ATOM     19  O   UNL A   1      30.762  28.414  24.760  1.00  0.00    -0.444 OA
ATOM     20  C   UNL A   1      32.680  29.006  23.752  1.00  0.00     0.059 A 
ATOM     21  C   UNL A   1      31.309  28.961  23.643  1.00  0.00     0.170 A 
ATOM     22  Br  UNL A   1      30.327  29.550  22.172  1.00  0.00    -0.008 Br
ENDBRANCH  14  17
ENDBRANCH   7  13
ENDBRANCH   5   7
ENDBRANCH   4   5
ENDBRANCH   3   4
ENDBRANCH   2   3
ENDBRANCH   1   2
BRANCH   1  23
ATOM     23  C   UNL A   1      35.617  21.192  24.802  1.00  0.00     0.202 C 
BRANCH  23  24
ATOM     24  C   UNL A   1      36.953  20.609  25.271  1.00  0.00     0.261 C 
BRANCH  24  25
ATOM     25  O   UNL A   1      38.030  21.549  25.109  1.00  0.00    -0.460 OA
BRANCH  25  26
ATOM     26  C   UNL A   1      39.090  21.325  25.915  1.00  0.00     0.338 C 
ATOM     27  O   UNL A   1      39.755  20.296  25.993  1.00  0.00    -0.246 OA
BRANCH  26  28
ATOM     28  C   UNL A   1      39.502  22.562  26.601  1.00  0.00     0.060 A 
ATOM     29  C   UNL A   1      38.907  23.753  26.166  1.00  0.00     0.016 A 
ATOM     30  C   UNL A   1      40.523  22.583  27.554  1.00  0.00     0.016 A 
ATOM     31  C   UNL A   1      39.400  24.977  26.602  1.00  0.00     0.010 A 
ATOM     32  C   UNL A   1      41.024  23.817  27.987  1.00  0.00     0.010 A 
ATOM     33  C   UNL A   1      40.505  25.014  27.462  1.00  0.00    -0.014 A 
BRANCH  33  34
ATOM     34  C   UNL A   1      41.238  26.295  27.603  1.00  0.00     0.031 A 
ATOM     35  C   UNL A   1      40.658  27.360  28.499  1.00  0.00     0.074 A 
ATOM     36  C   UNL A   1      42.441  26.477  27.031  1.00  0.00     0.049 A 
ATOM     37  N   UNL A   1      41.161  28.518  28.847  1.00  0.00    -0.248 NA
ATOM     38  C   UNL A   1      39.337  27.077  29.085  1.00  0.00     0.031 C 
ATOM     39  C   UNL A   1      43.133  25.504  26.188  1.00  0.00     0.029 A 
ATOM     40  N   UNL A   1      43.300  27.545  27.094  1.00  0.00    -0.354 N 
ATOM     41  C   UNL A   1      40.217  29.100  29.684  1.00  0.00     0.074 A 
ATOM     42  C   UNL A   1      39.100  28.185  29.768  1.00  0.00     0.031 C 
ATOM     43  C   UNL A   1      44.321  26.017  25.821  1.00  0.00     0.029 A 
ATOM     44  C   UNL A   1      44.461  27.357  26.387  1.00  0.00     0.049 A 
ATOM     45  H   UNL A   1      43.102  28.367  27.599  1.00  0.00     0.167 HD
ATOM     46  C   UNL A   1      40.274  30.287  30.334  1.00  0.00     0.031 A 
ATOM     47  C   UNL A   1      45.516  28.177  26.218  1.00  0.00     0.031 A 
ATOM     48  C   UNL A   1      41.379  31.203  30.248  1.00  0.00     0.049 A 
ATOM     49  C   UNL A   1      45.529  29.518  26.900  1.00  0.00     0.074 A 
ATOM     50  C   UNL A   1      41.537  32.424  30.879  1.00  0.00     0.029 A 
ATOM     51  N   UNL A   1      42.511  30.998  29.477  1.00  0.00    -0.354 N 
ATOM     52  N   UNL A   1      44.644  30.045  27.712  1.00  0.00    -0.248 NA
ATOM     53  C   UNL A   1      46.699  30.372  26.651  1.00  0.00     0.031 C 
ATOM     54  C   UNL A   1      42.747  32.982  30.450  1.00  0.00     0.029 A 
ATOM     55  C   UNL A   1      43.365  32.081  29.597  1.00  0.00     0.049 A 
ATOM     56  H   UNL A   1      42.683  30.201  28.926  1.00  0.00     0.167 HD
ATOM     57  C   UNL A   1      45.168  31.272  28.102  1.00  0.00     0.074 A 
ATOM     58  C   UNL A   1      46.450  31.408  27.441  1.00  0.00     0.031 C 
ATOM     59  C   UNL A   1      44.640  32.199  28.938  1.00  0.00     0.031 A 
BRANCH  46  60
ATOM     60  C   UNL A   1      39.080  30.674  31.161  1.00  0.00    -0.014 A 
ATOM     61  C   UNL A   1      38.986  30.327  32.518  1.00  0.00     0.009 A 
ATOM     62  C   UNL A   1      38.038  31.407  30.572  1.00  0.00     0.009 A 
ATOM     63  C   UNL A   1      37.853  30.673  33.258  1.00  0.00     0.001 A 
ATOM     64  C   UNL A   1      36.920  31.775  31.321  1.00  0.00     0.001 A 
ATOM     65  C   UNL A   1      36.823  31.399  32.660  1.00  0.00     0.000 A 
ENDBRANCH  46  60
BRANCH  47  66
ATOM     66  C   UNL A   1      46.661  27.750  25.373  1.00  0.00    -0.014 A 
ATOM     67  C   UNL A   1      46.689  28.050  24.003  1.00  0.00     0.009 A 
ATOM     68  C   UNL A   1      47.723  27.021  25.931  1.00  0.00     0.009 A 
ATOM     69  C   UNL A   1      47.745  27.607  23.203  1.00  0.00     0.001 A 
ATOM     70  C   UNL A   1      48.790  26.602  25.134  1.00  0.00     0.001 A 
ATOM     71  C   UNL A   1      48.796  26.888  23.770  1.00  0.00     0.000 A 
ENDBRANCH  47  66
BRANCH  59  72
ATOM     72  C   UNL A   1      45.470  33.417  29.226  1.00  0.00    -0.014 A 
ATOM     73  C   UNL A   1      45.356  34.583  28.454  1.00  0.00     0.009 A 
ATOM     74  C   UNL A   1      46.359  33.406  30.314  1.00  0.00     0.009 A 
ATOM     75  C   UNL A   1      46.144  35.699  28.742  1.00  0.00     0.001 A 
ATOM     76  C   UNL A   1      47.124  34.531  30.616  1.00  0.00     0.001 A 
ATOM     77  C   UNL A   1      47.024  35.674  29.824  1.00  0.00     0.000 A 
ENDBRANCH  59  72
ENDBRANCH  33  34
ENDBRANCH  26  28
ENDBRANCH  25  26
ENDBRANCH  24  25
ENDBRANCH  23  24
ENDBRANCH   1  23
TORSDOF 17
ENDMDL
