MODEL 1
REMARK VINA RESULT:     -10.2      0.000      0.000
REMARK SMILES CN(C)Nc1ncnc(Nc2ccc(C(=O)OCCOCCOC(=O)c3ccc(-c4c5nc(c(-c6ccccc6)c6ccc([nH]6)c(-c6ccccc6)c6nc(c(-c7ccccc7)c7ccc4[nH]7)C=C6)C=C5)cc3)cc2)c1[N+](=O)[O-]
REMARK SMILES IDX 19 1 18 2 17 3 15 4 16 5 14 6 11 7 12 8 75 9 13 10 74 11
REMARK SMILES IDX 10 12 9 14 5 15 6 16 76 17 7 18 8 19 4 20 2 22 1 23 3 24
REMARK SMILES IDX 77 25 78 26 79 27 20 28 21 29 22 30 23 31 24 32 25 33 26 34
REMARK SMILES IDX 27 35 73 36 28 37 72 38 29 39 30 40 31 41 66 42 32 43 71 44
REMARK SMILES IDX 65 45 67 46 33 47 70 48 64 49 63 50 34 52 56 53 41 54 55 55
REMARK SMILES IDX 42 56 45 57 54 58 68 59 43 60 44 61 53 63 69 64 46 65 35 66
REMARK SMILES IDX 36 67 40 68 37 69 39 70 38 71 57 72 58 73 62 74 59 75 61 76
REMARK SMILES IDX 60 77 47 78 48 79 52 80 49 81 51 82 50 83
REMARK H PARENT 10 13 4 21 67 51 45 62
REMARK Flexibility Score: inf
ROOT
ATOM      1  C   UNL A   1      35.261  33.504  28.432  1.00  0.00     0.202 C 
ENDROOT
BRANCH   1   2
ATOM      2  C   UNL A   1      34.459  32.223  28.676  1.00  0.00     0.261 C 
BRANCH   2   3
ATOM      3  O   UNL A   1      34.283  31.482  27.459  1.00  0.00    -0.460 OA
BRANCH   3   4
ATOM      4  C   UNL A   1      33.006  31.114  27.208  1.00  0.00     0.338 C 
ATOM      5  O   UNL A   1      32.036  31.851  27.112  1.00  0.00    -0.246 OA
BRANCH   4   6
ATOM      6  C   UNL A   1      32.935  29.668  26.910  1.00  0.00     0.060 A 
ATOM      7  C   UNL A   1      32.818  27.011  26.034  1.00  0.00     0.040 A 
ATOM      8  C   UNL A   1      33.961  27.777  25.797  1.00  0.00     0.027 A 
ATOM      9  C   UNL A   1      31.776  27.562  26.801  1.00  0.00     0.027 A 
ATOM     10  C   UNL A   1      34.014  29.104  26.220  1.00  0.00     0.018 A 
ATOM     11  C   UNL A   1      31.833  28.883  27.252  1.00  0.00     0.018 A 
BRANCH   7  12
ATOM     12  N   UNL A   1      32.652  25.808  25.321  1.00  0.00    -0.334 N 
ATOM     13  H   UNL A   1      32.083  25.831  24.516  1.00  0.00     0.168 HD
BRANCH  12  14
ATOM     14  C   UNL A   1      33.237  24.573  25.670  1.00  0.00     0.215 A 
ATOM     15  C   UNL A   1      33.166  22.267  26.227  1.00  0.00     0.225 A 
ATOM     16  N   UNL A   1      34.510  22.188  26.137  1.00  0.00    -0.212 NA
ATOM     17  C   UNL A   1      32.507  23.473  26.084  1.00  0.00     0.354 A 
ATOM     18  C   UNL A   1      35.158  23.302  25.806  1.00  0.00     0.227 A 
ATOM     19  N   UNL A   1      34.579  24.468  25.530  1.00  0.00    -0.212 NA
BRANCH  15  20
ATOM     20  N   UNL A   1      32.574  21.007  26.342  1.00  0.00    -0.298 N 
ATOM     21  H   UNL A   1      32.427  20.663  27.253  1.00  0.00     0.184 HD
BRANCH  20  22
ATOM     22  N   UNL A   1      32.166  20.176  25.262  1.00  0.00    -0.228 NA
ATOM     23  C   UNL A   1      32.604  20.681  23.948  1.00  0.00     0.130 C 
ATOM     24  C   UNL A   1      32.819  18.867  25.471  1.00  0.00     0.130 C 
ENDBRANCH  20  22
ENDBRANCH  15  20
BRANCH  17  25
ATOM     25  N   UNL A   1      31.147  23.621  26.521  1.00  0.00     0.070 N 
ATOM     26  O   UNL A   1      30.837  23.110  27.608  1.00  0.00    -0.258 OA
ATOM     27  O   UNL A   1      30.342  24.127  25.728  1.00  0.00    -0.258 OA
ENDBRANCH  17  25
ENDBRANCH  12  14
ENDBRANCH   7  12
ENDBRANCH   4   6
ENDBRANCH   3   4
ENDBRANCH   2   3
ENDBRANCH   1   2
BRANCH   1  28
ATOM     28  O   UNL A   1      34.702  34.707  28.960  1.00  0.00    -0.374 OA
BRANCH  28  29
ATOM     29  C   UNL A   1      33.298  34.710  29.221  1.00  0.00     0.202 C 
BRANCH  29  30
ATOM     30  C   UNL A   1      32.712  36.020  29.759  1.00  0.00     0.261 C 
BRANCH  30  31
ATOM     31  O   UNL A   1      33.276  36.368  31.038  1.00  0.00    -0.460 OA
BRANCH  31  32
ATOM     32  C   UNL A   1      32.896  35.577  32.066  1.00  0.00     0.338 C 
ATOM     33  O   UNL A   1      31.754  35.334  32.434  1.00  0.00    -0.246 OA
BRANCH  32  34
ATOM     34  C   UNL A   1      34.066  34.866  32.612  1.00  0.00     0.060 A 
ATOM     35  C   UNL A   1      35.324  35.457  32.435  1.00  0.00     0.016 A 
ATOM     36  C   UNL A   1      33.948  33.618  33.227  1.00  0.00     0.016 A 
ATOM     37  C   UNL A   1      36.476  34.779  32.828  1.00  0.00     0.010 A 
ATOM     38  C   UNL A   1      35.106  32.935  33.613  1.00  0.00     0.010 A 
ATOM     39  C   UNL A   1      36.376  33.497  33.383  1.00  0.00    -0.014 A 
BRANCH  39  40
ATOM     40  C   UNL A   1      37.601  32.689  33.591  1.00  0.00     0.031 A 
ATOM     41  C   UNL A   1      38.405  32.894  34.847  1.00  0.00     0.074 A 
ATOM     42  C   UNL A   1      37.990  31.779  32.681  1.00  0.00     0.049 A 
ATOM     43  N   UNL A   1      39.530  32.333  35.212  1.00  0.00    -0.248 NA
ATOM     44  C   UNL A   1      37.872  33.863  35.821  1.00  0.00     0.031 C 
ATOM     45  C   UNL A   1      37.281  31.462  31.443  1.00  0.00     0.029 A 
ATOM     46  N   UNL A   1      39.093  30.961  32.659  1.00  0.00    -0.354 N 
ATOM     47  C   UNL A   1      39.848  32.892  36.443  1.00  0.00     0.074 A 
ATOM     48  C   UNL A   1      38.809  33.847  36.759  1.00  0.00     0.031 C 
ATOM     49  C   UNL A   1      37.976  30.527  30.771  1.00  0.00     0.029 A 
ATOM     50  C   UNL A   1      39.191  30.204  31.516  1.00  0.00     0.049 A 
ATOM     51  H   UNL A   1      39.749  30.920  33.391  1.00  0.00     0.167 HD
ATOM     52  C   UNL A   1      40.911  32.633  37.239  1.00  0.00     0.031 A 
ATOM     53  C   UNL A   1      40.165  29.369  31.107  1.00  0.00     0.031 A 
ATOM     54  C   UNL A   1      41.942  31.679  36.932  1.00  0.00     0.049 A 
ATOM     55  C   UNL A   1      41.366  29.142  31.989  1.00  0.00     0.074 A 
ATOM     56  C   UNL A   1      43.034  31.314  37.700  1.00  0.00     0.029 A 
ATOM     57  N   UNL A   1      42.014  30.946  35.759  1.00  0.00    -0.354 N 
ATOM     58  N   UNL A   1      41.627  29.638  33.174  1.00  0.00    -0.248 NA
ATOM     59  C   UNL A   1      42.402  28.232  31.477  1.00  0.00     0.031 C 
ATOM     60  C   UNL A   1      43.798  30.403  36.966  1.00  0.00     0.029 A 
ATOM     61  C   UNL A   1      43.151  30.157  35.766  1.00  0.00     0.049 A 
ATOM     62  H   UNL A   1      41.354  30.981  35.029  1.00  0.00     0.167 HD
ATOM     63  C   UNL A   1      42.839  29.078  33.560  1.00  0.00     0.074 A 
ATOM     64  C   UNL A   1      43.254  28.195  32.491  1.00  0.00     0.031 C 
ATOM     65  C   UNL A   1      43.546  29.277  34.699  1.00  0.00     0.031 A 
BRANCH  52  66
ATOM     66  C   UNL A   1      41.041  33.419  38.512  1.00  0.00    -0.014 A 
ATOM     67  C   UNL A   1      40.413  33.005  39.697  1.00  0.00     0.009 A 
ATOM     68  C   UNL A   1      41.861  34.559  38.538  1.00  0.00     0.009 A 
ATOM     69  C   UNL A   1      40.589  33.729  40.877  1.00  0.00     0.001 A 
ATOM     70  C   UNL A   1      42.055  35.266  39.726  1.00  0.00     0.001 A 
ATOM     71  C   UNL A   1      41.415  34.854  40.893  1.00  0.00     0.000 A 
ENDBRANCH  52  66
BRANCH  53  72
ATOM     72  C   UNL A   1      40.078  28.707  29.779  1.00  0.00    -0.014 A 
ATOM     73  C   UNL A   1      39.528  27.422  29.648  1.00  0.00     0.009 A 
ATOM     74  C   UNL A   1      40.591  29.343  28.636  1.00  0.00     0.009 A 
ATOM     75  C   UNL A   1      39.527  26.776  28.410  1.00  0.00     0.001 A 
ATOM     76  C   UNL A   1      40.560  28.706  27.394  1.00  0.00     0.001 A 
ATOM     77  C   UNL A   1      40.040  27.418  27.285  1.00  0.00     0.000 A 
ENDBRANCH  53  72
BRANCH  65  78
ATOM     78  C   UNL A   1      44.818  28.495  34.870  1.00  0.00    -0.014 A 
ATOM     79  C   UNL A   1      46.063  29.044  34.528  1.00  0.00     0.009 A 
ATOM     80  C   UNL A   1      44.771  27.209  35.429  1.00  0.00     0.009 A 
ATOM     81  C   UNL A   1      47.234  28.305  34.714  1.00  0.00     0.001 A 
ATOM     82  C   UNL A   1      45.944  26.484  35.642  1.00  0.00     0.001 A 
ATOM     83  C   UNL A   1      47.174  27.030  35.276  1.00  0.00     0.000 A 
ENDBRANCH  65  78
ENDBRANCH  39  40
ENDBRANCH  32  34
ENDBRANCH  31  32
ENDBRANCH  30  31
ENDBRANCH  29  30
ENDBRANCH  28  29
ENDBRANCH   1  28
TORSDOF 19
ENDMDL
MODEL 2
REMARK VINA RESULT:     -10.2      3.762      9.152
REMARK SMILES CN(C)Nc1ncnc(Nc2ccc(C(=O)OCCOCCOC(=O)c3ccc(-c4c5nc(c(-c6ccccc6)c6ccc([nH]6)c(-c6ccccc6)c6nc(c(-c7ccccc7)c7ccc4[nH]7)C=C6)C=C5)cc3)cc2)c1[N+](=O)[O-]
REMARK SMILES IDX 19 1 18 2 17 3 15 4 16 5 14 6 11 7 12 8 75 9 13 10 74 11
REMARK SMILES IDX 10 12 9 14 5 15 6 16 76 17 7 18 8 19 4 20 2 22 1 23 3 24
REMARK SMILES IDX 77 25 78 26 79 27 20 28 21 29 22 30 23 31 24 32 25 33 26 34
REMARK SMILES IDX 27 35 73 36 28 37 72 38 29 39 30 40 31 41 66 42 32 43 71 44
REMARK SMILES IDX 65 45 67 46 33 47 70 48 64 49 63 50 34 52 56 53 41 54 55 55
REMARK SMILES IDX 42 56 45 57 54 58 68 59 43 60 44 61 53 63 69 64 46 65 35 66
REMARK SMILES IDX 36 67 40 68 37 69 39 70 38 71 57 72 58 73 62 74 59 75 61 76
REMARK SMILES IDX 60 77 47 78 48 79 52 80 49 81 51 82 50 83
REMARK H PARENT 10 13 4 21 67 51 45 62
REMARK Flexibility Score: inf
ROOT
ATOM      1  C   UNL A   1      40.260  21.554  26.145  1.00  0.00     0.202 C 
ENDROOT
BRANCH   1   2
ATOM      2  C   UNL A   1      38.899  20.921  25.839  1.00  0.00     0.261 C 
BRANCH   2   3
ATOM      3  O   UNL A   1      37.928  21.922  25.500  1.00  0.00    -0.460 OA
BRANCH   3   4
ATOM      4  C   UNL A   1      36.719  21.431  25.143  1.00  0.00     0.338 C 
ATOM      5  O   UNL A   1      36.369  20.260  25.162  1.00  0.00    -0.246 OA
BRANCH   4   6
ATOM      6  C   UNL A   1      35.781  22.532  24.845  1.00  0.00     0.060 A 
ATOM      7  C   UNL A   1      34.206  24.706  24.047  1.00  0.00     0.040 A 
ATOM      8  C   UNL A   1      34.423  23.640  23.172  1.00  0.00     0.027 A 
ATOM      9  C   UNL A   1      34.705  24.623  25.358  1.00  0.00     0.027 A 
ATOM     10  C   UNL A   1      35.219  22.565  23.563  1.00  0.00     0.018 A 
ATOM     11  C   UNL A   1      35.481  23.536  25.767  1.00  0.00     0.018 A 
BRANCH   7  12
ATOM     12  N   UNL A   1      33.693  25.911  23.528  1.00  0.00    -0.334 N 
ATOM     13  H   UNL A   1      34.300  26.471  22.992  1.00  0.00     0.168 HD
BRANCH  12  14
ATOM     14  C   UNL A   1      32.375  26.377  23.719  1.00  0.00     0.215 A 
ATOM     15  C   UNL A   1      30.743  28.071  24.032  1.00  0.00     0.225 A 
ATOM     16  N   UNL A   1      29.752  27.168  23.875  1.00  0.00    -0.212 NA
ATOM     17  C   UNL A   1      32.070  27.687  24.046  1.00  0.00     0.354 A 
ATOM     18  C   UNL A   1      30.116  25.911  23.636  1.00  0.00     0.227 A 
ATOM     19  N   UNL A   1      31.374  25.491  23.510  1.00  0.00    -0.212 NA
BRANCH  15  20
ATOM     20  N   UNL A   1      30.259  29.382  24.040  1.00  0.00    -0.298 N 
ATOM     21  H   UNL A   1      30.678  30.010  24.671  1.00  0.00     0.184 HD
BRANCH  20  22
ATOM     22  N   UNL A   1      29.214  29.889  23.217  1.00  0.00    -0.228 NA
ATOM     23  C   UNL A   1      28.801  31.255  23.586  1.00  0.00     0.130 C 
ATOM     24  C   UNL A   1      29.755  29.949  21.843  1.00  0.00     0.130 C 
ENDBRANCH  20  22
ENDBRANCH  15  20
BRANCH  17  25
ATOM     25  N   UNL A   1      33.082  28.568  24.555  1.00  0.00     0.070 N 
ATOM     26  O   UNL A   1      33.273  29.632  23.946  1.00  0.00    -0.258 OA
ATOM     27  O   UNL A   1      33.789  28.154  25.484  1.00  0.00    -0.258 OA
ENDBRANCH  17  25
ENDBRANCH  12  14
ENDBRANCH   7  12
ENDBRANCH   4   6
ENDBRANCH   3   4
ENDBRANCH   2   3
ENDBRANCH   1   2
BRANCH   1  28
ATOM     28  O   UNL A   1      41.407  20.814  25.726  1.00  0.00    -0.374 OA
BRANCH  28  29
ATOM     29  C   UNL A   1      42.655  21.154  26.332  1.00  0.00     0.202 C 
BRANCH  29  30
ATOM     30  C   UNL A   1      43.672  21.867  25.434  1.00  0.00     0.261 C 
BRANCH  30  31
ATOM     31  O   UNL A   1      43.125  23.072  24.866  1.00  0.00    -0.460 OA
BRANCH  31  32
ATOM     32  C   UNL A   1      43.868  24.185  25.058  1.00  0.00     0.338 C 
ATOM     33  O   UNL A   1      44.904  24.495  24.484  1.00  0.00    -0.246 OA
BRANCH  32  34
ATOM     34  C   UNL A   1      43.161  25.112  25.959  1.00  0.00     0.060 A 
ATOM     35  C   UNL A   1      43.710  26.389  26.136  1.00  0.00     0.016 A 
ATOM     36  C   UNL A   1      42.023  24.725  26.670  1.00  0.00     0.016 A 
ATOM     37  C   UNL A   1      43.151  27.269  27.060  1.00  0.00     0.010 A 
ATOM     38  C   UNL A   1      41.469  25.606  27.604  1.00  0.00     0.010 A 
ATOM     39  C   UNL A   1      42.052  26.867  27.829  1.00  0.00    -0.014 A 
BRANCH  39  40
ATOM     40  C   UNL A   1      41.600  27.710  28.962  1.00  0.00     0.031 A 
ATOM     41  C   UNL A   1      42.320  27.606  30.280  1.00  0.00     0.074 A 
ATOM     42  C   UNL A   1      40.571  28.563  28.820  1.00  0.00     0.049 A 
ATOM     43  N   UNL A   1      42.066  28.211  31.412  1.00  0.00    -0.248 NA
ATOM     44  C   UNL A   1      43.477  26.695  30.330  1.00  0.00     0.031 C 
ATOM     45  C   UNL A   1      39.816  28.783  27.587  1.00  0.00     0.029 A 
ATOM     46  N   UNL A   1      39.977  29.399  29.733  1.00  0.00    -0.354 N 
ATOM     47  C   UNL A   1      43.016  27.742  32.311  1.00  0.00     0.074 A 
ATOM     48  C   UNL A   1      43.842  26.791  31.601  1.00  0.00     0.031 C 
ATOM     49  C   UNL A   1      38.846  29.682  27.826  1.00  0.00     0.029 A 
ATOM     50  C   UNL A   1      38.893  30.078  29.232  1.00  0.00     0.049 A 
ATOM     51  H   UNL A   1      40.297  29.502  30.658  1.00  0.00     0.167 HD
ATOM     52  C   UNL A   1      43.184  28.075  33.612  1.00  0.00     0.031 A 
ATOM     53  C   UNL A   1      38.023  30.902  29.847  1.00  0.00     0.031 A 
ATOM     54  C   UNL A   1      42.369  29.025  34.319  1.00  0.00     0.049 A 
ATOM     55  C   UNL A   1      38.201  31.210  31.310  1.00  0.00     0.074 A 
ATOM     56  C   UNL A   1      42.494  29.461  35.627  1.00  0.00     0.029 A 
ATOM     57  N   UNL A   1      41.273  29.678  33.781  1.00  0.00    -0.354 N 
ATOM     58  N   UNL A   1      39.135  30.801  32.134  1.00  0.00    -0.248 NA
ATOM     59  C   UNL A   1      37.207  32.102  31.926  1.00  0.00     0.031 C 
ATOM     60  C   UNL A   1      41.437  30.335  35.897  1.00  0.00     0.029 A 
ATOM     61  C   UNL A   1      40.690  30.487  34.741  1.00  0.00     0.049 A 
ATOM     62  H   UNL A   1      40.956  29.581  32.854  1.00  0.00     0.167 HD
ATOM     63  C   UNL A   1      38.859  31.408  33.353  1.00  0.00     0.074 A 
ATOM     64  C   UNL A   1      37.680  32.224  33.158  1.00  0.00     0.031 C 
ATOM     65  C   UNL A   1      39.522  31.300  34.530  1.00  0.00     0.031 A 
BRANCH  52  66
ATOM     66  C   UNL A   1      44.274  27.379  34.377  1.00  0.00    -0.014 A 
ATOM     67  C   UNL A   1      45.560  27.929  34.484  1.00  0.00     0.009 A 
ATOM     68  C   UNL A   1      43.985  26.184  35.056  1.00  0.00     0.009 A 
ATOM     69  C   UNL A   1      46.540  27.284  35.241  1.00  0.00     0.001 A 
ATOM     70  C   UNL A   1      44.959  25.556  35.833  1.00  0.00     0.001 A 
ATOM     71  C   UNL A   1      46.238  26.103  35.920  1.00  0.00     0.000 A 
ENDBRANCH  52  66
BRANCH  53  72
ATOM     72  C   UNL A   1      36.871  31.470  29.098  1.00  0.00    -0.014 A 
ATOM     73  C   UNL A   1      36.888  32.800  28.650  1.00  0.00     0.009 A 
ATOM     74  C   UNL A   1      35.723  30.694  28.869  1.00  0.00     0.009 A 
ATOM     75  C   UNL A   1      35.768  33.350  28.022  1.00  0.00     0.001 A 
ATOM     76  C   UNL A   1      34.617  31.236  28.213  1.00  0.00     0.001 A 
ATOM     77  C   UNL A   1      34.636  32.568  27.802  1.00  0.00     0.000 A 
ENDBRANCH  53  72
BRANCH  65  78
ATOM     78  C   UNL A   1      39.017  32.115  35.687  1.00  0.00    -0.014 A 
ATOM     79  C   UNL A   1      38.153  31.564  36.645  1.00  0.00     0.009 A 
ATOM     80  C   UNL A   1      39.454  33.439  35.844  1.00  0.00     0.009 A 
ATOM     81  C   UNL A   1      37.713  32.336  37.723  1.00  0.00     0.001 A 
ATOM     82  C   UNL A   1      39.036  34.199  36.938  1.00  0.00     0.001 A 
ATOM     83  C   UNL A   1      38.159  33.649  37.871  1.00  0.00     0.000 A 
ENDBRANCH  65  78
ENDBRANCH  39  40
ENDBRANCH  32  34
ENDBRANCH  31  32
ENDBRANCH  30  31
ENDBRANCH  29  30
ENDBRANCH  28  29
ENDBRANCH   1  28
TORSDOF 19
ENDMDL
MODEL 3
REMARK VINA RESULT:     -10.1      5.152      9.698
REMARK SMILES CN(C)Nc1ncnc(Nc2ccc(C(=O)OCCOCCOC(=O)c3ccc(-c4c5nc(c(-c6ccccc6)c6ccc([nH]6)c(-c6ccccc6)c6nc(c(-c7ccccc7)c7ccc4[nH]7)C=C6)C=C5)cc3)cc2)c1[N+](=O)[O-]
REMARK SMILES IDX 19 1 18 2 17 3 15 4 16 5 14 6 11 7 12 8 75 9 13 10 74 11
REMARK SMILES IDX 10 12 9 14 5 15 6 16 76 17 7 18 8 19 4 20 2 22 1 23 3 24
REMARK SMILES IDX 77 25 78 26 79 27 20 28 21 29 22 30 23 31 24 32 25 33 26 34
REMARK SMILES IDX 27 35 73 36 28 37 72 38 29 39 30 40 31 41 66 42 32 43 71 44
REMARK SMILES IDX 65 45 67 46 33 47 70 48 64 49 63 50 34 52 56 53 41 54 55 55
REMARK SMILES IDX 42 56 45 57 54 58 68 59 43 60 44 61 53 63 69 64 46 65 35 66
REMARK SMILES IDX 36 67 40 68 37 69 39 70 38 71 57 72 58 73 62 74 59 75 61 76
REMARK SMILES IDX 60 77 47 78 48 79 52 80 49 81 51 82 50 83
REMARK H PARENT 10 13 4 21 67 51 45 62
REMARK Flexibility Score: inf
ROOT
ATOM      1  C   UNL A   1      33.907  20.787  26.008  1.00  0.00     0.202 C 
ENDROOT
BRANCH   1   2
ATOM      2  C   UNL A   1      33.147  20.003  24.935  1.00  0.00     0.261 C 
BRANCH   2   3
ATOM      3  O   UNL A   1      32.021  20.750  24.449  1.00  0.00    -0.460 OA
BRANCH   3   4
ATOM      4  C   UNL A   1      32.074  21.046  23.130  1.00  0.00     0.338 C 
ATOM      5  O   UNL A   1      31.956  20.265  22.197  1.00  0.00    -0.246 OA
BRANCH   4   6
ATOM      6  C   UNL A   1      32.154  22.508  22.931  1.00  0.00     0.060 A 
ATOM      7  C   UNL A   1      32.032  25.252  22.385  1.00  0.00     0.040 A 
ATOM      8  C   UNL A   1      31.035  24.646  23.153  1.00  0.00     0.027 A 
ATOM      9  C   UNL A   1      33.139  24.487  21.979  1.00  0.00     0.027 A 
ATOM     10  C   UNL A   1      31.087  23.277  23.412  1.00  0.00     0.018 A 
ATOM     11  C   UNL A   1      33.212  23.121  22.259  1.00  0.00     0.018 A 
BRANCH   7  12
ATOM     12  N   UNL A   1      31.791  26.537  21.860  1.00  0.00    -0.334 N 
ATOM     13  H   UNL A   1      32.053  26.703  20.925  1.00  0.00     0.168 HD
BRANCH  12  14
ATOM     14  C   UNL A   1      31.204  27.604  22.572  1.00  0.00     0.215 A 
ATOM     15  C   UNL A   1      31.234  29.389  24.135  1.00  0.00     0.225 A 
ATOM     16  N   UNL A   1      30.007  29.783  23.732  1.00  0.00    -0.212 NA
ATOM     17  C   UNL A   1      31.822  28.245  23.631  1.00  0.00     0.354 A 
ATOM     18  C   UNL A   1      29.437  29.077  22.759  1.00  0.00     0.227 A 
ATOM     19  N   UNL A   1      29.998  28.041  22.139  1.00  0.00    -0.212 NA
BRANCH  15  20
ATOM     20  N   UNL A   1      31.833  30.327  24.980  1.00  0.00    -0.298 N 
ATOM     21  H   UNL A   1      32.456  30.968  24.567  1.00  0.00     0.184 HD
BRANCH  20  22
ATOM     22  N   UNL A   1      31.623  30.439  26.383  1.00  0.00    -0.228 NA
ATOM     23  C   UNL A   1      32.788  30.008  27.176  1.00  0.00     0.130 C 
ATOM     24  C   UNL A   1      31.407  31.875  26.660  1.00  0.00     0.130 C 
ENDBRANCH  20  22
ENDBRANCH  15  20
BRANCH  17  25
ATOM     25  N   UNL A   1      32.941  27.643  24.297  1.00  0.00     0.070 N 
ATOM     26  O   UNL A   1      34.032  27.652  23.706  1.00  0.00    -0.258 OA
ATOM     27  O   UNL A   1      32.721  27.037  25.355  1.00  0.00    -0.258 OA
ENDBRANCH  17  25
ENDBRANCH  12  14
ENDBRANCH   7  12
ENDBRANCH   4   6
ENDBRANCH   3   4
ENDBRANCH   2   3
ENDBRANCH   1   2
BRANCH   1  28
ATOM     28  O   UNL A   1      34.540  21.993  25.577  1.00  0.00    -0.374 OA
BRANCH  28  29
ATOM     29  C   UNL A   1      35.681  21.859  24.727  1.00  0.00     0.202 C 
BRANCH  29  30
ATOM     30  C   UNL A   1      36.779  20.907  25.213  1.00  0.00     0.261 C 
BRANCH  30  31
ATOM     31  O   UNL A   1      38.093  21.449  24.980  1.00  0.00    -0.460 OA
BRANCH  31  32
ATOM     32  C   UNL A   1      39.010  21.156  25.929  1.00  0.00     0.338 C 
ATOM     33  O   UNL A   1      39.481  20.057  26.194  1.00  0.00    -0.246 OA
BRANCH  32  34
ATOM     34  C   UNL A   1      39.535  22.400  26.521  1.00  0.00     0.060 A 
ATOM     35  C   UNL A   1      39.009  23.611  26.055  1.00  0.00     0.016 A 
ATOM     36  C   UNL A   1      40.565  22.389  27.464  1.00  0.00     0.016 A 
ATOM     37  C   UNL A   1      39.544  24.821  26.494  1.00  0.00     0.010 A 
ATOM     38  C   UNL A   1      41.107  23.604  27.896  1.00  0.00     0.010 A 
ATOM     39  C   UNL A   1      40.623  24.823  27.386  1.00  0.00    -0.014 A 
BRANCH  39  40
ATOM     40  C   UNL A   1      41.334  26.091  27.676  1.00  0.00     0.031 A 
ATOM     41  C   UNL A   1      40.659  27.125  28.535  1.00  0.00     0.074 A 
ATOM     42  C   UNL A   1      42.568  26.317  27.190  1.00  0.00     0.049 A 
ATOM     43  N   UNL A   1      41.075  28.319  28.876  1.00  0.00    -0.248 NA
ATOM     44  C   UNL A   1      39.337  26.770  29.080  1.00  0.00     0.031 C 
ATOM     45  C   UNL A   1      43.342  25.382  26.376  1.00  0.00     0.029 A 
ATOM     46  N   UNL A   1      43.380  27.418  27.305  1.00  0.00    -0.354 N 
ATOM     47  C   UNL A   1      40.062  28.862  29.657  1.00  0.00     0.074 A 
ATOM     48  C   UNL A   1      39.004  27.878  29.728  1.00  0.00     0.031 C 
ATOM     49  C   UNL A   1      44.513  25.956  26.050  1.00  0.00     0.029 A 
ATOM     50  C   UNL A   1      44.557  27.307  26.606  1.00  0.00     0.049 A 
ATOM     51  H   UNL A   1      43.142  28.210  27.838  1.00  0.00     0.167 HD
ATOM     52  C   UNL A   1      40.017  30.073  30.259  1.00  0.00     0.031 A 
ATOM     53  C   UNL A   1      45.542  28.205  26.413  1.00  0.00     0.031 A 
ATOM     54  C   UNL A   1      41.069  31.051  30.196  1.00  0.00     0.049 A 
ATOM     55  C   UNL A   1      45.439  29.566  27.050  1.00  0.00     0.074 A 
ATOM     56  C   UNL A   1      41.133  32.287  30.815  1.00  0.00     0.029 A 
ATOM     57  N   UNL A   1      42.237  30.906  29.465  1.00  0.00    -0.354 N 
ATOM     58  N   UNL A   1      44.501  30.047  27.829  1.00  0.00    -0.248 NA
ATOM     59  C   UNL A   1      46.540  30.506  26.788  1.00  0.00     0.031 C 
ATOM     60  C   UNL A   1      42.314  32.916  30.410  1.00  0.00     0.029 A 
ATOM     61  C   UNL A   1      43.011  32.047  29.587  1.00  0.00     0.049 A 
ATOM     62  H   UNL A   1      42.479  30.111  28.937  1.00  0.00     0.167 HD
ATOM     63  C   UNL A   1      44.911  31.329  28.171  1.00  0.00     0.074 A 
ATOM     64  C   UNL A   1      46.189  31.547  27.529  1.00  0.00     0.031 C 
ATOM     65  C   UNL A   1      44.285  32.246  28.949  1.00  0.00     0.031 A 
BRANCH  52  66
ATOM     66  C   UNL A   1      38.771  30.432  31.016  1.00  0.00    -0.014 A 
ATOM     67  C   UNL A   1      38.566  30.006  32.337  1.00  0.00     0.009 A 
ATOM     68  C   UNL A   1      37.815  31.268  30.414  1.00  0.00     0.009 A 
ATOM     69  C   UNL A   1      37.420  30.395  33.033  1.00  0.00     0.001 A 
ATOM     70  C   UNL A   1      36.683  31.675  31.122  1.00  0.00     0.001 A 
ATOM     71  C   UNL A   1      36.484  31.234  32.429  1.00  0.00     0.000 A 
ENDBRANCH  52  66
BRANCH  53  72
ATOM     72  C   UNL A   1      46.703  27.871  25.546  1.00  0.00    -0.014 A 
ATOM     73  C   UNL A   1      46.629  28.023  24.153  1.00  0.00     0.009 A 
ATOM     74  C   UNL A   1      47.880  27.351  26.109  1.00  0.00     0.009 A 
ATOM     75  C   UNL A   1      47.694  27.628  23.341  1.00  0.00     0.001 A 
ATOM     76  C   UNL A   1      48.955  26.986  25.297  1.00  0.00     0.001 A 
ATOM     77  C   UNL A   1      48.856  27.112  23.912  1.00  0.00     0.000 A 
ENDBRANCH  53  72
BRANCH  65  78
ATOM     78  C   UNL A   1      44.991  33.551  29.185  1.00  0.00    -0.014 A 
ATOM     79  C   UNL A   1      45.893  33.712  30.248  1.00  0.00     0.009 A 
ATOM     80  C   UNL A   1      44.786  34.619  28.298  1.00  0.00     0.009 A 
ATOM     81  C   UNL A   1      46.552  34.929  30.435  1.00  0.00     0.001 A 
ATOM     82  C   UNL A   1      45.468  35.825  28.470  1.00  0.00     0.001 A 
ATOM     83  C   UNL A   1      46.343  35.981  29.543  1.00  0.00     0.000 A 
ENDBRANCH  65  78
ENDBRANCH  39  40
ENDBRANCH  32  34
ENDBRANCH  31  32
ENDBRANCH  30  31
ENDBRANCH  29  30
ENDBRANCH  28  29
ENDBRANCH   1  28
TORSDOF 19
ENDMDL
