MODEL 1
REMARK VINA RESULT:     -10.3      0.000      0.000
REMARK SMILES NC(=O)CC[C@@H](C(=O)OCCOCCOC(=O)c1ccc(-c2c3nc(c(-c4ccccc4)c4ccc([nH]4)c(-c4ccccc4)c4nc(c(-c5ccccc5)c5ccc2[nH]5)C=C4)C=C3)cc1)N1C(=O)/C(=C/c2ccc(C=O)cc2)SC1=S
REMARK SMILES IDX 11 1 10 2 9 3 7 4 8 5 6 6 5 7 4 8 2 9 1 10 3 13 66 14 67 15
REMARK SMILES IDX 80 16 68 17 69 18 79 19 81 20 70 21 71 22 72 23 78 24 73 25
REMARK SMILES IDX 77 26 74 27 75 28 76 29 12 30 13 31 14 32 15 33 16 34 17 35
REMARK SMILES IDX 18 36 19 37 65 38 20 39 64 40 21 41 22 42 23 43 58 44 24 45
REMARK SMILES IDX 63 46 57 47 59 48 25 49 62 50 56 51 55 52 26 54 48 55 33 56
REMARK SMILES IDX 47 57 34 58 37 59 46 60 60 61 35 62 36 63 45 65 61 66 38 67
REMARK SMILES IDX 27 68 28 69 32 70 29 71 31 72 30 73 49 74 50 75 54 76 51 77
REMARK SMILES IDX 53 78 52 79 39 80 40 81 44 82 41 83 43 84 42 85
REMARK H PARENT 1 11 1 12 59 53 37 64
REMARK Flexibility Score: inf
ROOT
ATOM      1  C   UNL A   1      37.056  23.335  24.718  1.00  0.00     0.202 C 
ENDROOT
BRANCH   1   2
ATOM      2  C   UNL A   1      35.805  24.076  25.199  1.00  0.00     0.261 C 
BRANCH   2   3
ATOM      3  O   UNL A   1      35.106  24.695  24.096  1.00  0.00    -0.462 OA
BRANCH   3   4
ATOM      4  C   UNL A   1      34.056  25.491  24.432  1.00  0.00     0.329 C 
ATOM      5  O   UNL A   1      34.137  26.427  25.218  1.00  0.00    -0.250 OA
BRANCH   4   6
ATOM      6  C   UNL A   1      32.747  25.067  23.725  1.00  0.00     0.202 C 
BRANCH   6   7
ATOM      7  C   UNL A   1      31.542  26.021  23.884  1.00  0.00     0.047 C 
BRANCH   7   8
ATOM      8  C   UNL A   1      30.154  25.540  23.454  1.00  0.00     0.102 C 
BRANCH   8   9
ATOM      9  C   UNL A   1      29.069  25.928  24.418  1.00  0.00     0.217 C 
ATOM     10  N   UNL A   1      27.884  26.266  23.842  1.00  0.00    -0.370 N 
ATOM     11  H   UNL A   1      27.121  26.532  24.403  1.00  0.00     0.159 HD
ATOM     12  H   UNL A   1      27.790  26.244  22.862  1.00  0.00     0.159 HD
ATOM     13  O   UNL A   1      29.212  25.906  25.634  1.00  0.00    -0.275 OA
ENDBRANCH   8   9
ENDBRANCH   7   8
ENDBRANCH   6   7
BRANCH   6  14
ATOM     14  N   UNL A   1      32.516  23.664  24.209  1.00  0.00    -0.278 N 
ATOM     15  C   UNL A   1      32.800  22.656  23.285  1.00  0.00     0.266 C 
ATOM     16  C   UNL A   1      32.276  23.226  25.500  1.00  0.00     0.149 C 
ATOM     17  O   UNL A   1      33.040  22.824  22.096  1.00  0.00    -0.268 OA
ATOM     18  C   UNL A   1      32.784  21.319  23.932  1.00  0.00     0.081 C 
ATOM     19  S   UNL A   1      32.493  21.489  25.610  1.00  0.00    -0.054 SA
ATOM     20  S   UNL A   1      31.807  24.045  26.873  1.00  0.00    -0.052 S 
ATOM     21  C   UNL A   1      32.971  20.171  23.264  1.00  0.00     0.029 C 
BRANCH  21  22
ATOM     22  C   UNL A   1      32.887  18.837  23.876  1.00  0.00    -0.024 A 
ATOM     23  C   UNL A   1      33.202  17.694  23.134  1.00  0.00     0.009 A 
ATOM     24  C   UNL A   1      32.503  18.699  25.220  1.00  0.00     0.009 A 
ATOM     25  C   UNL A   1      33.164  16.432  23.738  1.00  0.00     0.012 A 
ATOM     26  C   UNL A   1      32.479  17.445  25.830  1.00  0.00     0.012 A 
ATOM     27  C   UNL A   1      32.813  16.314  25.086  1.00  0.00     0.014 A 
BRANCH  27  28
ATOM     28  C   UNL A   1      32.791  14.993  25.744  1.00  0.00     0.260 C 
ATOM     29  O   UNL A   1      33.602  14.117  25.477  1.00  0.00    -0.298 OA
ENDBRANCH  27  28
ENDBRANCH  21  22
ENDBRANCH   6  14
ENDBRANCH   4   6
ENDBRANCH   3   4
ENDBRANCH   2   3
ENDBRANCH   1   2
BRANCH   1  30
ATOM     30  O   UNL A   1      37.278  22.054  25.309  1.00  0.00    -0.374 OA
BRANCH  30  31
ATOM     31  C   UNL A   1      38.598  21.774  25.768  1.00  0.00     0.202 C 
BRANCH  31  32
ATOM     32  C   UNL A   1      39.172  20.411  25.370  1.00  0.00     0.261 C 
BRANCH  32  33
ATOM     33  O   UNL A   1      40.036  19.899  26.396  1.00  0.00    -0.460 OA
BRANCH  33  34
ATOM     34  C   UNL A   1      41.348  19.921  26.071  1.00  0.00     0.338 C 
ATOM     35  O   UNL A   1      41.947  19.132  25.353  1.00  0.00    -0.246 OA
BRANCH  34  36
ATOM     36  C   UNL A   1      41.974  21.158  26.567  1.00  0.00     0.060 A 
ATOM     37  C   UNL A   1      41.948  21.365  27.951  1.00  0.00     0.016 A 
ATOM     38  C   UNL A   1      42.511  22.124  25.711  1.00  0.00     0.016 A 
ATOM     39  C   UNL A   1      42.386  22.572  28.482  1.00  0.00     0.010 A 
ATOM     40  C   UNL A   1      42.949  23.339  26.246  1.00  0.00     0.010 A 
ATOM     41  C   UNL A   1      42.843  23.584  27.627  1.00  0.00    -0.014 A 
BRANCH  41  42
ATOM     42  C   UNL A   1      43.046  24.943  28.177  1.00  0.00     0.031 A 
ATOM     43  C   UNL A   1      44.441  25.384  28.529  1.00  0.00     0.074 A 
ATOM     44  C   UNL A   1      42.014  25.795  28.297  1.00  0.00     0.049 A 
ATOM     45  N   UNL A   1      44.853  26.539  28.987  1.00  0.00    -0.248 NA
ATOM     46  C   UNL A   1      45.513  24.394  28.335  1.00  0.00     0.031 C 
ATOM     47  C   UNL A   1      40.627  25.499  27.945  1.00  0.00     0.029 A 
ATOM     48  N   UNL A   1      41.980  27.092  28.745  1.00  0.00    -0.354 N 
ATOM     49  C   UNL A   1      46.228  26.411  29.144  1.00  0.00     0.074 A 
ATOM     50  C   UNL A   1      46.577  25.061  28.758  1.00  0.00     0.031 C 
ATOM     51  C   UNL A   1      39.875  26.588  28.185  1.00  0.00     0.029 A 
ATOM     52  C   UNL A   1      40.724  27.643  28.734  1.00  0.00     0.049 A 
ATOM     53  H   UNL A   1      42.781  27.579  29.045  1.00  0.00     0.167 HD
ATOM     54  C   UNL A   1      47.122  27.337  29.565  1.00  0.00     0.031 A 
ATOM     55  C   UNL A   1      40.306  28.860  29.132  1.00  0.00     0.031 A 
ATOM     56  C   UNL A   1      46.775  28.677  29.953  1.00  0.00     0.049 A 
ATOM     57  C   UNL A   1      41.310  29.849  29.660  1.00  0.00     0.074 A 
ATOM     58  C   UNL A   1      47.610  29.696  30.374  1.00  0.00     0.029 A 
ATOM     59  N   UNL A   1      45.484  29.180  29.976  1.00  0.00    -0.354 N 
ATOM     60  N   UNL A   1      42.610  29.725  29.775  1.00  0.00    -0.248 NA
ATOM     61  C   UNL A   1      40.786  31.147  30.104  1.00  0.00     0.031 C 
ATOM     62  C   UNL A   1      46.818  30.800  30.704  1.00  0.00     0.029 A 
ATOM     63  C   UNL A   1      45.496  30.487  30.434  1.00  0.00     0.049 A 
ATOM     64  H   UNL A   1      44.677  28.682  29.708  1.00  0.00     0.167 HD
ATOM     65  C   UNL A   1      43.062  30.937  30.281  1.00  0.00     0.074 A 
ATOM     66  C   UNL A   1      41.899  31.786  30.437  1.00  0.00     0.031 C 
ATOM     67  C   UNL A   1      44.328  31.315  30.586  1.00  0.00     0.031 A 
BRANCH  54  68
ATOM     68  C   UNL A   1      48.560  26.915  29.661  1.00  0.00    -0.014 A 
ATOM     69  C   UNL A   1      49.054  26.252  30.796  1.00  0.00     0.009 A 
ATOM     70  C   UNL A   1      49.427  27.157  28.585  1.00  0.00     0.009 A 
ATOM     71  C   UNL A   1      50.395  25.868  30.861  1.00  0.00     0.001 A 
ATOM     72  C   UNL A   1      50.761  26.749  28.643  1.00  0.00     0.001 A 
ATOM     73  C   UNL A   1      51.246  26.113  29.784  1.00  0.00     0.000 A 
ENDBRANCH  54  68
BRANCH  55  74
ATOM     74  C   UNL A   1      38.864  29.209  29.056  1.00  0.00    -0.014 A 
ATOM     75  C   UNL A   1      38.023  29.031  30.165  1.00  0.00     0.009 A 
ATOM     76  C   UNL A   1      38.319  29.716  27.866  1.00  0.00     0.009 A 
ATOM     77  C   UNL A   1      36.663  29.335  30.075  1.00  0.00     0.001 A 
ATOM     78  C   UNL A   1      36.965  30.044  27.787  1.00  0.00     0.001 A 
ATOM     79  C   UNL A   1      36.137  29.846  28.890  1.00  0.00     0.000 A 
ENDBRANCH  55  74
BRANCH  67  80
ATOM     80  C   UNL A   1      44.525  32.717  31.089  1.00  0.00    -0.014 A 
ATOM     81  C   UNL A   1      44.727  33.787  30.204  1.00  0.00     0.009 A 
ATOM     82  C   UNL A   1      44.466  32.975  32.467  1.00  0.00     0.009 A 
ATOM     83  C   UNL A   1      44.896  35.084  30.692  1.00  0.00     0.001 A 
ATOM     84  C   UNL A   1      44.607  34.276  32.951  1.00  0.00     0.001 A 
ATOM     85  C   UNL A   1      44.831  35.328  32.064  1.00  0.00     0.000 A 
ENDBRANCH  67  80
ENDBRANCH  41  42
ENDBRANCH  34  36
ENDBRANCH  33  34
ENDBRANCH  32  33
ENDBRANCH  31  32
ENDBRANCH  30  31
ENDBRANCH   1  30
TORSDOF 20
ENDMDL
MODEL 2
REMARK VINA RESULT:     -10.3      3.814      8.487
REMARK SMILES NC(=O)CC[C@@H](C(=O)OCCOCCOC(=O)c1ccc(-c2c3nc(c(-c4ccccc4)c4ccc([nH]4)c(-c4ccccc4)c4nc(c(-c5ccccc5)c5ccc2[nH]5)C=C4)C=C3)cc1)N1C(=O)/C(=C/c2ccc(C=O)cc2)SC1=S
REMARK SMILES IDX 11 1 10 2 9 3 7 4 8 5 6 6 5 7 4 8 2 9 1 10 3 13 66 14 67 15
REMARK SMILES IDX 80 16 68 17 69 18 79 19 81 20 70 21 71 22 72 23 78 24 73 25
REMARK SMILES IDX 77 26 74 27 75 28 76 29 12 30 13 31 14 32 15 33 16 34 17 35
REMARK SMILES IDX 18 36 19 37 65 38 20 39 64 40 21 41 22 42 23 43 58 44 24 45
REMARK SMILES IDX 63 46 57 47 59 48 25 49 62 50 56 51 55 52 26 54 48 55 33 56
REMARK SMILES IDX 47 57 34 58 37 59 46 60 60 61 35 62 36 63 45 65 61 66 38 67
REMARK SMILES IDX 27 68 28 69 32 70 29 71 31 72 30 73 49 74 50 75 54 76 51 77
REMARK SMILES IDX 53 78 52 79 39 80 40 81 44 82 41 83 43 84 42 85
REMARK H PARENT 1 11 1 12 59 53 37 64
REMARK Flexibility Score: inf
ROOT
ATOM      1  C   UNL A   1      34.280  29.361  26.837  1.00  0.00     0.202 C 
ENDROOT
BRANCH   1   2
ATOM      2  C   UNL A   1      33.631  28.179  26.111  1.00  0.00     0.261 C 
BRANCH   2   3
ATOM      3  O   UNL A   1      32.793  28.629  25.023  1.00  0.00    -0.462 OA
BRANCH   3   4
ATOM      4  C   UNL A   1      32.937  27.959  23.849  1.00  0.00     0.329 C 
ATOM      5  O   UNL A   1      34.014  27.799  23.285  1.00  0.00    -0.250 OA
BRANCH   4   6
ATOM      6  C   UNL A   1      31.588  27.443  23.296  1.00  0.00     0.202 C 
BRANCH   6   7
ATOM      7  C   UNL A   1      30.331  28.249  23.692  1.00  0.00     0.047 C 
BRANCH   7   8
ATOM      8  C   UNL A   1      28.959  27.766  23.213  1.00  0.00     0.102 C 
BRANCH   8   9
ATOM      9  C   UNL A   1      28.021  28.890  22.874  1.00  0.00     0.217 C 
ATOM     10  N   UNL A   1      26.702  28.607  23.045  1.00  0.00    -0.370 N 
ATOM     11  H   UNL A   1      26.022  29.290  22.846  1.00  0.00     0.159 HD
ATOM     12  H   UNL A   1      26.428  27.719  23.368  1.00  0.00     0.159 HD
ATOM     13  O   UNL A   1      28.403  29.996  22.511  1.00  0.00    -0.275 OA
ENDBRANCH   8   9
ENDBRANCH   7   8
ENDBRANCH   6   7
BRANCH   6  14
ATOM     14  N   UNL A   1      31.568  25.996  23.693  1.00  0.00    -0.278 N 
ATOM     15  C   UNL A   1      32.121  25.110  22.765  1.00  0.00     0.266 C 
ATOM     16  C   UNL A   1      31.283  25.445  24.931  1.00  0.00     0.149 C 
ATOM     17  O   UNL A   1      32.443  25.388  21.617  1.00  0.00    -0.268 OA
ATOM     18  C   UNL A   1      32.282  23.755  23.351  1.00  0.00     0.081 C 
ATOM     19  S   UNL A   1      31.799  23.770  24.993  1.00  0.00    -0.054 SA
ATOM     20  S   UNL A   1      30.539  26.085  26.277  1.00  0.00    -0.052 S 
ATOM     21  C   UNL A   1      32.740  22.699  22.661  1.00  0.00     0.029 C 
BRANCH  21  22
ATOM     22  C   UNL A   1      32.838  21.337  23.205  1.00  0.00    -0.024 A 
ATOM     23  C   UNL A   1      32.135  20.284  22.612  1.00  0.00     0.009 A 
ATOM     24  C   UNL A   1      33.652  21.078  24.319  1.00  0.00     0.009 A 
ATOM     25  C   UNL A   1      32.270  18.982  23.107  1.00  0.00     0.012 A 
ATOM     26  C   UNL A   1      33.803  19.779  24.807  1.00  0.00     0.012 A 
ATOM     27  C   UNL A   1      33.111  18.734  24.196  1.00  0.00     0.014 A 
BRANCH  27  28
ATOM     28  C   UNL A   1      33.285  17.364  24.717  1.00  0.00     0.260 C 
ATOM     29  O   UNL A   1      33.447  16.401  23.979  1.00  0.00    -0.298 OA
ENDBRANCH  27  28
ENDBRANCH  21  22
ENDBRANCH   6  14
ENDBRANCH   4   6
ENDBRANCH   3   4
ENDBRANCH   2   3
ENDBRANCH   1   2
BRANCH   1  30
ATOM     30  O   UNL A   1      33.409  30.119  27.678  1.00  0.00    -0.374 OA
BRANCH  30  31
ATOM     31  C   UNL A   1      32.841  31.302  27.121  1.00  0.00     0.202 C 
BRANCH  31  32
ATOM     32  C   UNL A   1      33.496  32.622  27.537  1.00  0.00     0.261 C 
BRANCH  32  33
ATOM     33  O   UNL A   1      32.503  33.593  27.904  1.00  0.00    -0.460 OA
BRANCH  33  34
ATOM     34  C   UNL A   1      33.002  34.671  28.551  1.00  0.00     0.338 C 
ATOM     35  O   UNL A   1      32.504  35.785  28.630  1.00  0.00    -0.246 OA
BRANCH  34  36
ATOM     36  C   UNL A   1      34.193  34.290  29.328  1.00  0.00     0.060 A 
ATOM     37  C   UNL A   1      35.438  34.554  28.744  1.00  0.00     0.016 A 
ATOM     38  C   UNL A   1      34.109  33.633  30.560  1.00  0.00     0.016 A 
ATOM     39  C   UNL A   1      36.601  34.092  29.347  1.00  0.00     0.010 A 
ATOM     40  C   UNL A   1      35.280  33.167  31.165  1.00  0.00     0.010 A 
ATOM     41  C   UNL A   1      36.524  33.354  30.536  1.00  0.00    -0.014 A 
BRANCH  41  42
ATOM     42  C   UNL A   1      37.733  32.646  31.015  1.00  0.00     0.031 A 
ATOM     43  C   UNL A   1      38.402  33.121  32.276  1.00  0.00     0.074 A 
ATOM     44  C   UNL A   1      38.188  31.556  30.374  1.00  0.00     0.049 A 
ATOM     45  N   UNL A   1      39.444  32.629  32.896  1.00  0.00    -0.248 NA
ATOM     46  C   UNL A   1      37.815  34.304  32.928  1.00  0.00     0.031 C 
ATOM     47  C   UNL A   1      37.597  30.974  29.170  1.00  0.00     0.029 A 
ATOM     48  N   UNL A   1      39.253  30.740  30.656  1.00  0.00    -0.354 N 
ATOM     49  C   UNL A   1      39.643  33.445  34.002  1.00  0.00     0.074 A 
ATOM     50  C   UNL A   1      38.632  34.479  33.956  1.00  0.00     0.031 C 
ATOM     51  C   UNL A   1      38.306  29.888  28.819  1.00  0.00     0.029 A 
ATOM     52  C   UNL A   1      39.415  29.718  29.756  1.00  0.00     0.049 A 
ATOM     53  H   UNL A   1      39.845  30.875  31.432  1.00  0.00     0.167 HD
ATOM     54  C   UNL A   1      40.579  33.341  34.974  1.00  0.00     0.031 A 
ATOM     55  C   UNL A   1      40.359  28.760  29.690  1.00  0.00     0.031 A 
ATOM     56  C   UNL A   1      41.588  32.317  35.018  1.00  0.00     0.049 A 
ATOM     57  C   UNL A   1      41.430  28.705  30.745  1.00  0.00     0.074 A 
ATOM     58  C   UNL A   1      42.569  32.114  35.972  1.00  0.00     0.029 A 
ATOM     59  N   UNL A   1      41.750  31.331  34.059  1.00  0.00    -0.354 N 
ATOM     60  N   UNL A   1      41.589  29.465  31.802  1.00  0.00    -0.248 NA
ATOM     61  C   UNL A   1      42.446  27.653  30.601  1.00  0.00     0.031 C 
ATOM     62  C   UNL A   1      43.358  31.035  35.561  1.00  0.00     0.029 A 
ATOM     63  C   UNL A   1      42.833  30.533  34.382  1.00  0.00     0.049 A 
ATOM     64  H   UNL A   1      41.178  31.214  33.264  1.00  0.00     0.167 HD
ATOM     65  C   UNL A   1      42.706  28.969  32.461  1.00  0.00     0.074 A 
ATOM     66  C   UNL A   1      43.176  27.835  31.693  1.00  0.00     0.031 C 
ATOM     67  C   UNL A   1      43.289  29.411  33.602  1.00  0.00     0.031 A 
BRANCH  54  68
ATOM     68  C   UNL A   1      40.576  34.387  36.052  1.00  0.00    -0.014 A 
ATOM     69  C   UNL A   1      39.810  34.235  37.218  1.00  0.00     0.009 A 
ATOM     70  C   UNL A   1      41.379  35.529  35.912  1.00  0.00     0.009 A 
ATOM     71  C   UNL A   1      39.825  35.221  38.207  1.00  0.00     0.001 A 
ATOM     72  C   UNL A   1      41.412  36.501  36.913  1.00  0.00     0.001 A 
ATOM     73  C   UNL A   1      40.628  36.350  38.056  1.00  0.00     0.000 A 
ENDBRANCH  54  68
BRANCH  55  74
ATOM     74  C   UNL A   1      40.340  27.776  28.577  1.00  0.00    -0.014 A 
ATOM     75  C   UNL A   1      39.691  26.542  28.722  1.00  0.00     0.009 A 
ATOM     76  C   UNL A   1      40.981  28.067  27.362  1.00  0.00     0.009 A 
ATOM     77  C   UNL A   1      39.702  25.611  27.680  1.00  0.00     0.001 A 
ATOM     78  C   UNL A   1      40.968  27.147  26.314  1.00  0.00     0.001 A 
ATOM     79  C   UNL A   1      40.335  25.916  26.476  1.00  0.00     0.000 A 
ENDBRANCH  55  74
BRANCH  67  80
ATOM     80  C   UNL A   1      44.481  28.647  34.107  1.00  0.00    -0.014 A 
ATOM     81  C   UNL A   1      44.333  27.571  34.996  1.00  0.00     0.009 A 
ATOM     82  C   UNL A   1      45.765  28.983  33.651  1.00  0.00     0.009 A 
ATOM     83  C   UNL A   1      45.453  26.868  35.443  1.00  0.00     0.001 A 
ATOM     84  C   UNL A   1      46.879  28.259  34.077  1.00  0.00     0.001 A 
ATOM     85  C   UNL A   1      46.724  27.209  34.980  1.00  0.00     0.000 A 
ENDBRANCH  67  80
ENDBRANCH  41  42
ENDBRANCH  34  36
ENDBRANCH  33  34
ENDBRANCH  32  33
ENDBRANCH  31  32
ENDBRANCH  30  31
ENDBRANCH   1  30
TORSDOF 20
ENDMDL
MODEL 3
REMARK VINA RESULT:     -10.2      2.128      8.169
REMARK SMILES NC(=O)CC[C@@H](C(=O)OCCOCCOC(=O)c1ccc(-c2c3nc(c(-c4ccccc4)c4ccc([nH]4)c(-c4ccccc4)c4nc(c(-c5ccccc5)c5ccc2[nH]5)C=C4)C=C3)cc1)N1C(=O)/C(=C/c2ccc(C=O)cc2)SC1=S
REMARK SMILES IDX 11 1 10 2 9 3 7 4 8 5 6 6 5 7 4 8 2 9 1 10 3 13 66 14 67 15
REMARK SMILES IDX 80 16 68 17 69 18 79 19 81 20 70 21 71 22 72 23 78 24 73 25
REMARK SMILES IDX 77 26 74 27 75 28 76 29 12 30 13 31 14 32 15 33 16 34 17 35
REMARK SMILES IDX 18 36 19 37 65 38 20 39 64 40 21 41 22 42 23 43 58 44 24 45
REMARK SMILES IDX 63 46 57 47 59 48 25 49 62 50 56 51 55 52 26 54 48 55 33 56
REMARK SMILES IDX 47 57 34 58 37 59 46 60 60 61 35 62 36 63 45 65 61 66 38 67
REMARK SMILES IDX 27 68 28 69 32 70 29 71 31 72 30 73 49 74 50 75 54 76 51 77
REMARK SMILES IDX 53 78 52 79 39 80 40 81 44 82 41 83 43 84 42 85
REMARK H PARENT 1 11 1 12 59 53 37 64
REMARK Flexibility Score: inf
ROOT
ATOM      1  C   UNL A   1      34.728  25.099  24.984  1.00  0.00     0.202 C 
ENDROOT
BRANCH   1   2
ATOM      2  C   UNL A   1      35.130  23.909  25.860  1.00  0.00     0.261 C 
BRANCH   2   3
ATOM      3  O   UNL A   1      34.521  22.685  25.392  1.00  0.00    -0.462 OA
BRANCH   3   4
ATOM      4  C   UNL A   1      33.390  22.301  26.041  1.00  0.00     0.329 C 
ATOM      5  O   UNL A   1      33.243  22.378  27.255  1.00  0.00    -0.250 OA
BRANCH   4   6
ATOM      6  C   UNL A   1      32.320  21.737  25.076  1.00  0.00     0.202 C 
BRANCH   6   7
ATOM      7  C   UNL A   1      32.764  20.571  24.166  1.00  0.00     0.047 C 
BRANCH   7   8
ATOM      8  C   UNL A   1      32.297  19.151  24.501  1.00  0.00     0.102 C 
BRANCH   8   9
ATOM      9  C   UNL A   1      33.421  18.242  24.912  1.00  0.00     0.217 C 
ATOM     10  N   UNL A   1      33.183  17.507  26.032  1.00  0.00    -0.370 N 
ATOM     11  H   UNL A   1      33.868  16.887  26.368  1.00  0.00     0.159 HD
ATOM     12  H   UNL A   1      32.325  17.598  26.506  1.00  0.00     0.159 HD
ATOM     13  O   UNL A   1      34.460  18.128  24.274  1.00  0.00    -0.275 OA
ENDBRANCH   8   9
ENDBRANCH   7   8
ENDBRANCH   6   7
BRANCH   6  14
ATOM     14  N   UNL A   1      31.814  22.952  24.353  1.00  0.00    -0.278 N 
ATOM     15  C   UNL A   1      30.932  23.758  25.077  1.00  0.00     0.266 C 
ATOM     16  C   UNL A   1      32.266  23.498  23.164  1.00  0.00     0.149 C 
ATOM     17  O   UNL A   1      30.415  23.468  26.148  1.00  0.00    -0.268 OA
ATOM     18  C   UNL A   1      30.692  25.047  24.379  1.00  0.00     0.081 C 
ATOM     19  S   UNL A   1      31.643  25.125  22.958  1.00  0.00    -0.054 SA
ATOM     20  S   UNL A   1      33.225  22.869  21.956  1.00  0.00    -0.052 S 
ATOM     21  C   UNL A   1      29.844  25.985  24.827  1.00  0.00     0.029 C 
BRANCH  21  22
ATOM     22  C   UNL A   1      29.542  27.234  24.113  1.00  0.00    -0.024 A 
ATOM     23  C   UNL A   1      28.283  27.435  23.537  1.00  0.00     0.009 A 
ATOM     24  C   UNL A   1      30.512  28.244  24.013  1.00  0.00     0.009 A 
ATOM     25  C   UNL A   1      27.988  28.646  22.899  1.00  0.00     0.012 A 
ATOM     26  C   UNL A   1      30.218  29.458  23.392  1.00  0.00     0.012 A 
ATOM     27  C   UNL A   1      28.953  29.655  22.838  1.00  0.00     0.014 A 
BRANCH  27  28
ATOM     28  C   UNL A   1      28.651  30.947  22.190  1.00  0.00     0.260 C 
ATOM     29  O   UNL A   1      27.647  31.593  22.458  1.00  0.00    -0.298 OA
ENDBRANCH  27  28
ENDBRANCH  21  22
ENDBRANCH   6  14
ENDBRANCH   4   6
ENDBRANCH   3   4
ENDBRANCH   2   3
ENDBRANCH   1   2
BRANCH   1  30
ATOM     30  O   UNL A   1      34.736  26.371  25.634  1.00  0.00    -0.374 OA
BRANCH  30  31
ATOM     31  C   UNL A   1      33.481  26.875  26.084  1.00  0.00     0.202 C 
BRANCH  31  32
ATOM     32  C   UNL A   1      33.416  28.383  26.339  1.00  0.00     0.261 C 
BRANCH  32  33
ATOM     33  O   UNL A   1      33.873  28.699  27.664  1.00  0.00    -0.460 OA
BRANCH  33  34
ATOM     34  C   UNL A   1      34.427  29.928  27.774  1.00  0.00     0.338 C 
ATOM     35  O   UNL A   1      33.862  31.008  27.672  1.00  0.00    -0.246 OA
BRANCH  34  36
ATOM     36  C   UNL A   1      35.826  29.816  28.218  1.00  0.00     0.060 A 
ATOM     37  C   UNL A   1      36.813  30.044  27.252  1.00  0.00     0.016 A 
ATOM     38  C   UNL A   1      36.175  29.434  29.517  1.00  0.00     0.016 A 
ATOM     39  C   UNL A   1      38.150  29.815  27.555  1.00  0.00     0.010 A 
ATOM     40  C   UNL A   1      37.520  29.201  29.820  1.00  0.00     0.010 A 
ATOM     41  C   UNL A   1      38.505  29.345  28.827  1.00  0.00    -0.014 A 
BRANCH  41  42
ATOM     42  C   UNL A   1      39.884  28.852  29.045  1.00  0.00     0.031 A 
ATOM     43  C   UNL A   1      40.874  29.746  29.739  1.00  0.00     0.074 A 
ATOM     44  C   UNL A   1      40.229  27.603  28.691  1.00  0.00     0.049 A 
ATOM     45  N   UNL A   1      42.118  29.507  30.067  1.00  0.00    -0.248 NA
ATOM     46  C   UNL A   1      40.398  31.087  30.119  1.00  0.00     0.031 C 
ATOM     47  C   UNL A   1      39.344  26.628  28.055  1.00  0.00     0.029 A 
ATOM     48  N   UNL A   1      41.422  26.939  28.826  1.00  0.00    -0.354 N 
ATOM     49  C   UNL A   1      42.575  30.666  30.682  1.00  0.00     0.074 A 
ATOM     50  C   UNL A   1      41.485  31.618  30.658  1.00  0.00     0.031 C 
ATOM     51  C   UNL A   1      40.025  25.485  27.859  1.00  0.00     0.029 A 
ATOM     52  C   UNL A   1      41.397  25.660  28.330  1.00  0.00     0.049 A 
ATOM     53  H   UNL A   1      42.219  27.342  29.241  1.00  0.00     0.167 HD
ATOM     54  C   UNL A   1      43.790  30.915  31.223  1.00  0.00     0.031 A 
ATOM     55  C   UNL A   1      42.376  24.739  28.255  1.00  0.00     0.031 A 
ATOM     56  C   UNL A   1      44.875  29.972  31.242  1.00  0.00     0.049 A 
ATOM     57  C   UNL A   1      43.739  25.064  28.804  1.00  0.00     0.074 A 
ATOM     58  C   UNL A   1      46.139  30.121  31.785  1.00  0.00     0.029 A 
ATOM     59  N   UNL A   1      44.826  28.705  30.682  1.00  0.00    -0.354 N 
ATOM     60  N   UNL A   1      44.148  26.153  29.408  1.00  0.00    -0.248 NA
ATOM     61  C   UNL A   1      44.771  24.027  28.666  1.00  0.00     0.031 C 
ATOM     62  C   UNL A   1      46.872  28.964  31.507  1.00  0.00     0.029 A 
ATOM     63  C   UNL A   1      46.047  28.073  30.841  1.00  0.00     0.049 A 
ATOM     64  H   UNL A   1      44.039  28.313  30.238  1.00  0.00     0.167 HD
ATOM     65  C   UNL A   1      45.476  25.923  29.744  1.00  0.00     0.074 A 
ATOM     66  C   UNL A   1      45.799  24.586  29.290  1.00  0.00     0.031 C 
ATOM     67  C   UNL A   1      46.350  26.743  30.377  1.00  0.00     0.031 A 
BRANCH  54  68
ATOM     68  C   UNL A   1      44.020  32.280  31.809  1.00  0.00    -0.014 A 
ATOM     69  C   UNL A   1      44.493  33.342  31.023  1.00  0.00     0.009 A 
ATOM     70  C   UNL A   1      43.727  32.512  33.161  1.00  0.00     0.009 A 
ATOM     71  C   UNL A   1      44.698  34.602  31.590  1.00  0.00     0.001 A 
ATOM     72  C   UNL A   1      43.907  33.779  33.719  1.00  0.00     0.001 A 
ATOM     73  C   UNL A   1      44.400  34.820  32.935  1.00  0.00     0.000 A 
ENDBRANCH  54  68
BRANCH  55  74
ATOM     74  C   UNL A   1      42.106  23.420  27.626  1.00  0.00    -0.014 A 
ATOM     75  C   UNL A   1      42.560  23.138  26.329  1.00  0.00     0.009 A 
ATOM     76  C   UNL A   1      41.382  22.438  28.320  1.00  0.00     0.009 A 
ATOM     77  C   UNL A   1      42.276  21.906  25.734  1.00  0.00     0.001 A 
ATOM     78  C   UNL A   1      41.124  21.199  27.734  1.00  0.00     0.001 A 
ATOM     79  C   UNL A   1      41.564  20.937  26.438  1.00  0.00     0.000 A 
ENDBRANCH  55  74
BRANCH  67  80
ATOM     80  C   UNL A   1      47.729  26.208  30.642  1.00  0.00    -0.014 A 
ATOM     81  C   UNL A   1      48.720  26.223  29.649  1.00  0.00     0.009 A 
ATOM     82  C   UNL A   1      48.051  25.721  31.919  1.00  0.00     0.009 A 
ATOM     83  C   UNL A   1      49.998  25.730  29.921  1.00  0.00     0.001 A 
ATOM     84  C   UNL A   1      49.337  25.257  32.196  1.00  0.00     0.001 A 
ATOM     85  C   UNL A   1      50.307  25.253  31.195  1.00  0.00     0.000 A 
ENDBRANCH  67  80
ENDBRANCH  41  42
ENDBRANCH  34  36
ENDBRANCH  33  34
ENDBRANCH  32  33
ENDBRANCH  31  32
ENDBRANCH  30  31
ENDBRANCH   1  30
TORSDOF 20
ENDMDL
