MODEL 1
REMARK VINA RESULT:     -10.2      0.000      0.000
REMARK SMILES Cn1ccc(NC(=O)[C@@H]2CCCC[C@@H]2C(=O)OCCOCCOC(=O)c2ccc(-c3c4nc(c(-c5ccccc5)c5ccc([nH]5)c(-c5ccccc5)c5nc(c(-c6ccccc6)c6ccc3[nH]6)C=C5)C=C4)cc2)n1
REMARK SMILES IDX 20 1 19 2 18 3 17 4 15 5 16 6 14 7 9 8 10 9 11 10 13 11
REMARK SMILES IDX 12 12 7 13 6 14 8 16 5 17 1 18 2 19 3 20 74 21 4 22 21 23
REMARK SMILES IDX 22 24 23 25 24 26 25 27 26 28 27 29 73 30 28 31 72 32 29 33
REMARK SMILES IDX 30 34 31 35 66 36 32 37 71 38 65 39 67 40 33 41 70 42 64 43
REMARK SMILES IDX 63 44 34 46 56 47 41 48 55 49 42 50 45 51 54 52 68 53 43 54
REMARK SMILES IDX 44 55 53 57 69 58 46 59 35 60 36 61 40 62 37 63 39 64 38 65
REMARK SMILES IDX 57 66 58 67 62 68 59 69 61 70 60 71 47 72 48 73 52 74 49 75
REMARK SMILES IDX 51 76 50 77
REMARK H PARENT 6 15 67 45 45 56
REMARK Flexibility Score: inf
ROOT
ATOM      1  O   UNL A   1      31.703  27.298  26.629  1.00  0.00    -0.374 OA
ENDROOT
BRANCH   1   2
ATOM      2  C   UNL A   1      31.695  26.285  25.622  1.00  0.00     0.202 C 
BRANCH   2   3
ATOM      3  C   UNL A   1      32.209  24.904  26.034  1.00  0.00     0.261 C 
BRANCH   3   4
ATOM      4  O   UNL A   1      32.732  24.152  24.925  1.00  0.00    -0.463 OA
BRANCH   4   5
ATOM      5  C   UNL A   1      34.069  23.933  24.950  1.00  0.00     0.309 C 
ATOM      6  O   UNL A   1      34.886  24.760  25.343  1.00  0.00    -0.252 OA
BRANCH   5   7
ATOM      7  C   UNL A   1      34.481  22.607  24.320  1.00  0.00     0.111 C 
ATOM      8  C   UNL A   1      34.845  21.384  25.215  1.00  0.00     0.093 C 
ATOM      9  C   UNL A   1      36.325  21.402  25.676  1.00  0.00     0.014 C 
ATOM     10  C   UNL A   1      37.324  21.719  24.573  1.00  0.00     0.001 C 
ATOM     11  C   UNL A   1      35.553  22.845  23.239  1.00  0.00     0.016 C 
ATOM     12  C   UNL A   1      36.946  22.987  23.831  1.00  0.00     0.001 C 
BRANCH   8  13
ATOM     13  C   UNL A   1      33.953  21.117  26.448  1.00  0.00     0.229 C 
ATOM     14  N   UNL A   1      33.062  20.088  26.508  1.00  0.00    -0.309 N 
ATOM     15  H   UNL A   1      32.526  20.042  27.332  1.00  0.00     0.171 HD
ATOM     16  O   UNL A   1      34.006  21.853  27.443  1.00  0.00    -0.274 OA
BRANCH  14  17
ATOM     17  C   UNL A   1      32.809  19.110  25.584  1.00  0.00     0.154 A 
ATOM     18  C   UNL A   1      33.136  15.822  24.558  1.00  0.00     0.173 C 
ATOM     19  N   UNL A   1      32.790  17.220  24.644  1.00  0.00    -0.274 N 
ATOM     20  C   UNL A   1      32.621  18.102  23.620  1.00  0.00     0.110 A 
ATOM     21  N   UNL A   1      32.780  17.807  25.849  1.00  0.00    -0.155 NA
ATOM     22  C   UNL A   1      32.587  19.348  24.208  1.00  0.00     0.068 A 
ENDBRANCH  14  17
ENDBRANCH   8  13
ENDBRANCH   5   7
ENDBRANCH   4   5
ENDBRANCH   3   4
ENDBRANCH   2   3
ENDBRANCH   1   2
BRANCH   1  23
ATOM     23  C   UNL A   1      31.778  28.647  26.170  1.00  0.00     0.202 C 
BRANCH  23  24
ATOM     24  C   UNL A   1      33.181  29.194  25.893  1.00  0.00     0.261 C 
BRANCH  24  25
ATOM     25  O   UNL A   1      34.065  28.969  27.001  1.00  0.00    -0.460 OA
BRANCH  25  26
ATOM     26  C   UNL A   1      34.417  30.085  27.677  1.00  0.00     0.338 C 
ATOM     27  O   UNL A   1      33.702  31.021  27.985  1.00  0.00    -0.246 OA
BRANCH  26  28
ATOM     28  C   UNL A   1      35.807  29.961  28.167  1.00  0.00     0.060 A 
ATOM     29  C   UNL A   1      36.827  30.185  27.233  1.00  0.00     0.016 A 
ATOM     30  C   UNL A   1      36.113  29.581  29.476  1.00  0.00     0.016 A 
ATOM     31  C   UNL A   1      38.152  29.950  27.581  1.00  0.00     0.010 A 
ATOM     32  C   UNL A   1      37.446  29.337  29.823  1.00  0.00     0.010 A 
ATOM     33  C   UNL A   1      38.462  29.474  28.862  1.00  0.00    -0.014 A 
BRANCH  33  34
ATOM     34  C   UNL A   1      39.825  28.956  29.116  1.00  0.00     0.031 A 
ATOM     35  C   UNL A   1      40.797  29.826  29.866  1.00  0.00     0.074 A 
ATOM     36  C   UNL A   1      40.166  27.710  28.745  1.00  0.00     0.049 A 
ATOM     37  N   UNL A   1      42.018  29.560  30.254  1.00  0.00    -0.248 NA
ATOM     38  C   UNL A   1      40.328  31.173  30.231  1.00  0.00     0.031 C 
ATOM     39  C   UNL A   1      39.293  26.766  28.050  1.00  0.00     0.029 A 
ATOM     40  N   UNL A   1      41.341  27.024  28.915  1.00  0.00    -0.354 N 
ATOM     41  C   UNL A   1      42.460  30.703  30.909  1.00  0.00     0.074 A 
ATOM     42  C   UNL A   1      41.393  31.676  30.837  1.00  0.00     0.031 C 
ATOM     43  C   UNL A   1      39.964  25.617  27.854  1.00  0.00     0.029 A 
ATOM     44  C   UNL A   1      41.316  25.756  28.391  1.00  0.00     0.049 A 
ATOM     45  H   UNL A   1      42.127  27.405  29.369  1.00  0.00     0.167 HD
ATOM     46  C   UNL A   1      43.647  30.921  31.523  1.00  0.00     0.031 A 
ATOM     47  C   UNL A   1      42.281  24.817  28.346  1.00  0.00     0.031 A 
ATOM     48  C   UNL A   1      44.712  29.959  31.576  1.00  0.00     0.049 A 
ATOM     49  C   UNL A   1      43.615  25.106  28.979  1.00  0.00     0.074 A 
ATOM     50  C   UNL A   1      45.951  30.074  32.180  1.00  0.00     0.029 A 
ATOM     51  N   UNL A   1      44.665  28.702  30.993  1.00  0.00    -0.354 N 
ATOM     52  N   UNL A   1      44.008  26.179  29.624  1.00  0.00    -0.248 NA
ATOM     53  C   UNL A   1      44.634  24.052  28.887  1.00  0.00     0.031 C 
ATOM     54  C   UNL A   1      46.672  28.903  31.920  1.00  0.00     0.029 A 
ATOM     55  C   UNL A   1      45.862  28.040  31.199  1.00  0.00     0.049 A 
ATOM     56  H   UNL A   1      43.892  28.335  30.504  1.00  0.00     0.167 HD
ATOM     57  C   UNL A   1      45.309  25.919  30.035  1.00  0.00     0.074 A 
ATOM     58  C   UNL A   1      45.633  24.583  29.578  1.00  0.00     0.031 C 
ATOM     59  C   UNL A   1      46.161  26.712  30.729  1.00  0.00     0.031 A 
BRANCH  46  60
ATOM     60  C   UNL A   1      43.858  32.268  32.155  1.00  0.00    -0.014 A 
ATOM     61  C   UNL A   1      44.409  33.335  31.429  1.00  0.00     0.009 A 
ATOM     62  C   UNL A   1      43.487  32.476  33.492  1.00  0.00     0.009 A 
ATOM     63  C   UNL A   1      44.614  34.575  32.039  1.00  0.00     0.001 A 
ATOM     64  C   UNL A   1      43.670  33.723  34.093  1.00  0.00     0.001 A 
ATOM     65  C   UNL A   1      44.241  34.769  33.369  1.00  0.00     0.000 A 
ENDBRANCH  46  60
BRANCH  47  66
ATOM     66  C   UNL A   1      42.021  23.518  27.675  1.00  0.00    -0.014 A 
ATOM     67  C   UNL A   1      41.402  22.464  28.363  1.00  0.00     0.009 A 
ATOM     68  C   UNL A   1      42.400  23.323  26.336  1.00  0.00     0.009 A 
ATOM     69  C   UNL A   1      41.184  21.236  27.732  1.00  0.00     0.001 A 
ATOM     70  C   UNL A   1      42.157  22.105  25.700  1.00  0.00     0.001 A 
ATOM     71  C   UNL A   1      41.557  21.060  26.400  1.00  0.00     0.000 A 
ENDBRANCH  47  66
BRANCH  59  72
ATOM     72  C   UNL A   1      47.512  26.145  31.059  1.00  0.00    -0.014 A 
ATOM     73  C   UNL A   1      48.553  26.157  30.118  1.00  0.00     0.009 A 
ATOM     74  C   UNL A   1      47.757  25.634  32.343  1.00  0.00     0.009 A 
ATOM     75  C   UNL A   1      49.807  25.639  30.449  1.00  0.00     0.001 A 
ATOM     76  C   UNL A   1      49.018  25.141  32.679  1.00  0.00     0.001 A 
ATOM     77  C   UNL A   1      50.039  25.137  31.730  1.00  0.00     0.000 A 
ENDBRANCH  59  72
ENDBRANCH  33  34
ENDBRANCH  26  28
ENDBRANCH  25  26
ENDBRANCH  24  25
ENDBRANCH  23  24
ENDBRANCH   1  23
TORSDOF 16
ENDMDL
MODEL 2
REMARK VINA RESULT:     -10.2      4.237      5.840
REMARK SMILES Cn1ccc(NC(=O)[C@@H]2CCCC[C@@H]2C(=O)OCCOCCOC(=O)c2ccc(-c3c4nc(c(-c5ccccc5)c5ccc([nH]5)c(-c5ccccc5)c5nc(c(-c6ccccc6)c6ccc3[nH]6)C=C5)C=C4)cc2)n1
REMARK SMILES IDX 20 1 19 2 18 3 17 4 15 5 16 6 14 7 9 8 10 9 11 10 13 11
REMARK SMILES IDX 12 12 7 13 6 14 8 16 5 17 1 18 2 19 3 20 74 21 4 22 21 23
REMARK SMILES IDX 22 24 23 25 24 26 25 27 26 28 27 29 73 30 28 31 72 32 29 33
REMARK SMILES IDX 30 34 31 35 66 36 32 37 71 38 65 39 67 40 33 41 70 42 64 43
REMARK SMILES IDX 63 44 34 46 56 47 41 48 55 49 42 50 45 51 54 52 68 53 43 54
REMARK SMILES IDX 44 55 53 57 69 58 46 59 35 60 36 61 40 62 37 63 39 64 38 65
REMARK SMILES IDX 57 66 58 67 62 68 59 69 61 70 60 71 47 72 48 73 52 74 49 75
REMARK SMILES IDX 51 76 50 77
REMARK H PARENT 6 15 67 45 45 56
REMARK Flexibility Score: inf
ROOT
ATOM      1  O   UNL A   1      34.332  31.361  27.217  1.00  0.00    -0.374 OA
ENDROOT
BRANCH   1   2
ATOM      2  C   UNL A   1      33.731  30.066  27.162  1.00  0.00     0.202 C 
BRANCH   2   3
ATOM      3  C   UNL A   1      32.203  30.021  27.091  1.00  0.00     0.261 C 
BRANCH   3   4
ATOM      4  O   UNL A   1      31.708  30.053  25.741  1.00  0.00    -0.463 OA
BRANCH   4   5
ATOM      5  C   UNL A   1      31.641  28.852  25.117  1.00  0.00     0.309 C 
ATOM      6  O   UNL A   1      31.625  27.778  25.710  1.00  0.00    -0.252 OA
BRANCH   5   7
ATOM      7  C   UNL A   1      31.721  28.951  23.598  1.00  0.00     0.111 C 
ATOM      8  C   UNL A   1      30.811  28.062  22.697  1.00  0.00     0.093 C 
ATOM      9  C   UNL A   1      31.413  26.657  22.443  1.00  0.00     0.014 C 
ATOM     10  C   UNL A   1      32.889  26.661  22.070  1.00  0.00     0.001 C 
ATOM     11  C   UNL A   1      33.192  28.886  23.140  1.00  0.00     0.016 C 
ATOM     12  C   UNL A   1      33.710  27.458  23.067  1.00  0.00     0.001 C 
BRANCH   8  13
ATOM     13  C   UNL A   1      29.338  27.891  23.128  1.00  0.00     0.229 C 
ATOM     14  N   UNL A   1      28.416  28.888  23.022  1.00  0.00    -0.309 N 
ATOM     15  H   UNL A   1      27.518  28.670  23.362  1.00  0.00     0.171 HD
ATOM     16  O   UNL A   1      28.935  26.823  23.609  1.00  0.00    -0.274 OA
BRANCH  14  17
ATOM     17  C   UNL A   1      28.561  30.149  22.509  1.00  0.00     0.154 A 
ATOM     18  C   UNL A   1      28.909  33.553  23.018  1.00  0.00     0.173 C 
ATOM     19  N   UNL A   1      28.791  32.245  22.421  1.00  0.00    -0.274 N 
ATOM     20  C   UNL A   1      28.226  31.923  21.224  1.00  0.00     0.110 A 
ATOM     21  N   UNL A   1      29.113  31.172  23.156  1.00  0.00    -0.155 NA
ATOM     22  C   UNL A   1      28.100  30.550  21.233  1.00  0.00     0.068 A 
ENDBRANCH  14  17
ENDBRANCH   8  13
ENDBRANCH   5   7
ENDBRANCH   4   5
ENDBRANCH   3   4
ENDBRANCH   2   3
ENDBRANCH   1   2
BRANCH   1  23
ATOM     23  C   UNL A   1      33.686  32.323  28.049  1.00  0.00     0.202 C 
BRANCH  23  24
ATOM     24  C   UNL A   1      34.427  32.724  29.327  1.00  0.00     0.261 C 
BRANCH  24  25
ATOM     25  O   UNL A   1      35.799  32.305  29.297  1.00  0.00    -0.460 OA
BRANCH  25  26
ATOM     26  C   UNL A   1      36.157  31.475  30.303  1.00  0.00     0.338 C 
ATOM     27  O   UNL A   1      35.593  31.319  31.371  1.00  0.00    -0.246 OA
BRANCH  26  28
ATOM     28  C   UNL A   1      37.281  30.616  29.873  1.00  0.00     0.060 A 
ATOM     29  C   UNL A   1      38.120  30.123  30.880  1.00  0.00     0.016 A 
ATOM     30  C   UNL A   1      37.549  30.344  28.528  1.00  0.00     0.016 A 
ATOM     31  C   UNL A   1      39.275  29.426  30.544  1.00  0.00     0.010 A 
ATOM     32  C   UNL A   1      38.716  29.652  28.191  1.00  0.00     0.010 A 
ATOM     33  C   UNL A   1      39.605  29.234  29.196  1.00  0.00    -0.014 A 
BRANCH  33  34
ATOM     34  C   UNL A   1      40.965  28.758  28.859  1.00  0.00     0.031 A 
ATOM     35  C   UNL A   1      42.113  29.726  28.966  1.00  0.00     0.074 A 
ATOM     36  C   UNL A   1      41.182  27.473  28.531  1.00  0.00     0.049 A 
ATOM     37  N   UNL A   1      43.391  29.519  28.780  1.00  0.00    -0.248 NA
ATOM     38  C   UNL A   1      41.773  31.110  29.335  1.00  0.00     0.031 C 
ATOM     39  C   UNL A   1      40.153  26.439  28.437  1.00  0.00     0.029 A 
ATOM     40  N   UNL A   1      42.348  26.819  28.227  1.00  0.00    -0.354 N 
ATOM     41  C   UNL A   1      44.006  30.743  29.012  1.00  0.00     0.074 A 
ATOM     42  C   UNL A   1      42.962  31.695  29.317  1.00  0.00     0.031 C 
ATOM     43  C   UNL A   1      40.735  25.276  28.099  1.00  0.00     0.029 A 
ATOM     44  C   UNL A   1      42.171  25.490  27.935  1.00  0.00     0.049 A 
ATOM     45  H   UNL A   1      43.228  27.262  28.219  1.00  0.00     0.167 HD
ATOM     46  C   UNL A   1      45.326  31.047  28.981  1.00  0.00     0.031 A 
ATOM     47  C   UNL A   1      43.070  24.556  27.570  1.00  0.00     0.031 A 
ATOM     48  C   UNL A   1      46.360  30.103  28.659  1.00  0.00     0.049 A 
ATOM     49  C   UNL A   1      44.523  24.932  27.479  1.00  0.00     0.074 A 
ATOM     50  C   UNL A   1      47.728  30.303  28.608  1.00  0.00     0.029 A 
ATOM     51  N   UNL A   1      46.135  28.776  28.324  1.00  0.00    -0.354 N 
ATOM     52  N   UNL A   1      45.095  26.085  27.734  1.00  0.00    -0.248 NA
ATOM     53  C   UNL A   1      45.456  23.876  27.061  1.00  0.00     0.031 C 
ATOM     54  C   UNL A   1      48.327  29.108  28.193  1.00  0.00     0.029 A 
ATOM     55  C   UNL A   1      47.336  28.152  28.038  1.00  0.00     0.049 A 
ATOM     56  H   UNL A   1      45.251  28.344  28.293  1.00  0.00     0.167 HD
ATOM     57  C   UNL A   1      46.456  25.888  27.531  1.00  0.00     0.074 A 
ATOM     58  C   UNL A   1      46.623  24.500  27.146  1.00  0.00     0.031 C 
ATOM     59  C   UNL A   1      47.475  26.771  27.653  1.00  0.00     0.031 A 
BRANCH  46  60
ATOM     60  C   UNL A   1      45.712  32.469  29.274  1.00  0.00    -0.014 A 
ATOM     61  C   UNL A   1      46.007  32.889  30.580  1.00  0.00     0.009 A 
ATOM     62  C   UNL A   1      45.797  33.398  28.227  1.00  0.00     0.009 A 
ATOM     63  C   UNL A   1      46.348  34.220  30.836  1.00  0.00     0.001 A 
ATOM     64  C   UNL A   1      46.161  34.722  28.480  1.00  0.00     0.001 A 
ATOM     65  C   UNL A   1      46.427  35.134  29.785  1.00  0.00     0.000 A 
ENDBRANCH  46  60
BRANCH  47  66
ATOM     66  C   UNL A   1      42.619  23.174  27.259  1.00  0.00    -0.014 A 
ATOM     67  C   UNL A   1      42.499  22.213  28.273  1.00  0.00     0.009 A 
ATOM     68  C   UNL A   1      42.312  22.809  25.939  1.00  0.00     0.009 A 
ATOM     69  C   UNL A   1      42.099  20.908  27.969  1.00  0.00     0.001 A 
ATOM     70  C   UNL A   1      41.887  21.513  25.641  1.00  0.00     0.001 A 
ATOM     71  C   UNL A   1      41.789  20.562  26.655  1.00  0.00     0.000 A 
ENDBRANCH  47  66
BRANCH  59  72
ATOM     72  C   UNL A   1      48.863  26.257  27.393  1.00  0.00    -0.014 A 
ATOM     73  C   UNL A   1      49.420  26.290  26.106  1.00  0.00     0.009 A 
ATOM     74  C   UNL A   1      49.637  25.777  28.461  1.00  0.00     0.009 A 
ATOM     75  C   UNL A   1      50.718  25.822  25.889  1.00  0.00     0.001 A 
ATOM     76  C   UNL A   1      50.943  25.336  28.245  1.00  0.00     0.001 A 
ATOM     77  C   UNL A   1      51.478  25.351  26.959  1.00  0.00     0.000 A 
ENDBRANCH  59  72
ENDBRANCH  33  34
ENDBRANCH  26  28
ENDBRANCH  25  26
ENDBRANCH  24  25
ENDBRANCH  23  24
ENDBRANCH   1  23
TORSDOF 16
ENDMDL
MODEL 3
REMARK VINA RESULT:     -10.2      2.227      7.440
REMARK SMILES Cn1ccc(NC(=O)[C@@H]2CCCC[C@@H]2C(=O)OCCOCCOC(=O)c2ccc(-c3c4nc(c(-c5ccccc5)c5ccc([nH]5)c(-c5ccccc5)c5nc(c(-c6ccccc6)c6ccc3[nH]6)C=C5)C=C4)cc2)n1
REMARK SMILES IDX 20 1 19 2 18 3 17 4 15 5 16 6 14 7 9 8 10 9 11 10 13 11
REMARK SMILES IDX 12 12 7 13 6 14 8 16 5 17 1 18 2 19 3 20 74 21 4 22 21 23
REMARK SMILES IDX 22 24 23 25 24 26 25 27 26 28 27 29 73 30 28 31 72 32 29 33
REMARK SMILES IDX 30 34 31 35 66 36 32 37 71 38 65 39 67 40 33 41 70 42 64 43
REMARK SMILES IDX 63 44 34 46 56 47 41 48 55 49 42 50 45 51 54 52 68 53 43 54
REMARK SMILES IDX 44 55 53 57 69 58 46 59 35 60 36 61 40 62 37 63 39 64 38 65
REMARK SMILES IDX 57 66 58 67 62 68 59 69 61 70 60 71 47 72 48 73 52 74 49 75
REMARK SMILES IDX 51 76 50 77
REMARK H PARENT 6 15 67 45 45 56
REMARK Flexibility Score: inf
ROOT
ATOM      1  O   UNL A   1      39.272  21.421  25.711  1.00  0.00    -0.374 OA
ENDROOT
BRANCH   1   2
ATOM      2  C   UNL A   1      37.963  21.990  25.763  1.00  0.00     0.202 C 
BRANCH   2   3
ATOM      3  C   UNL A   1      37.043  21.702  24.574  1.00  0.00     0.261 C 
BRANCH   3   4
ATOM      4  O   UNL A   1      35.834  21.024  24.957  1.00  0.00    -0.463 OA
BRANCH   4   5
ATOM      5  C   UNL A   1      34.740  21.814  25.087  1.00  0.00     0.309 C 
ATOM      6  O   UNL A   1      34.694  22.979  24.704  1.00  0.00    -0.252 OA
BRANCH   5   7
ATOM      7  C   UNL A   1      33.610  21.163  25.875  1.00  0.00     0.111 C 
ATOM      8  C   UNL A   1      32.245  20.849  25.191  1.00  0.00     0.093 C 
ATOM      9  C   UNL A   1      31.284  22.065  25.192  1.00  0.00     0.014 C 
ATOM     10  C   UNL A   1      31.189  22.792  26.526  1.00  0.00     0.001 C 
ATOM     11  C   UNL A   1      33.405  21.899  27.214  1.00  0.00     0.016 C 
ATOM     12  C   UNL A   1      32.563  23.155  27.058  1.00  0.00     0.001 C 
BRANCH   8  13
ATOM     13  C   UNL A   1      32.286  20.261  23.763  1.00  0.00     0.229 C 
ATOM     14  N   UNL A   1      32.717  18.997  23.496  1.00  0.00    -0.309 N 
ATOM     15  H   UNL A   1      32.731  18.748  22.543  1.00  0.00     0.171 HD
ATOM     16  O   UNL A   1      31.936  20.937  22.786  1.00  0.00    -0.274 OA
BRANCH  14  17
ATOM     17  C   UNL A   1      33.133  18.024  24.364  1.00  0.00     0.154 A 
ATOM     18  C   UNL A   1      35.502  15.688  25.314  1.00  0.00     0.173 C 
ATOM     19  N   UNL A   1      34.330  16.527  25.249  1.00  0.00    -0.274 N 
ATOM     20  C   UNL A   1      33.068  16.229  25.663  1.00  0.00     0.110 A 
ATOM     21  N   UNL A   1      34.401  17.678  24.566  1.00  0.00    -0.155 NA
ATOM     22  C   UNL A   1      32.263  17.216  25.135  1.00  0.00     0.068 A 
ENDBRANCH  14  17
ENDBRANCH   8  13
ENDBRANCH   5   7
ENDBRANCH   4   5
ENDBRANCH   3   4
ENDBRANCH   2   3
ENDBRANCH   1   2
BRANCH   1  23
ATOM     23  C   UNL A   1      39.349  20.040  25.359  1.00  0.00     0.202 C 
BRANCH  23  24
ATOM     24  C   UNL A   1      40.439  19.220  26.056  1.00  0.00     0.261 C 
BRANCH  24  25
ATOM     25  O   UNL A   1      41.640  19.164  25.272  1.00  0.00    -0.460 OA
BRANCH  25  26
ATOM     26  C   UNL A   1      42.757  19.563  25.922  1.00  0.00     0.338 C 
ATOM     27  O   UNL A   1      43.837  19.002  25.951  1.00  0.00    -0.246 OA
BRANCH  26  28
ATOM     28  C   UNL A   1      42.554  20.911  26.494  1.00  0.00     0.060 A 
ATOM     29  C   UNL A   1      42.729  21.997  25.627  1.00  0.00     0.016 A 
ATOM     30  C   UNL A   1      42.262  21.120  27.845  1.00  0.00     0.016 A 
ATOM     31  C   UNL A   1      42.694  23.296  26.122  1.00  0.00     0.010 A 
ATOM     32  C   UNL A   1      42.235  22.426  28.344  1.00  0.00     0.010 A 
ATOM     33  C   UNL A   1      42.500  23.513  27.493  1.00  0.00    -0.014 A 
BRANCH  33  34
ATOM     34  C   UNL A   1      42.756  24.864  28.040  1.00  0.00     0.031 A 
ATOM     35  C   UNL A   1      44.176  25.259  28.342  1.00  0.00     0.074 A 
ATOM     36  C   UNL A   1      41.753  25.743  28.201  1.00  0.00     0.049 A 
ATOM     37  N   UNL A   1      44.645  26.404  28.769  1.00  0.00    -0.248 NA
ATOM     38  C   UNL A   1      45.206  24.228  28.130  1.00  0.00     0.031 C 
ATOM     39  C   UNL A   1      40.345  25.482  27.903  1.00  0.00     0.029 A 
ATOM     40  N   UNL A   1      41.770  27.039  28.647  1.00  0.00    -0.354 N 
ATOM     41  C   UNL A   1      46.019  26.231  28.874  1.00  0.00     0.074 A 
ATOM     42  C   UNL A   1      46.307  24.864  28.501  1.00  0.00     0.031 C 
ATOM     43  C   UNL A   1      39.631  26.589  28.173  1.00  0.00     0.029 A 
ATOM     44  C   UNL A   1      40.530  27.624  28.680  1.00  0.00     0.049 A 
ATOM     45  H   UNL A   1      42.595  27.505  28.917  1.00  0.00     0.167 HD
ATOM     46  C   UNL A   1      46.961  27.132  29.241  1.00  0.00     0.031 A 
ATOM     47  C   UNL A   1      40.163  28.856  29.081  1.00  0.00     0.031 A 
ATOM     48  C   UNL A   1      46.669  28.485  29.629  1.00  0.00     0.049 A 
ATOM     49  C   UNL A   1      41.219  29.821  29.547  1.00  0.00     0.074 A 
ATOM     50  C   UNL A   1      47.549  29.483  30.010  1.00  0.00     0.029 A 
ATOM     51  N   UNL A   1      45.394  29.026  29.693  1.00  0.00    -0.354 N 
ATOM     52  N   UNL A   1      42.519  29.655  29.609  1.00  0.00    -0.248 NA
ATOM     53  C   UNL A   1      40.760  31.145  29.987  1.00  0.00     0.031 C 
ATOM     54  C   UNL A   1      46.799  30.614  30.352  1.00  0.00     0.029 A 
ATOM     55  C   UNL A   1      45.460  30.335  30.133  1.00  0.00     0.049 A 
ATOM     56  H   UNL A   1      44.566  28.547  29.461  1.00  0.00     0.167 HD
ATOM     57  C   UNL A   1      43.035  30.859  30.072  1.00  0.00     0.074 A 
ATOM     58  C   UNL A   1      41.908  31.751  30.260  1.00  0.00     0.031 C 
ATOM     59  C   UNL A   1      44.322  31.200  30.318  1.00  0.00     0.031 A 
BRANCH  46  60
ATOM     60  C   UNL A   1      48.388  26.665  29.268  1.00  0.00    -0.014 A 
ATOM     61  C   UNL A   1      48.933  26.053  30.408  1.00  0.00     0.009 A 
ATOM     62  C   UNL A   1      49.196  26.825  28.133  1.00  0.00     0.009 A 
ATOM     63  C   UNL A   1      50.268  25.641  30.421  1.00  0.00     0.001 A 
ATOM     64  C   UNL A   1      50.523  26.390  28.139  1.00  0.00     0.001 A 
ATOM     65  C   UNL A   1      51.060  25.807  29.286  1.00  0.00     0.000 A 
ENDBRANCH  46  60
BRANCH  47  66
ATOM     66  C   UNL A   1      38.729  29.247  29.063  1.00  0.00    -0.014 A 
ATOM     67  C   UNL A   1      38.151  29.805  27.914  1.00  0.00     0.009 A 
ATOM     68  C   UNL A   1      37.931  29.067  30.205  1.00  0.00     0.009 A 
ATOM     69  C   UNL A   1      36.807  30.192  27.914  1.00  0.00     0.001 A 
ATOM     70  C   UNL A   1      36.584  29.430  30.194  1.00  0.00     0.001 A 
ATOM     71  C   UNL A   1      36.025  30.001  29.052  1.00  0.00     0.000 A 
ENDBRANCH  47  66
BRANCH  59  72
ATOM     72  C   UNL A   1      44.583  32.602  30.791  1.00  0.00    -0.014 A 
ATOM     73  C   UNL A   1      44.639  32.907  32.159  1.00  0.00     0.009 A 
ATOM     74  C   UNL A   1      44.819  33.619  29.853  1.00  0.00     0.009 A 
ATOM     75  C   UNL A   1      44.899  34.214  32.578  1.00  0.00     0.001 A 
ATOM     76  C   UNL A   1      45.105  34.918  30.276  1.00  0.00     0.001 A 
ATOM     77  C   UNL A   1      45.136  35.215  31.637  1.00  0.00     0.000 A 
ENDBRANCH  59  72
ENDBRANCH  33  34
ENDBRANCH  26  28
ENDBRANCH  25  26
ENDBRANCH  24  25
ENDBRANCH  23  24
ENDBRANCH   1  23
TORSDOF 16
ENDMDL
