MODEL 1
REMARK VINA RESULT:     -11.1      0.000      0.000
REMARK SMILES NC(=O)C[NH+]1CCC(C(=O)N[C@H](C(=O)OCCOCCOC(=O)c2ccc(-c3c4nc(c(-c5ccccc5)c5ccc([nH]5)c(-c5ccccc5)c5nc(c(-c6ccccc6)c6ccc3[nH]6)C=C5)C=C4)cc2)c2ccc(Cl)cc2)CC1
REMARK SMILES IDX 17 1 16 2 15 3 13 4 14 5 12 6 11 7 9 8 10 9 8 11 5 12 6 13
REMARK SMILES IDX 80 14 7 16 79 17 4 18 2 19 1 20 3 23 72 24 73 25 78 26 74 27
REMARK SMILES IDX 77 28 75 29 76 30 18 31 19 32 20 33 21 34 22 35 23 36 24 37
REMARK SMILES IDX 25 38 71 39 26 40 70 41 27 42 28 43 29 44 64 45 30 46 69 47
REMARK SMILES IDX 63 48 65 49 31 50 68 51 62 52 61 53 32 55 54 56 39 57 53 58
REMARK SMILES IDX 40 59 43 60 52 61 66 62 41 63 42 64 51 66 67 67 44 68 33 69
REMARK SMILES IDX 34 70 38 71 35 72 37 73 36 74 55 75 56 76 60 77 57 78 59 79
REMARK SMILES IDX 58 80 45 81 46 82 50 83 47 84 49 85 48 86
REMARK H PARENT 11 10 5 15 1 21 1 22 65 54 43 65
REMARK Flexibility Score: inf
ROOT
ATOM      1  C   UNL A   1      39.994  22.156  26.666  1.00  0.00     0.202 C 
ENDROOT
BRANCH   1   2
ATOM      2  C   UNL A   1      38.792  22.095  25.725  1.00  0.00     0.261 C 
BRANCH   2   3
ATOM      3  O   UNL A   1      37.710  22.908  26.175  1.00  0.00    -0.461 OA
BRANCH   3   4
ATOM      4  C   UNL A   1      36.666  22.976  25.297  1.00  0.00     0.333 C 
ATOM      5  O   UNL A   1      36.678  23.579  24.230  1.00  0.00    -0.249 OA
BRANCH   4   6
ATOM      6  C   UNL A   1      35.407  22.375  25.904  1.00  0.00     0.223 C 
BRANCH   6   7
ATOM      7  N   UNL A   1      34.315  23.469  26.379  1.00  0.00    -0.339 N 
ATOM      8  C   UNL A   1      33.653  24.626  25.937  1.00  0.00     0.224 C 
ATOM      9  O   UNL A   1      32.561  24.852  26.479  1.00  0.00    -0.275 OA
ATOM     10  H   UNL A   1      34.011  23.250  27.290  1.00  0.00     0.164 HD
BRANCH   8  11
ATOM     11  C   UNL A   1      34.232  25.743  24.883  1.00  0.00     0.089 C 
ATOM     12  N   UNL A   1      31.122  27.489  23.574  1.00  0.00    -0.327 N 
ATOM     13  C   UNL A   1      31.892  25.669  22.839  1.00  0.00     0.263 C 
ATOM     14  C   UNL A   1      32.255  28.402  24.776  1.00  0.00     0.263 C 
ATOM     15  H   UNL A   1      30.609  26.853  22.964  1.00  0.00     0.348 HD
ATOM     16  C   UNL A   1      33.627  25.099  23.395  1.00  0.00     0.075 C 
ATOM     17  C   UNL A   1      33.908  27.562  25.293  1.00  0.00     0.075 C 
BRANCH  12  18
ATOM     18  C   UNL A   1      29.864  28.346  23.395  1.00  0.00     0.363 C 
BRANCH  18  19
ATOM     19  C   UNL A   1      29.937  29.308  22.204  1.00  0.00     0.272 C 
ATOM     20  N   UNL A   1      31.192  29.727  21.863  1.00  0.00    -0.365 N 
ATOM     21  H   UNL A   1      31.316  30.345  21.108  1.00  0.00     0.159 HD
ATOM     22  H   UNL A   1      31.972  29.409  22.373  1.00  0.00     0.159 HD
ATOM     23  O   UNL A   1      28.961  29.697  21.568  1.00  0.00    -0.269 OA
ENDBRANCH  18  19
ENDBRANCH  12  18
ENDBRANCH   8  11
ENDBRANCH   6   7
BRANCH   6  24
ATOM     24  C   UNL A   1      34.868  21.367  24.908  1.00  0.00    -0.014 A 
ATOM     25  C   UNL A   1      35.963  20.094  25.025  1.00  0.00     0.008 A 
ATOM     26  C   UNL A   1      33.258  20.990  24.332  1.00  0.00     0.008 A 
ATOM     27  C   UNL A   1      35.535  18.240  24.609  1.00  0.00     0.021 A 
ATOM     28  C   UNL A   1      32.773  19.332  23.885  1.00  0.00     0.021 A 
ATOM     29  C   UNL A   1      33.899  17.948  23.950  1.00  0.00     0.041 A 
ATOM     30  Cl  UNL A   1      33.388  16.379  23.501  1.00  0.00    -0.084 Cl
ENDBRANCH   6  24
ENDBRANCH   4   6
ENDBRANCH   3   4
ENDBRANCH   2   3
ENDBRANCH   1   2
BRANCH   1  31
ATOM     31  O   UNL A   1      40.413  20.966  27.320  1.00  0.00    -0.374 OA
BRANCH  31  32
ATOM     32  C   UNL A   1      41.744  20.484  27.146  1.00  0.00     0.202 C 
BRANCH  32  33
ATOM     33  C   UNL A   1      42.006  19.209  26.336  1.00  0.00     0.261 C 
BRANCH  33  34
ATOM     34  O   UNL A   1      42.534  19.463  25.025  1.00  0.00    -0.460 OA
BRANCH  34  35
ATOM     35  C   UNL A   1      43.887  19.449  24.957  1.00  0.00     0.338 C 
ATOM     36  O   UNL A   1      44.612  18.494  24.737  1.00  0.00    -0.246 OA
BRANCH  35  37
ATOM     37  C   UNL A   1      44.401  20.823  25.019  1.00  0.00     0.060 A 
ATOM     38  C   UNL A   1      45.176  21.204  26.125  1.00  0.00     0.016 A 
ATOM     39  C   UNL A   1      43.989  21.757  24.072  1.00  0.00     0.016 A 
ATOM     40  C   UNL A   1      45.500  22.543  26.315  1.00  0.00     0.010 A 
ATOM     41  C   UNL A   1      44.308  23.098  24.271  1.00  0.00     0.010 A 
ATOM     42  C   UNL A   1      45.025  23.501  25.413  1.00  0.00    -0.014 A 
BRANCH  42  43
ATOM     43  C   UNL A   1      45.123  24.945  25.722  1.00  0.00     0.031 A 
ATOM     44  C   UNL A   1      46.470  25.605  25.646  1.00  0.00     0.074 A 
ATOM     45  C   UNL A   1      44.040  25.639  26.108  1.00  0.00     0.049 A 
ATOM     46  N   UNL A   1      46.832  26.794  26.052  1.00  0.00    -0.248 NA
ATOM     47  C   UNL A   1      47.560  24.812  25.049  1.00  0.00     0.031 C 
ATOM     48  C   UNL A   1      42.673  25.120  26.161  1.00  0.00     0.029 A 
ATOM     49  N   UNL A   1      43.931  26.929  26.564  1.00  0.00    -0.354 N 
ATOM     50  C   UNL A   1      48.195  26.879  25.792  1.00  0.00     0.074 A 
ATOM     51  C   UNL A   1      48.599  25.619  25.209  1.00  0.00     0.031 C 
ATOM     52  C   UNL A   1      41.865  26.076  26.652  1.00  0.00     0.029 A 
ATOM     53  C   UNL A   1      42.668  27.247  26.998  1.00  0.00     0.049 A 
ATOM     54  H   UNL A   1      44.683  27.563  26.576  1.00  0.00     0.167 HD
ATOM     55  C   UNL A   1      49.032  27.916  26.028  1.00  0.00     0.031 A 
ATOM     56  C   UNL A   1      42.223  28.341  27.647  1.00  0.00     0.031 A 
ATOM     57  C   UNL A   1      48.618  29.162  26.615  1.00  0.00     0.049 A 
ATOM     58  C   UNL A   1      43.195  29.446  27.977  1.00  0.00     0.074 A 
ATOM     59  C   UNL A   1      49.384  30.286  26.869  1.00  0.00     0.029 A 
ATOM     60  N   UNL A   1      47.332  29.441  27.049  1.00  0.00    -0.354 N 
ATOM     61  N   UNL A   1      44.476  29.530  27.707  1.00  0.00    -0.248 NA
ATOM     62  C   UNL A   1      42.658  30.611  28.695  1.00  0.00     0.031 C 
ATOM     63  C   UNL A   1      48.579  31.216  27.530  1.00  0.00     0.029 A 
ATOM     64  C   UNL A   1      47.291  30.709  27.600  1.00  0.00     0.049 A 
ATOM     65  H   UNL A   1      46.564  28.830  26.975  1.00  0.00     0.167 HD
ATOM     66  C   UNL A   1      44.882  30.773  28.180  1.00  0.00     0.074 A 
ATOM     67  C   UNL A   1      43.714  31.409  28.747  1.00  0.00     0.031 C 
ATOM     68  C   UNL A   1      46.113  31.338  28.139  1.00  0.00     0.031 A 
BRANCH  55  69
ATOM     69  C   UNL A   1      50.487  27.741  25.695  1.00  0.00    -0.014 A 
ATOM     70  C   UNL A   1      51.041  28.256  24.514  1.00  0.00     0.009 A 
ATOM     71  C   UNL A   1      51.333  27.107  26.621  1.00  0.00     0.009 A 
ATOM     72  C   UNL A   1      52.407  28.119  24.256  1.00  0.00     0.001 A 
ATOM     73  C   UNL A   1      52.703  27.001  26.376  1.00  0.00     0.001 A 
ATOM     74  C   UNL A   1      53.238  27.501  25.190  1.00  0.00     0.000 A 
ENDBRANCH  55  69
BRANCH  56  75
ATOM     75  C   UNL A   1      40.801  28.435  28.076  1.00  0.00    -0.014 A 
ATOM     76  C   UNL A   1      39.844  29.047  27.253  1.00  0.00     0.009 A 
ATOM     77  C   UNL A   1      40.402  27.950  29.333  1.00  0.00     0.009 A 
ATOM     78  C   UNL A   1      38.529  29.214  27.698  1.00  0.00     0.001 A 
ATOM     79  C   UNL A   1      39.078  28.082  29.758  1.00  0.00     0.001 A 
ATOM     80  C   UNL A   1      38.147  28.729  28.948  1.00  0.00     0.000 A 
ENDBRANCH  56  75
BRANCH  68  81
ATOM     81  C   UNL A   1      46.258  32.748  28.644  1.00  0.00    -0.014 A 
ATOM     82  C   UNL A   1      46.028  33.860  27.820  1.00  0.00     0.009 A 
ATOM     83  C   UNL A   1      46.543  32.959  30.004  1.00  0.00     0.009 A 
ATOM     84  C   UNL A   1      46.101  35.152  28.343  1.00  0.00     0.001 A 
ATOM     85  C   UNL A   1      46.578  34.248  30.532  1.00  0.00     0.001 A 
ATOM     86  C   UNL A   1      46.365  35.345  29.701  1.00  0.00     0.000 A 
ENDBRANCH  68  81
ENDBRANCH  42  43
ENDBRANCH  35  37
ENDBRANCH  34  35
ENDBRANCH  33  34
ENDBRANCH  32  33
ENDBRANCH  31  32
ENDBRANCH   1  31
TORSDOF 19
ENDMDL
MODEL 2
REMARK VINA RESULT:     -10.9      5.468     10.577
REMARK SMILES NC(=O)C[NH+]1CCC(C(=O)N[C@H](C(=O)OCCOCCOC(=O)c2ccc(-c3c4nc(c(-c5ccccc5)c5ccc([nH]5)c(-c5ccccc5)c5nc(c(-c6ccccc6)c6ccc3[nH]6)C=C5)C=C4)cc2)c2ccc(Cl)cc2)CC1
REMARK SMILES IDX 17 1 16 2 15 3 13 4 14 5 12 6 11 7 9 8 10 9 8 11 5 12 6 13
REMARK SMILES IDX 80 14 7 16 79 17 4 18 2 19 1 20 3 23 72 24 73 25 78 26 74 27
REMARK SMILES IDX 77 28 75 29 76 30 18 31 19 32 20 33 21 34 22 35 23 36 24 37
REMARK SMILES IDX 25 38 71 39 26 40 70 41 27 42 28 43 29 44 64 45 30 46 69 47
REMARK SMILES IDX 63 48 65 49 31 50 68 51 62 52 61 53 32 55 54 56 39 57 53 58
REMARK SMILES IDX 40 59 43 60 52 61 66 62 41 63 42 64 51 66 67 67 44 68 33 69
REMARK SMILES IDX 34 70 38 71 35 72 37 73 36 74 55 75 56 76 60 77 57 78 59 79
REMARK SMILES IDX 58 80 45 81 46 82 50 83 47 84 49 85 48 86
REMARK H PARENT 11 10 5 15 1 21 1 22 65 54 43 65
REMARK Flexibility Score: inf
ROOT
ATOM      1  C   UNL A   1      33.919  30.812  27.644  1.00  0.00     0.202 C 
ENDROOT
BRANCH   1   2
ATOM      2  C   UNL A   1      34.717  29.843  26.773  1.00  0.00     0.261 C 
BRANCH   2   3
ATOM      3  O   UNL A   1      34.496  28.482  27.134  1.00  0.00    -0.461 OA
BRANCH   3   4
ATOM      4  C   UNL A   1      33.243  28.027  26.837  1.00  0.00     0.333 C 
ATOM      5  O   UNL A   1      32.428  27.614  27.655  1.00  0.00    -0.249 OA
BRANCH   4   6
ATOM      6  C   UNL A   1      33.052  27.907  25.332  1.00  0.00     0.223 C 
BRANCH   6   7
ATOM      7  N   UNL A   1      33.810  26.642  24.670  1.00  0.00    -0.339 N 
ATOM      8  C   UNL A   1      33.945  25.250  24.797  1.00  0.00     0.224 C 
ATOM      9  O   UNL A   1      34.285  24.653  23.765  1.00  0.00    -0.275 OA
ATOM     10  H   UNL A   1      34.370  26.954  23.922  1.00  0.00     0.164 HD
BRANCH   8  11
ATOM     11  C   UNL A   1      33.812  24.375  26.179  1.00  0.00     0.089 C 
ATOM     12  N   UNL A   1      33.271  20.811  24.979  1.00  0.00    -0.327 N 
ATOM     13  C   UNL A   1      31.760  22.270  25.170  1.00  0.00     0.263 C 
ATOM     14  C   UNL A   1      34.933  21.287  25.734  1.00  0.00     0.263 C 
ATOM     15  H   UNL A   1      32.338  20.729  24.574  1.00  0.00     0.348 HD
ATOM     16  C   UNL A   1      32.150  23.902  26.081  1.00  0.00     0.075 C 
ATOM     17  C   UNL A   1      35.127  23.049  26.487  1.00  0.00     0.075 C 
BRANCH  12  18
ATOM     18  C   UNL A   1      33.421  19.399  24.402  1.00  0.00     0.363 C 
BRANCH  18  19
ATOM     19  C   UNL A   1      32.852  18.300  25.306  1.00  0.00     0.272 C 
ATOM     20  N   UNL A   1      32.778  18.610  26.634  1.00  0.00    -0.365 N 
ATOM     21  H   UNL A   1      32.423  17.952  27.274  1.00  0.00     0.159 HD
ATOM     22  H   UNL A   1      33.081  19.493  26.951  1.00  0.00     0.159 HD
ATOM     23  O   UNL A   1      32.471  17.203  24.906  1.00  0.00    -0.269 OA
ENDBRANCH  18  19
ENDBRANCH  12  18
ENDBRANCH   8  11
ENDBRANCH   6   7
BRANCH   6  24
ATOM     24  C   UNL A   1      31.559  27.931  25.068  1.00  0.00    -0.014 A 
ATOM     25  C   UNL A   1      31.249  29.562  24.790  1.00  0.00     0.008 A 
ATOM     26  C   UNL A   1      30.443  26.773  24.377  1.00  0.00     0.008 A 
ATOM     27  C   UNL A   1      29.766  30.227  23.716  1.00  0.00     0.021 A 
ATOM     28  C   UNL A   1      29.029  27.276  23.411  1.00  0.00     0.021 A 
ATOM     29  C   UNL A   1      28.625  28.990  23.114  1.00  0.00     0.041 A 
ATOM     30  Cl  UNL A   1      27.253  29.420  22.190  1.00  0.00    -0.084 Cl
ENDBRANCH   6  24
ENDBRANCH   4   6
ENDBRANCH   3   4
ENDBRANCH   2   3
ENDBRANCH   1   2
BRANCH   1  31
ATOM     31  O   UNL A   1      32.579  31.115  27.281  1.00  0.00    -0.374 OA
BRANCH  31  32
ATOM     32  C   UNL A   1      32.122  32.465  27.289  1.00  0.00     0.202 C 
BRANCH  32  33
ATOM     33  C   UNL A   1      33.071  33.601  27.689  1.00  0.00     0.261 C 
BRANCH  33  34
ATOM     34  O   UNL A   1      32.473  34.561  28.574  1.00  0.00    -0.460 OA
BRANCH  34  35
ATOM     35  C   UNL A   1      33.294  34.997  29.559  1.00  0.00     0.338 C 
ATOM     36  O   UNL A   1      33.070  35.866  30.385  1.00  0.00    -0.246 OA
BRANCH  35  37
ATOM     37  C   UNL A   1      34.485  34.142  29.628  1.00  0.00     0.060 A 
ATOM     38  C   UNL A   1      34.563  33.174  30.640  1.00  0.00     0.016 A 
ATOM     39  C   UNL A   1      35.570  34.403  28.795  1.00  0.00     0.016 A 
ATOM     40  C   UNL A   1      35.758  32.495  30.858  1.00  0.00     0.010 A 
ATOM     41  C   UNL A   1      36.768  33.728  29.023  1.00  0.00     0.010 A 
ATOM     42  C   UNL A   1      36.878  32.806  30.081  1.00  0.00    -0.014 A 
BRANCH  42  43
ATOM     43  C   UNL A   1      38.220  32.304  30.452  1.00  0.00     0.031 A 
ATOM     44  C   UNL A   1      38.702  31.022  29.835  1.00  0.00     0.074 A 
ATOM     45  C   UNL A   1      38.969  32.954  31.358  1.00  0.00     0.049 A 
ATOM     46  N   UNL A   1      39.743  30.295  30.146  1.00  0.00    -0.248 NA
ATOM     47  C   UNL A   1      37.893  30.477  28.730  1.00  0.00     0.031 C 
ATOM     48  C   UNL A   1      38.631  34.234  31.978  1.00  0.00     0.029 A 
ATOM     49  N   UNL A   1      40.161  32.601  31.938  1.00  0.00    -0.354 N 
ATOM     50  C   UNL A   1      39.696  29.193  29.302  1.00  0.00     0.074 A 
ATOM     51  C   UNL A   1      38.517  29.336  28.477  1.00  0.00     0.031 C 
ATOM     52  C   UNL A   1      39.581  34.546  32.876  1.00  0.00     0.029 A 
ATOM     53  C   UNL A   1      40.559  33.461  32.931  1.00  0.00     0.049 A 
ATOM     54  H   UNL A   1      40.680  31.809  31.668  1.00  0.00     0.167 HD
ATOM     55  C   UNL A   1      40.558  28.152  29.230  1.00  0.00     0.031 A 
ATOM     56  C   UNL A   1      41.570  33.358  33.817  1.00  0.00     0.031 A 
ATOM     57  C   UNL A   1      41.723  28.018  30.062  1.00  0.00     0.049 A 
ATOM     58  C   UNL A   1      42.463  32.144  33.773  1.00  0.00     0.074 A 
ATOM     59  C   UNL A   1      42.676  27.015  30.048  1.00  0.00     0.029 A 
ATOM     60  N   UNL A   1      42.086  28.907  31.061  1.00  0.00    -0.354 N 
ATOM     61  N   UNL A   1      42.427  31.117  32.958  1.00  0.00    -0.248 NA
ATOM     62  C   UNL A   1      43.543  32.078  34.769  1.00  0.00     0.031 C 
ATOM     63  C   UNL A   1      43.571  27.254  31.093  1.00  0.00     0.029 A 
ATOM     64  C   UNL A   1      43.230  28.456  31.693  1.00  0.00     0.049 A 
ATOM     65  H   UNL A   1      41.602  29.734  31.286  1.00  0.00     0.167 HD
ATOM     66  C   UNL A   1      43.503  30.312  33.313  1.00  0.00     0.074 A 
ATOM     67  C   UNL A   1      44.175  30.970  34.412  1.00  0.00     0.031 C 
ATOM     68  C   UNL A   1      43.902  29.137  32.770  1.00  0.00     0.031 A 
BRANCH  55  69
ATOM     69  C   UNL A   1      40.256  27.049  28.254  1.00  0.00    -0.014 A 
ATOM     70  C   UNL A   1      40.794  27.045  26.958  1.00  0.00     0.009 A 
ATOM     71  C   UNL A   1      39.475  25.958  28.667  1.00  0.00     0.009 A 
ATOM     72  C   UNL A   1      40.535  25.982  26.089  1.00  0.00     0.001 A 
ATOM     73  C   UNL A   1      39.245  24.882  27.810  1.00  0.00     0.001 A 
ATOM     74  C   UNL A   1      39.770  24.898  26.518  1.00  0.00     0.000 A 
ENDBRANCH  55  69
BRANCH  56  75
ATOM     75  C   UNL A   1      41.769  34.405  34.855  1.00  0.00    -0.014 A 
ATOM     76  C   UNL A   1      41.135  34.307  36.102  1.00  0.00     0.009 A 
ATOM     77  C   UNL A   1      42.562  35.533  34.587  1.00  0.00     0.009 A 
ATOM     78  C   UNL A   1      41.251  35.336  37.040  1.00  0.00     0.001 A 
ATOM     79  C   UNL A   1      42.710  36.542  35.542  1.00  0.00     0.001 A 
ATOM     80  C   UNL A   1      42.041  36.451  36.761  1.00  0.00     0.000 A 
ENDBRANCH  56  75
BRANCH  68  81
ATOM     81  C   UNL A   1      45.170  28.514  33.290  1.00  0.00    -0.014 A 
ATOM     82  C   UNL A   1      45.161  27.558  34.316  1.00  0.00     0.009 A 
ATOM     83  C   UNL A   1      46.389  28.831  32.667  1.00  0.00     0.009 A 
ATOM     84  C   UNL A   1      46.350  26.949  34.722  1.00  0.00     0.001 A 
ATOM     85  C   UNL A   1      47.569  28.194  33.049  1.00  0.00     0.001 A 
ATOM     86  C   UNL A   1      47.551  27.258  34.080  1.00  0.00     0.000 A 
ENDBRANCH  68  81
ENDBRANCH  42  43
ENDBRANCH  35  37
ENDBRANCH  34  35
ENDBRANCH  33  34
ENDBRANCH  32  33
ENDBRANCH  31  32
ENDBRANCH   1  31
TORSDOF 19
ENDMDL
MODEL 3
REMARK VINA RESULT:     -10.6      5.277      9.555
REMARK SMILES NC(=O)C[NH+]1CCC(C(=O)N[C@H](C(=O)OCCOCCOC(=O)c2ccc(-c3c4nc(c(-c5ccccc5)c5ccc([nH]5)c(-c5ccccc5)c5nc(c(-c6ccccc6)c6ccc3[nH]6)C=C5)C=C4)cc2)c2ccc(Cl)cc2)CC1
REMARK SMILES IDX 17 1 16 2 15 3 13 4 14 5 12 6 11 7 9 8 10 9 8 11 5 12 6 13
REMARK SMILES IDX 80 14 7 16 79 17 4 18 2 19 1 20 3 23 72 24 73 25 78 26 74 27
REMARK SMILES IDX 77 28 75 29 76 30 18 31 19 32 20 33 21 34 22 35 23 36 24 37
REMARK SMILES IDX 25 38 71 39 26 40 70 41 27 42 28 43 29 44 64 45 30 46 69 47
REMARK SMILES IDX 63 48 65 49 31 50 68 51 62 52 61 53 32 55 54 56 39 57 53 58
REMARK SMILES IDX 40 59 43 60 52 61 66 62 41 63 42 64 51 66 67 67 44 68 33 69
REMARK SMILES IDX 34 70 38 71 35 72 37 73 36 74 55 75 56 76 60 77 57 78 59 79
REMARK SMILES IDX 58 80 45 81 46 82 50 83 47 84 49 85 48 86
REMARK H PARENT 11 10 5 15 1 21 1 22 65 54 43 65
REMARK Flexibility Score: inf
ROOT
ATOM      1  C   UNL A   1      32.290  29.651  26.687  1.00  0.00     0.202 C 
ENDROOT
BRANCH   1   2
ATOM      2  C   UNL A   1      33.735  29.372  26.279  1.00  0.00     0.261 C 
BRANCH   2   3
ATOM      3  O   UNL A   1      34.129  28.032  26.564  1.00  0.00    -0.461 OA
BRANCH   3   4
ATOM      4  C   UNL A   1      33.846  27.147  25.564  1.00  0.00     0.333 C 
ATOM      5  O   UNL A   1      33.984  27.365  24.366  1.00  0.00    -0.249 OA
BRANCH   4   6
ATOM      6  C   UNL A   1      33.140  25.915  26.113  1.00  0.00     0.223 C 
BRANCH   6   7
ATOM      7  N   UNL A   1      31.529  26.046  26.168  1.00  0.00    -0.339 N 
ATOM      8  C   UNL A   1      30.383  25.854  25.379  1.00  0.00     0.224 C 
ATOM      9  O   UNL A   1      29.334  25.651  26.009  1.00  0.00    -0.275 OA
ATOM     10  H   UNL A   1      31.260  26.372  27.057  1.00  0.00     0.164 HD
BRANCH   8  11
ATOM     11  C   UNL A   1      30.283  25.990  23.747  1.00  0.00     0.089 C 
ATOM     12  N   UNL A   1      29.096  29.554  23.178  1.00  0.00    -0.327 N 
ATOM     13  C   UNL A   1      27.845  27.914  23.616  1.00  0.00     0.263 C 
ATOM     14  C   UNL A   1      30.885  29.104  22.782  1.00  0.00     0.263 C 
ATOM     15  H   UNL A   1      28.122  29.636  23.468  1.00  0.00     0.348 HD
ATOM     16  C   UNL A   1      28.570  26.148  23.559  1.00  0.00     0.075 C 
ATOM     17  C   UNL A   1      31.417  27.259  22.918  1.00  0.00     0.075 C 
BRANCH  12  18
ATOM     18  C   UNL A   1      28.973  31.077  23.057  1.00  0.00     0.363 C 
BRANCH  18  19
ATOM     19  C   UNL A   1      28.169  31.535  21.835  1.00  0.00     0.272 C 
ATOM     20  N   UNL A   1      27.777  30.542  20.983  1.00  0.00    -0.365 N 
ATOM     21  H   UNL A   1      27.257  30.762  20.177  1.00  0.00     0.159 HD
ATOM     22  H   UNL A   1      28.014  29.605  21.176  1.00  0.00     0.159 HD
ATOM     23  O   UNL A   1      27.871  32.703  21.601  1.00  0.00    -0.269 OA
ENDBRANCH  18  19
ENDBRANCH  12  18
ENDBRANCH   8  11
ENDBRANCH   6   7
BRANCH   6  24
ATOM     24  C   UNL A   1      33.629  24.725  25.312  1.00  0.00    -0.014 A 
ATOM     25  C   UNL A   1      35.251  24.611  25.751  1.00  0.00     0.008 A 
ATOM     26  C   UNL A   1      32.853  23.269  24.728  1.00  0.00     0.008 A 
ATOM     27  C   UNL A   1      36.287  22.964  25.696  1.00  0.00     0.021 A 
ATOM     28  C   UNL A   1      33.722  21.715  24.598  1.00  0.00     0.021 A 
ATOM     29  C   UNL A   1      35.449  21.540  25.012  1.00  0.00     0.041 A 
ATOM     30  Cl  UNL A   1      36.239  20.031  24.861  1.00  0.00    -0.084 Cl
ENDBRANCH   6  24
ENDBRANCH   4   6
ENDBRANCH   3   4
ENDBRANCH   2   3
ENDBRANCH   1   2
BRANCH   1  31
ATOM     31  O   UNL A   1      31.568  30.666  26.002  1.00  0.00    -0.374 OA
BRANCH  31  32
ATOM     32  C   UNL A   1      31.365  31.938  26.612  1.00  0.00     0.202 C 
BRANCH  32  33
ATOM     33  C   UNL A   1      32.500  32.612  27.393  1.00  0.00     0.261 C 
BRANCH  33  34
ATOM     34  O   UNL A   1      32.263  34.002  27.663  1.00  0.00    -0.460 OA
BRANCH  34  35
ATOM     35  C   UNL A   1      33.034  34.517  28.650  1.00  0.00     0.338 C 
ATOM     36  O   UNL A   1      32.754  35.421  29.419  1.00  0.00    -0.246 OA
BRANCH  35  37
ATOM     37  C   UNL A   1      34.247  33.705  28.807  1.00  0.00     0.060 A 
ATOM     38  C   UNL A   1      34.329  32.816  29.888  1.00  0.00     0.016 A 
ATOM     39  C   UNL A   1      35.345  33.940  27.983  1.00  0.00     0.016 A 
ATOM     40  C   UNL A   1      35.536  32.191  30.182  1.00  0.00     0.010 A 
ATOM     41  C   UNL A   1      36.555  33.320  28.286  1.00  0.00     0.010 A 
ATOM     42  C   UNL A   1      36.666  32.480  29.409  1.00  0.00    -0.014 A 
BRANCH  42  43
ATOM     43  C   UNL A   1      38.012  32.048  29.846  1.00  0.00     0.031 A 
ATOM     44  C   UNL A   1      38.550  30.744  29.328  1.00  0.00     0.074 A 
ATOM     45  C   UNL A   1      38.717  32.779  30.725  1.00  0.00     0.049 A 
ATOM     46  N   UNL A   1      39.605  30.074  29.712  1.00  0.00    -0.248 NA
ATOM     47  C   UNL A   1      37.788  30.101  28.242  1.00  0.00     0.031 C 
ATOM     48  C   UNL A   1      38.322  34.086  31.251  1.00  0.00     0.029 A 
ATOM     49  N   UNL A   1      39.903  32.504  31.357  1.00  0.00    -0.354 N 
ATOM     50  C   UNL A   1      39.614  28.917  28.942  1.00  0.00     0.074 A 
ATOM     51  C   UNL A   1      38.454  28.967  28.080  1.00  0.00     0.031 C 
ATOM     52  C   UNL A   1      39.239  34.487  32.149  1.00  0.00     0.029 A 
ATOM     53  C   UNL A   1      40.248  33.440  32.300  1.00  0.00     0.049 A 
ATOM     54  H   UNL A   1      40.453  31.713  31.153  1.00  0.00     0.167 HD
ATOM     55  C   UNL A   1      40.509  27.902  28.961  1.00  0.00     0.031 A 
ATOM     56  C   UNL A   1      41.237  33.428  33.215  1.00  0.00     0.031 A 
ATOM     57  C   UNL A   1      41.655  27.861  29.827  1.00  0.00     0.049 A 
ATOM     58  C   UNL A   1      42.168  32.244  33.274  1.00  0.00     0.074 A 
ATOM     59  C   UNL A   1      42.639  26.891  29.904  1.00  0.00     0.029 A 
ATOM     60  N   UNL A   1      41.964  28.825  30.774  1.00  0.00    -0.354 N 
ATOM     61  N   UNL A   1      42.185  31.165  32.528  1.00  0.00    -0.248 NA
ATOM     62  C   UNL A   1      43.223  32.278  34.299  1.00  0.00     0.031 C 
ATOM     63  C   UNL A   1      43.498  27.227  30.952  1.00  0.00     0.029 A 
ATOM     64  C   UNL A   1      43.104  28.454  31.463  1.00  0.00     0.049 A 
ATOM     65  H   UNL A   1      41.449  29.649  30.932  1.00  0.00     0.167 HD
ATOM     66  C   UNL A   1      43.276  30.420  32.962  1.00  0.00     0.074 A 
ATOM     67  C   UNL A   1      43.898  31.170  34.031  1.00  0.00     0.031 C 
ATOM     68  C   UNL A   1      43.726  29.225  32.509  1.00  0.00     0.031 A 
BRANCH  55  69
ATOM     69  C   UNL A   1      40.268  26.729  28.052  1.00  0.00    -0.014 A 
ATOM     70  C   UNL A   1      40.836  26.660  26.771  1.00  0.00     0.009 A 
ATOM     71  C   UNL A   1      39.514  25.640  28.520  1.00  0.00     0.009 A 
ATOM     72  C   UNL A   1      40.633  25.535  25.969  1.00  0.00     0.001 A 
ATOM     73  C   UNL A   1      39.341  24.503  27.730  1.00  0.00     0.001 A 
ATOM     74  C   UNL A   1      39.895  24.454  26.451  1.00  0.00     0.000 A 
ENDBRANCH  55  69
BRANCH  56  75
ATOM     75  C   UNL A   1      41.376  34.547  34.187  1.00  0.00    -0.014 A 
ATOM     76  C   UNL A   1      40.672  34.534  35.400  1.00  0.00     0.009 A 
ATOM     77  C   UNL A   1      42.182  35.657  33.885  1.00  0.00     0.009 A 
ATOM     78  C   UNL A   1      40.734  35.627  36.267  1.00  0.00     0.001 A 
ATOM     79  C   UNL A   1      42.275  36.731  34.773  1.00  0.00     0.001 A 
ATOM     80  C   UNL A   1      41.537  36.723  35.955  1.00  0.00     0.000 A 
ENDBRANCH  56  75
BRANCH  68  81
ATOM     81  C   UNL A   1      44.998  28.680  33.100  1.00  0.00    -0.014 A 
ATOM     82  C   UNL A   1      44.990  27.785  34.180  1.00  0.00     0.009 A 
ATOM     83  C   UNL A   1      46.224  29.003  32.494  1.00  0.00     0.009 A 
ATOM     84  C   UNL A   1      46.187  27.243  34.654  1.00  0.00     0.001 A 
ATOM     85  C   UNL A   1      47.413  28.432  32.946  1.00  0.00     0.001 A 
ATOM     86  C   UNL A   1      47.395  27.558  34.030  1.00  0.00     0.000 A 
ENDBRANCH  68  81
ENDBRANCH  42  43
ENDBRANCH  35  37
ENDBRANCH  34  35
ENDBRANCH  33  34
ENDBRANCH  32  33
ENDBRANCH  31  32
ENDBRANCH   1  31
TORSDOF 19
ENDMDL
