MODEL 1
REMARK VINA RESULT:      -9.5      0.000      0.000
REMARK SMILES CC[NH2+][C@]1(C(=O)OCCOCCOC(=O)c2ccc(-c3c4nc(c(-c5ccccc5)c5ccc([nH]5)c(-c5ccccc5)c5nc(c(-c6ccccc6)c6ccc3[nH]6)C=C5)C=C4)cc2)CCC[C@H]1CC[N@H+]1CCC[C@@H](CC)C1
REMARK SMILES IDX 9 1 8 2 7 3 5 4 6 5 4 6 64 7 67 8 65 9 66 10 3 11 2 14 1 15
REMARK SMILES IDX 68 16 69 17 70 18 71 19 77 20 72 22 74 23 73 24 75 25 76 26
REMARK SMILES IDX 10 27 11 28 12 29 13 30 14 31 15 32 16 33 17 34 63 35 18 36
REMARK SMILES IDX 62 37 19 38 20 39 21 40 56 41 22 42 61 43 55 44 57 45 23 46
REMARK SMILES IDX 60 47 54 48 53 49 24 51 46 52 31 53 45 54 32 55 35 56 44 57
REMARK SMILES IDX 58 58 33 59 34 60 43 62 59 63 36 64 25 65 26 66 30 67 27 68
REMARK SMILES IDX 29 69 28 70 47 71 48 72 52 73 49 74 51 75 50 76 37 77 38 78
REMARK SMILES IDX 42 79 39 80 41 81 40 82
REMARK H PARENT 3 12 3 13 70 21 57 50 35 61
REMARK Flexibility Score: inf
ROOT
ATOM      1  C   UNL A   1      38.219  22.223  25.555  1.00  0.00     0.202 C 
ENDROOT
BRANCH   1   2
ATOM      2  C   UNL A   1      37.504  23.558  25.816  1.00  0.00     0.261 C 
BRANCH   2   3
ATOM      3  O   UNL A   1      36.371  23.808  24.969  1.00  0.00    -0.459 OA
BRANCH   3   4
ATOM      4  C   UNL A   1      35.155  23.765  25.591  1.00  0.00     0.368 C 
ATOM      5  O   UNL A   1      35.033  23.522  26.788  1.00  0.00    -0.245 OA
BRANCH   4   6
ATOM      6  C   UNL A   1      33.955  23.990  24.611  1.00  0.00     0.197 C 
ATOM      7  C   UNL A   1      34.320  23.783  23.121  1.00  0.00     0.081 C 
ATOM      8  C   UNL A   1      32.789  22.961  24.765  1.00  0.00     0.068 C 
ATOM      9  C   UNL A   1      32.994  23.634  22.389  1.00  0.00     0.008 C 
ATOM     10  C   UNL A   1      32.080  22.929  23.377  1.00  0.00     0.011 C 
BRANCH   6  11
ATOM     11  N   UNL A   1      33.415  25.402  24.661  1.00  0.00    -0.332 N 
ATOM     12  H   UNL A   1      33.349  25.741  23.701  1.00  0.00     0.347 HD
ATOM     13  H   UNL A   1      32.524  25.329  25.152  1.00  0.00     0.347 HD
BRANCH  11  14
ATOM     14  C   UNL A   1      34.190  26.382  25.423  1.00  0.00     0.257 C 
ATOM     15  C   UNL A   1      33.306  27.528  25.894  1.00  0.00     0.071 C 
ENDBRANCH  11  14
ENDBRANCH   6  11
BRANCH   8  16
ATOM     16  C   UNL A   1      33.118  21.499  25.155  1.00  0.00     0.072 C 
BRANCH  16  17
ATOM     17  C   UNL A   1      32.072  20.364  25.164  1.00  0.00     0.262 C 
BRANCH  17  18
ATOM     18  N   UNL A   1      32.245  19.089  24.457  1.00  0.00    -0.335 N 
ATOM     19  C   UNL A   1      32.676  19.146  23.068  1.00  0.00     0.262 C 
ATOM     20  C   UNL A   1      33.014  18.132  25.264  1.00  0.00     0.265 C 
ATOM     21  H   UNL A   1      31.292  18.740  24.351  1.00  0.00     0.348 HD
ATOM     22  C   UNL A   1      32.767  17.779  22.395  1.00  0.00     0.062 C 
ATOM     23  C   UNL A   1      33.119  16.736  24.623  1.00  0.00     0.044 C 
ATOM     24  C   UNL A   1      33.649  16.837  23.191  1.00  0.00     0.015 C 
BRANCH  23  25
ATOM     25  C   UNL A   1      33.952  15.769  25.484  1.00  0.00     0.006 C 
ATOM     26  C   UNL A   1      35.462  15.889  25.324  1.00  0.00     0.004 C 
ENDBRANCH  23  25
ENDBRANCH  17  18
ENDBRANCH  16  17
ENDBRANCH   8  16
ENDBRANCH   4   6
ENDBRANCH   3   4
ENDBRANCH   2   3
ENDBRANCH   1   2
BRANCH   1  27
ATOM     27  O   UNL A   1      37.501  21.170  24.931  1.00  0.00    -0.374 OA
BRANCH  27  28
ATOM     28  C   UNL A   1      38.145  19.904  24.803  1.00  0.00     0.202 C 
BRANCH  28  29
ATOM     29  C   UNL A   1      39.182  19.495  25.861  1.00  0.00     0.261 C 
BRANCH  29  30
ATOM     30  O   UNL A   1      40.494  19.216  25.323  1.00  0.00    -0.460 OA
BRANCH  30  31
ATOM     31  C   UNL A   1      41.520  19.473  26.167  1.00  0.00     0.338 C 
ATOM     32  O   UNL A   1      42.454  18.732  26.450  1.00  0.00    -0.246 OA
BRANCH  31  33
ATOM     33  C   UNL A   1      41.481  20.863  26.649  1.00  0.00     0.060 A 
ATOM     34  C   UNL A   1      41.880  21.880  25.771  1.00  0.00     0.016 A 
ATOM     35  C   UNL A   1      41.248  21.144  27.997  1.00  0.00     0.016 A 
ATOM     36  C   UNL A   1      42.094  23.174  26.250  1.00  0.00     0.010 A 
ATOM     37  C   UNL A   1      41.474  22.440  28.476  1.00  0.00     0.010 A 
ATOM     38  C   UNL A   1      41.936  23.452  27.614  1.00  0.00    -0.014 A 
BRANCH  38  39
ATOM     39  C   UNL A   1      42.400  24.751  28.160  1.00  0.00     0.031 A 
ATOM     40  C   UNL A   1      41.403  25.859  28.377  1.00  0.00     0.074 A 
ATOM     41  C   UNL A   1      43.692  24.946  28.480  1.00  0.00     0.049 A 
ATOM     42  N   UNL A   1      41.600  27.080  28.806  1.00  0.00    -0.248 NA
ATOM     43  C   UNL A   1      39.997  25.547  28.072  1.00  0.00     0.031 C 
ATOM     44  C   UNL A   1      44.751  23.945  28.368  1.00  0.00     0.029 A 
ATOM     45  N   UNL A   1      44.330  26.062  28.962  1.00  0.00    -0.354 N 
ATOM     46  C   UNL A   1      40.348  27.684  28.816  1.00  0.00     0.074 A 
ATOM     47  C   UNL A   1      39.402  26.702  28.330  1.00  0.00     0.031 C 
ATOM     48  C   UNL A   1      45.913  24.498  28.759  1.00  0.00     0.029 A 
ATOM     49  C   UNL A   1      45.683  25.896  29.117  1.00  0.00     0.049 A 
ATOM     50  H   UNL A   1      43.860  26.900  29.175  1.00  0.00     0.167 HD
ATOM     51  C   UNL A   1      40.014  28.941  29.195  1.00  0.00     0.031 A 
ATOM     52  C   UNL A   1      46.633  26.778  29.484  1.00  0.00     0.031 A 
ATOM     53  C   UNL A   1      40.948  29.925  29.669  1.00  0.00     0.049 A 
ATOM     54  C   UNL A   1      46.249  28.195  29.818  1.00  0.00     0.074 A 
ATOM     55  C   UNL A   1      40.695  31.216  30.100  1.00  0.00     0.029 A 
ATOM     56  N   UNL A   1      42.316  29.730  29.767  1.00  0.00    -0.354 N 
ATOM     57  N   UNL A   1      45.059  28.743  29.848  1.00  0.00    -0.248 NA
ATOM     58  C   UNL A   1      47.343  29.113  30.170  1.00  0.00     0.031 C 
ATOM     59  C   UNL A   1      41.919  31.822  30.409  1.00  0.00     0.029 A 
ATOM     60  C   UNL A   1      42.926  30.889  30.218  1.00  0.00     0.049 A 
ATOM     61  H   UNL A   1      42.785  28.894  29.548  1.00  0.00     0.167 HD
ATOM     62  C   UNL A   1      45.258  30.060  30.243  1.00  0.00     0.074 A 
ATOM     63  C   UNL A   1      46.680  30.227  30.453  1.00  0.00     0.031 C 
ATOM     64  C   UNL A   1      44.342  31.044  30.419  1.00  0.00     0.031 A 
BRANCH  51  65
ATOM     65  C   UNL A   1      38.569  29.337  29.078  1.00  0.00    -0.014 A 
ATOM     66  C   UNL A   1      37.694  29.228  30.170  1.00  0.00     0.009 A 
ATOM     67  C   UNL A   1      38.090  29.864  27.869  1.00  0.00     0.009 A 
ATOM     68  C   UNL A   1      36.358  29.613  30.042  1.00  0.00     0.001 A 
ATOM     69  C   UNL A   1      36.760  30.268  27.752  1.00  0.00     0.001 A 
ATOM     70  C   UNL A   1      35.892  30.137  28.836  1.00  0.00     0.000 A 
ENDBRANCH  51  65
BRANCH  52  71
ATOM     71  C   UNL A   1      48.058  26.360  29.522  1.00  0.00    -0.014 A 
ATOM     72  C   UNL A   1      48.625  25.852  30.701  1.00  0.00     0.009 A 
ATOM     73  C   UNL A   1      48.865  26.488  28.380  1.00  0.00     0.009 A 
ATOM     74  C   UNL A   1      49.976  25.501  30.740  1.00  0.00     0.001 A 
ATOM     75  C   UNL A   1      50.209  26.113  28.415  1.00  0.00     0.001 A 
ATOM     76  C   UNL A   1      50.765  25.628  29.598  1.00  0.00     0.000 A 
ENDBRANCH  52  71
BRANCH  64  77
ATOM     77  C   UNL A   1      44.844  32.381  30.884  1.00  0.00    -0.014 A 
ATOM     78  C   UNL A   1      45.192  33.385  29.968  1.00  0.00     0.009 A 
ATOM     79  C   UNL A   1      44.922  32.656  32.259  1.00  0.00     0.009 A 
ATOM     80  C   UNL A   1      45.633  34.630  30.421  1.00  0.00     0.001 A 
ATOM     81  C   UNL A   1      45.341  33.909  32.708  1.00  0.00     0.001 A 
ATOM     82  C   UNL A   1      45.703  34.892  31.788  1.00  0.00     0.000 A 
ENDBRANCH  64  77
ENDBRANCH  38  39
ENDBRANCH  31  33
ENDBRANCH  30  31
ENDBRANCH  29  30
ENDBRANCH  28  29
ENDBRANCH  27  28
ENDBRANCH   1  27
TORSDOF 20
ENDMDL
MODEL 2
REMARK VINA RESULT:      -9.5      2.228      5.885
REMARK SMILES CC[NH2+][C@]1(C(=O)OCCOCCOC(=O)c2ccc(-c3c4nc(c(-c5ccccc5)c5ccc([nH]5)c(-c5ccccc5)c5nc(c(-c6ccccc6)c6ccc3[nH]6)C=C5)C=C4)cc2)CCC[C@H]1CC[N@H+]1CCC[C@@H](CC)C1
REMARK SMILES IDX 9 1 8 2 7 3 5 4 6 5 4 6 64 7 67 8 65 9 66 10 3 11 2 14 1 15
REMARK SMILES IDX 68 16 69 17 70 18 71 19 77 20 72 22 74 23 73 24 75 25 76 26
REMARK SMILES IDX 10 27 11 28 12 29 13 30 14 31 15 32 16 33 17 34 63 35 18 36
REMARK SMILES IDX 62 37 19 38 20 39 21 40 56 41 22 42 61 43 55 44 57 45 23 46
REMARK SMILES IDX 60 47 54 48 53 49 24 51 46 52 31 53 45 54 32 55 35 56 44 57
REMARK SMILES IDX 58 58 33 59 34 60 43 62 59 63 36 64 25 65 26 66 30 67 27 68
REMARK SMILES IDX 29 69 28 70 47 71 48 72 52 73 49 74 51 75 50 76 37 77 38 78
REMARK SMILES IDX 42 79 39 80 41 81 40 82
REMARK H PARENT 3 12 3 13 70 21 57 50 35 61
REMARK Flexibility Score: inf
ROOT
ATOM      1  C   UNL A   1      35.506  22.061  24.533  1.00  0.00     0.202 C 
ENDROOT
BRANCH   1   2
ATOM      2  C   UNL A   1      35.183  23.357  23.771  1.00  0.00     0.261 C 
BRANCH   2   3
ATOM      3  O   UNL A   1      34.480  24.347  24.540  1.00  0.00    -0.459 OA
BRANCH   3   4
ATOM      4  C   UNL A   1      33.267  24.725  24.038  1.00  0.00     0.368 C 
ATOM      5  O   UNL A   1      33.053  24.826  22.834  1.00  0.00    -0.245 OA
BRANCH   4   6
ATOM      6  C   UNL A   1      32.222  25.073  25.151  1.00  0.00     0.197 C 
ATOM      7  C   UNL A   1      30.904  25.671  24.604  1.00  0.00     0.081 C 
ATOM      8  C   UNL A   1      31.673  23.838  25.934  1.00  0.00     0.068 C 
ATOM      9  C   UNL A   1      29.897  25.555  25.739  1.00  0.00     0.008 C 
ATOM     10  C   UNL A   1      30.274  24.275  26.466  1.00  0.00     0.011 C 
BRANCH   6  11
ATOM     11  N   UNL A   1      32.726  26.123  26.118  1.00  0.00    -0.332 N 
ATOM     12  H   UNL A   1      32.086  26.140  26.912  1.00  0.00     0.347 HD
ATOM     13  H   UNL A   1      33.680  25.842  26.341  1.00  0.00     0.347 HD
BRANCH  11  14
ATOM     14  C   UNL A   1      32.840  27.490  25.611  1.00  0.00     0.257 C 
ATOM     15  C   UNL A   1      34.101  28.162  26.135  1.00  0.00     0.071 C 
ENDBRANCH  11  14
ENDBRANCH   6  11
BRANCH   8  16
ATOM     16  C   UNL A   1      31.491  22.491  25.191  1.00  0.00     0.072 C 
BRANCH  16  17
ATOM     17  C   UNL A   1      32.398  21.263  25.420  1.00  0.00     0.262 C 
BRANCH  17  18
ATOM     18  N   UNL A   1      32.220  19.978  24.732  1.00  0.00    -0.335 N 
ATOM     19  C   UNL A   1      32.542  19.926  23.314  1.00  0.00     0.262 C 
ATOM     20  C   UNL A   1      32.810  18.875  25.502  1.00  0.00     0.265 C 
ATOM     21  H   UNL A   1      31.206  19.857  24.707  1.00  0.00     0.348 HD
ATOM     22  C   UNL A   1      32.265  18.571  22.669  1.00  0.00     0.062 C 
ATOM     23  C   UNL A   1      32.543  17.488  24.889  1.00  0.00     0.044 C 
ATOM     24  C   UNL A   1      32.968  17.456  23.419  1.00  0.00     0.015 C 
BRANCH  23  25
ATOM     25  C   UNL A   1      33.196  16.361  25.707  1.00  0.00     0.006 C 
ATOM     26  C   UNL A   1      32.674  14.959  25.419  1.00  0.00     0.004 C 
ENDBRANCH  23  25
ENDBRANCH  17  18
ENDBRANCH  16  17
ENDBRANCH   8  16
ENDBRANCH   4   6
ENDBRANCH   3   4
ENDBRANCH   2   3
ENDBRANCH   1   2
BRANCH   1  27
ATOM     27  O   UNL A   1      36.804  21.500  24.416  1.00  0.00    -0.374 OA
BRANCH  27  28
ATOM     28  C   UNL A   1      36.996  20.159  24.859  1.00  0.00     0.202 C 
BRANCH  28  29
ATOM     29  C   UNL A   1      38.421  19.691  25.194  1.00  0.00     0.261 C 
BRANCH  29  30
ATOM     30  O   UNL A   1      39.376  20.766  25.337  1.00  0.00    -0.460 OA
BRANCH  30  31
ATOM     31  C   UNL A   1      40.130  20.711  26.459  1.00  0.00     0.338 C 
ATOM     32  O   UNL A   1      40.713  19.734  26.916  1.00  0.00    -0.246 OA
BRANCH  31  33
ATOM     33  C   UNL A   1      40.305  22.046  27.054  1.00  0.00     0.060 A 
ATOM     34  C   UNL A   1      39.580  23.114  26.509  1.00  0.00     0.016 A 
ATOM     35  C   UNL A   1      41.308  22.280  27.996  1.00  0.00     0.016 A 
ATOM     36  C   UNL A   1      39.889  24.426  26.870  1.00  0.00     0.010 A 
ATOM     37  C   UNL A   1      41.623  23.598  28.349  1.00  0.00     0.010 A 
ATOM     38  C   UNL A   1      40.943  24.679  27.758  1.00  0.00    -0.014 A 
BRANCH  38  39
ATOM     39  C   UNL A   1      41.430  26.068  27.947  1.00  0.00     0.031 A 
ATOM     40  C   UNL A   1      42.741  26.480  27.329  1.00  0.00     0.074 A 
ATOM     41  C   UNL A   1      40.712  26.965  28.646  1.00  0.00     0.049 A 
ATOM     42  N   UNL A   1      43.368  27.627  27.402  1.00  0.00    -0.248 NA
ATOM     43  C   UNL A   1      43.433  25.465  26.518  1.00  0.00     0.031 C 
ATOM     44  C   UNL A   1      39.407  26.714  29.254  1.00  0.00     0.029 A 
ATOM     45  N   UNL A   1      40.989  28.271  28.963  1.00  0.00    -0.354 N 
ATOM     46  C   UNL A   1      44.530  27.471  26.655  1.00  0.00     0.074 A 
ATOM     47  C   UNL A   1      44.531  26.113  26.155  1.00  0.00     0.031 C 
ATOM     48  C   UNL A   1      39.001  27.830  29.884  1.00  0.00     0.029 A 
ATOM     49  C   UNL A   1      40.030  28.859  29.750  1.00  0.00     0.049 A 
ATOM     50  H   UNL A   1      41.798  28.740  28.656  1.00  0.00     0.167 HD
ATOM     51  C   UNL A   1      45.508  28.374  26.407  1.00  0.00     0.031 A 
ATOM     52  C   UNL A   1      39.996  30.081  30.316  1.00  0.00     0.031 A 
ATOM     53  C   UNL A   1      45.520  29.722  26.907  1.00  0.00     0.049 A 
ATOM     54  C   UNL A   1      41.137  31.039  30.095  1.00  0.00     0.074 A 
ATOM     55  C   UNL A   1      46.457  30.716  26.684  1.00  0.00     0.029 A 
ATOM     56  N   UNL A   1      44.552  30.263  27.737  1.00  0.00    -0.354 N 
ATOM     57  N   UNL A   1      42.215  30.887  29.366  1.00  0.00    -0.248 NA
ATOM     58  C   UNL A   1      41.051  32.340  30.778  1.00  0.00     0.031 C 
ATOM     59  C   UNL A   1      46.083  31.843  27.424  1.00  0.00     0.029 A 
ATOM     60  C   UNL A   1      44.887  31.566  28.065  1.00  0.00     0.049 A 
ATOM     61  H   UNL A   1      43.746  29.791  28.048  1.00  0.00     0.167 HD
ATOM     62  C   UNL A   1      42.924  32.076  29.484  1.00  0.00     0.074 A 
ATOM     63  C   UNL A   1      42.149  32.945  30.343  1.00  0.00     0.031 C 
ATOM     64  C   UNL A   1      44.110  32.418  28.925  1.00  0.00     0.031 A 
BRANCH  51  65
ATOM     65  C   UNL A   1      46.674  27.919  25.576  1.00  0.00    -0.014 A 
ATOM     66  C   UNL A   1      47.819  27.365  26.169  1.00  0.00     0.009 A 
ATOM     67  C   UNL A   1      46.606  28.010  24.177  1.00  0.00     0.009 A 
ATOM     68  C   UNL A   1      48.886  26.937  25.376  1.00  0.00     0.001 A 
ATOM     69  C   UNL A   1      47.665  27.561  23.387  1.00  0.00     0.001 A 
ATOM     70  C   UNL A   1      48.807  27.031  23.986  1.00  0.00     0.000 A 
ENDBRANCH  51  65
BRANCH  52  71
ATOM     71  C   UNL A   1      38.853  30.465  31.184  1.00  0.00    -0.014 A 
ATOM     72  C   UNL A   1      37.702  31.049  30.635  1.00  0.00     0.009 A 
ATOM     73  C   UNL A   1      38.920  30.266  32.571  1.00  0.00     0.009 A 
ATOM     74  C   UNL A   1      36.649  31.445  31.463  1.00  0.00     0.001 A 
ATOM     75  C   UNL A   1      37.856  30.640  33.394  1.00  0.00     0.001 A 
ATOM     76  C   UNL A   1      36.725  31.238  32.840  1.00  0.00     0.000 A 
ENDBRANCH  52  71
BRANCH  64  77
ATOM     77  C   UNL A   1      44.634  33.798  29.205  1.00  0.00    -0.014 A 
ATOM     78  C   UNL A   1      44.322  34.877  28.364  1.00  0.00     0.009 A 
ATOM     79  C   UNL A   1      45.409  34.030  30.353  1.00  0.00     0.009 A 
ATOM     80  C   UNL A   1      44.797  36.158  28.654  1.00  0.00     0.001 A 
ATOM     81  C   UNL A   1      45.863  35.315  30.652  1.00  0.00     0.001 A 
ATOM     82  C   UNL A   1      45.563  36.376  29.799  1.00  0.00     0.000 A 
ENDBRANCH  64  77
ENDBRANCH  38  39
ENDBRANCH  31  33
ENDBRANCH  30  31
ENDBRANCH  29  30
ENDBRANCH  28  29
ENDBRANCH  27  28
ENDBRANCH   1  27
TORSDOF 20
ENDMDL
MODEL 3
REMARK VINA RESULT:      -9.4      3.573      8.073
REMARK SMILES CC[NH2+][C@]1(C(=O)OCCOCCOC(=O)c2ccc(-c3c4nc(c(-c5ccccc5)c5ccc([nH]5)c(-c5ccccc5)c5nc(c(-c6ccccc6)c6ccc3[nH]6)C=C5)C=C4)cc2)CCC[C@H]1CC[N@H+]1CCC[C@@H](CC)C1
REMARK SMILES IDX 9 1 8 2 7 3 5 4 6 5 4 6 64 7 67 8 65 9 66 10 3 11 2 14 1 15
REMARK SMILES IDX 68 16 69 17 70 18 71 19 77 20 72 22 74 23 73 24 75 25 76 26
REMARK SMILES IDX 10 27 11 28 12 29 13 30 14 31 15 32 16 33 17 34 63 35 18 36
REMARK SMILES IDX 62 37 19 38 20 39 21 40 56 41 22 42 61 43 55 44 57 45 23 46
REMARK SMILES IDX 60 47 54 48 53 49 24 51 46 52 31 53 45 54 32 55 35 56 44 57
REMARK SMILES IDX 58 58 33 59 34 60 43 62 59 63 36 64 25 65 26 66 30 67 27 68
REMARK SMILES IDX 29 69 28 70 47 71 48 72 52 73 49 74 51 75 50 76 37 77 38 78
REMARK SMILES IDX 42 79 39 80 41 81 40 82
REMARK H PARENT 3 12 3 13 70 21 57 50 35 61
REMARK Flexibility Score: inf
ROOT
ATOM      1  C   UNL A   1      39.483  21.491  26.449  1.00  0.00     0.202 C 
ENDROOT
BRANCH   1   2
ATOM      2  C   UNL A   1      38.473  22.492  25.864  1.00  0.00     0.261 C 
BRANCH   2   3
ATOM      3  O   UNL A   1      37.111  22.276  26.268  1.00  0.00    -0.459 OA
BRANCH   3   4
ATOM      4  C   UNL A   1      36.299  21.726  25.316  1.00  0.00     0.368 C 
ATOM      5  O   UNL A   1      36.697  21.444  24.191  1.00  0.00    -0.245 OA
BRANCH   4   6
ATOM      6  C   UNL A   1      34.816  21.564  25.793  1.00  0.00     0.197 C 
ATOM      7  C   UNL A   1      34.567  22.061  27.237  1.00  0.00     0.081 C 
ATOM      8  C   UNL A   1      33.783  22.434  25.008  1.00  0.00     0.068 C 
ATOM      9  C   UNL A   1      33.059  22.209  27.368  1.00  0.00     0.008 C 
ATOM     10  C   UNL A   1      32.588  22.641  25.989  1.00  0.00     0.011 C 
BRANCH   6  11
ATOM     11  N   UNL A   1      34.366  20.120  25.822  1.00  0.00    -0.332 N 
ATOM     12  H   UNL A   1      35.192  19.543  25.984  1.00  0.00     0.347 HD
ATOM     13  H   UNL A   1      33.662  20.075  26.558  1.00  0.00     0.347 HD
BRANCH  11  14
ATOM     14  C   UNL A   1      33.699  19.608  24.625  1.00  0.00     0.257 C 
ATOM     15  C   UNL A   1      32.821  18.412  24.960  1.00  0.00     0.071 C 
ENDBRANCH  11  14
ENDBRANCH   6  11
BRANCH   8  16
ATOM     16  C   UNL A   1      34.210  23.831  24.491  1.00  0.00     0.072 C 
BRANCH  16  17
ATOM     17  C   UNL A   1      33.220  24.861  23.906  1.00  0.00     0.262 C 
BRANCH  17  18
ATOM     18  N   UNL A   1      33.463  26.309  23.891  1.00  0.00    -0.335 N 
ATOM     19  C   UNL A   1      33.640  26.946  22.595  1.00  0.00     0.262 C 
ATOM     20  C   UNL A   1      32.516  27.017  24.761  1.00  0.00     0.265 C 
ATOM     21  H   UNL A   1      34.402  26.399  24.282  1.00  0.00     0.348 HD
ATOM     22  C   UNL A   1      33.952  28.437  22.679  1.00  0.00     0.062 C 
ATOM     23  C   UNL A   1      32.804  28.525  24.882  1.00  0.00     0.044 C 
ATOM     24  C   UNL A   1      32.905  29.168  23.496  1.00  0.00     0.015 C 
BRANCH  23  25
ATOM     25  C   UNL A   1      31.778  29.238  25.780  1.00  0.00     0.006 C 
ATOM     26  C   UNL A   1      31.889  28.929  27.268  1.00  0.00     0.004 C 
ENDBRANCH  23  25
ENDBRANCH  17  18
ENDBRANCH  16  17
ENDBRANCH   8  16
ENDBRANCH   4   6
ENDBRANCH   3   4
ENDBRANCH   2   3
ENDBRANCH   1   2
BRANCH   1  27
ATOM     27  O   UNL A   1      40.583  21.079  25.652  1.00  0.00    -0.374 OA
BRANCH  27  28
ATOM     28  C   UNL A   1      41.789  20.710  26.315  1.00  0.00     0.202 C 
BRANCH  28  29
ATOM     29  C   UNL A   1      43.123  21.245  25.768  1.00  0.00     0.261 C 
BRANCH  29  30
ATOM     30  O   UNL A   1      43.622  22.407  26.468  1.00  0.00    -0.460 OA
BRANCH  30  31
ATOM     31  C   UNL A   1      43.608  23.553  25.748  1.00  0.00     0.338 C 
ATOM     32  O   UNL A   1      44.027  23.720  24.609  1.00  0.00    -0.246 OA
BRANCH  31  33
ATOM     33  C   UNL A   1      42.879  24.620  26.453  1.00  0.00     0.060 A 
ATOM     34  C   UNL A   1      43.455  25.897  26.497  1.00  0.00     0.016 A 
ATOM     35  C   UNL A   1      41.754  24.325  27.224  1.00  0.00     0.016 A 
ATOM     36  C   UNL A   1      42.933  26.871  27.350  1.00  0.00     0.010 A 
ATOM     37  C   UNL A   1      41.239  25.300  28.087  1.00  0.00     0.010 A 
ATOM     38  C   UNL A   1      41.849  26.564  28.184  1.00  0.00    -0.014 A 
BRANCH  38  39
ATOM     39  C   UNL A   1      41.457  27.508  29.260  1.00  0.00     0.031 A 
ATOM     40  C   UNL A   1      42.212  27.495  30.563  1.00  0.00     0.074 A 
ATOM     41  C   UNL A   1      40.451  28.382  29.081  1.00  0.00     0.049 A 
ATOM     42  N   UNL A   1      42.011  28.205  31.645  1.00  0.00    -0.248 NA
ATOM     43  C   UNL A   1      43.347  26.562  30.657  1.00  0.00     0.031 C 
ATOM     44  C   UNL A   1      39.670  28.534  27.855  1.00  0.00     0.029 A 
ATOM     45  N   UNL A   1      39.913  29.305  29.942  1.00  0.00    -0.354 N 
ATOM     46  C   UNL A   1      42.986  27.801  32.549  1.00  0.00     0.074 A 
ATOM     47  C   UNL A   1      43.764  26.769  31.897  1.00  0.00     0.031 C 
ATOM     48  C   UNL A   1      38.742  29.488  28.047  1.00  0.00     0.029 A 
ATOM     49  C   UNL A   1      38.844  29.988  29.417  1.00  0.00     0.049 A 
ATOM     50  H   UNL A   1      40.260  29.462  30.850  1.00  0.00     0.167 HD
ATOM     51  C   UNL A   1      43.215  28.246  33.808  1.00  0.00     0.031 A 
ATOM     52  C   UNL A   1      38.026  30.897  29.983  1.00  0.00     0.031 A 
ATOM     53  C   UNL A   1      42.441  29.264  34.466  1.00  0.00     0.049 A 
ATOM     54  C   UNL A   1      38.248  31.314  31.412  1.00  0.00     0.074 A 
ATOM     55  C   UNL A   1      42.617  29.796  35.732  1.00  0.00     0.029 A 
ATOM     56  N   UNL A   1      41.339  29.896  33.914  1.00  0.00    -0.354 N 
ATOM     57  N   UNL A   1      39.188  30.942  32.245  1.00  0.00    -0.248 NA
ATOM     58  C   UNL A   1      37.292  32.278  31.977  1.00  0.00     0.031 C 
ATOM     59  C   UNL A   1      41.588  30.715  35.966  1.00  0.00     0.029 A 
ATOM     60  C   UNL A   1      40.803  30.789  34.827  1.00  0.00     0.049 A 
ATOM     61  H   UNL A   1      40.989  29.734  33.009  1.00  0.00     0.167 HD
ATOM     62  C   UNL A   1      38.952  31.642  33.422  1.00  0.00     0.074 A 
ATOM     63  C   UNL A   1      37.787  32.469  33.193  1.00  0.00     0.031 C 
ATOM     64  C   UNL A   1      39.641  31.603  34.588  1.00  0.00     0.031 A 
BRANCH  51  65
ATOM     65  C   UNL A   1      44.337  27.605  34.574  1.00  0.00    -0.014 A 
ATOM     66  C   UNL A   1      45.623  28.166  34.588  1.00  0.00     0.009 A 
ATOM     67  C   UNL A   1      44.090  26.445  35.325  1.00  0.00     0.009 A 
ATOM     68  C   UNL A   1      46.648  27.560  35.318  1.00  0.00     0.001 A 
ATOM     69  C   UNL A   1      45.111  25.855  36.071  1.00  0.00     0.001 A 
ATOM     70  C   UNL A   1      46.391  26.407  36.062  1.00  0.00     0.000 A 
ENDBRANCH  51  65
BRANCH  52  71
ATOM     71  C   UNL A   1      36.889  31.456  29.207  1.00  0.00    -0.014 A 
ATOM     72  C   UNL A   1      35.771  30.665  28.905  1.00  0.00     0.009 A 
ATOM     73  C   UNL A   1      36.930  32.781  28.746  1.00  0.00     0.009 A 
ATOM     74  C   UNL A   1      34.725  31.185  28.140  1.00  0.00     0.001 A 
ATOM     75  C   UNL A   1      35.872  33.306  28.002  1.00  0.00     0.001 A 
ATOM     76  C   UNL A   1      34.774  32.504  27.692  1.00  0.00     0.000 A 
ENDBRANCH  52  71
BRANCH  64  77
ATOM     77  C   UNL A   1      39.171  32.499  35.699  1.00  0.00    -0.014 A 
ATOM     78  C   UNL A   1      38.256  32.045  36.660  1.00  0.00     0.009 A 
ATOM     79  C   UNL A   1      39.690  33.799  35.812  1.00  0.00     0.009 A 
ATOM     80  C   UNL A   1      37.850  32.885  37.700  1.00  0.00     0.001 A 
ATOM     81  C   UNL A   1      39.300  34.628  36.865  1.00  0.00     0.001 A 
ATOM     82  C   UNL A   1      38.375  34.172  37.804  1.00  0.00     0.000 A 
ENDBRANCH  64  77
ENDBRANCH  38  39
ENDBRANCH  31  33
ENDBRANCH  30  31
ENDBRANCH  29  30
ENDBRANCH  28  29
ENDBRANCH  27  28
ENDBRANCH   1  27
TORSDOF 20
ENDMDL
