MODEL 1
REMARK VINA RESULT:     -10.7      0.000      0.000
REMARK SMILES CCCCc1ncc(C[N@H+]2C[C@@H]3c4ccccc4OC[C@]3(C(=O)OCCOCCOC(=O)c3ccc(-c4c5nc(c(-c6ccccc6)c6ccc([nH]6)c(-c6ccccc6)c6nc(c(-c7ccccc7)c7ccc4[nH]7)C=C6)C=C5)cc3)C2)[nH]1
REMARK SMILES IDX 25 1 24 2 22 3 23 4 21 5 10 6 11 7 81 8 12 10 13 11 20 12
REMARK SMILES IDX 14 13 18 14 19 15 15 16 17 17 16 18 9 19 8 20 5 21 6 22
REMARK SMILES IDX 82 23 7 24 4 26 3 27 2 28 1 29 26 30 27 31 28 32 29 33 30 34
REMARK SMILES IDX 31 35 32 36 33 37 34 38 80 39 35 40 79 41 36 42 37 43 38 44
REMARK SMILES IDX 73 45 39 46 78 47 72 48 74 49 40 50 77 51 71 52 70 53 41 55
REMARK SMILES IDX 63 56 48 57 62 58 49 59 52 60 61 61 75 62 50 63 51 64 60 66
REMARK SMILES IDX 76 67 53 68 42 69 43 70 47 71 44 72 46 73 45 74 64 75 65 76
REMARK SMILES IDX 69 77 66 78 68 79 67 80 54 81 55 82 59 83 56 84 58 85 57 86
REMARK H PARENT 10 9 82 25 74 54 52 65
REMARK Flexibility Score: inf
ROOT
ATOM      1  C   UNL A   1      32.669  27.988  27.211  1.00  0.00     0.261 C 
ENDROOT
BRANCH   1   2
ATOM      2  O   UNL A   1      32.951  26.747  26.524  1.00  0.00    -0.463 OA
BRANCH   2   3
ATOM      3  C   UNL A   1      32.011  25.786  26.208  1.00  0.00     0.322 C 
ATOM      4  O   UNL A   1      30.903  25.691  26.701  1.00  0.00    -0.251 OA
BRANCH   3   5
ATOM      5  C   UNL A   1      32.654  24.904  25.113  1.00  0.00     0.162 C 
ATOM      6  N   UNL A   1      32.767  25.502  22.746  1.00  0.00    -0.328 N 
ATOM      7  C   UNL A   1      34.030  24.890  23.131  1.00  0.00     0.272 C 
ATOM      8  C   UNL A   1      31.844  25.279  23.850  1.00  0.00     0.286 C 
ATOM      9  H   UNL A   1      32.395  25.053  21.909  1.00  0.00     0.348 HD
ATOM     10  C   UNL A   1      34.128  24.989  24.668  1.00  0.00     0.105 C 
ATOM     11  C   UNL A   1      35.029  23.839  25.086  1.00  0.00     0.004 A 
ATOM     12  C   UNL A   1      32.385  23.525  25.714  1.00  0.00     0.255 C 
ATOM     13  C   UNL A   1      36.413  23.861  24.874  1.00  0.00     0.008 A 
ATOM     14  C   UNL A   1      34.467  22.629  25.486  1.00  0.00     0.123 A 
ATOM     15  O   UNL A   1      33.136  22.408  25.305  1.00  0.00    -0.492 OA
ATOM     16  C   UNL A   1      37.192  22.726  25.145  1.00  0.00     0.001 A 
ATOM     17  C   UNL A   1      35.236  21.533  25.865  1.00  0.00     0.047 A 
ATOM     18  C   UNL A   1      36.613  21.582  25.693  1.00  0.00     0.004 A 
BRANCH   6  19
ATOM     19  C   UNL A   1      32.858  26.865  22.223  1.00  0.00     0.319 C 
BRANCH  19  20
ATOM     20  C   UNL A   1      31.815  27.804  22.704  1.00  0.00     0.090 A 
ATOM     21  C   UNL A   1      29.848  28.799  22.973  1.00  0.00     0.106 A 
ATOM     22  N   UNL A   1      30.630  29.307  23.902  1.00  0.00    -0.241 NA
ATOM     23  N   UNL A   1      30.554  27.930  22.174  1.00  0.00    -0.341 N 
ATOM     24  C   UNL A   1      31.844  28.709  23.742  1.00  0.00     0.140 A 
ATOM     25  H   UNL A   1      30.216  27.480  21.367  1.00  0.00     0.168 HD
BRANCH  21  26
ATOM     26  C   UNL A   1      28.400  29.079  22.752  1.00  0.00     0.075 C 
BRANCH  26  27
ATOM     27  C   UNL A   1      27.946  30.466  23.226  1.00  0.00     0.008 C 
BRANCH  27  28
ATOM     28  C   UNL A   1      27.950  31.590  22.181  1.00  0.00    -0.003 C 
ATOM     29  C   UNL A   1      28.762  32.811  22.579  1.00  0.00     0.004 C 
ENDBRANCH  27  28
ENDBRANCH  26  27
ENDBRANCH  21  26
ENDBRANCH  19  20
ENDBRANCH   6  19
ENDBRANCH   3   5
ENDBRANCH   2   3
ENDBRANCH   1   2
BRANCH   1  30
ATOM     30  C   UNL A   1      33.832  28.967  26.893  1.00  0.00     0.202 C 
BRANCH  30  31
ATOM     31  O   UNL A   1      33.583  30.379  26.970  1.00  0.00    -0.374 OA
BRANCH  31  32
ATOM     32  C   UNL A   1      32.240  30.844  26.896  1.00  0.00     0.202 C 
BRANCH  32  33
ATOM     33  C   UNL A   1      31.960  32.338  27.172  1.00  0.00     0.261 C 
BRANCH  33  34
ATOM     34  O   UNL A   1      33.127  33.162  27.073  1.00  0.00    -0.460 OA
BRANCH  34  35
ATOM     35  C   UNL A   1      33.282  33.978  28.139  1.00  0.00     0.338 C 
ATOM     36  O   UNL A   1      32.506  34.839  28.537  1.00  0.00    -0.246 OA
BRANCH  35  37
ATOM     37  C   UNL A   1      34.467  33.583  28.906  1.00  0.00     0.060 A 
ATOM     38  C   UNL A   1      34.401  32.683  29.972  1.00  0.00     0.016 A 
ATOM     39  C   UNL A   1      35.697  34.091  28.469  1.00  0.00     0.016 A 
ATOM     40  C   UNL A   1      35.588  32.257  30.572  1.00  0.00     0.010 A 
ATOM     41  C   UNL A   1      36.877  33.654  29.059  1.00  0.00     0.010 A 
ATOM     42  C   UNL A   1      36.834  32.715  30.097  1.00  0.00    -0.014 A 
BRANCH  42  43
ATOM     43  C   UNL A   1      38.092  32.102  30.585  1.00  0.00     0.031 A 
ATOM     44  C   UNL A   1      38.885  32.717  31.697  1.00  0.00     0.074 A 
ATOM     45  C   UNL A   1      38.537  30.989  29.971  1.00  0.00     0.049 A 
ATOM     46  N   UNL A   1      39.946  32.246  32.301  1.00  0.00    -0.248 NA
ATOM     47  C   UNL A   1      38.443  34.030  32.189  1.00  0.00     0.031 C 
ATOM     48  C   UNL A   1      37.881  30.344  28.832  1.00  0.00     0.029 A 
ATOM     49  N   UNL A   1      39.631  30.198  30.218  1.00  0.00    -0.354 N 
ATOM     50  C   UNL A   1      40.288  33.193  33.256  1.00  0.00     0.074 A 
ATOM     51  C   UNL A   1      39.358  34.292  33.114  1.00  0.00     0.031 C 
ATOM     52  C   UNL A   1      38.553  29.228  28.515  1.00  0.00     0.029 A 
ATOM     53  C   UNL A   1      39.706  29.096  29.400  1.00  0.00     0.049 A 
ATOM     54  H   UNL A   1      40.296  30.399  30.916  1.00  0.00     0.167 HD
ATOM     55  C   UNL A   1      41.279  33.133  34.178  1.00  0.00     0.031 A 
ATOM     56  C   UNL A   1      40.592  28.082  29.372  1.00  0.00     0.031 A 
ATOM     57  C   UNL A   1      42.214  32.043  34.287  1.00  0.00     0.049 A 
ATOM     58  C   UNL A   1      41.689  28.044  30.398  1.00  0.00     0.074 A 
ATOM     59  C   UNL A   1      43.221  31.868  35.220  1.00  0.00     0.029 A 
ATOM     60  N   UNL A   1      42.272  30.953  33.428  1.00  0.00    -0.354 N 
ATOM     61  N   UNL A   1      41.938  28.891  31.368  1.00  0.00    -0.248 NA
ATOM     62  C   UNL A   1      42.612  26.902  30.346  1.00  0.00     0.031 C 
ATOM     63  C   UNL A   1      43.939  30.720  34.877  1.00  0.00     0.029 A 
ATOM     64  C   UNL A   1      43.321  30.124  33.790  1.00  0.00     0.049 A 
ATOM     65  H   UNL A   1      41.658  30.794  32.675  1.00  0.00     0.167 HD
ATOM     66  C   UNL A   1      43.026  28.373  32.058  1.00  0.00     0.074 A 
ATOM     67  C   UNL A   1      43.377  27.128  31.407  1.00  0.00     0.031 C 
ATOM     68  C   UNL A   1      43.670  28.886  33.136  1.00  0.00     0.031 A 
BRANCH  55  69
ATOM     69  C   UNL A   1      41.408  34.270  35.156  1.00  0.00    -0.014 A 
ATOM     70  C   UNL A   1      40.712  34.230  36.377  1.00  0.00     0.009 A 
ATOM     71  C   UNL A   1      42.124  35.431  34.826  1.00  0.00     0.009 A 
ATOM     72  C   UNL A   1      40.716  35.333  37.233  1.00  0.00     0.001 A 
ATOM     73  C   UNL A   1      42.155  36.520  35.701  1.00  0.00     0.001 A 
ATOM     74  C   UNL A   1      41.441  36.475  36.897  1.00  0.00     0.000 A 
ENDBRANCH  55  69
BRANCH  56  75
ATOM     75  C   UNL A   1      40.413  26.993  28.374  1.00  0.00    -0.014 A 
ATOM     76  C   UNL A   1      41.015  27.079  27.107  1.00  0.00     0.009 A 
ATOM     77  C   UNL A   1      39.575  25.903  28.649  1.00  0.00     0.009 A 
ATOM     78  C   UNL A   1      40.752  26.119  26.128  1.00  0.00     0.001 A 
ATOM     79  C   UNL A   1      39.342  24.924  27.680  1.00  0.00     0.001 A 
ATOM     80  C   UNL A   1      39.919  25.040  26.416  1.00  0.00     0.000 A 
ENDBRANCH  56  75
BRANCH  68  81
ATOM     81  C   UNL A   1      44.823  28.105  33.710  1.00  0.00    -0.014 A 
ATOM     82  C   UNL A   1      46.116  28.296  33.193  1.00  0.00     0.009 A 
ATOM     83  C   UNL A   1      44.623  27.105  34.674  1.00  0.00     0.009 A 
ATOM     84  C   UNL A   1      47.177  27.490  33.610  1.00  0.00     0.001 A 
ATOM     85  C   UNL A   1      45.695  26.327  35.119  1.00  0.00     0.001 A 
ATOM     86  C   UNL A   1      46.966  26.510  34.577  1.00  0.00     0.000 A 
ENDBRANCH  68  81
ENDBRANCH  42  43
ENDBRANCH  35  37
ENDBRANCH  34  35
ENDBRANCH  33  34
ENDBRANCH  32  33
ENDBRANCH  31  32
ENDBRANCH  30  31
ENDBRANCH   1  30
TORSDOF 19
ENDMDL
MODEL 2
REMARK VINA RESULT:     -10.6      0.608      5.708
REMARK SMILES CCCCc1ncc(C[N@H+]2C[C@@H]3c4ccccc4OC[C@]3(C(=O)OCCOCCOC(=O)c3ccc(-c4c5nc(c(-c6ccccc6)c6ccc([nH]6)c(-c6ccccc6)c6nc(c(-c7ccccc7)c7ccc4[nH]7)C=C6)C=C5)cc3)C2)[nH]1
REMARK SMILES IDX 25 1 24 2 22 3 23 4 21 5 10 6 11 7 81 8 12 10 13 11 20 12
REMARK SMILES IDX 14 13 18 14 19 15 15 16 17 17 16 18 9 19 8 20 5 21 6 22
REMARK SMILES IDX 82 23 7 24 4 26 3 27 2 28 1 29 26 30 27 31 28 32 29 33 30 34
REMARK SMILES IDX 31 35 32 36 33 37 34 38 80 39 35 40 79 41 36 42 37 43 38 44
REMARK SMILES IDX 73 45 39 46 78 47 72 48 74 49 40 50 77 51 71 52 70 53 41 55
REMARK SMILES IDX 63 56 48 57 62 58 49 59 52 60 61 61 75 62 50 63 51 64 60 66
REMARK SMILES IDX 76 67 53 68 42 69 43 70 47 71 44 72 46 73 45 74 64 75 65 76
REMARK SMILES IDX 69 77 66 78 68 79 67 80 54 81 55 82 59 83 56 84 58 85 57 86
REMARK H PARENT 10 9 82 25 74 54 52 65
REMARK Flexibility Score: inf
ROOT
ATOM      1  C   UNL A   1      32.659  27.956  27.263  1.00  0.00     0.261 C 
ENDROOT
BRANCH   1   2
ATOM      2  O   UNL A   1      32.907  26.713  26.566  1.00  0.00    -0.463 OA
BRANCH   2   3
ATOM      3  C   UNL A   1      31.934  25.808  26.191  1.00  0.00     0.322 C 
ATOM      4  O   UNL A   1      30.807  25.751  26.648  1.00  0.00    -0.251 OA
BRANCH   3   5
ATOM      5  C   UNL A   1      32.568  24.930  25.089  1.00  0.00     0.162 C 
ATOM      6  N   UNL A   1      32.729  25.569  22.735  1.00  0.00    -0.328 N 
ATOM      7  C   UNL A   1      33.970  24.916  23.125  1.00  0.00     0.272 C 
ATOM      8  C   UNL A   1      31.785  25.349  23.823  1.00  0.00     0.286 C 
ATOM      9  H   UNL A   1      32.357  25.145  21.885  1.00  0.00     0.348 HD
ATOM     10  C   UNL A   1      34.050  24.984  24.665  1.00  0.00     0.105 C 
ATOM     11  C   UNL A   1      34.915  23.804  25.073  1.00  0.00     0.004 A 
ATOM     12  C   UNL A   1      32.255  23.547  25.661  1.00  0.00     0.255 C 
ATOM     13  C   UNL A   1      36.302  23.794  24.880  1.00  0.00     0.008 A 
ATOM     14  C   UNL A   1      34.317  22.602  25.443  1.00  0.00     0.123 A 
ATOM     15  O   UNL A   1      32.983  22.419  25.240  1.00  0.00    -0.492 OA
ATOM     16  C   UNL A   1      37.048  22.634  25.139  1.00  0.00     0.001 A 
ATOM     17  C   UNL A   1      35.052  21.479  25.810  1.00  0.00     0.047 A 
ATOM     18  C   UNL A   1      36.432  21.496  25.658  1.00  0.00     0.004 A 
BRANCH   6  19
ATOM     19  C   UNL A   1      32.862  26.938  22.239  1.00  0.00     0.319 C 
BRANCH  19  20
ATOM     20  C   UNL A   1      31.827  27.891  22.712  1.00  0.00     0.090 A 
ATOM     21  C   UNL A   1      29.886  28.947  22.926  1.00  0.00     0.106 A 
ATOM     22  N   UNL A   1      30.632  29.375  23.922  1.00  0.00    -0.241 NA
ATOM     23  N   UNL A   1      30.604  28.093  22.122  1.00  0.00    -0.341 N 
ATOM     24  C   UNL A   1      31.831  28.740  23.797  1.00  0.00     0.140 A 
ATOM     25  H   UNL A   1      30.296  27.699  21.274  1.00  0.00     0.168 HD
BRANCH  21  26
ATOM     26  C   UNL A   1      28.464  29.295  22.641  1.00  0.00     0.075 C 
BRANCH  26  27
ATOM     27  C   UNL A   1      27.983  30.585  23.317  1.00  0.00     0.008 C 
BRANCH  27  28
ATOM     28  C   UNL A   1      27.969  31.854  22.455  1.00  0.00    -0.003 C 
ATOM     29  C   UNL A   1      28.819  32.990  22.999  1.00  0.00     0.004 C 
ENDBRANCH  27  28
ENDBRANCH  26  27
ENDBRANCH  21  26
ENDBRANCH  19  20
ENDBRANCH   6  19
ENDBRANCH   3   5
ENDBRANCH   2   3
ENDBRANCH   1   2
BRANCH   1  30
ATOM     30  C   UNL A   1      33.833  28.916  26.926  1.00  0.00     0.202 C 
BRANCH  30  31
ATOM     31  O   UNL A   1      33.600  30.331  26.977  1.00  0.00    -0.374 OA
BRANCH  31  32
ATOM     32  C   UNL A   1      32.261  30.810  26.892  1.00  0.00     0.202 C 
BRANCH  32  33
ATOM     33  C   UNL A   1      31.992  32.304  27.180  1.00  0.00     0.261 C 
BRANCH  33  34
ATOM     34  O   UNL A   1      33.166  33.119  27.094  1.00  0.00    -0.460 OA
BRANCH  34  35
ATOM     35  C   UNL A   1      33.330  33.913  28.175  1.00  0.00     0.338 C 
ATOM     36  O   UNL A   1      32.539  34.738  28.620  1.00  0.00    -0.246 OA
BRANCH  35  37
ATOM     37  C   UNL A   1      34.553  33.541  28.892  1.00  0.00     0.060 A 
ATOM     38  C   UNL A   1      34.527  32.815  30.085  1.00  0.00     0.016 A 
ATOM     39  C   UNL A   1      35.767  33.879  28.282  1.00  0.00     0.016 A 
ATOM     40  C   UNL A   1      35.734  32.387  30.642  1.00  0.00     0.010 A 
ATOM     41  C   UNL A   1      36.966  33.440  28.832  1.00  0.00     0.010 A 
ATOM     42  C   UNL A   1      36.958  32.669  30.001  1.00  0.00    -0.014 A 
BRANCH  42  43
ATOM     43  C   UNL A   1      38.213  32.035  30.470  1.00  0.00     0.031 A 
ATOM     44  C   UNL A   1      38.677  30.719  29.926  1.00  0.00     0.074 A 
ATOM     45  C   UNL A   1      38.915  32.653  31.439  1.00  0.00     0.049 A 
ATOM     46  N   UNL A   1      39.800  30.089  30.159  1.00  0.00    -0.248 NA
ATOM     47  C   UNL A   1      37.766  30.010  29.015  1.00  0.00     0.031 C 
ATOM     48  C   UNL A   1      38.519  33.904  32.088  1.00  0.00     0.029 A 
ATOM     49  N   UNL A   1      40.106  32.328  32.037  1.00  0.00    -0.354 N 
ATOM     50  C   UNL A   1      39.742  28.922  29.411  1.00  0.00     0.074 A 
ATOM     51  C   UNL A   1      38.449  28.901  28.761  1.00  0.00     0.031 C 
ATOM     52  C   UNL A   1      39.475  34.268  32.955  1.00  0.00     0.029 A 
ATOM     53  C   UNL A   1      40.533  33.262  32.951  1.00  0.00     0.049 A 
ATOM     54  H   UNL A   1      40.607  31.506  31.831  1.00  0.00     0.167 HD
ATOM     55  C   UNL A   1      40.693  27.969  29.269  1.00  0.00     0.031 A 
ATOM     56  C   UNL A   1      41.656  33.316  33.692  1.00  0.00     0.031 A 
ATOM     57  C   UNL A   1      41.965  27.992  29.947  1.00  0.00     0.049 A 
ATOM     58  C   UNL A   1      42.691  32.240  33.525  1.00  0.00     0.074 A 
ATOM     59  C   UNL A   1      43.014  27.097  29.829  1.00  0.00     0.029 A 
ATOM     60  N   UNL A   1      42.354  28.943  30.879  1.00  0.00    -0.354 N 
ATOM     61  N   UNL A   1      42.673  31.197  32.731  1.00  0.00    -0.248 NA
ATOM     62  C   UNL A   1      43.913  32.359  34.332  1.00  0.00     0.031 C 
ATOM     63  C   UNL A   1      44.001  27.459  30.748  1.00  0.00     0.029 A 
ATOM     64  C   UNL A   1      43.612  28.635  31.370  1.00  0.00     0.049 A 
ATOM     65  H   UNL A   1      41.816  29.722  31.151  1.00  0.00     0.167 HD
ATOM     66  C   UNL A   1      43.887  30.550  32.922  1.00  0.00     0.074 A 
ATOM     67  C   UNL A   1      44.626  31.330  33.892  1.00  0.00     0.031 C 
ATOM     68  C   UNL A   1      44.344  29.413  32.340  1.00  0.00     0.031 A 
BRANCH  55  69
ATOM     69  C   UNL A   1      40.412  26.817  28.341  1.00  0.00    -0.014 A 
ATOM     70  C   UNL A   1      40.884  26.850  27.017  1.00  0.00     0.009 A 
ATOM     71  C   UNL A   1      39.587  25.753  28.736  1.00  0.00     0.009 A 
ATOM     72  C   UNL A   1      40.519  25.855  26.108  1.00  0.00     0.001 A 
ATOM     73  C   UNL A   1      39.252  24.740  27.834  1.00  0.00     0.001 A 
ATOM     74  C   UNL A   1      39.708  24.799  26.518  1.00  0.00     0.000 A 
ENDBRANCH  55  69
BRANCH  56  75
ATOM     75  C   UNL A   1      41.870  34.477  34.597  1.00  0.00    -0.014 A 
ATOM     76  C   UNL A   1      42.587  35.604  34.159  1.00  0.00     0.009 A 
ATOM     77  C   UNL A   1      41.432  34.433  35.929  1.00  0.00     0.009 A 
ATOM     78  C   UNL A   1      42.891  36.642  35.043  1.00  0.00     0.001 A 
ATOM     79  C   UNL A   1      41.706  35.489  36.802  1.00  0.00     0.001 A 
ATOM     80  C   UNL A   1      42.447  36.586  36.362  1.00  0.00     0.000 A 
ENDBRANCH  56  75
BRANCH  68  81
ATOM     81  C   UNL A   1      45.721  28.930  32.713  1.00  0.00    -0.014 A 
ATOM     82  C   UNL A   1      45.886  28.109  33.842  1.00  0.00     0.009 A 
ATOM     83  C   UNL A   1      46.863  29.371  32.027  1.00  0.00     0.009 A 
ATOM     84  C   UNL A   1      47.161  27.759  34.290  1.00  0.00     0.001 A 
ATOM     85  C   UNL A   1      48.137  28.987  32.455  1.00  0.00     0.001 A 
ATOM     86  C   UNL A   1      48.286  28.195  33.592  1.00  0.00     0.000 A 
ENDBRANCH  68  81
ENDBRANCH  42  43
ENDBRANCH  35  37
ENDBRANCH  34  35
ENDBRANCH  33  34
ENDBRANCH  32  33
ENDBRANCH  31  32
ENDBRANCH  30  31
ENDBRANCH   1  30
TORSDOF 19
ENDMDL
MODEL 3
REMARK VINA RESULT:     -10.5      3.883      9.196
REMARK SMILES CCCCc1ncc(C[N@H+]2C[C@@H]3c4ccccc4OC[C@]3(C(=O)OCCOCCOC(=O)c3ccc(-c4c5nc(c(-c6ccccc6)c6ccc([nH]6)c(-c6ccccc6)c6nc(c(-c7ccccc7)c7ccc4[nH]7)C=C6)C=C5)cc3)C2)[nH]1
REMARK SMILES IDX 25 1 24 2 22 3 23 4 21 5 10 6 11 7 81 8 12 10 13 11 20 12
REMARK SMILES IDX 14 13 18 14 19 15 15 16 17 17 16 18 9 19 8 20 5 21 6 22
REMARK SMILES IDX 82 23 7 24 4 26 3 27 2 28 1 29 26 30 27 31 28 32 29 33 30 34
REMARK SMILES IDX 31 35 32 36 33 37 34 38 80 39 35 40 79 41 36 42 37 43 38 44
REMARK SMILES IDX 73 45 39 46 78 47 72 48 74 49 40 50 77 51 71 52 70 53 41 55
REMARK SMILES IDX 63 56 48 57 62 58 49 59 52 60 61 61 75 62 50 63 51 64 60 66
REMARK SMILES IDX 76 67 53 68 42 69 43 70 47 71 44 72 46 73 45 74 64 75 65 76
REMARK SMILES IDX 69 77 66 78 68 79 67 80 54 81 55 82 59 83 56 84 58 85 57 86
REMARK H PARENT 10 9 82 25 74 54 52 65
REMARK Flexibility Score: inf
ROOT
ATOM      1  C   UNL A   1      36.273  23.618  23.552  1.00  0.00     0.261 C 
ENDROOT
BRANCH   1   2
ATOM      2  O   UNL A   1      34.986  24.043  24.057  1.00  0.00    -0.463 OA
BRANCH   2   3
ATOM      3  C   UNL A   1      33.859  24.242  23.285  1.00  0.00     0.322 C 
ATOM      4  O   UNL A   1      33.735  23.921  22.117  1.00  0.00    -0.251 OA
BRANCH   3   5
ATOM      5  C   UNL A   1      32.822  24.921  24.208  1.00  0.00     0.162 C 
ATOM      6  N   UNL A   1      31.679  23.804  26.058  1.00  0.00    -0.328 N 
ATOM      7  C   UNL A   1      32.038  25.150  26.479  1.00  0.00     0.272 C 
ATOM      8  C   UNL A   1      31.906  23.744  24.621  1.00  0.00     0.286 C 
ATOM      9  H   UNL A   1      30.692  23.626  26.243  1.00  0.00     0.348 HD
ATOM     10  C   UNL A   1      33.159  25.633  25.534  1.00  0.00     0.105 C 
ATOM     11  C   UNL A   1      33.055  27.149  25.534  1.00  0.00     0.004 A 
ATOM     12  C   UNL A   1      32.235  25.933  23.225  1.00  0.00     0.255 C 
ATOM     13  C   UNL A   1      33.471  27.925  26.622  1.00  0.00     0.008 A 
ATOM     14  C   UNL A   1      32.329  27.793  24.536  1.00  0.00     0.123 A 
ATOM     15  O   UNL A   1      31.546  27.067  23.691  1.00  0.00    -0.492 OA
ATOM     16  C   UNL A   1      33.232  29.308  26.643  1.00  0.00     0.001 A 
ATOM     17  C   UNL A   1      32.182  29.176  24.488  1.00  0.00     0.047 A 
ATOM     18  C   UNL A   1      32.639  29.941  25.552  1.00  0.00     0.004 A 
BRANCH   6  19
ATOM     19  C   UNL A   1      32.237  22.719  26.864  1.00  0.00     0.319 C 
BRANCH  19  20
ATOM     20  C   UNL A   1      32.895  21.630  26.099  1.00  0.00     0.090 A 
ATOM     21  C   UNL A   1      33.182  19.876  24.769  1.00  0.00     0.106 A 
ATOM     22  N   UNL A   1      34.390  20.341  25.005  1.00  0.00    -0.241 NA
ATOM     23  N   UNL A   1      32.246  20.592  25.477  1.00  0.00    -0.341 N 
ATOM     24  C   UNL A   1      34.228  21.415  25.828  1.00  0.00     0.140 A 
ATOM     25  H   UNL A   1      31.283  20.394  25.530  1.00  0.00     0.168 HD
BRANCH  21  26
ATOM     26  C   UNL A   1      32.804  18.739  23.880  1.00  0.00     0.075 C 
BRANCH  26  27
ATOM     27  C   UNL A   1      32.536  17.423  24.621  1.00  0.00     0.008 C 
BRANCH  27  28
ATOM     28  C   UNL A   1      33.422  16.227  24.248  1.00  0.00    -0.003 C 
ATOM     29  C   UNL A   1      34.740  16.165  25.000  1.00  0.00     0.004 C 
ENDBRANCH  27  28
ENDBRANCH  26  27
ENDBRANCH  21  26
ENDBRANCH  19  20
ENDBRANCH   6  19
ENDBRANCH   3   5
ENDBRANCH   2   3
ENDBRANCH   1   2
BRANCH   1  30
ATOM     30  C   UNL A   1      37.118  23.158  24.771  1.00  0.00     0.202 C 
BRANCH  30  31
ATOM     31  O   UNL A   1      37.635  21.819  24.783  1.00  0.00    -0.374 OA
BRANCH  31  32
ATOM     32  C   UNL A   1      38.622  21.472  25.750  1.00  0.00     0.202 C 
BRANCH  32  33
ATOM     33  C   UNL A   1      39.402  20.152  25.567  1.00  0.00     0.261 C 
BRANCH  33  34
ATOM     34  O   UNL A   1      40.391  19.932  26.579  1.00  0.00    -0.460 OA
BRANCH  34  35
ATOM     35  C   UNL A   1      41.653  20.029  26.105  1.00  0.00     0.338 C 
ATOM     36  O   UNL A   1      42.241  19.233  25.382  1.00  0.00    -0.246 OA
BRANCH  35  37
ATOM     37  C   UNL A   1      42.214  21.344  26.434  1.00  0.00     0.060 A 
ATOM     38  C   UNL A   1      42.579  22.266  25.450  1.00  0.00     0.016 A 
ATOM     39  C   UNL A   1      42.294  21.672  27.792  1.00  0.00     0.016 A 
ATOM     40  C   UNL A   1      42.984  23.545  25.840  1.00  0.00     0.010 A 
ATOM     41  C   UNL A   1      42.685  22.949  28.176  1.00  0.00     0.010 A 
ATOM     42  C   UNL A   1      43.009  23.903  27.203  1.00  0.00    -0.014 A 
BRANCH  42  43
ATOM     43  C   UNL A   1      43.227  25.314  27.602  1.00  0.00     0.031 A 
ATOM     44  C   UNL A   1      42.081  26.241  27.864  1.00  0.00     0.074 A 
ATOM     45  C   UNL A   1      44.494  25.763  27.685  1.00  0.00     0.049 A 
ATOM     46  N   UNL A   1      42.110  27.468  28.320  1.00  0.00    -0.248 NA
ATOM     47  C   UNL A   1      40.731  25.739  27.568  1.00  0.00     0.031 C 
ATOM     48  C   UNL A   1      45.685  24.964  27.385  1.00  0.00     0.029 A 
ATOM     49  N   UNL A   1      44.996  26.985  28.054  1.00  0.00    -0.354 N 
ATOM     50  C   UNL A   1      40.786  27.878  28.384  1.00  0.00     0.074 A 
ATOM     51  C   UNL A   1      39.981  26.793  27.867  1.00  0.00     0.031 C 
ATOM     52  C   UNL A   1      46.778  25.699  27.634  1.00  0.00     0.029 A 
ATOM     53  C   UNL A   1      46.369  27.030  28.075  1.00  0.00     0.049 A 
ATOM     54  H   UNL A   1      44.427  27.755  28.284  1.00  0.00     0.167 HD
ATOM     55  C   UNL A   1      40.294  29.050  28.853  1.00  0.00     0.031 A 
ATOM     56  C   UNL A   1      47.211  28.022  28.425  1.00  0.00     0.031 A 
ATOM     57  C   UNL A   1      41.113  30.132  29.338  1.00  0.00     0.049 A 
ATOM     58  C   UNL A   1      46.640  29.317  28.930  1.00  0.00     0.074 A 
ATOM     59  C   UNL A   1      40.705  31.338  29.880  1.00  0.00     0.029 A 
ATOM     60  N   UNL A   1      42.501  30.148  29.326  1.00  0.00    -0.354 N 
ATOM     61  N   UNL A   1      45.383  29.655  29.091  1.00  0.00    -0.248 NA
ATOM     62  C   UNL A   1      47.598  30.357  29.329  1.00  0.00     0.031 C 
ATOM     63  C   UNL A   1      41.840  32.116  30.116  1.00  0.00     0.029 A 
ATOM     64  C   UNL A   1      42.961  31.359  29.816  1.00  0.00     0.049 A 
ATOM     65  H   UNL A   1      43.072  29.410  29.015  1.00  0.00     0.167 HD
ATOM     66  C   UNL A   1      45.398  30.933  29.633  1.00  0.00     0.074 A 
ATOM     67  C   UNL A   1      46.789  31.302  29.792  1.00  0.00     0.031 C 
ATOM     68  C   UNL A   1      44.349  31.725  29.969  1.00  0.00     0.031 A 
BRANCH  55  69
ATOM     69  C   UNL A   1      38.800  29.234  28.878  1.00  0.00    -0.014 A 
ATOM     70  C   UNL A   1      38.132  29.716  27.740  1.00  0.00     0.009 A 
ATOM     71  C   UNL A   1      38.066  29.040  30.059  1.00  0.00     0.009 A 
ATOM     72  C   UNL A   1      36.770  30.018  27.790  1.00  0.00     0.001 A 
ATOM     73  C   UNL A   1      36.696  29.309  30.096  1.00  0.00     0.001 A 
ATOM     74  C   UNL A   1      36.051  29.810  28.966  1.00  0.00     0.000 A 
ENDBRANCH  55  69
BRANCH  56  75
ATOM     75  C   UNL A   1      48.677  27.779  28.369  1.00  0.00    -0.014 A 
ATOM     76  C   UNL A   1      49.400  28.034  27.191  1.00  0.00     0.009 A 
ATOM     77  C   UNL A   1      49.350  27.214  29.463  1.00  0.00     0.009 A 
ATOM     78  C   UNL A   1      50.752  27.695  27.098  1.00  0.00     0.001 A 
ATOM     79  C   UNL A   1      50.711  26.910  29.380  1.00  0.00     0.001 A 
ATOM     80  C   UNL A   1      51.408  27.137  28.193  1.00  0.00     0.000 A 
ENDBRANCH  56  75
BRANCH  68  81
ATOM     81  C   UNL A   1      44.644  33.078  30.563  1.00  0.00    -0.014 A 
ATOM     82  C   UNL A   1      44.752  33.214  31.958  1.00  0.00     0.009 A 
ATOM     83  C   UNL A   1      44.701  34.231  29.766  1.00  0.00     0.009 A 
ATOM     84  C   UNL A   1      44.888  34.474  32.543  1.00  0.00     0.001 A 
ATOM     85  C   UNL A   1      44.877  35.488  30.352  1.00  0.00     0.001 A 
ATOM     86  C   UNL A   1      44.956  35.609  31.738  1.00  0.00     0.000 A 
ENDBRANCH  68  81
ENDBRANCH  42  43
ENDBRANCH  35  37
ENDBRANCH  34  35
ENDBRANCH  33  34
ENDBRANCH  32  33
ENDBRANCH  31  32
ENDBRANCH  30  31
ENDBRANCH   1  30
TORSDOF 19
ENDMDL
