MODEL 1
REMARK VINA RESULT:     -10.5      0.000      0.000
REMARK SMILES O=C(CCc1ccccc1)Nc1ccccc1Oc1ccsc1C(=O)OCCOCCOC(=O)c1ccc(-c2c3nc(c(-c4ccccc4)c4ccc([nH]4)c(-c4ccccc4)c4nc(c(-c5ccccc5)c5ccc2[nH]5)C=C4)C=C3)cc1
REMARK SMILES IDX 27 1 26 2 24 3 25 4 23 5 19 6 20 7 21 8 22 9 18 10 17 11
REMARK SMILES IDX 12 12 13 13 14 14 16 15 15 16 11 17 1 18 2 19 3 21 4 22 5 23
REMARK SMILES IDX 6 24 10 25 7 26 9 27 8 28 28 29 29 30 30 31 31 32 32 33
REMARK SMILES IDX 33 34 34 35 35 36 36 37 82 38 37 39 81 40 38 41 39 42 40 43
REMARK SMILES IDX 75 44 41 45 80 46 74 47 76 48 42 49 79 50 73 51 72 52 43 54
REMARK SMILES IDX 65 55 50 56 64 57 51 58 54 59 63 60 77 61 52 62 53 63 62 65
REMARK SMILES IDX 78 66 55 67 44 68 45 69 49 70 46 71 48 72 47 73 66 74 67 75
REMARK SMILES IDX 71 76 68 77 70 78 69 79 56 80 57 81 61 82 58 83 60 84 59 85
REMARK H PARENT 11 20 76 53 54 64
REMARK Flexibility Score: inf
ROOT
ATOM      1  C   UNL A   1      37.395  22.646  25.415  1.00  0.00     0.261 C 
ENDROOT
BRANCH   1   2
ATOM      2  O   UNL A   1      36.313  23.325  26.082  1.00  0.00    -0.459 OA
BRANCH   2   3
ATOM      3  C   UNL A   1      35.310  23.793  25.285  1.00  0.00     0.352 C 
ATOM      4  O   UNL A   1      35.499  24.211  24.141  1.00  0.00    -0.245 OA
BRANCH   3   5
ATOM      5  C   UNL A   1      34.018  23.771  25.955  1.00  0.00     0.155 A 
ATOM      6  C   UNL A   1      33.006  24.715  26.070  1.00  0.00     0.152 A 
ATOM      7  C   UNL A   1      31.881  24.225  26.808  1.00  0.00     0.060 A 
ATOM      8  C   UNL A   1      32.108  22.970  27.326  1.00  0.00     0.070 A 
ATOM      9  S   UNL A   1      33.620  22.349  26.850  1.00  0.00    -0.133 S 
BRANCH   6  10
ATOM     10  O   UNL A   1      33.148  25.949  25.525  1.00  0.00    -0.453 OA
BRANCH  10  11
ATOM     11  C   UNL A   1      32.361  26.451  24.513  1.00  0.00     0.151 A 
ATOM     12  C   UNL A   1      32.035  25.828  23.292  1.00  0.00     0.084 A 
ATOM     13  C   UNL A   1      31.218  26.518  22.379  1.00  0.00     0.030 A 
ATOM     14  C   UNL A   1      30.663  27.760  22.698  1.00  0.00     0.002 A 
ATOM     15  C   UNL A   1      31.803  27.706  24.816  1.00  0.00     0.049 A 
ATOM     16  C   UNL A   1      30.953  28.353  23.920  1.00  0.00     0.004 A 
BRANCH  12  17
ATOM     17  N   UNL A   1      32.456  24.548  22.858  1.00  0.00    -0.323 N 
ATOM     18  O   UNL A   1      30.639  23.315  23.449  1.00  0.00    -0.275 OA
ATOM     19  C   UNL A   1      31.815  23.367  23.110  1.00  0.00     0.224 C 
ATOM     20  H   UNL A   1      33.284  24.504  22.328  1.00  0.00     0.170 HD
BRANCH  19  21
ATOM     21  C   UNL A   1      32.620  22.081  23.019  1.00  0.00     0.105 C 
BRANCH  21  22
ATOM     22  C   UNL A   1      32.125  20.903  23.844  1.00  0.00     0.045 C 
BRANCH  22  23
ATOM     23  C   UNL A   1      32.844  19.584  23.677  1.00  0.00    -0.048 A 
ATOM     24  C   UNL A   1      33.953  19.333  24.496  1.00  0.00     0.004 A 
ATOM     25  C   UNL A   1      32.442  18.589  22.774  1.00  0.00     0.004 A 
ATOM     26  C   UNL A   1      34.570  18.083  24.494  1.00  0.00     0.000 A 
ATOM     27  C   UNL A   1      33.027  17.324  22.805  1.00  0.00     0.000 A 
ATOM     28  C   UNL A   1      34.083  17.068  23.674  1.00  0.00     0.000 A 
ENDBRANCH  22  23
ENDBRANCH  21  22
ENDBRANCH  19  21
ENDBRANCH  12  17
ENDBRANCH  10  11
ENDBRANCH   6  10
ENDBRANCH   3   5
ENDBRANCH   2   3
ENDBRANCH   1   2
BRANCH   1  29
ATOM     29  C   UNL A   1      36.970  21.301  24.822  1.00  0.00     0.202 C 
BRANCH  29  30
ATOM     30  O   UNL A   1      37.926  20.242  24.882  1.00  0.00    -0.374 OA
BRANCH  30  31
ATOM     31  C   UNL A   1      39.132  20.558  25.582  1.00  0.00     0.202 C 
BRANCH  31  32
ATOM     32  C   UNL A   1      40.015  19.349  25.951  1.00  0.00     0.261 C 
BRANCH  32  33
ATOM     33  O   UNL A   1      41.275  19.350  25.249  1.00  0.00    -0.460 OA
BRANCH  33  34
ATOM     34  C   UNL A   1      42.367  19.550  26.020  1.00  0.00     0.338 C 
ATOM     35  O   UNL A   1      43.336  18.820  26.147  1.00  0.00    -0.246 OA
BRANCH  34  36
ATOM     36  C   UNL A   1      42.348  20.920  26.571  1.00  0.00     0.060 A 
ATOM     37  C   UNL A   1      42.627  21.966  25.684  1.00  0.00     0.016 A 
ATOM     38  C   UNL A   1      42.137  21.180  27.927  1.00  0.00     0.016 A 
ATOM     39  C   UNL A   1      42.731  23.275  26.151  1.00  0.00     0.010 A 
ATOM     40  C   UNL A   1      42.258  22.495  28.398  1.00  0.00     0.010 A 
ATOM     41  C   UNL A   1      42.580  23.546  27.517  1.00  0.00    -0.014 A 
BRANCH  41  42
ATOM     42  C   UNL A   1      42.847  24.918  28.021  1.00  0.00     0.031 A 
ATOM     43  C   UNL A   1      44.257  25.334  28.344  1.00  0.00     0.074 A 
ATOM     44  C   UNL A   1      41.844  25.806  28.144  1.00  0.00     0.049 A 
ATOM     45  N   UNL A   1      44.698  26.478  28.802  1.00  0.00    -0.248 NA
ATOM     46  C   UNL A   1      45.309  24.330  28.118  1.00  0.00     0.031 C 
ATOM     47  C   UNL A   1      40.443  25.551  27.810  1.00  0.00     0.029 A 
ATOM     48  N   UNL A   1      41.853  27.107  28.583  1.00  0.00    -0.354 N 
ATOM     49  C   UNL A   1      46.075  26.331  28.928  1.00  0.00     0.074 A 
ATOM     50  C   UNL A   1      46.393  24.979  28.521  1.00  0.00     0.031 C 
ATOM     51  C   UNL A   1      39.728  26.662  28.053  1.00  0.00     0.029 A 
ATOM     52  C   UNL A   1      40.610  27.691  28.599  1.00  0.00     0.049 A 
ATOM     53  H   UNL A   1      42.672  27.577  28.859  1.00  0.00     0.167 HD
ATOM     54  C   UNL A   1      46.990  27.239  29.344  1.00  0.00     0.031 A 
ATOM     55  C   UNL A   1      40.221  28.907  29.029  1.00  0.00     0.031 A 
ATOM     56  C   UNL A   1      46.675  28.583  29.757  1.00  0.00     0.049 A 
ATOM     57  C   UNL A   1      41.248  29.862  29.579  1.00  0.00     0.074 A 
ATOM     58  C   UNL A   1      47.542  29.582  30.169  1.00  0.00     0.029 A 
ATOM     59  N   UNL A   1      45.396  29.112  29.822  1.00  0.00    -0.354 N 
ATOM     60  N   UNL A   1      42.549  29.720  29.664  1.00  0.00    -0.248 NA
ATOM     61  C   UNL A   1      40.751  31.147  30.092  1.00  0.00     0.031 C 
ATOM     62  C   UNL A   1      46.782  30.690  30.552  1.00  0.00     0.029 A 
ATOM     63  C   UNL A   1      45.447  30.408  30.311  1.00  0.00     0.049 A 
ATOM     64  H   UNL A   1      44.575  28.639  29.560  1.00  0.00     0.167 HD
ATOM     65  C   UNL A   1      43.025  30.905  30.214  1.00  0.00     0.074 A 
ATOM     66  C   UNL A   1      41.876  31.763  30.421  1.00  0.00     0.031 C 
ATOM     67  C   UNL A   1      44.299  31.251  30.521  1.00  0.00     0.031 A 
BRANCH  54  68
ATOM     68  C   UNL A   1      48.428  26.802  29.420  1.00  0.00    -0.014 A 
ATOM     69  C   UNL A   1      48.919  26.080  30.518  1.00  0.00     0.009 A 
ATOM     70  C   UNL A   1      49.287  27.062  28.339  1.00  0.00     0.009 A 
ATOM     71  C   UNL A   1      50.248  25.649  30.542  1.00  0.00     0.001 A 
ATOM     72  C   UNL A   1      50.606  26.606  28.354  1.00  0.00     0.001 A 
ATOM     73  C   UNL A   1      51.088  25.906  29.459  1.00  0.00     0.000 A 
ENDBRANCH  54  68
BRANCH  55  74
ATOM     74  C   UNL A   1      38.784  29.291  28.997  1.00  0.00    -0.014 A 
ATOM     75  C   UNL A   1      37.960  29.087  30.114  1.00  0.00     0.009 A 
ATOM     76  C   UNL A   1      38.219  29.827  27.829  1.00  0.00     0.009 A 
ATOM     77  C   UNL A   1      36.595  29.381  30.051  1.00  0.00     0.001 A 
ATOM     78  C   UNL A   1      36.862  30.153  27.780  1.00  0.00     0.001 A 
ATOM     79  C   UNL A   1      36.049  29.918  28.886  1.00  0.00     0.000 A 
ENDBRANCH  55  74
BRANCH  67  80
ATOM     80  C   UNL A   1      44.524  32.627  31.086  1.00  0.00    -0.014 A 
ATOM     81  C   UNL A   1      44.528  32.855  32.472  1.00  0.00     0.009 A 
ATOM     82  C   UNL A   1      44.773  33.705  30.222  1.00  0.00     0.009 A 
ATOM     83  C   UNL A   1      44.739  34.140  32.977  1.00  0.00     0.001 A 
ATOM     84  C   UNL A   1      45.016  34.982  30.730  1.00  0.00     0.001 A 
ATOM     85  C   UNL A   1      44.988  35.201  32.106  1.00  0.00     0.000 A 
ENDBRANCH  67  80
ENDBRANCH  41  42
ENDBRANCH  34  36
ENDBRANCH  33  34
ENDBRANCH  32  33
ENDBRANCH  31  32
ENDBRANCH  30  31
ENDBRANCH  29  30
ENDBRANCH   1  29
TORSDOF 20
ENDMDL
MODEL 2
REMARK VINA RESULT:     -10.4      0.505      5.681
REMARK SMILES O=C(CCc1ccccc1)Nc1ccccc1Oc1ccsc1C(=O)OCCOCCOC(=O)c1ccc(-c2c3nc(c(-c4ccccc4)c4ccc([nH]4)c(-c4ccccc4)c4nc(c(-c5ccccc5)c5ccc2[nH]5)C=C4)C=C3)cc1
REMARK SMILES IDX 27 1 26 2 24 3 25 4 23 5 19 6 20 7 21 8 22 9 18 10 17 11
REMARK SMILES IDX 12 12 13 13 14 14 16 15 15 16 11 17 1 18 2 19 3 21 4 22 5 23
REMARK SMILES IDX 6 24 10 25 7 26 9 27 8 28 28 29 29 30 30 31 31 32 32 33
REMARK SMILES IDX 33 34 34 35 35 36 36 37 82 38 37 39 81 40 38 41 39 42 40 43
REMARK SMILES IDX 75 44 41 45 80 46 74 47 76 48 42 49 79 50 73 51 72 52 43 54
REMARK SMILES IDX 65 55 50 56 64 57 51 58 54 59 63 60 77 61 52 62 53 63 62 65
REMARK SMILES IDX 78 66 55 67 44 68 45 69 49 70 46 71 48 72 47 73 66 74 67 75
REMARK SMILES IDX 71 76 68 77 70 78 69 79 56 80 57 81 61 82 58 83 60 84 59 85
REMARK H PARENT 11 20 76 53 54 64
REMARK Flexibility Score: inf
ROOT
ATOM      1  C   UNL A   1      37.352  22.901  25.641  1.00  0.00     0.261 C 
ENDROOT
BRANCH   1   2
ATOM      2  O   UNL A   1      36.275  23.685  26.190  1.00  0.00    -0.459 OA
BRANCH   2   3
ATOM      3  C   UNL A   1      35.247  23.979  25.342  1.00  0.00     0.352 C 
ATOM      4  O   UNL A   1      35.416  24.300  24.165  1.00  0.00    -0.245 OA
BRANCH   3   5
ATOM      5  C   UNL A   1      33.951  23.900  26.001  1.00  0.00     0.155 A 
ATOM      6  C   UNL A   1      32.906  24.806  26.123  1.00  0.00     0.152 A 
ATOM      7  C   UNL A   1      31.792  24.265  26.842  1.00  0.00     0.060 A 
ATOM      8  C   UNL A   1      32.058  23.010  27.341  1.00  0.00     0.070 A 
ATOM      9  S   UNL A   1      33.595  22.449  26.867  1.00  0.00    -0.133 S 
BRANCH   6  10
ATOM     10  O   UNL A   1      33.010  26.054  25.601  1.00  0.00    -0.453 OA
BRANCH  10  11
ATOM     11  C   UNL A   1      32.239  26.535  24.567  1.00  0.00     0.151 A 
ATOM     12  C   UNL A   1      31.974  25.907  23.332  1.00  0.00     0.084 A 
ATOM     13  C   UNL A   1      31.163  26.574  22.397  1.00  0.00     0.030 A 
ATOM     14  C   UNL A   1      30.556  27.794  22.703  1.00  0.00     0.002 A 
ATOM     15  C   UNL A   1      31.629  27.767  24.857  1.00  0.00     0.049 A 
ATOM     16  C   UNL A   1      30.785  28.390  23.937  1.00  0.00     0.004 A 
BRANCH  12  17
ATOM     17  N   UNL A   1      32.452  24.645  22.906  1.00  0.00    -0.323 N 
ATOM     18  O   UNL A   1      30.615  23.369  23.316  1.00  0.00    -0.275 OA
ATOM     19  C   UNL A   1      31.814  23.449  23.078  1.00  0.00     0.224 C 
ATOM     20  H   UNL A   1      33.322  24.627  22.447  1.00  0.00     0.170 HD
BRANCH  19  21
ATOM     21  C   UNL A   1      32.647  22.178  23.025  1.00  0.00     0.105 C 
BRANCH  21  22
ATOM     22  C   UNL A   1      32.234  21.050  23.958  1.00  0.00     0.045 C 
BRANCH  22  23
ATOM     23  C   UNL A   1      32.871  19.696  23.739  1.00  0.00    -0.048 A 
ATOM     24  C   UNL A   1      33.975  19.354  24.531  1.00  0.00     0.004 A 
ATOM     25  C   UNL A   1      32.396  18.755  22.812  1.00  0.00     0.004 A 
ATOM     26  C   UNL A   1      34.517  18.071  24.480  1.00  0.00     0.000 A 
ATOM     27  C   UNL A   1      32.906  17.458  22.795  1.00  0.00     0.000 A 
ATOM     28  C   UNL A   1      33.958  17.113  23.638  1.00  0.00     0.000 A 
ENDBRANCH  22  23
ENDBRANCH  21  22
ENDBRANCH  19  21
ENDBRANCH  12  17
ENDBRANCH  10  11
ENDBRANCH   6  10
ENDBRANCH   3   5
ENDBRANCH   2   3
ENDBRANCH   1   2
BRANCH   1  29
ATOM     29  C   UNL A   1      36.923  21.474  25.293  1.00  0.00     0.202 C 
BRANCH  29  30
ATOM     30  O   UNL A   1      37.962  20.559  24.941  1.00  0.00    -0.374 OA
BRANCH  30  31
ATOM     31  C   UNL A   1      39.189  20.737  25.652  1.00  0.00     0.202 C 
BRANCH  31  32
ATOM     32  C   UNL A   1      39.972  19.443  25.951  1.00  0.00     0.261 C 
BRANCH  32  33
ATOM     33  O   UNL A   1      41.243  19.396  25.271  1.00  0.00    -0.460 OA
BRANCH  33  34
ATOM     34  C   UNL A   1      42.330  19.503  26.068  1.00  0.00     0.338 C 
ATOM     35  O   UNL A   1      43.218  18.683  26.233  1.00  0.00    -0.246 OA
BRANCH  34  36
ATOM     36  C   UNL A   1      42.432  20.879  26.593  1.00  0.00     0.060 A 
ATOM     37  C   UNL A   1      42.786  21.883  25.683  1.00  0.00     0.016 A 
ATOM     38  C   UNL A   1      42.262  21.180  27.946  1.00  0.00     0.016 A 
ATOM     39  C   UNL A   1      43.006  23.185  26.125  1.00  0.00     0.010 A 
ATOM     40  C   UNL A   1      42.499  22.488  28.392  1.00  0.00     0.010 A 
ATOM     41  C   UNL A   1      42.896  23.492  27.488  1.00  0.00    -0.014 A 
BRANCH  41  42
ATOM     42  C   UNL A   1      43.284  24.846  27.963  1.00  0.00     0.031 A 
ATOM     43  C   UNL A   1      42.221  25.878  28.226  1.00  0.00     0.074 A 
ATOM     44  C   UNL A   1      44.575  25.138  28.205  1.00  0.00     0.049 A 
ATOM     45  N   UNL A   1      42.352  27.115  28.635  1.00  0.00    -0.248 NA
ATOM     46  C   UNL A   1      40.827  25.462  28.004  1.00  0.00     0.031 C 
ATOM     47  C   UNL A   1      45.696  24.212  28.049  1.00  0.00     0.029 A 
ATOM     48  N   UNL A   1      45.159  26.302  28.640  1.00  0.00    -0.354 N 
ATOM     49  C   UNL A   1      41.062  27.628  28.709  1.00  0.00     0.074 A 
ATOM     50  C   UNL A   1      40.165  26.577  28.282  1.00  0.00     0.031 C 
ATOM     51  C   UNL A   1      46.833  24.843  28.386  1.00  0.00     0.029 A 
ATOM     52  C   UNL A   1      46.527  26.228  28.739  1.00  0.00     0.049 A 
ATOM     53  H   UNL A   1      44.646  27.113  28.860  1.00  0.00     0.167 HD
ATOM     54  C   UNL A   1      40.662  28.862  29.100  1.00  0.00     0.031 A 
ATOM     55  C   UNL A   1      47.433  27.173  29.055  1.00  0.00     0.031 A 
ATOM     56  C   UNL A   1      41.554  29.913  29.518  1.00  0.00     0.049 A 
ATOM     57  C   UNL A   1      46.965  28.566  29.390  1.00  0.00     0.074 A 
ATOM     58  C   UNL A   1      41.235  31.188  29.957  1.00  0.00     0.029 A 
ATOM     59  N   UNL A   1      42.936  29.818  29.540  1.00  0.00    -0.354 N 
ATOM     60  N   UNL A   1      45.742  29.028  29.486  1.00  0.00    -0.248 NA
ATOM     61  C   UNL A   1      48.007  29.568  29.660  1.00  0.00     0.031 C 
ATOM     62  C   UNL A   1      42.426  31.887  30.174  1.00  0.00     0.029 A 
ATOM     63  C   UNL A   1      43.485  31.026  29.941  1.00  0.00     0.049 A 
ATOM     64  H   UNL A   1      43.450  29.013  29.307  1.00  0.00     0.167 HD
ATOM     65  C   UNL A   1      45.868  30.363  29.853  1.00  0.00     0.074 A 
ATOM     66  C   UNL A   1      47.285  30.630  29.984  1.00  0.00     0.031 C 
ATOM     67  C   UNL A   1      44.897  31.285  30.061  1.00  0.00     0.031 A 
BRANCH  54  68
ATOM     68  C   UNL A   1      39.190  29.170  29.053  1.00  0.00    -0.014 A 
ATOM     69  C   UNL A   1      38.575  29.645  27.884  1.00  0.00     0.009 A 
ATOM     70  C   UNL A   1      38.394  28.914  30.182  1.00  0.00     0.009 A 
ATOM     71  C   UNL A   1      37.199  29.882  27.857  1.00  0.00     0.001 A 
ATOM     72  C   UNL A   1      37.015  29.124  30.142  1.00  0.00     0.001 A 
ATOM     73  C   UNL A   1      36.419  29.615  28.981  1.00  0.00     0.000 A 
ENDBRANCH  54  68
BRANCH  55  74
ATOM     74  C   UNL A   1      48.887  26.857  29.036  1.00  0.00    -0.014 A 
ATOM     75  C   UNL A   1      49.547  26.440  30.203  1.00  0.00     0.009 A 
ATOM     76  C   UNL A   1      49.632  27.012  27.857  1.00  0.00     0.009 A 
ATOM     77  C   UNL A   1      50.926  26.215  30.194  1.00  0.00     0.001 A 
ATOM     78  C   UNL A   1      51.003  26.753  27.842  1.00  0.00     0.001 A 
ATOM     79  C   UNL A   1      51.652  26.368  29.014  1.00  0.00     0.000 A 
ENDBRANCH  55  74
BRANCH  67  80
ATOM     80  C   UNL A   1      45.330  32.662  30.483  1.00  0.00    -0.014 A 
ATOM     81  C   UNL A   1      45.562  33.676  29.538  1.00  0.00     0.009 A 
ATOM     82  C   UNL A   1      45.474  32.963  31.846  1.00  0.00     0.009 A 
ATOM     83  C   UNL A   1      45.965  34.948  29.949  1.00  0.00     0.001 A 
ATOM     84  C   UNL A   1      45.844  34.244  32.257  1.00  0.00     0.001 A 
ATOM     85  C   UNL A   1      46.100  35.233  31.308  1.00  0.00     0.000 A 
ENDBRANCH  67  80
ENDBRANCH  41  42
ENDBRANCH  34  36
ENDBRANCH  33  34
ENDBRANCH  32  33
ENDBRANCH  31  32
ENDBRANCH  30  31
ENDBRANCH  29  30
ENDBRANCH   1  29
TORSDOF 20
ENDMDL
MODEL 3
REMARK VINA RESULT:     -10.0      4.131      8.440
REMARK SMILES O=C(CCc1ccccc1)Nc1ccccc1Oc1ccsc1C(=O)OCCOCCOC(=O)c1ccc(-c2c3nc(c(-c4ccccc4)c4ccc([nH]4)c(-c4ccccc4)c4nc(c(-c5ccccc5)c5ccc2[nH]5)C=C4)C=C3)cc1
REMARK SMILES IDX 27 1 26 2 24 3 25 4 23 5 19 6 20 7 21 8 22 9 18 10 17 11
REMARK SMILES IDX 12 12 13 13 14 14 16 15 15 16 11 17 1 18 2 19 3 21 4 22 5 23
REMARK SMILES IDX 6 24 10 25 7 26 9 27 8 28 28 29 29 30 30 31 31 32 32 33
REMARK SMILES IDX 33 34 34 35 35 36 36 37 82 38 37 39 81 40 38 41 39 42 40 43
REMARK SMILES IDX 75 44 41 45 80 46 74 47 76 48 42 49 79 50 73 51 72 52 43 54
REMARK SMILES IDX 65 55 50 56 64 57 51 58 54 59 63 60 77 61 52 62 53 63 62 65
REMARK SMILES IDX 78 66 55 67 44 68 45 69 49 70 46 71 48 72 47 73 66 74 67 75
REMARK SMILES IDX 71 76 68 77 70 78 69 79 56 80 57 81 61 82 58 83 60 84 59 85
REMARK H PARENT 11 20 76 53 54 64
REMARK Flexibility Score: inf
ROOT
ATOM      1  C   UNL A   1      42.926  22.114  26.343  1.00  0.00     0.261 C 
ENDROOT
BRANCH   1   2
ATOM      2  O   UNL A   1      41.569  21.921  25.895  1.00  0.00    -0.459 OA
BRANCH   2   3
ATOM      3  C   UNL A   1      40.617  21.838  26.869  1.00  0.00     0.352 C 
ATOM      4  O   UNL A   1      40.782  21.214  27.919  1.00  0.00    -0.245 OA
BRANCH   3   5
ATOM      5  C   UNL A   1      39.394  22.537  26.504  1.00  0.00     0.155 A 
ATOM      6  C   UNL A   1      38.918  23.808  26.798  1.00  0.00     0.152 A 
ATOM      7  C   UNL A   1      37.656  24.078  26.177  1.00  0.00     0.060 A 
ATOM      8  C   UNL A   1      37.154  22.975  25.524  1.00  0.00     0.070 A 
ATOM      9  S   UNL A   1      38.234  21.659  25.574  1.00  0.00    -0.133 S 
BRANCH   6  10
ATOM     10  O   UNL A   1      39.625  24.640  27.602  1.00  0.00    -0.453 OA
BRANCH  10  11
ATOM     11  C   UNL A   1      40.135  25.858  27.211  1.00  0.00     0.151 A 
ATOM     12  C   UNL A   1      40.024  27.090  27.887  1.00  0.00     0.084 A 
ATOM     13  C   UNL A   1      40.612  28.231  27.312  1.00  0.00     0.030 A 
ATOM     14  C   UNL A   1      41.366  28.145  26.139  1.00  0.00     0.002 A 
ATOM     15  C   UNL A   1      40.889  25.789  26.026  1.00  0.00     0.049 A 
ATOM     16  C   UNL A   1      41.508  26.921  25.497  1.00  0.00     0.004 A 
BRANCH  12  17
ATOM     17  N   UNL A   1      39.361  27.323  29.115  1.00  0.00    -0.323 N 
ATOM     18  O   UNL A   1      37.782  28.811  28.433  1.00  0.00    -0.275 OA
ATOM     19  C   UNL A   1      38.408  28.277  29.341  1.00  0.00     0.224 C 
ATOM     20  H   UNL A   1      39.608  26.748  29.875  1.00  0.00     0.170 HD
BRANCH  19  21
ATOM     21  C   UNL A   1      38.166  28.723  30.773  1.00  0.00     0.105 C 
BRANCH  21  22
ATOM     22  C   UNL A   1      39.155  29.720  31.357  1.00  0.00     0.045 C 
BRANCH  22  23
ATOM     23  C   UNL A   1      38.806  31.188  31.257  1.00  0.00    -0.048 A 
ATOM     24  C   UNL A   1      39.154  31.867  30.082  1.00  0.00     0.004 A 
ATOM     25  C   UNL A   1      38.125  31.894  32.260  1.00  0.00     0.004 A 
ATOM     26  C   UNL A   1      38.734  33.178  29.867  1.00  0.00     0.000 A 
ATOM     27  C   UNL A   1      37.664  33.189  32.026  1.00  0.00     0.000 A 
ATOM     28  C   UNL A   1      37.958  33.826  30.825  1.00  0.00     0.000 A 
ENDBRANCH  22  23
ENDBRANCH  21  22
ENDBRANCH  19  21
ENDBRANCH  12  17
ENDBRANCH  10  11
ENDBRANCH   6  10
ENDBRANCH   3   5
ENDBRANCH   2   3
ENDBRANCH   1   2
BRANCH   1  29
ATOM     29  C   UNL A   1      43.606  23.306  25.666  1.00  0.00     0.202 C 
BRANCH  29  30
ATOM     30  O   UNL A   1      43.898  23.173  24.274  1.00  0.00    -0.374 OA
BRANCH  30  31
ATOM     31  C   UNL A   1      45.266  22.896  23.969  1.00  0.00     0.202 C 
BRANCH  31  32
ATOM     32  C   UNL A   1      46.298  23.572  24.895  1.00  0.00     0.261 C 
BRANCH  32  33
ATOM     33  O   UNL A   1      46.419  24.988  24.648  1.00  0.00    -0.460 OA
BRANCH  33  34
ATOM     34  C   UNL A   1      47.272  25.647  25.464  1.00  0.00     0.338 C 
ATOM     35  O   UNL A   1      48.491  25.645  25.428  1.00  0.00    -0.246 OA
BRANCH  34  36
ATOM     36  C   UNL A   1      46.520  26.578  26.328  1.00  0.00     0.060 A 
ATOM     37  C   UNL A   1      47.256  27.303  27.273  1.00  0.00     0.016 A 
ATOM     38  C   UNL A   1      45.129  26.694  26.275  1.00  0.00     0.016 A 
ATOM     39  C   UNL A   1      46.604  28.121  28.194  1.00  0.00     0.010 A 
ATOM     40  C   UNL A   1      44.474  27.505  27.212  1.00  0.00     0.010 A 
ATOM     41  C   UNL A   1      45.206  28.203  28.192  1.00  0.00    -0.014 A 
BRANCH  41  42
ATOM     42  C   UNL A   1      44.519  28.955  29.275  1.00  0.00     0.031 A 
ATOM     43  C   UNL A   1      44.196  28.266  30.574  1.00  0.00     0.074 A 
ATOM     44  C   UNL A   1      44.229  30.259  29.121  1.00  0.00     0.049 A 
ATOM     45  N   UNL A   1      43.596  28.741  31.636  1.00  0.00    -0.248 NA
ATOM     46  C   UNL A   1      44.607  26.857  30.693  1.00  0.00     0.031 C 
ATOM     47  C   UNL A   1      44.541  31.061  27.937  1.00  0.00     0.029 A 
ATOM     48  N   UNL A   1      43.607  31.142  29.969  1.00  0.00    -0.354 N 
ATOM     49  C   UNL A   1      43.547  27.690  32.545  1.00  0.00     0.074 A 
ATOM     50  C   UNL A   1      44.157  26.547  31.902  1.00  0.00     0.031 C 
ATOM     51  C   UNL A   1      44.112  32.318  28.138  1.00  0.00     0.029 A 
ATOM     52  C   UNL A   1      43.457  32.401  29.442  1.00  0.00     0.049 A 
ATOM     53  H   UNL A   1      43.299  30.895  30.871  1.00  0.00     0.167 HD
ATOM     54  C   UNL A   1      43.040  27.680  33.802  1.00  0.00     0.031 A 
ATOM     55  C   UNL A   1      42.841  33.489  29.940  1.00  0.00     0.031 A 
ATOM     56  C   UNL A   1      42.425  28.815  34.441  1.00  0.00     0.049 A 
ATOM     57  C   UNL A   1      42.199  33.420  31.302  1.00  0.00     0.074 A 
ATOM     58  C   UNL A   1      41.908  28.904  35.723  1.00  0.00     0.029 A 
ATOM     59  N   UNL A   1      42.233  30.052  33.847  1.00  0.00    -0.354 N 
ATOM     60  N   UNL A   1      42.188  32.431  32.162  1.00  0.00    -0.248 NA
ATOM     61  C   UNL A   1      41.486  34.621  31.760  1.00  0.00     0.031 C 
ATOM     62  C   UNL A   1      41.338  30.170  35.879  1.00  0.00     0.029 A 
ATOM     63  C   UNL A   1      41.564  30.895  34.720  1.00  0.00     0.049 A 
ATOM     64  H   UNL A   1      42.528  30.295  32.941  1.00  0.00     0.167 HD
ATOM     65  C   UNL A   1      41.492  32.899  33.270  1.00  0.00     0.074 A 
ATOM     66  C   UNL A   1      41.117  34.268  32.982  1.00  0.00     0.031 C 
ATOM     67  C   UNL A   1      41.189  32.253  34.423  1.00  0.00     0.031 A 
BRANCH  54  68
ATOM     68  C   UNL A   1      43.086  26.384  34.566  1.00  0.00    -0.014 A 
ATOM     69  C   UNL A   1      44.270  25.924  35.161  1.00  0.00     0.009 A 
ATOM     70  C   UNL A   1      41.905  25.647  34.748  1.00  0.00     0.009 A 
ATOM     71  C   UNL A   1      44.275  24.739  35.901  1.00  0.00     0.001 A 
ATOM     72  C   UNL A   1      41.906  24.479  35.511  1.00  0.00     0.001 A 
ATOM     73  C   UNL A   1      43.093  24.022  36.081  1.00  0.00     0.000 A 
ENDBRANCH  54  68
BRANCH  55  74
ATOM     74  C   UNL A   1      42.760  34.740  29.138  1.00  0.00    -0.014 A 
ATOM     75  C   UNL A   1      43.781  35.701  29.199  1.00  0.00     0.009 A 
ATOM     76  C   UNL A   1      41.636  34.998  28.337  1.00  0.00     0.009 A 
ATOM     77  C   UNL A   1      43.664  36.905  28.501  1.00  0.00     0.001 A 
ATOM     78  C   UNL A   1      41.537  36.187  27.612  1.00  0.00     0.001 A 
ATOM     79  C   UNL A   1      42.544  37.145  27.705  1.00  0.00     0.000 A 
ENDBRANCH  55  74
BRANCH  67  80
ATOM     80  C   UNL A   1      40.440  33.027  35.473  1.00  0.00    -0.014 A 
ATOM     81  C   UNL A   1      39.041  32.947  35.580  1.00  0.00     0.009 A 
ATOM     82  C   UNL A   1      41.145  33.820  36.392  1.00  0.00     0.009 A 
ATOM     83  C   UNL A   1      38.365  33.674  36.561  1.00  0.00     0.001 A 
ATOM     84  C   UNL A   1      40.469  34.519  37.393  1.00  0.00     0.001 A 
ATOM     85  C   UNL A   1      39.079  34.454  37.471  1.00  0.00     0.000 A 
ENDBRANCH  67  80
ENDBRANCH  41  42
ENDBRANCH  34  36
ENDBRANCH  33  34
ENDBRANCH  32  33
ENDBRANCH  31  32
ENDBRANCH  30  31
ENDBRANCH  29  30
ENDBRANCH   1  29
TORSDOF 20
ENDMDL
