MODEL 1
REMARK VINA RESULT:     -11.2      0.000      0.000
REMARK SMILES CC(C)(Cn1ccc2ccc([N+](=O)[O-])cc21)C(=O)OCCOCCOC(=O)c1ccc(-c2c3nc(c(-c4ccccc4)c4ccc([nH]4)c(-c4ccccc4)c4nc(c(-c5ccccc5)c5ccc2[nH]5)C=C4)C=C3)cc1
REMARK SMILES IDX 21 1 20 2 19 3 17 4 18 5 2 6 1 7 3 8 4 9 5 10 6 11 16 12
REMARK SMILES IDX 7 13 8 14 15 15 9 16 11 17 10 18 12 19 13 20 14 21 22 22
REMARK SMILES IDX 23 23 24 24 25 25 26 26 27 27 28 28 29 29 75 30 30 31 74 32
REMARK SMILES IDX 31 33 32 34 33 35 68 36 34 37 73 38 67 39 69 40 35 41 72 42
REMARK SMILES IDX 66 43 65 44 36 46 58 47 43 48 57 49 44 50 47 51 56 52 70 53
REMARK SMILES IDX 45 54 46 55 55 57 71 58 48 59 37 60 38 61 42 62 39 63 41 64
REMARK SMILES IDX 40 65 59 66 60 67 64 68 61 69 63 70 62 71 49 72 50 73 54 74
REMARK SMILES IDX 51 75 53 76 52 77
REMARK H PARENT 69 45 47 56
REMARK Flexibility Score: inf
ROOT
ATOM      1  C   UNL A   1      41.011  20.999  27.386  1.00  0.00     0.202 C 
ENDROOT
BRANCH   1   2
ATOM      2  C   UNL A   1      40.126  20.999  26.127  1.00  0.00     0.261 C 
BRANCH   2   3
ATOM      3  O   UNL A   1      38.830  21.643  26.293  1.00  0.00    -0.463 OA
BRANCH   3   4
ATOM      4  C   UNL A   1      37.878  21.238  25.423  1.00  0.00     0.313 C 
ATOM      5  O   UNL A   1      38.013  20.229  24.730  1.00  0.00    -0.252 OA
BRANCH   4   6
ATOM      6  C   UNL A   1      36.617  22.121  25.298  1.00  0.00     0.080 C 
ATOM      7  C   UNL A   1      36.460  22.326  23.774  1.00  0.00     0.025 C 
ATOM      8  C   UNL A   1      37.077  23.464  25.918  1.00  0.00     0.025 C 
BRANCH   6   9
ATOM      9  C   UNL A   1      35.277  21.699  26.041  1.00  0.00     0.140 C 
BRANCH   9  10
ATOM     10  N   UNL A   1      34.017  21.570  25.289  1.00  0.00    -0.346 N 
ATOM     11  C   UNL A   1      33.069  22.556  25.153  1.00  0.00     0.087 A 
ATOM     12  C   UNL A   1      33.510  20.437  24.658  1.00  0.00     0.055 A 
ATOM     13  C   UNL A   1      32.331  22.261  24.030  1.00  0.00     0.028 A 
ATOM     14  C   UNL A   1      32.611  20.915  23.693  1.00  0.00     0.000 A 
ATOM     15  C   UNL A   1      33.778  19.061  24.778  1.00  0.00     0.112 A 
ATOM     16  C   UNL A   1      32.142  20.052  22.682  1.00  0.00     0.017 A 
ATOM     17  C   UNL A   1      33.236  18.205  23.790  1.00  0.00     0.271 A 
ATOM     18  C   UNL A   1      32.482  18.698  22.722  1.00  0.00     0.086 A 
BRANCH  17  19
ATOM     19  N   UNL A   1      33.535  16.760  23.841  1.00  0.00     0.062 N 
ATOM     20  O   UNL A   1      33.170  16.135  24.850  1.00  0.00    -0.258 OA
ATOM     21  O   UNL A   1      34.115  16.249  22.870  1.00  0.00    -0.258 OA
ENDBRANCH  17  19
ENDBRANCH   9  10
ENDBRANCH   6   9
ENDBRANCH   4   6
ENDBRANCH   3   4
ENDBRANCH   2   3
ENDBRANCH   1   2
BRANCH   1  22
ATOM     22  O   UNL A   1      42.374  20.598  27.290  1.00  0.00    -0.374 OA
BRANCH  22  23
ATOM     23  C   UNL A   1      42.669  19.215  27.191  1.00  0.00     0.202 C 
BRANCH  23  24
ATOM     24  C   UNL A   1      42.956  18.632  25.802  1.00  0.00     0.261 C 
BRANCH  24  25
ATOM     25  O   UNL A   1      43.114  19.636  24.792  1.00  0.00    -0.460 OA
BRANCH  25  26
ATOM     26  C   UNL A   1      44.364  19.747  24.273  1.00  0.00     0.338 C 
ATOM     27  O   UNL A   1      44.885  18.989  23.484  1.00  0.00    -0.246 OA
BRANCH  26  28
ATOM     28  C   UNL A   1      44.889  21.103  24.555  1.00  0.00     0.060 A 
ATOM     29  C   UNL A   1      45.813  21.360  25.574  1.00  0.00     0.016 A 
ATOM     30  C   UNL A   1      44.081  22.119  24.035  1.00  0.00     0.016 A 
ATOM     31  C   UNL A   1      45.730  22.572  26.246  1.00  0.00     0.010 A 
ATOM     32  C   UNL A   1      43.982  23.311  24.721  1.00  0.00     0.010 A 
ATOM     33  C   UNL A   1      44.735  23.490  25.878  1.00  0.00    -0.014 A 
BRANCH  33  34
ATOM     34  C   UNL A   1      44.520  24.667  26.705  1.00  0.00     0.031 A 
ATOM     35  C   UNL A   1      45.622  25.646  26.679  1.00  0.00     0.074 A 
ATOM     36  C   UNL A   1      43.366  24.968  27.332  1.00  0.00     0.049 A 
ATOM     37  N   UNL A   1      46.355  26.035  27.666  1.00  0.00    -0.248 NA
ATOM     38  C   UNL A   1      45.990  26.208  25.372  1.00  0.00     0.031 C 
ATOM     39  C   UNL A   1      42.065  24.315  27.174  1.00  0.00     0.029 A 
ATOM     40  N   UNL A   1      43.097  26.008  28.178  1.00  0.00    -0.354 N 
ATOM     41  C   UNL A   1      47.197  27.004  27.137  1.00  0.00     0.074 A 
ATOM     42  C   UNL A   1      47.020  26.983  25.707  1.00  0.00     0.031 C 
ATOM     43  C   UNL A   1      41.109  25.087  27.741  1.00  0.00     0.029 A 
ATOM     44  C   UNL A   1      41.745  26.211  28.409  1.00  0.00     0.049 A 
ATOM     45  H   UNL A   1      43.800  26.564  28.585  1.00  0.00     0.167 HD
ATOM     46  C   UNL A   1      47.840  27.906  27.922  1.00  0.00     0.031 A 
ATOM     47  C   UNL A   1      41.181  27.255  29.059  1.00  0.00     0.031 A 
ATOM     48  C   UNL A   1      47.813  27.545  29.311  1.00  0.00     0.049 A 
ATOM     49  C   UNL A   1      42.202  27.882  29.926  1.00  0.00     0.074 A 
ATOM     50  C   UNL A   1      48.407  26.570  30.082  1.00  0.00     0.029 A 
ATOM     51  N   UNL A   1      46.769  28.058  30.039  1.00  0.00    -0.354 N 
ATOM     52  N   UNL A   1      42.718  27.298  30.969  1.00  0.00    -0.248 NA
ATOM     53  C   UNL A   1      42.880  29.098  29.498  1.00  0.00     0.031 C 
ATOM     54  C   UNL A   1      47.504  26.319  31.155  1.00  0.00     0.029 A 
ATOM     55  C   UNL A   1      46.398  27.157  31.008  1.00  0.00     0.049 A 
ATOM     56  H   UNL A   1      46.350  28.936  29.889  1.00  0.00     0.167 HD
ATOM     57  C   UNL A   1      44.000  27.808  31.052  1.00  0.00     0.074 A 
ATOM     58  C   UNL A   1      43.973  29.029  30.262  1.00  0.00     0.031 C 
ATOM     59  C   UNL A   1      45.033  27.032  31.489  1.00  0.00     0.031 A 
BRANCH  46  60
ATOM     60  C   UNL A   1      48.191  29.287  27.454  1.00  0.00    -0.014 A 
ATOM     61  C   UNL A   1      47.212  30.272  27.211  1.00  0.00     0.009 A 
ATOM     62  C   UNL A   1      49.529  29.705  27.472  1.00  0.00     0.009 A 
ATOM     63  C   UNL A   1      47.550  31.601  26.946  1.00  0.00     0.001 A 
ATOM     64  C   UNL A   1      49.869  31.045  27.248  1.00  0.00     0.001 A 
ATOM     65  C   UNL A   1      48.881  31.990  26.978  1.00  0.00     0.000 A 
ENDBRANCH  46  60
BRANCH  47  66
ATOM     66  C   UNL A   1      39.862  27.883  28.837  1.00  0.00    -0.014 A 
ATOM     67  C   UNL A   1      39.645  28.682  27.700  1.00  0.00     0.009 A 
ATOM     68  C   UNL A   1      38.910  27.936  29.868  1.00  0.00     0.009 A 
ATOM     69  C   UNL A   1      38.545  29.540  27.617  1.00  0.00     0.001 A 
ATOM     70  C   UNL A   1      37.811  28.800  29.787  1.00  0.00     0.001 A 
ATOM     71  C   UNL A   1      37.640  29.614  28.670  1.00  0.00     0.000 A 
ENDBRANCH  47  66
BRANCH  59  72
ATOM     72  C   UNL A   1      44.692  25.812  32.310  1.00  0.00    -0.014 A 
ATOM     73  C   UNL A   1      44.520  24.589  31.644  1.00  0.00     0.009 A 
ATOM     74  C   UNL A   1      44.451  25.853  33.694  1.00  0.00     0.009 A 
ATOM     75  C   UNL A   1      44.123  23.442  32.336  1.00  0.00     0.001 A 
ATOM     76  C   UNL A   1      44.083  24.699  34.393  1.00  0.00     0.001 A 
ATOM     77  C   UNL A   1      43.912  23.496  33.713  1.00  0.00     0.000 A 
ENDBRANCH  59  72
ENDBRANCH  33  34
ENDBRANCH  26  28
ENDBRANCH  25  26
ENDBRANCH  24  25
ENDBRANCH  23  24
ENDBRANCH  22  23
ENDBRANCH   1  22
TORSDOF 17
ENDMDL
MODEL 2
REMARK VINA RESULT:     -10.5      1.808      2.567
REMARK SMILES CC(C)(Cn1ccc2ccc([N+](=O)[O-])cc21)C(=O)OCCOCCOC(=O)c1ccc(-c2c3nc(c(-c4ccccc4)c4ccc([nH]4)c(-c4ccccc4)c4nc(c(-c5ccccc5)c5ccc2[nH]5)C=C4)C=C3)cc1
REMARK SMILES IDX 21 1 20 2 19 3 17 4 18 5 2 6 1 7 3 8 4 9 5 10 6 11 16 12
REMARK SMILES IDX 7 13 8 14 15 15 9 16 11 17 10 18 12 19 13 20 14 21 22 22
REMARK SMILES IDX 23 23 24 24 25 25 26 26 27 27 28 28 29 29 75 30 30 31 74 32
REMARK SMILES IDX 31 33 32 34 33 35 68 36 34 37 73 38 67 39 69 40 35 41 72 42
REMARK SMILES IDX 66 43 65 44 36 46 58 47 43 48 57 49 44 50 47 51 56 52 70 53
REMARK SMILES IDX 45 54 46 55 55 57 71 58 48 59 37 60 38 61 42 62 39 63 41 64
REMARK SMILES IDX 40 65 59 66 60 67 64 68 61 69 63 70 62 71 49 72 50 73 54 74
REMARK SMILES IDX 51 75 53 76 52 77
REMARK H PARENT 69 45 47 56
REMARK Flexibility Score: inf
ROOT
ATOM      1  C   UNL A   1      40.323  20.390  26.444  1.00  0.00     0.202 C 
ENDROOT
BRANCH   1   2
ATOM      2  C   UNL A   1      39.685  21.754  26.124  1.00  0.00     0.261 C 
BRANCH   2   3
ATOM      3  O   UNL A   1      38.292  21.691  25.704  1.00  0.00    -0.463 OA
BRANCH   3   4
ATOM      4  C   UNL A   1      37.616  22.858  25.801  1.00  0.00     0.313 C 
ATOM      5  O   UNL A   1      38.166  23.905  26.143  1.00  0.00    -0.252 OA
BRANCH   4   6
ATOM      6  C   UNL A   1      36.101  22.820  25.504  1.00  0.00     0.080 C 
ATOM      7  C   UNL A   1      35.707  24.311  25.407  1.00  0.00     0.025 C 
ATOM      8  C   UNL A   1      35.508  22.252  26.817  1.00  0.00     0.025 C 
BRANCH   6   9
ATOM      9  C   UNL A   1      35.548  21.921  24.316  1.00  0.00     0.140 C 
BRANCH   9  10
ATOM     10  N   UNL A   1      34.098  21.760  24.115  1.00  0.00    -0.346 N 
ATOM     11  C   UNL A   1      33.372  20.634  24.428  1.00  0.00     0.087 A 
ATOM     12  C   UNL A   1      33.214  22.651  23.512  1.00  0.00     0.055 A 
ATOM     13  C   UNL A   1      32.060  21.021  24.572  1.00  0.00     0.028 A 
ATOM     14  C   UNL A   1      31.945  22.313  24.004  1.00  0.00     0.000 A 
ATOM     15  C   UNL A   1      33.385  23.745  22.646  1.00  0.00     0.112 A 
ATOM     16  C   UNL A   1      30.863  23.199  23.824  1.00  0.00     0.017 A 
ATOM     17  C   UNL A   1      32.264  24.580  22.423  1.00  0.00     0.271 A 
ATOM     18  C   UNL A   1      31.038  24.349  23.052  1.00  0.00     0.086 A 
BRANCH  17  19
ATOM     19  N   UNL A   1      32.408  25.774  21.566  1.00  0.00     0.062 N 
ATOM     20  O   UNL A   1      33.164  25.686  20.586  1.00  0.00    -0.258 OA
ATOM     21  O   UNL A   1      31.754  26.787  21.860  1.00  0.00    -0.258 OA
ENDBRANCH  17  19
ENDBRANCH   9  10
ENDBRANCH   6   9
ENDBRANCH   4   6
ENDBRANCH   3   4
ENDBRANCH   2   3
ENDBRANCH   1   2
BRANCH   1  22
ATOM     22  O   UNL A   1      41.740  20.251  26.420  1.00  0.00    -0.374 OA
BRANCH  22  23
ATOM     23  C   UNL A   1      42.297  18.952  26.532  1.00  0.00     0.202 C 
BRANCH  23  24
ATOM     24  C   UNL A   1      43.466  18.582  25.611  1.00  0.00     0.261 C 
BRANCH  24  25
ATOM     25  O   UNL A   1      43.664  19.522  24.547  1.00  0.00    -0.460 OA
BRANCH  25  26
ATOM     26  C   UNL A   1      44.958  19.848  24.293  1.00  0.00     0.338 C 
ATOM     27  O   UNL A   1      45.805  19.118  23.827  1.00  0.00    -0.246 OA
BRANCH  26  28
ATOM     28  C   UNL A   1      45.111  21.320  24.362  1.00  0.00     0.060 A 
ATOM     29  C   UNL A   1      46.236  21.938  24.919  1.00  0.00     0.016 A 
ATOM     30  C   UNL A   1      43.896  22.000  24.239  1.00  0.00     0.016 A 
ATOM     31  C   UNL A   1      46.061  23.141  25.589  1.00  0.00     0.010 A 
ATOM     32  C   UNL A   1      43.718  23.181  24.929  1.00  0.00     0.010 A 
ATOM     33  C   UNL A   1      44.773  23.691  25.679  1.00  0.00    -0.014 A 
BRANCH  33  34
ATOM     34  C   UNL A   1      44.556  24.840  26.545  1.00  0.00     0.031 A 
ATOM     35  C   UNL A   1      45.630  25.849  26.509  1.00  0.00     0.074 A 
ATOM     36  C   UNL A   1      43.417  25.092  27.219  1.00  0.00     0.049 A 
ATOM     37  N   UNL A   1      46.386  26.231  27.480  1.00  0.00    -0.248 NA
ATOM     38  C   UNL A   1      45.939  26.455  25.206  1.00  0.00     0.031 C 
ATOM     39  C   UNL A   1      42.129  24.409  27.086  1.00  0.00     0.029 A 
ATOM     40  N   UNL A   1      43.150  26.102  28.101  1.00  0.00    -0.354 N 
ATOM     41  C   UNL A   1      47.183  27.237  26.951  1.00  0.00     0.074 A 
ATOM     42  C   UNL A   1      46.958  27.249  25.527  1.00  0.00     0.031 C 
ATOM     43  C   UNL A   1      41.173  25.138  27.707  1.00  0.00     0.029 A 
ATOM     44  C   UNL A   1      41.802  26.262  28.383  1.00  0.00     0.049 A 
ATOM     45  H   UNL A   1      43.852  26.666  28.499  1.00  0.00     0.167 HD
ATOM     46  C   UNL A   1      47.829  28.135  27.737  1.00  0.00     0.031 A 
ATOM     47  C   UNL A   1      41.233  27.273  29.080  1.00  0.00     0.031 A 
ATOM     48  C   UNL A   1      47.860  27.738  29.116  1.00  0.00     0.049 A 
ATOM     49  C   UNL A   1      42.266  27.904  29.928  1.00  0.00     0.074 A 
ATOM     50  C   UNL A   1      48.505  26.759  29.840  1.00  0.00     0.029 A 
ATOM     51  N   UNL A   1      46.828  28.203  29.892  1.00  0.00    -0.354 N 
ATOM     52  N   UNL A   1      42.833  27.308  30.937  1.00  0.00    -0.248 NA
ATOM     53  C   UNL A   1      42.897  29.149  29.511  1.00  0.00     0.031 C 
ATOM     54  C   UNL A   1      47.647  26.455  30.935  1.00  0.00     0.029 A 
ATOM     55  C   UNL A   1      46.514  27.266  30.848  1.00  0.00     0.049 A 
ATOM     56  H   UNL A   1      46.380  29.072  29.781  1.00  0.00     0.167 HD
ATOM     57  C   UNL A   1      44.103  27.850  30.991  1.00  0.00     0.074 A 
ATOM     58  C   UNL A   1      44.016  29.090  30.236  1.00  0.00     0.031 C 
ATOM     59  C   UNL A   1      45.171  27.092  31.372  1.00  0.00     0.031 A 
BRANCH  46  60
ATOM     60  C   UNL A   1      48.127  29.537  27.296  1.00  0.00    -0.014 A 
ATOM     61  C   UNL A   1      47.110  30.480  27.042  1.00  0.00     0.009 A 
ATOM     62  C   UNL A   1      49.444  30.016  27.350  1.00  0.00     0.009 A 
ATOM     63  C   UNL A   1      47.392  31.826  26.802  1.00  0.00     0.001 A 
ATOM     64  C   UNL A   1      49.727  31.373  27.152  1.00  0.00     0.001 A 
ATOM     65  C   UNL A   1      48.703  32.275  26.871  1.00  0.00     0.000 A 
ENDBRANCH  46  60
BRANCH  47  66
ATOM     66  C   UNL A   1      39.891  27.870  28.919  1.00  0.00    -0.014 A 
ATOM     67  C   UNL A   1      39.631  28.740  27.846  1.00  0.00     0.009 A 
ATOM     68  C   UNL A   1      38.952  27.816  29.963  1.00  0.00     0.009 A 
ATOM     69  C   UNL A   1      38.502  29.564  27.837  1.00  0.00     0.001 A 
ATOM     70  C   UNL A   1      37.825  28.646  29.957  1.00  0.00     0.001 A 
ATOM     71  C   UNL A   1      37.610  29.532  28.904  1.00  0.00     0.000 A 
ENDBRANCH  47  66
BRANCH  59  72
ATOM     72  C   UNL A   1      44.890  25.841  32.170  1.00  0.00    -0.014 A 
ATOM     73  C   UNL A   1      44.558  24.668  31.475  1.00  0.00     0.009 A 
ATOM     74  C   UNL A   1      44.859  25.811  33.575  1.00  0.00     0.009 A 
ATOM     75  C   UNL A   1      44.207  23.501  32.159  1.00  0.00     0.001 A 
ATOM     76  C   UNL A   1      44.537  24.635  34.261  1.00  0.00     0.001 A 
ATOM     77  C   UNL A   1      44.205  23.483  33.552  1.00  0.00     0.000 A 
ENDBRANCH  59  72
ENDBRANCH  33  34
ENDBRANCH  26  28
ENDBRANCH  25  26
ENDBRANCH  24  25
ENDBRANCH  23  24
ENDBRANCH  22  23
ENDBRANCH   1  22
TORSDOF 17
ENDMDL
MODEL 3
REMARK VINA RESULT:     -10.2      3.541      8.276
REMARK SMILES CC(C)(Cn1ccc2ccc([N+](=O)[O-])cc21)C(=O)OCCOCCOC(=O)c1ccc(-c2c3nc(c(-c4ccccc4)c4ccc([nH]4)c(-c4ccccc4)c4nc(c(-c5ccccc5)c5ccc2[nH]5)C=C4)C=C3)cc1
REMARK SMILES IDX 21 1 20 2 19 3 17 4 18 5 2 6 1 7 3 8 4 9 5 10 6 11 16 12
REMARK SMILES IDX 7 13 8 14 15 15 9 16 11 17 10 18 12 19 13 20 14 21 22 22
REMARK SMILES IDX 23 23 24 24 25 25 26 26 27 27 28 28 29 29 75 30 30 31 74 32
REMARK SMILES IDX 31 33 32 34 33 35 68 36 34 37 73 38 67 39 69 40 35 41 72 42
REMARK SMILES IDX 66 43 65 44 36 46 58 47 43 48 57 49 44 50 47 51 56 52 70 53
REMARK SMILES IDX 45 54 46 55 55 57 71 58 48 59 37 60 38 61 42 62 39 63 41 64
REMARK SMILES IDX 40 65 59 66 60 67 64 68 61 69 63 70 62 71 49 72 50 73 54 74
REMARK SMILES IDX 51 75 53 76 52 77
REMARK H PARENT 69 45 47 56
REMARK Flexibility Score: inf
ROOT
ATOM      1  C   UNL A   1      32.718  29.630  25.534  1.00  0.00     0.202 C 
ENDROOT
BRANCH   1   2
ATOM      2  C   UNL A   1      32.954  29.074  24.119  1.00  0.00     0.261 C 
BRANCH   2   3
ATOM      3  O   UNL A   1      33.113  27.627  24.051  1.00  0.00    -0.463 OA
BRANCH   3   4
ATOM      4  C   UNL A   1      32.086  26.969  23.466  1.00  0.00     0.313 C 
ATOM      5  O   UNL A   1      31.586  27.349  22.408  1.00  0.00    -0.252 OA
BRANCH   4   6
ATOM      6  C   UNL A   1      31.533  25.732  24.205  1.00  0.00     0.080 C 
ATOM      7  C   UNL A   1      30.053  26.093  24.469  1.00  0.00     0.025 C 
ATOM      8  C   UNL A   1      32.284  25.776  25.558  1.00  0.00     0.025 C 
BRANCH   6   9
ATOM      9  C   UNL A   1      31.751  24.280  23.597  1.00  0.00     0.140 C 
BRANCH   9  10
ATOM     10  N   UNL A   1      33.088  23.663  23.601  1.00  0.00    -0.346 N 
ATOM     11  C   UNL A   1      34.256  24.296  23.246  1.00  0.00     0.087 A 
ATOM     12  C   UNL A   1      33.418  22.338  23.874  1.00  0.00     0.055 A 
ATOM     13  C   UNL A   1      35.290  23.604  23.834  1.00  0.00     0.028 A 
ATOM     14  C   UNL A   1      34.768  22.356  24.253  1.00  0.00     0.000 A 
ATOM     15  C   UNL A   1      32.679  21.141  23.892  1.00  0.00     0.112 A 
ATOM     16  C   UNL A   1      35.339  21.227  24.874  1.00  0.00     0.017 A 
ATOM     17  C   UNL A   1      33.299  20.002  24.457  1.00  0.00     0.271 A 
ATOM     18  C   UNL A   1      34.587  20.058  24.998  1.00  0.00     0.086 A 
BRANCH  17  19
ATOM     19  N   UNL A   1      32.544  18.737  24.550  1.00  0.00     0.062 N 
ATOM     20  O   UNL A   1      32.160  18.381  25.676  1.00  0.00    -0.258 OA
ATOM     21  O   UNL A   1      32.320  18.112  23.502  1.00  0.00    -0.258 OA
ENDBRANCH  17  19
ENDBRANCH   9  10
ENDBRANCH   6   9
ENDBRANCH   4   6
ENDBRANCH   3   4
ENDBRANCH   2   3
ENDBRANCH   1   2
BRANCH   1  22
ATOM     22  O   UNL A   1      33.822  30.101  26.300  1.00  0.00    -0.374 OA
BRANCH  22  23
ATOM     23  C   UNL A   1      33.589  30.544  27.627  1.00  0.00     0.202 C 
BRANCH  23  24
ATOM     24  C   UNL A   1      33.959  31.988  27.984  1.00  0.00     0.261 C 
BRANCH  24  25
ATOM     25  O   UNL A   1      35.373  32.223  27.991  1.00  0.00    -0.460 OA
BRANCH  25  26
ATOM     26  C   UNL A   1      36.043  31.706  29.053  1.00  0.00     0.338 C 
ATOM     27  O   UNL A   1      35.621  31.590  30.183  1.00  0.00    -0.246 OA
BRANCH  26  28
ATOM     28  C   UNL A   1      37.253  31.002  28.568  1.00  0.00     0.060 A 
ATOM     29  C   UNL A   1      37.196  29.788  27.873  1.00  0.00     0.016 A 
ATOM     30  C   UNL A   1      38.419  31.407  29.226  1.00  0.00     0.016 A 
ATOM     31  C   UNL A   1      38.219  28.871  28.068  1.00  0.00     0.010 A 
ATOM     32  C   UNL A   1      39.421  30.483  29.439  1.00  0.00     0.010 A 
ATOM     33  C   UNL A   1      39.267  29.192  28.943  1.00  0.00    -0.014 A 
BRANCH  33  34
ATOM     34  C   UNL A   1      40.229  28.162  29.299  1.00  0.00     0.031 A 
ATOM     35  C   UNL A   1      40.546  28.085  30.737  1.00  0.00     0.074 A 
ATOM     36  C   UNL A   1      40.700  27.222  28.455  1.00  0.00     0.049 A 
ATOM     37  N   UNL A   1      41.689  28.266  31.304  1.00  0.00    -0.248 NA
ATOM     38  C   UNL A   1      39.427  27.843  31.659  1.00  0.00     0.031 C 
ATOM     39  C   UNL A   1      40.225  26.914  27.105  1.00  0.00     0.029 A 
ATOM     40  N   UNL A   1      41.648  26.264  28.683  1.00  0.00    -0.354 N 
ATOM     41  C   UNL A   1      41.472  28.022  32.653  1.00  0.00     0.074 A 
ATOM     42  C   UNL A   1      40.048  27.891  32.835  1.00  0.00     0.031 C 
ATOM     43  C   UNL A   1      40.747  25.729  26.710  1.00  0.00     0.029 A 
ATOM     44  C   UNL A   1      41.685  25.266  27.721  1.00  0.00     0.049 A 
ATOM     45  H   UNL A   1      42.251  26.280  29.462  1.00  0.00     0.167 HD
ATOM     46  C   UNL A   1      42.489  27.741  33.508  1.00  0.00     0.031 A 
ATOM     47  C   UNL A   1      42.395  24.116  27.771  1.00  0.00     0.031 A 
ATOM     48  C   UNL A   1      43.776  28.041  32.950  1.00  0.00     0.049 A 
ATOM     49  C   UNL A   1      43.508  24.288  28.729  1.00  0.00     0.074 A 
ATOM     50  C   UNL A   1      44.464  29.193  32.636  1.00  0.00     0.029 A 
ATOM     51  N   UNL A   1      44.397  27.007  32.295  1.00  0.00    -0.354 N 
ATOM     52  N   UNL A   1      44.512  25.092  28.530  1.00  0.00    -0.248 NA
ATOM     53  C   UNL A   1      43.402  23.752  30.079  1.00  0.00     0.031 C 
ATOM     54  C   UNL A   1      45.318  28.853  31.549  1.00  0.00     0.029 A 
ATOM     55  C   UNL A   1      45.131  27.503  31.245  1.00  0.00     0.049 A 
ATOM     56  H   UNL A   1      44.326  26.056  32.539  1.00  0.00     0.167 HD
ATOM     57  C   UNL A   1      44.888  25.498  29.797  1.00  0.00     0.074 A 
ATOM     58  C   UNL A   1      44.314  24.508  30.696  1.00  0.00     0.031 C 
ATOM     59  C   UNL A   1      45.355  26.760  30.017  1.00  0.00     0.031 A 
BRANCH  46  60
ATOM     60  C   UNL A   1      42.317  26.871  34.717  1.00  0.00    -0.014 A 
ATOM     61  C   UNL A   1      41.880  27.381  35.957  1.00  0.00     0.009 A 
ATOM     62  C   UNL A   1      42.364  25.476  34.580  1.00  0.00     0.009 A 
ATOM     63  C   UNL A   1      41.554  26.545  37.027  1.00  0.00     0.001 A 
ATOM     64  C   UNL A   1      41.998  24.634  35.637  1.00  0.00     0.001 A 
ATOM     65  C   UNL A   1      41.601  25.168  36.862  1.00  0.00     0.000 A 
ENDBRANCH  46  60
BRANCH  47  66
ATOM     66  C   UNL A   1      42.066  22.796  27.195  1.00  0.00    -0.014 A 
ATOM     67  C   UNL A   1      40.969  22.067  27.687  1.00  0.00     0.009 A 
ATOM     68  C   UNL A   1      42.981  22.126  26.366  1.00  0.00     0.009 A 
ATOM     69  C   UNL A   1      40.818  20.706  27.405  1.00  0.00     0.001 A 
ATOM     70  C   UNL A   1      42.833  20.762  26.088  1.00  0.00     0.001 A 
ATOM     71  C   UNL A   1      41.761  20.049  26.623  1.00  0.00     0.000 A 
ENDBRANCH  47  66
BRANCH  59  72
ATOM     72  C   UNL A   1      45.898  27.521  28.830  1.00  0.00    -0.014 A 
ATOM     73  C   UNL A   1      47.273  27.443  28.563  1.00  0.00     0.009 A 
ATOM     74  C   UNL A   1      45.113  28.372  28.032  1.00  0.00     0.009 A 
ATOM     75  C   UNL A   1      47.848  28.189  27.531  1.00  0.00     0.001 A 
ATOM     76  C   UNL A   1      45.683  29.095  26.980  1.00  0.00     0.001 A 
ATOM     77  C   UNL A   1      47.051  29.009  26.734  1.00  0.00     0.000 A 
ENDBRANCH  59  72
ENDBRANCH  33  34
ENDBRANCH  26  28
ENDBRANCH  25  26
ENDBRANCH  24  25
ENDBRANCH  23  24
ENDBRANCH  22  23
ENDBRANCH   1  22
TORSDOF 17
ENDMDL
