MODEL 1
REMARK VINA RESULT:     -11.0      0.000      0.000
REMARK SMILES O=C(CCCCCN1C(=O)/C(=C2\C(=O)Nc3ccccc32)SC1=S)OCCOCCOC(=O)c1ccc(-c2c3nc(c(-c4ccccc4)c4ccc([nH]4)c(-c4ccccc4)c4nc(c(-c5ccccc5)c5ccc2[nH]5)C=C4)C=C3)cc1
REMARK SMILES IDX 26 1 25 2 2 3 1 4 3 5 4 6 5 7 6 8 7 9 8 10 9 11 23 12 10 13
REMARK SMILES IDX 11 14 22 15 24 16 12 17 13 18 21 19 14 20 15 21 16 22 20 23
REMARK SMILES IDX 17 25 19 26 18 27 27 28 28 29 29 30 30 31 31 32 32 33 33 34
REMARK SMILES IDX 34 35 35 36 81 37 36 38 80 39 37 40 38 41 39 42 74 43 40 44
REMARK SMILES IDX 79 45 73 46 75 47 41 48 78 49 72 50 71 51 42 53 64 54 49 55
REMARK SMILES IDX 63 56 50 57 53 58 62 59 76 60 51 61 52 62 61 64 77 65 54 66
REMARK SMILES IDX 43 67 44 68 48 69 45 70 47 71 46 72 65 73 66 74 70 75 67 76
REMARK SMILES IDX 69 77 68 78 55 79 56 80 60 81 57 82 59 83 58 84
REMARK H PARENT 15 24 75 52 53 63
REMARK Flexibility Score: inf
ROOT
ATOM      1  C   UNL A   1      40.701  21.010  26.205  1.00  0.00     0.261 C 
ENDROOT
BRANCH   1   2
ATOM      2  O   UNL A   1      40.207  22.334  26.429  1.00  0.00    -0.463 OA
BRANCH   2   3
ATOM      3  C   UNL A   1      38.947  22.765  26.218  1.00  0.00     0.305 C 
ATOM      4  O   UNL A   1      38.651  23.909  26.565  1.00  0.00    -0.252 OA
BRANCH   3   5
ATOM      5  C   UNL A   1      37.869  21.843  25.687  1.00  0.00     0.123 C 
BRANCH   5   6
ATOM      6  C   UNL A   1      37.182  22.186  24.372  1.00  0.00     0.012 C 
BRANCH   6   7
ATOM      7  C   UNL A   1      36.187  23.348  24.340  1.00  0.00     0.002 C 
BRANCH   7   8
ATOM      8  C   UNL A   1      34.992  23.295  25.314  1.00  0.00     0.022 C 
BRANCH   8   9
ATOM      9  C   UNL A   1      34.102  24.527  25.387  1.00  0.00     0.127 C 
BRANCH   9  10
ATOM     10  N   UNL A   1      33.006  24.611  24.432  1.00  0.00    -0.293 N 
ATOM     11  C   UNL A   1      33.115  25.268  23.215  1.00  0.00     0.267 C 
ATOM     12  C   UNL A   1      31.787  24.002  24.647  1.00  0.00     0.148 C 
ATOM     13  O   UNL A   1      34.098  25.353  22.503  1.00  0.00    -0.268 OA
ATOM     14  C   UNL A   1      31.758  25.766  22.893  1.00  0.00     0.093 C 
ATOM     15  S   UNL A   1      30.664  24.529  23.403  1.00  0.00    -0.053 SA
ATOM     16  S   UNL A   1      31.338  22.974  25.879  1.00  0.00    -0.052 S 
ATOM     17  C   UNL A   1      31.479  27.057  22.662  1.00  0.00     0.069 C 
ATOM     18  C   UNL A   1      32.494  28.123  22.302  1.00  0.00     0.257 C 
ATOM     19  C   UNL A   1      30.184  27.751  22.790  1.00  0.00     0.012 A 
ATOM     20  O   UNL A   1      33.696  28.036  22.200  1.00  0.00    -0.269 OA
ATOM     21  N   UNL A   1      31.754  29.283  22.134  1.00  0.00    -0.321 N 
ATOM     22  C   UNL A   1      30.412  29.082  22.429  1.00  0.00     0.049 A 
ATOM     23  C   UNL A   1      28.943  27.387  23.289  1.00  0.00     0.011 A 
ATOM     24  H   UNL A   1      32.132  30.143  21.841  1.00  0.00     0.170 HD
ATOM     25  C   UNL A   1      29.426  30.047  22.457  1.00  0.00     0.027 A 
ATOM     26  C   UNL A   1      27.932  28.350  23.350  1.00  0.00     0.001 A 
ATOM     27  C   UNL A   1      28.165  29.664  22.918  1.00  0.00     0.002 A 
ENDBRANCH   9  10
ENDBRANCH   8   9
ENDBRANCH   7   8
ENDBRANCH   6   7
ENDBRANCH   5   6
ENDBRANCH   3   5
ENDBRANCH   2   3
ENDBRANCH   1   2
BRANCH   1  28
ATOM     28  C   UNL A   1      42.187  20.864  26.487  1.00  0.00     0.202 C 
BRANCH  28  29
ATOM     29  O   UNL A   1      43.009  20.633  25.347  1.00  0.00    -0.374 OA
BRANCH  29  30
ATOM     30  C   UNL A   1      44.266  21.315  25.377  1.00  0.00     0.202 C 
BRANCH  30  31
ATOM     31  C   UNL A   1      44.447  22.297  24.212  1.00  0.00     0.261 C 
BRANCH  31  32
ATOM     32  O   UNL A   1      43.841  23.566  24.506  1.00  0.00    -0.460 OA
BRANCH  32  33
ATOM     33  C   UNL A   1      44.669  24.508  25.035  1.00  0.00     0.338 C 
ATOM     34  O   UNL A   1      45.740  24.877  24.589  1.00  0.00    -0.246 OA
BRANCH  33  35
ATOM     35  C   UNL A   1      43.947  25.203  26.134  1.00  0.00     0.060 A 
ATOM     36  C   UNL A   1      42.947  24.561  26.869  1.00  0.00     0.016 A 
ATOM     37  C   UNL A   1      44.208  26.566  26.354  1.00  0.00     0.016 A 
ATOM     38  C   UNL A   1      42.226  25.273  27.828  1.00  0.00     0.010 A 
ATOM     39  C   UNL A   1      43.493  27.277  27.324  1.00  0.00     0.010 A 
ATOM     40  C   UNL A   1      42.514  26.627  28.086  1.00  0.00    -0.014 A 
BRANCH  40  41
ATOM     41  C   UNL A   1      41.948  27.254  29.306  1.00  0.00     0.031 A 
ATOM     42  C   UNL A   1      42.651  27.249  30.628  1.00  0.00     0.074 A 
ATOM     43  C   UNL A   1      40.768  27.889  29.167  1.00  0.00     0.049 A 
ATOM     44  N   UNL A   1      42.351  27.926  31.708  1.00  0.00    -0.248 NA
ATOM     45  C   UNL A   1      43.830  26.382  30.768  1.00  0.00     0.031 C 
ATOM     46  C   UNL A   1      39.986  27.930  27.929  1.00  0.00     0.029 A 
ATOM     47  N   UNL A   1      40.041  28.651  30.046  1.00  0.00    -0.354 N 
ATOM     48  C   UNL A   1      43.312  27.587  32.652  1.00  0.00     0.074 A 
ATOM     49  C   UNL A   1      44.180  26.608  32.030  1.00  0.00     0.031 C 
ATOM     50  C   UNL A   1      38.932  28.737  28.103  1.00  0.00     0.029 A 
ATOM     51  C   UNL A   1      38.935  29.235  29.474  1.00  0.00     0.049 A 
ATOM     52  H   UNL A   1      40.287  28.769  30.992  1.00  0.00     0.167 HD
ATOM     53  C   UNL A   1      43.455  28.066  33.911  1.00  0.00     0.031 A 
ATOM     54  C   UNL A   1      38.032  30.094  29.981  1.00  0.00     0.031 A 
ATOM     55  C   UNL A   1      42.565  29.025  34.522  1.00  0.00     0.049 A 
ATOM     56  C   UNL A   1      38.202  30.581  31.392  1.00  0.00     0.074 A 
ATOM     57  C   UNL A   1      42.658  29.598  35.780  1.00  0.00     0.029 A 
ATOM     58  N   UNL A   1      41.419  29.542  33.934  1.00  0.00    -0.354 N 
ATOM     59  N   UNL A   1      39.168  30.325  32.240  1.00  0.00    -0.248 NA
ATOM     60  C   UNL A   1      37.172  31.491  31.909  1.00  0.00     0.031 C 
ATOM     61  C   UNL A   1      41.529  30.392  35.984  1.00  0.00     0.029 A 
ATOM     62  C   UNL A   1      40.780  30.396  34.819  1.00  0.00     0.049 A 
ATOM     63  H   UNL A   1      41.107  29.333  33.024  1.00  0.00     0.167 HD
ATOM     64  C   UNL A   1      38.879  31.064  33.379  1.00  0.00     0.074 A 
ATOM     65  C   UNL A   1      37.660  31.795  33.104  1.00  0.00     0.031 C 
ATOM     66  C   UNL A   1      39.568  31.127  34.544  1.00  0.00     0.031 A 
BRANCH  53  67
ATOM     67  C   UNL A   1      44.620  27.590  34.740  1.00  0.00    -0.014 A 
ATOM     68  C   UNL A   1      44.445  26.539  35.657  1.00  0.00     0.009 A 
ATOM     69  C   UNL A   1      45.838  28.288  34.738  1.00  0.00     0.009 A 
ATOM     70  C   UNL A   1      45.449  26.220  36.574  1.00  0.00     0.001 A 
ATOM     71  C   UNL A   1      46.853  27.945  35.636  1.00  0.00     0.001 A 
ATOM     72  C   UNL A   1      46.652  26.923  36.563  1.00  0.00     0.000 A 
ENDBRANCH  53  67
BRANCH  54  73
ATOM     73  C   UNL A   1      36.929  30.591  29.115  1.00  0.00    -0.014 A 
ATOM     74  C   UNL A   1      36.902  31.928  28.686  1.00  0.00     0.009 A 
ATOM     75  C   UNL A   1      35.868  29.746  28.758  1.00  0.00     0.009 A 
ATOM     76  C   UNL A   1      35.824  32.416  27.944  1.00  0.00     0.001 A 
ATOM     77  C   UNL A   1      34.810  30.226  27.981  1.00  0.00     0.001 A 
ATOM     78  C   UNL A   1      34.783  31.562  27.587  1.00  0.00     0.000 A 
ENDBRANCH  54  73
BRANCH  66  79
ATOM     79  C   UNL A   1      39.046  32.037  35.627  1.00  0.00    -0.014 A 
ATOM     80  C   UNL A   1      39.523  33.357  35.715  1.00  0.00     0.009 A 
ATOM     81  C   UNL A   1      38.172  31.569  36.619  1.00  0.00     0.009 A 
ATOM     82  C   UNL A   1      39.155  34.178  36.782  1.00  0.00     0.001 A 
ATOM     83  C   UNL A   1      37.773  32.405  37.664  1.00  0.00     0.001 A 
ATOM     84  C   UNL A   1      38.275  33.703  37.752  1.00  0.00     0.000 A 
ENDBRANCH  66  79
ENDBRANCH  40  41
ENDBRANCH  33  35
ENDBRANCH  32  33
ENDBRANCH  31  32
ENDBRANCH  30  31
ENDBRANCH  29  30
ENDBRANCH  28  29
ENDBRANCH   1  28
TORSDOF 19
ENDMDL
MODEL 2
REMARK VINA RESULT:     -10.8      2.072      3.791
REMARK SMILES O=C(CCCCCN1C(=O)/C(=C2\C(=O)Nc3ccccc32)SC1=S)OCCOCCOC(=O)c1ccc(-c2c3nc(c(-c4ccccc4)c4ccc([nH]4)c(-c4ccccc4)c4nc(c(-c5ccccc5)c5ccc2[nH]5)C=C4)C=C3)cc1
REMARK SMILES IDX 26 1 25 2 2 3 1 4 3 5 4 6 5 7 6 8 7 9 8 10 9 11 23 12 10 13
REMARK SMILES IDX 11 14 22 15 24 16 12 17 13 18 21 19 14 20 15 21 16 22 20 23
REMARK SMILES IDX 17 25 19 26 18 27 27 28 28 29 29 30 30 31 31 32 32 33 33 34
REMARK SMILES IDX 34 35 35 36 81 37 36 38 80 39 37 40 38 41 39 42 74 43 40 44
REMARK SMILES IDX 79 45 73 46 75 47 41 48 78 49 72 50 71 51 42 53 64 54 49 55
REMARK SMILES IDX 63 56 50 57 53 58 62 59 76 60 51 61 52 62 61 64 77 65 54 66
REMARK SMILES IDX 43 67 44 68 48 69 45 70 47 71 46 72 65 73 66 74 70 75 67 76
REMARK SMILES IDX 69 77 68 78 55 79 56 80 60 81 57 82 59 83 58 84
REMARK H PARENT 15 24 75 52 53 63
REMARK Flexibility Score: inf
ROOT
ATOM      1  C   UNL A   1      40.653  21.714  26.116  1.00  0.00     0.261 C 
ENDROOT
BRANCH   1   2
ATOM      2  O   UNL A   1      40.095  22.835  26.808  1.00  0.00    -0.463 OA
BRANCH   2   3
ATOM      3  C   UNL A   1      38.939  23.464  26.511  1.00  0.00     0.305 C 
ATOM      4  O   UNL A   1      38.861  24.675  26.717  1.00  0.00    -0.252 OA
BRANCH   3   5
ATOM      5  C   UNL A   1      37.712  22.702  26.057  1.00  0.00     0.123 C 
BRANCH   5   6
ATOM      6  C   UNL A   1      37.276  22.800  24.601  1.00  0.00     0.012 C 
BRANCH   6   7
ATOM      7  C   UNL A   1      35.980  23.543  24.268  1.00  0.00     0.002 C 
BRANCH   7   8
ATOM      8  C   UNL A   1      35.549  24.688  25.207  1.00  0.00     0.022 C 
BRANCH   8   9
ATOM      9  C   UNL A   1      34.176  25.299  24.970  1.00  0.00     0.127 C 
BRANCH   9  10
ATOM     10  N   UNL A   1      33.089  24.384  24.652  1.00  0.00    -0.293 N 
ATOM     11  C   UNL A   1      32.512  23.544  25.594  1.00  0.00     0.267 C 
ATOM     12  C   UNL A   1      32.517  24.316  23.398  1.00  0.00     0.148 C 
ATOM     13  O   UNL A   1      32.341  23.762  26.779  1.00  0.00    -0.268 OA
ATOM     14  C   UNL A   1      32.042  22.352  24.849  1.00  0.00     0.093 C 
ATOM     15  S   UNL A   1      31.423  22.944  23.348  1.00  0.00    -0.053 SA
ATOM     16  S   UNL A   1      32.796  25.286  22.073  1.00  0.00    -0.052 S 
ATOM     17  C   UNL A   1      32.429  21.100  25.136  1.00  0.00     0.069 C 
ATOM     18  C   UNL A   1      33.050  20.652  26.443  1.00  0.00     0.257 C 
ATOM     19  C   UNL A   1      32.433  19.919  24.252  1.00  0.00     0.012 A 
ATOM     20  O   UNL A   1      33.345  21.304  27.417  1.00  0.00    -0.269 OA
ATOM     21  N   UNL A   1      33.257  19.289  26.294  1.00  0.00    -0.321 N 
ATOM     22  C   UNL A   1      32.916  18.855  25.020  1.00  0.00     0.049 A 
ATOM     23  C   UNL A   1      32.203  19.729  22.899  1.00  0.00     0.011 A 
ATOM     24  H   UNL A   1      33.603  18.701  27.004  1.00  0.00     0.170 HD
ATOM     25  C   UNL A   1      33.091  17.583  24.514  1.00  0.00     0.027 A 
ATOM     26  C   UNL A   1      32.394  18.457  22.355  1.00  0.00     0.001 A 
ATOM     27  C   UNL A   1      32.814  17.387  23.160  1.00  0.00     0.002 A 
ENDBRANCH   9  10
ENDBRANCH   8   9
ENDBRANCH   7   8
ENDBRANCH   6   7
ENDBRANCH   5   6
ENDBRANCH   3   5
ENDBRANCH   2   3
ENDBRANCH   1   2
BRANCH   1  28
ATOM     28  C   UNL A   1      42.079  21.396  26.535  1.00  0.00     0.202 C 
BRANCH  28  29
ATOM     29  O   UNL A   1      42.950  20.982  25.486  1.00  0.00    -0.374 OA
BRANCH  29  30
ATOM     30  C   UNL A   1      44.218  21.643  25.476  1.00  0.00     0.202 C 
BRANCH  30  31
ATOM     31  C   UNL A   1      44.402  22.574  24.269  1.00  0.00     0.261 C 
BRANCH  31  32
ATOM     32  O   UNL A   1      43.865  23.879  24.536  1.00  0.00    -0.460 OA
BRANCH  32  33
ATOM     33  C   UNL A   1      44.723  24.767  25.108  1.00  0.00     0.338 C 
ATOM     34  O   UNL A   1      45.815  25.106  24.688  1.00  0.00    -0.246 OA
BRANCH  33  35
ATOM     35  C   UNL A   1      44.016  25.455  26.221  1.00  0.00     0.060 A 
ATOM     36  C   UNL A   1      43.006  24.818  26.946  1.00  0.00     0.016 A 
ATOM     37  C   UNL A   1      44.300  26.809  26.464  1.00  0.00     0.016 A 
ATOM     38  C   UNL A   1      42.299  25.525  27.919  1.00  0.00     0.010 A 
ATOM     39  C   UNL A   1      43.599  27.515  27.447  1.00  0.00     0.010 A 
ATOM     40  C   UNL A   1      42.611  26.869  28.200  1.00  0.00    -0.014 A 
BRANCH  40  41
ATOM     41  C   UNL A   1      42.058  27.483  29.432  1.00  0.00     0.031 A 
ATOM     42  C   UNL A   1      42.751  27.420  30.758  1.00  0.00     0.074 A 
ATOM     43  C   UNL A   1      40.901  28.162  29.302  1.00  0.00     0.049 A 
ATOM     44  N   UNL A   1      42.467  28.080  31.853  1.00  0.00    -0.248 NA
ATOM     45  C   UNL A   1      43.898  26.510  30.883  1.00  0.00     0.031 C 
ATOM     46  C   UNL A   1      40.131  28.262  28.060  1.00  0.00     0.029 A 
ATOM     47  N   UNL A   1      40.195  28.927  30.196  1.00  0.00    -0.354 N 
ATOM     48  C   UNL A   1      43.408  27.684  32.794  1.00  0.00     0.074 A 
ATOM     49  C   UNL A   1      44.247  26.692  32.153  1.00  0.00     0.031 C 
ATOM     50  C   UNL A   1      39.104  29.101  28.248  1.00  0.00     0.029 A 
ATOM     51  C   UNL A   1      39.114  29.563  29.632  1.00  0.00     0.049 A 
ATOM     52  H   UNL A   1      40.437  29.012  31.146  1.00  0.00     0.167 HD
ATOM     53  C   UNL A   1      43.558  28.125  34.066  1.00  0.00     0.031 A 
ATOM     54  C   UNL A   1      38.238  30.440  30.155  1.00  0.00     0.031 A 
ATOM     55  C   UNL A   1      42.697  29.098  34.695  1.00  0.00     0.049 A 
ATOM     56  C   UNL A   1      38.414  30.884  31.579  1.00  0.00     0.074 A 
ATOM     57  C   UNL A   1      42.801  29.636  35.968  1.00  0.00     0.029 A 
ATOM     58  N   UNL A   1      41.575  29.670  34.114  1.00  0.00    -0.354 N 
ATOM     59  N   UNL A   1      39.364  30.573  32.426  1.00  0.00    -0.248 NA
ATOM     60  C   UNL A   1      37.412  31.816  32.112  1.00  0.00     0.031 C 
ATOM     61  C   UNL A   1      41.699  30.463  36.186  1.00  0.00     0.029 A 
ATOM     62  C   UNL A   1      40.959  30.523  35.017  1.00  0.00     0.049 A 
ATOM     63  H   UNL A   1      41.262  29.495  33.197  1.00  0.00     0.167 HD
ATOM     64  C   UNL A   1      39.093  31.293  33.582  1.00  0.00     0.074 A 
ATOM     65  C   UNL A   1      37.902  32.073  33.318  1.00  0.00     0.031 C 
ATOM     66  C   UNL A   1      39.775  31.302  34.753  1.00  0.00     0.031 A 
BRANCH  53  67
ATOM     67  C   UNL A   1      44.700  27.588  34.890  1.00  0.00    -0.014 A 
ATOM     68  C   UNL A   1      45.996  28.105  34.714  1.00  0.00     0.009 A 
ATOM     69  C   UNL A   1      44.529  26.463  35.711  1.00  0.00     0.009 A 
ATOM     70  C   UNL A   1      47.096  27.489  35.314  1.00  0.00     0.001 A 
ATOM     71  C   UNL A   1      45.628  25.868  36.336  1.00  0.00     0.001 A 
ATOM     72  C   UNL A   1      46.911  26.371  36.125  1.00  0.00     0.000 A 
ENDBRANCH  53  67
BRANCH  54  73
ATOM     73  C   UNL A   1      37.159  30.996  29.295  1.00  0.00    -0.014 A 
ATOM     74  C   UNL A   1      37.268  32.288  28.754  1.00  0.00     0.009 A 
ATOM     75  C   UNL A   1      35.988  30.262  29.055  1.00  0.00     0.009 A 
ATOM     76  C   UNL A   1      36.220  32.843  28.017  1.00  0.00     0.001 A 
ATOM     77  C   UNL A   1      34.956  30.803  28.284  1.00  0.00     0.001 A 
ATOM     78  C   UNL A   1      35.068  32.096  27.777  1.00  0.00     0.000 A 
ENDBRANCH  54  73
BRANCH  66  79
ATOM     79  C   UNL A   1      39.277  32.202  35.855  1.00  0.00    -0.014 A 
ATOM     80  C   UNL A   1      38.287  31.738  36.738  1.00  0.00     0.009 A 
ATOM     81  C   UNL A   1      39.702  33.535  35.960  1.00  0.00     0.009 A 
ATOM     82  C   UNL A   1      37.718  32.592  37.684  1.00  0.00     0.001 A 
ATOM     83  C   UNL A   1      39.160  34.377  36.933  1.00  0.00     0.001 A 
ATOM     84  C   UNL A   1      38.160  33.910  37.785  1.00  0.00     0.000 A 
ENDBRANCH  66  79
ENDBRANCH  40  41
ENDBRANCH  33  35
ENDBRANCH  32  33
ENDBRANCH  31  32
ENDBRANCH  30  31
ENDBRANCH  29  30
ENDBRANCH  28  29
ENDBRANCH   1  28
TORSDOF 19
ENDMDL
MODEL 3
REMARK VINA RESULT:     -10.6      3.795      9.807
REMARK SMILES O=C(CCCCCN1C(=O)/C(=C2\C(=O)Nc3ccccc32)SC1=S)OCCOCCOC(=O)c1ccc(-c2c3nc(c(-c4ccccc4)c4ccc([nH]4)c(-c4ccccc4)c4nc(c(-c5ccccc5)c5ccc2[nH]5)C=C4)C=C3)cc1
REMARK SMILES IDX 26 1 25 2 2 3 1 4 3 5 4 6 5 7 6 8 7 9 8 10 9 11 23 12 10 13
REMARK SMILES IDX 11 14 22 15 24 16 12 17 13 18 21 19 14 20 15 21 16 22 20 23
REMARK SMILES IDX 17 25 19 26 18 27 27 28 28 29 29 30 30 31 31 32 32 33 33 34
REMARK SMILES IDX 34 35 35 36 81 37 36 38 80 39 37 40 38 41 39 42 74 43 40 44
REMARK SMILES IDX 79 45 73 46 75 47 41 48 78 49 72 50 71 51 42 53 64 54 49 55
REMARK SMILES IDX 63 56 50 57 53 58 62 59 76 60 51 61 52 62 61 64 77 65 54 66
REMARK SMILES IDX 43 67 44 68 48 69 45 70 47 71 46 72 65 73 66 74 70 75 67 76
REMARK SMILES IDX 69 77 68 78 55 79 56 80 60 81 57 82 59 83 58 84
REMARK H PARENT 15 24 75 52 53 63
REMARK Flexibility Score: inf
ROOT
ATOM      1  C   UNL A   1      34.678  33.315  28.068  1.00  0.00     0.261 C 
ENDROOT
BRANCH   1   2
ATOM      2  O   UNL A   1      34.986  32.118  27.348  1.00  0.00    -0.463 OA
BRANCH   2   3
ATOM      3  C   UNL A   1      35.827  31.140  27.742  1.00  0.00     0.305 C 
ATOM      4  O   UNL A   1      36.974  31.446  28.065  1.00  0.00    -0.252 OA
BRANCH   3   5
ATOM      5  C   UNL A   1      35.434  29.679  27.675  1.00  0.00     0.123 C 
BRANCH   5   6
ATOM      6  C   UNL A   1      34.222  29.274  26.846  1.00  0.00     0.012 C 
BRANCH   6   7
ATOM      7  C   UNL A   1      32.845  29.259  27.513  1.00  0.00     0.002 C 
BRANCH   7   8
ATOM      8  C   UNL A   1      31.807  28.246  26.990  1.00  0.00     0.022 C 
BRANCH   8   9
ATOM      9  C   UNL A   1      31.387  28.373  25.533  1.00  0.00     0.127 C 
BRANCH   9  10
ATOM     10  N   UNL A   1      31.501  27.181  24.703  1.00  0.00    -0.293 N 
ATOM     11  C   UNL A   1      30.743  26.039  24.918  1.00  0.00     0.267 C 
ATOM     12  C   UNL A   1      32.338  27.116  23.609  1.00  0.00     0.148 C 
ATOM     13  O   UNL A   1      29.600  25.972  25.329  1.00  0.00    -0.268 OA
ATOM     14  C   UNL A   1      31.569  24.903  24.447  1.00  0.00     0.093 C 
ATOM     15  S   UNL A   1      32.376  25.460  23.024  1.00  0.00    -0.053 SA
ATOM     16  S   UNL A   1      33.250  28.328  22.921  1.00  0.00    -0.052 S 
ATOM     17  C   UNL A   1      31.908  23.863  25.223  1.00  0.00     0.069 C 
ATOM     18  C   UNL A   1      31.219  23.470  26.513  1.00  0.00     0.257 C 
ATOM     19  C   UNL A   1      33.049  22.940  25.069  1.00  0.00     0.012 A 
ATOM     20  O   UNL A   1      30.305  24.010  27.092  1.00  0.00    -0.269 OA
ATOM     21  N   UNL A   1      31.885  22.334  26.946  1.00  0.00    -0.321 N 
ATOM     22  C   UNL A   1      32.960  22.026  26.123  1.00  0.00     0.049 A 
ATOM     23  C   UNL A   1      34.155  22.909  24.236  1.00  0.00     0.011 A 
ATOM     24  H   UNL A   1      31.629  21.810  27.739  1.00  0.00     0.170 HD
ATOM     25  C   UNL A   1      33.884  21.021  26.325  1.00  0.00     0.027 A 
ATOM     26  C   UNL A   1      35.119  21.916  24.431  1.00  0.00     0.001 A 
ATOM     27  C   UNL A   1      34.974  20.966  25.454  1.00  0.00     0.002 A 
ENDBRANCH   9  10
ENDBRANCH   8   9
ENDBRANCH   7   8
ENDBRANCH   6   7
ENDBRANCH   5   6
ENDBRANCH   3   5
ENDBRANCH   2   3
ENDBRANCH   1   2
BRANCH   1  28
ATOM     28  C   UNL A   1      34.320  33.070  29.524  1.00  0.00     0.202 C 
BRANCH  28  29
ATOM     29  O   UNL A   1      33.386  33.983  30.091  1.00  0.00    -0.374 OA
BRANCH  29  30
ATOM     30  C   UNL A   1      33.319  35.248  29.426  1.00  0.00     0.202 C 
BRANCH  30  31
ATOM     31  C   UNL A   1      32.880  36.392  30.350  1.00  0.00     0.261 C 
BRANCH  31  32
ATOM     32  O   UNL A   1      32.378  35.885  31.598  1.00  0.00    -0.460 OA
BRANCH  32  33
ATOM     33  C   UNL A   1      33.079  36.245  32.707  1.00  0.00     0.338 C 
ATOM     34  O   UNL A   1      32.759  37.075  33.540  1.00  0.00    -0.246 OA
BRANCH  33  35
ATOM     35  C   UNL A   1      34.203  35.288  32.883  1.00  0.00     0.060 A 
ATOM     36  C   UNL A   1      35.501  35.606  32.476  1.00  0.00     0.016 A 
ATOM     37  C   UNL A   1      33.921  33.999  33.367  1.00  0.00     0.016 A 
ATOM     38  C   UNL A   1      36.511  34.648  32.569  1.00  0.00     0.010 A 
ATOM     39  C   UNL A   1      34.936  33.042  33.471  1.00  0.00     0.010 A 
ATOM     40  C   UNL A   1      36.245  33.370  33.097  1.00  0.00    -0.014 A 
BRANCH  40  41
ATOM     41  C   UNL A   1      37.390  32.500  33.462  1.00  0.00     0.031 A 
ATOM     42  C   UNL A   1      37.905  31.412  32.571  1.00  0.00     0.074 A 
ATOM     43  C   UNL A   1      37.999  32.762  34.635  1.00  0.00     0.049 A 
ATOM     44  N   UNL A   1      39.011  30.721  32.691  1.00  0.00    -0.248 NA
ATOM     45  C   UNL A   1      37.089  31.045  31.405  1.00  0.00     0.031 C 
ATOM     46  C   UNL A   1      37.560  33.782  35.590  1.00  0.00     0.029 A 
ATOM     47  N   UNL A   1      39.130  32.235  35.206  1.00  0.00    -0.354 N 
ATOM     48  C   UNL A   1      39.038  29.851  31.610  1.00  0.00     0.074 A 
ATOM     49  C   UNL A   1      37.815  30.070  30.866  1.00  0.00     0.031 C 
ATOM     50  C   UNL A   1      38.449  33.860  36.588  1.00  0.00     0.029 A 
ATOM     51  C   UNL A   1      39.496  32.867  36.370  1.00  0.00     0.049 A 
ATOM     52  H   UNL A   1      39.629  31.480  34.820  1.00  0.00     0.167 HD
ATOM     53  C   UNL A   1      40.007  28.967  31.271  1.00  0.00     0.031 A 
ATOM     54  C   UNL A   1      40.566  32.691  37.168  1.00  0.00     0.031 A 
ATOM     55  C   UNL A   1      41.210  28.745  32.038  1.00  0.00     0.049 A 
ATOM     56  C   UNL A   1      41.606  31.679  36.779  1.00  0.00     0.074 A 
ATOM     57  C   UNL A   1      42.267  27.898  31.747  1.00  0.00     0.029 A 
ATOM     58  N   UNL A   1      41.514  29.357  33.246  1.00  0.00    -0.354 N 
ATOM     59  N   UNL A   1      41.665  30.932  35.704  1.00  0.00    -0.248 NA
ATOM     60  C   UNL A   1      42.736  31.502  37.701  1.00  0.00     0.031 C 
ATOM     61  C   UNL A   1      43.164  27.933  32.814  1.00  0.00     0.029 A 
ATOM     62  C   UNL A   1      42.721  28.875  33.727  1.00  0.00     0.049 A 
ATOM     63  H   UNL A   1      40.955  30.031  33.694  1.00  0.00     0.167 HD
ATOM     64  C   UNL A   1      42.852  30.218  35.804  1.00  0.00     0.074 A 
ATOM     65  C   UNL A   1      43.490  30.639  37.034  1.00  0.00     0.031 C 
ATOM     66  C   UNL A   1      43.360  29.297  34.949  1.00  0.00     0.031 A 
BRANCH  53  67
ATOM     67  C   UNL A   1      39.845  28.162  30.007  1.00  0.00    -0.014 A 
ATOM     68  C   UNL A   1      39.265  26.882  30.060  1.00  0.00     0.009 A 
ATOM     69  C   UNL A   1      40.416  28.594  28.800  1.00  0.00     0.009 A 
ATOM     70  C   UNL A   1      39.289  26.042  28.944  1.00  0.00     0.001 A 
ATOM     71  C   UNL A   1      40.410  27.763  27.676  1.00  0.00     0.001 A 
ATOM     72  C   UNL A   1      39.862  26.483  27.753  1.00  0.00     0.000 A 
ENDBRANCH  53  67
BRANCH  54  73
ATOM     73  C   UNL A   1      40.725  33.546  38.375  1.00  0.00    -0.014 A 
ATOM     74  C   UNL A   1      40.196  33.142  39.613  1.00  0.00     0.009 A 
ATOM     75  C   UNL A   1      41.358  34.794  38.287  1.00  0.00     0.009 A 
ATOM     76  C   UNL A   1      40.271  33.982  40.726  1.00  0.00     0.001 A 
ATOM     77  C   UNL A   1      41.468  35.615  39.412  1.00  0.00     0.001 A 
ATOM     78  C   UNL A   1      40.914  35.214  40.626  1.00  0.00     0.000 A 
ENDBRANCH  54  73
BRANCH  66  79
ATOM     79  C   UNL A   1      44.694  28.681  35.283  1.00  0.00    -0.014 A 
ATOM     80  C   UNL A   1      45.872  29.255  34.773  1.00  0.00     0.009 A 
ATOM     81  C   UNL A   1      44.786  27.483  36.007  1.00  0.00     0.009 A 
ATOM     82  C   UNL A   1      47.107  28.631  34.960  1.00  0.00     0.001 A 
ATOM     83  C   UNL A   1      46.028  26.882  36.227  1.00  0.00     0.001 A 
ATOM     84  C   UNL A   1      47.185  27.449  35.693  1.00  0.00     0.000 A 
ENDBRANCH  66  79
ENDBRANCH  40  41
ENDBRANCH  33  35
ENDBRANCH  32  33
ENDBRANCH  31  32
ENDBRANCH  30  31
ENDBRANCH  29  30
ENDBRANCH  28  29
ENDBRANCH   1  28
TORSDOF 19
ENDMDL
