MODEL 1
REMARK VINA RESULT:      -9.3      0.000      0.000
REMARK SMILES CC(C)(C)OCC[C@@H]1CCC[C@]1([NH2+]C1CC1)C(=O)OCCOCCOC(=O)c1ccc(-c2c3nc(c(-c4ccccc4)c4ccc([nH]4)c(-c4ccccc4)c4nc(c(-c5ccccc5)c5ccc2[nH]5)C=C4)C=C3)cc1
REMARK SMILES IDX 21 1 20 2 19 3 17 4 18 5 12 6 8 7 9 8 10 9 11 10 7 11 6 12
REMARK SMILES IDX 5 13 2 14 1 15 3 16 4 17 13 18 14 21 15 22 16 23 22 24 23 25
REMARK SMILES IDX 24 26 25 27 26 28 27 29 28 30 29 31 75 32 30 33 74 34 31 35
REMARK SMILES IDX 32 36 33 37 68 38 34 39 73 40 67 41 69 42 35 43 72 44 66 45
REMARK SMILES IDX 65 46 36 48 58 49 43 50 57 51 44 52 47 53 56 54 70 55 45 56
REMARK SMILES IDX 46 57 55 59 71 60 48 61 37 62 38 63 42 64 39 65 41 66 40 67
REMARK SMILES IDX 59 68 60 69 64 70 61 71 63 72 62 73 49 74 50 75 54 76 51 77
REMARK SMILES IDX 53 78 52 79
REMARK H PARENT 13 19 13 20 69 47 47 58
REMARK Flexibility Score: inf
ROOT
ATOM      1  C   UNL A   1      38.401  20.761  25.255  1.00  0.00     0.202 C 
ENDROOT
BRANCH   1   2
ATOM      2  C   UNL A   1      37.227  21.803  25.161  1.00  0.00     0.261 C 
BRANCH   2   3
ATOM      3  O   UNL A   1      35.895  21.232  24.940  1.00  0.00    -0.459 OA
BRANCH   3   4
ATOM      4  C   UNL A   1      34.847  21.649  25.722  1.00  0.00     0.368 C 
ATOM      5  O   UNL A   1      34.819  21.444  26.935  1.00  0.00    -0.245 OA
BRANCH   4   6
ATOM      6  C   UNL A   1      33.697  22.469  24.950  1.00  0.00     0.197 C 
ATOM      7  C   UNL A   1      32.435  21.595  24.483  1.00  0.00     0.065 C 
ATOM      8  C   UNL A   1      32.168  21.805  22.969  1.00  0.00     0.011 C 
ATOM      9  C   UNL A   1      33.277  22.673  22.410  1.00  0.00     0.008 C 
ATOM     10  C   UNL A   1      34.081  23.195  23.602  1.00  0.00     0.081 C 
BRANCH   7  11
ATOM     11  C   UNL A   1      32.251  20.100  24.892  1.00  0.00     0.039 C 
BRANCH  11  12
ATOM     12  C   UNL A   1      33.191  18.919  24.448  1.00  0.00     0.161 C 
BRANCH  12  13
ATOM     13  O   UNL A   1      33.506  17.822  25.326  1.00  0.00    -0.376 OA
BRANCH  13  14
ATOM     14  C   UNL A   1      33.830  16.487  24.867  1.00  0.00     0.060 C 
ATOM     15  C   UNL A   1      35.244  15.989  25.248  1.00  0.00     0.042 C 
ATOM     16  C   UNL A   1      33.962  16.615  23.411  1.00  0.00     0.042 C 
ATOM     17  C   UNL A   1      32.789  15.415  25.168  1.00  0.00     0.042 C 
ENDBRANCH  13  14
ENDBRANCH  12  13
ENDBRANCH  11  12
ENDBRANCH   7  11
BRANCH   6  18
ATOM     18  N   UNL A   1      33.273  23.575  25.885  1.00  0.00    -0.329 N 
ATOM     19  H   UNL A   1      34.131  23.927  26.308  1.00  0.00     0.347 HD
ATOM     20  H   UNL A   1      32.573  23.096  26.452  1.00  0.00     0.347 HD
BRANCH  18  21
ATOM     21  C   UNL A   1      32.509  24.785  25.445  1.00  0.00     0.183 C 
ATOM     22  C   UNL A   1      31.058  24.902  25.074  1.00  0.00     0.071 C 
ATOM     23  C   UNL A   1      31.572  25.601  26.298  1.00  0.00     0.071 C 
ENDBRANCH  18  21
ENDBRANCH   6  18
ENDBRANCH   4   6
ENDBRANCH   3   4
ENDBRANCH   2   3
ENDBRANCH   1   2
BRANCH   1  24
ATOM     24  O   UNL A   1      39.280  21.107  26.330  1.00  0.00    -0.374 OA
BRANCH  24  25
ATOM     25  C   UNL A   1      40.643  20.667  26.364  1.00  0.00     0.202 C 
BRANCH  25  26
ATOM     26  C   UNL A   1      41.774  21.715  26.212  1.00  0.00     0.261 C 
BRANCH  26  27
ATOM     27  O   UNL A   1      41.240  22.994  25.905  1.00  0.00    -0.460 OA
BRANCH  27  28
ATOM     28  C   UNL A   1      42.170  23.944  26.088  1.00  0.00     0.338 C 
ATOM     29  O   UNL A   1      43.275  24.032  25.560  1.00  0.00    -0.246 OA
BRANCH  28  30
ATOM     30  C   UNL A   1      41.505  25.053  26.742  1.00  0.00     0.060 A 
ATOM     31  C   UNL A   1      42.039  26.320  26.498  1.00  0.00     0.016 A 
ATOM     32  C   UNL A   1      40.420  24.846  27.596  1.00  0.00     0.016 A 
ATOM     33  C   UNL A   1      41.596  27.377  27.255  1.00  0.00     0.010 A 
ATOM     34  C   UNL A   1      39.962  25.916  28.346  1.00  0.00     0.010 A 
ATOM     35  C   UNL A   1      40.620  27.150  28.236  1.00  0.00    -0.014 A 
BRANCH  35  36
ATOM     36  C   UNL A   1      40.501  28.156  29.297  1.00  0.00     0.031 A 
ATOM     37  C   UNL A   1      41.567  28.204  30.355  1.00  0.00     0.074 A 
ATOM     38  C   UNL A   1      39.543  29.088  29.203  1.00  0.00     0.049 A 
ATOM     39  N   UNL A   1      41.728  29.066  31.322  1.00  0.00    -0.248 NA
ATOM     40  C   UNL A   1      42.596  27.147  30.315  1.00  0.00     0.031 C 
ATOM     41  C   UNL A   1      38.522  29.144  28.155  1.00  0.00     0.029 A 
ATOM     42  N   UNL A   1      39.301  30.184  29.979  1.00  0.00    -0.354 N 
ATOM     43  C   UNL A   1      42.862  28.649  32.008  1.00  0.00     0.074 A 
ATOM     44  C   UNL A   1      43.334  27.442  31.373  1.00  0.00     0.031 C 
ATOM     45  C   UNL A   1      37.772  30.241  28.343  1.00  0.00     0.029 A 
ATOM     46  C   UNL A   1      38.236  30.927  29.545  1.00  0.00     0.049 A 
ATOM     47  H   UNL A   1      39.838  30.418  30.769  1.00  0.00     0.167 HD
ATOM     48  C   UNL A   1      43.457  29.235  33.072  1.00  0.00     0.031 A 
ATOM     49  C   UNL A   1      37.689  32.031  30.081  1.00  0.00     0.031 A 
ATOM     50  C   UNL A   1      42.965  30.438  33.684  1.00  0.00     0.049 A 
ATOM     51  C   UNL A   1      38.323  32.612  31.312  1.00  0.00     0.074 A 
ATOM     52  C   UNL A   1      43.484  31.131  34.761  1.00  0.00     0.029 A 
ATOM     53  N   UNL A   1      41.830  31.121  33.271  1.00  0.00    -0.354 N 
ATOM     54  N   UNL A   1      39.403  32.223  31.949  1.00  0.00    -0.248 NA
ATOM     55  C   UNL A   1      37.667  33.787  31.894  1.00  0.00     0.031 C 
ATOM     56  C   UNL A   1      42.620  32.194  35.045  1.00  0.00     0.029 A 
ATOM     57  C   UNL A   1      41.607  32.206  34.099  1.00  0.00     0.049 A 
ATOM     58  H   UNL A   1      41.267  30.871  32.502  1.00  0.00     0.167 HD
ATOM     59  C   UNL A   1      39.567  33.115  32.998  1.00  0.00     0.074 A 
ATOM     60  C   UNL A   1      38.490  34.081  32.892  1.00  0.00     0.031 C 
ATOM     61  C   UNL A   1      40.516  33.138  33.967  1.00  0.00     0.031 A 
BRANCH  48  62
ATOM     62  C   UNL A   1      44.657  28.555  33.665  1.00  0.00    -0.014 A 
ATOM     63  C   UNL A   1      45.964  28.869  33.259  1.00  0.00     0.009 A 
ATOM     64  C   UNL A   1      44.474  27.597  34.676  1.00  0.00     0.009 A 
ATOM     65  C   UNL A   1      47.060  28.218  33.836  1.00  0.00     0.001 A 
ATOM     66  C   UNL A   1      45.571  26.972  35.271  1.00  0.00     0.001 A 
ATOM     67  C   UNL A   1      46.862  27.277  34.845  1.00  0.00     0.000 A 
ENDBRANCH  48  62
BRANCH  49  68
ATOM     68  C   UNL A   1      36.465  32.614  29.479  1.00  0.00    -0.014 A 
ATOM     69  C   UNL A   1      36.542  33.645  28.533  1.00  0.00     0.009 A 
ATOM     70  C   UNL A   1      35.200  32.129  29.853  1.00  0.00     0.009 A 
ATOM     71  C   UNL A   1      35.377  34.197  27.996  1.00  0.00     0.001 A 
ATOM     72  C   UNL A   1      34.040  32.658  29.290  1.00  0.00     0.001 A 
ATOM     73  C   UNL A   1      34.129  33.701  28.370  1.00  0.00     0.000 A 
ENDBRANCH  49  68
BRANCH  61  74
ATOM     74  C   UNL A   1      40.435  34.256  34.969  1.00  0.00    -0.014 A 
ATOM     75  C   UNL A   1      41.065  35.488  34.737  1.00  0.00     0.009 A 
ATOM     76  C   UNL A   1      39.684  34.083  36.141  1.00  0.00     0.009 A 
ATOM     77  C   UNL A   1      40.978  36.511  35.681  1.00  0.00     0.001 A 
ATOM     78  C   UNL A   1      39.569  35.119  37.066  1.00  0.00     0.001 A 
ATOM     79  C   UNL A   1      40.226  36.328  36.841  1.00  0.00     0.000 A 
ENDBRANCH  61  74
ENDBRANCH  35  36
ENDBRANCH  28  30
ENDBRANCH  27  28
ENDBRANCH  26  27
ENDBRANCH  25  26
ENDBRANCH  24  25
ENDBRANCH   1  24
TORSDOF 20
ENDMDL
MODEL 2
REMARK VINA RESULT:      -9.3      3.528      8.591
REMARK SMILES CC(C)(C)OCC[C@@H]1CCC[C@]1([NH2+]C1CC1)C(=O)OCCOCCOC(=O)c1ccc(-c2c3nc(c(-c4ccccc4)c4ccc([nH]4)c(-c4ccccc4)c4nc(c(-c5ccccc5)c5ccc2[nH]5)C=C4)C=C3)cc1
REMARK SMILES IDX 21 1 20 2 19 3 17 4 18 5 12 6 8 7 9 8 10 9 11 10 7 11 6 12
REMARK SMILES IDX 5 13 2 14 1 15 3 16 4 17 13 18 14 21 15 22 16 23 22 24 23 25
REMARK SMILES IDX 24 26 25 27 26 28 27 29 28 30 29 31 75 32 30 33 74 34 31 35
REMARK SMILES IDX 32 36 33 37 68 38 34 39 73 40 67 41 69 42 35 43 72 44 66 45
REMARK SMILES IDX 65 46 36 48 58 49 43 50 57 51 44 52 47 53 56 54 70 55 45 56
REMARK SMILES IDX 46 57 55 59 71 60 48 61 37 62 38 63 42 64 39 65 41 66 40 67
REMARK SMILES IDX 59 68 60 69 64 70 61 71 63 72 62 73 49 74 50 75 54 76 51 77
REMARK SMILES IDX 53 78 52 79
REMARK H PARENT 13 19 13 20 69 47 47 58
REMARK Flexibility Score: inf
ROOT
ATOM      1  C   UNL A   1      31.929  29.090  26.511  1.00  0.00     0.202 C 
ENDROOT
BRANCH   1   2
ATOM      2  C   UNL A   1      33.036  28.207  27.196  1.00  0.00     0.261 C 
BRANCH   2   3
ATOM      3  O   UNL A   1      33.417  26.995  26.463  1.00  0.00    -0.459 OA
BRANCH   3   4
ATOM      4  C   UNL A   1      32.446  26.096  26.100  1.00  0.00     0.368 C 
ATOM      5  O   UNL A   1      31.498  25.830  26.838  1.00  0.00    -0.245 OA
BRANCH   4   6
ATOM      6  C   UNL A   1      32.609  25.465  24.628  1.00  0.00     0.197 C 
ATOM      7  C   UNL A   1      32.006  26.353  23.437  1.00  0.00     0.065 C 
ATOM      8  C   UNL A   1      31.035  25.505  22.573  1.00  0.00     0.011 C 
ATOM      9  C   UNL A   1      30.884  24.147  23.229  1.00  0.00     0.008 C 
ATOM     10  C   UNL A   1      31.931  24.068  24.341  1.00  0.00     0.081 C 
BRANCH   7  11
ATOM     11  C   UNL A   1      31.456  27.797  23.660  1.00  0.00     0.039 C 
BRANCH  11  12
ATOM     12  C   UNL A   1      30.243  28.432  22.885  1.00  0.00     0.161 C 
BRANCH  12  13
ATOM     13  O   UNL A   1      29.443  29.487  23.451  1.00  0.00    -0.376 OA
BRANCH  13  14
ATOM     14  C   UNL A   1      28.208  29.967  22.866  1.00  0.00     0.060 C 
ATOM     15  C   UNL A   1      27.550  31.155  23.607  1.00  0.00     0.042 C 
ATOM     16  C   UNL A   1      27.232  28.901  23.127  1.00  0.00     0.042 C 
ATOM     17  C   UNL A   1      28.247  30.232  21.366  1.00  0.00     0.042 C 
ENDBRANCH  13  14
ENDBRANCH  12  13
ENDBRANCH  11  12
ENDBRANCH   7  11
BRANCH   6  18
ATOM     18  N   UNL A   1      34.087  25.231  24.434  1.00  0.00    -0.329 N 
ATOM     19  H   UNL A   1      34.558  25.915  25.026  1.00  0.00     0.347 HD
ATOM     20  H   UNL A   1      34.163  25.286  23.419  1.00  0.00     0.347 HD
BRANCH  18  21
ATOM     21  C   UNL A   1      34.762  23.923  24.705  1.00  0.00     0.183 C 
ATOM     22  C   UNL A   1      36.227  23.635  24.878  1.00  0.00     0.071 C 
ATOM     23  C   UNL A   1      35.291  23.456  26.037  1.00  0.00     0.071 C 
ENDBRANCH  18  21
ENDBRANCH   6  18
ENDBRANCH   4   6
ENDBRANCH   3   4
ENDBRANCH   2   3
ENDBRANCH   1   2
BRANCH   1  24
ATOM     24  O   UNL A   1      32.385  30.441  26.390  1.00  0.00    -0.374 OA
BRANCH  24  25
ATOM     25  C   UNL A   1      31.471  31.538  26.272  1.00  0.00     0.202 C 
BRANCH  25  26
ATOM     26  C   UNL A   1      31.668  32.781  27.177  1.00  0.00     0.261 C 
BRANCH  26  27
ATOM     27  O   UNL A   1      33.014  32.875  27.619  1.00  0.00    -0.460 OA
BRANCH  27  28
ATOM     28  C   UNL A   1      33.251  34.089  28.137  1.00  0.00     0.338 C 
ATOM     29  O   UNL A   1      32.535  35.086  28.086  1.00  0.00    -0.246 OA
BRANCH  28  30
ATOM     30  C   UNL A   1      34.334  33.929  29.088  1.00  0.00     0.060 A 
ATOM     31  C   UNL A   1      35.580  34.417  28.687  1.00  0.00     0.016 A 
ATOM     32  C   UNL A   1      34.136  33.286  30.310  1.00  0.00     0.016 A 
ATOM     33  C   UNL A   1      36.683  34.101  29.443  1.00  0.00     0.010 A 
ATOM     34  C   UNL A   1      35.246  32.984  31.080  1.00  0.00     0.010 A 
ATOM     35  C   UNL A   1      36.519  33.311  30.589  1.00  0.00    -0.014 A 
BRANCH  35  36
ATOM     36  C   UNL A   1      37.714  32.632  31.102  1.00  0.00     0.031 A 
ATOM     37  C   UNL A   1      38.204  32.993  32.475  1.00  0.00     0.074 A 
ATOM     38  C   UNL A   1      38.231  31.613  30.401  1.00  0.00     0.049 A 
ATOM     39  N   UNL A   1      39.168  32.455  33.172  1.00  0.00    -0.248 NA
ATOM     40  C   UNL A   1      37.513  34.101  33.161  1.00  0.00     0.031 C 
ATOM     41  C   UNL A   1      37.752  31.161  29.093  1.00  0.00     0.029 A 
ATOM     42  N   UNL A   1      39.246  30.756  30.712  1.00  0.00    -0.354 N 
ATOM     43  C   UNL A   1      39.205  33.163  34.367  1.00  0.00     0.074 A 
ATOM     44  C   UNL A   1      38.194  34.191  34.292  1.00  0.00     0.031 C 
ATOM     45  C   UNL A   1      38.465  30.086  28.722  1.00  0.00     0.029 A 
ATOM     46  C   UNL A   1      39.470  29.813  29.745  1.00  0.00     0.049 A 
ATOM     47  H   UNL A   1      39.764  30.809  31.547  1.00  0.00     0.167 HD
ATOM     48  C   UNL A   1      40.012  32.962  35.432  1.00  0.00     0.031 A 
ATOM     49  C   UNL A   1      40.405  28.849  29.692  1.00  0.00     0.031 A 
ATOM     50  C   UNL A   1      41.011  31.931  35.479  1.00  0.00     0.049 A 
ATOM     51  C   UNL A   1      41.341  28.702  30.857  1.00  0.00     0.074 A 
ATOM     52  C   UNL A   1      41.883  31.622  36.504  1.00  0.00     0.029 A 
ATOM     53  N   UNL A   1      41.270  31.043  34.445  1.00  0.00    -0.354 N 
ATOM     54  N   UNL A   1      41.364  29.366  31.989  1.00  0.00    -0.248 NA
ATOM     55  C   UNL A   1      42.378  27.671  30.738  1.00  0.00     0.031 C 
ATOM     56  C   UNL A   1      42.721  30.594  36.061  1.00  0.00     0.029 A 
ATOM     57  C   UNL A   1      42.320  30.212  34.790  1.00  0.00     0.049 A 
ATOM     58  H   UNL A   1      40.779  31.009  33.591  1.00  0.00     0.167 HD
ATOM     59  C   UNL A   1      42.405  28.821  32.727  1.00  0.00     0.074 A 
ATOM     60  C   UNL A   1      42.969  27.754  31.923  1.00  0.00     0.031 C 
ATOM     61  C   UNL A   1      42.861  29.169  33.956  1.00  0.00     0.031 A 
BRANCH  48  62
ATOM     62  C   UNL A   1      39.884  33.905  36.595  1.00  0.00    -0.014 A 
ATOM     63  C   UNL A   1      40.577  35.125  36.640  1.00  0.00     0.009 A 
ATOM     64  C   UNL A   1      39.028  33.573  37.657  1.00  0.00     0.009 A 
ATOM     65  C   UNL A   1      40.432  35.981  37.737  1.00  0.00     0.001 A 
ATOM     66  C   UNL A   1      38.862  34.443  38.736  1.00  0.00     0.001 A 
ATOM     67  C   UNL A   1      39.570  35.642  38.779  1.00  0.00     0.000 A 
ENDBRANCH  48  62
BRANCH  49  68
ATOM     68  C   UNL A   1      40.514  27.994  28.485  1.00  0.00    -0.014 A 
ATOM     69  C   UNL A   1      39.888  26.742  28.422  1.00  0.00     0.009 A 
ATOM     70  C   UNL A   1      41.253  28.440  27.375  1.00  0.00     0.009 A 
ATOM     71  C   UNL A   1      40.024  25.942  27.284  1.00  0.00     0.001 A 
ATOM     72  C   UNL A   1      41.359  27.655  26.228  1.00  0.00     0.001 A 
ATOM     73  C   UNL A   1      40.754  26.401  26.188  1.00  0.00     0.000 A 
ENDBRANCH  49  68
BRANCH  61  74
ATOM     74  C   UNL A   1      44.011  28.371  34.503  1.00  0.00    -0.014 A 
ATOM     75  C   UNL A   1      45.339  28.779  34.306  1.00  0.00     0.009 A 
ATOM     76  C   UNL A   1      43.756  27.216  35.258  1.00  0.00     0.009 A 
ATOM     77  C   UNL A   1      46.392  28.022  34.821  1.00  0.00     0.001 A 
ATOM     78  C   UNL A   1      44.809  26.481  35.802  1.00  0.00     0.001 A 
ATOM     79  C   UNL A   1      46.125  26.877  35.573  1.00  0.00     0.000 A 
ENDBRANCH  61  74
ENDBRANCH  35  36
ENDBRANCH  28  30
ENDBRANCH  27  28
ENDBRANCH  26  27
ENDBRANCH  25  26
ENDBRANCH  24  25
ENDBRANCH   1  24
TORSDOF 20
ENDMDL
MODEL 3
REMARK VINA RESULT:      -9.2      3.464      5.879
REMARK SMILES CC(C)(C)OCC[C@@H]1CCC[C@]1([NH2+]C1CC1)C(=O)OCCOCCOC(=O)c1ccc(-c2c3nc(c(-c4ccccc4)c4ccc([nH]4)c(-c4ccccc4)c4nc(c(-c5ccccc5)c5ccc2[nH]5)C=C4)C=C3)cc1
REMARK SMILES IDX 21 1 20 2 19 3 17 4 18 5 12 6 8 7 9 8 10 9 11 10 7 11 6 12
REMARK SMILES IDX 5 13 2 14 1 15 3 16 4 17 13 18 14 21 15 22 16 23 22 24 23 25
REMARK SMILES IDX 24 26 25 27 26 28 27 29 28 30 29 31 75 32 30 33 74 34 31 35
REMARK SMILES IDX 32 36 33 37 68 38 34 39 73 40 67 41 69 42 35 43 72 44 66 45
REMARK SMILES IDX 65 46 36 48 58 49 43 50 57 51 44 52 47 53 56 54 70 55 45 56
REMARK SMILES IDX 46 57 55 59 71 60 48 61 37 62 38 63 42 64 39 65 41 66 40 67
REMARK SMILES IDX 59 68 60 69 64 70 61 71 63 72 62 73 49 74 50 75 54 76 51 77
REMARK SMILES IDX 53 78 52 79
REMARK H PARENT 13 19 13 20 69 47 47 58
REMARK Flexibility Score: inf
ROOT
ATOM      1  C   UNL A   1      37.041  22.999  24.871  1.00  0.00     0.202 C 
ENDROOT
BRANCH   1   2
ATOM      2  C   UNL A   1      36.096  23.985  25.651  1.00  0.00     0.261 C 
BRANCH   2   3
ATOM      3  O   UNL A   1      34.961  24.508  24.885  1.00  0.00    -0.459 OA
BRANCH   3   4
ATOM      4  C   UNL A   1      34.268  23.666  24.052  1.00  0.00     0.368 C 
ATOM      5  O   UNL A   1      34.407  23.700  22.830  1.00  0.00    -0.245 OA
BRANCH   4   6
ATOM      6  C   UNL A   1      33.311  22.603  24.790  1.00  0.00     0.197 C 
ATOM      7  C   UNL A   1      31.753  22.726  24.430  1.00  0.00     0.065 C 
ATOM      8  C   UNL A   1      30.909  22.835  25.728  1.00  0.00     0.011 C 
ATOM      9  C   UNL A   1      31.860  22.920  26.904  1.00  0.00     0.008 C 
ATOM     10  C   UNL A   1      33.262  22.620  26.369  1.00  0.00     0.081 C 
BRANCH   7  11
ATOM     11  C   UNL A   1      31.219  23.686  23.321  1.00  0.00     0.039 C 
BRANCH  11  12
ATOM     12  C   UNL A   1      30.912  25.216  23.521  1.00  0.00     0.161 C 
BRANCH  12  13
ATOM     13  O   UNL A   1      31.794  26.242  23.028  1.00  0.00    -0.376 OA
BRANCH  13  14
ATOM     14  C   UNL A   1      31.650  27.649  23.341  1.00  0.00     0.060 C 
ATOM     15  C   UNL A   1      31.159  27.953  24.776  1.00  0.00     0.042 C 
ATOM     16  C   UNL A   1      30.494  28.091  22.552  1.00  0.00     0.042 C 
ATOM     17  C   UNL A   1      32.843  28.530  22.990  1.00  0.00     0.042 C 
ENDBRANCH  13  14
ENDBRANCH  12  13
ENDBRANCH  11  12
ENDBRANCH   7  11
BRANCH   6  18
ATOM     18  N   UNL A   1      33.844  21.238  24.429  1.00  0.00    -0.329 N 
ATOM     19  H   UNL A   1      34.722  21.139  24.938  1.00  0.00     0.347 HD
ATOM     20  H   UNL A   1      33.839  21.288  23.410  1.00  0.00     0.347 HD
BRANCH  18  21
ATOM     21  C   UNL A   1      33.091  19.966  24.660  1.00  0.00     0.183 C 
ATOM     22  C   UNL A   1      32.546  18.995  23.652  1.00  0.00     0.071 C 
ATOM     23  C   UNL A   1      33.656  18.572  24.568  1.00  0.00     0.071 C 
ENDBRANCH  18  21
ENDBRANCH   6  18
ENDBRANCH   4   6
ENDBRANCH   3   4
ENDBRANCH   2   3
ENDBRANCH   1   2
BRANCH   1  24
ATOM     24  O   UNL A   1      36.730  21.645  25.214  1.00  0.00    -0.374 OA
BRANCH  24  25
ATOM     25  C   UNL A   1      37.426  20.538  24.628  1.00  0.00     0.202 C 
BRANCH  25  26
ATOM     26  C   UNL A   1      38.572  19.866  25.425  1.00  0.00     0.261 C 
BRANCH  26  27
ATOM     27  O   UNL A   1      39.504  20.835  25.884  1.00  0.00    -0.460 OA
BRANCH  27  28
ATOM     28  C   UNL A   1      40.670  20.249  26.195  1.00  0.00     0.338 C 
ATOM     29  O   UNL A   1      41.060  19.126  25.884  1.00  0.00    -0.246 OA
BRANCH  28  30
ATOM     30  C   UNL A   1      41.552  21.303  26.657  1.00  0.00     0.060 A 
ATOM     31  C   UNL A   1      41.675  21.440  28.041  1.00  0.00     0.016 A 
ATOM     32  C   UNL A   1      42.200  22.151  25.756  1.00  0.00     0.016 A 
ATOM     33  C   UNL A   1      42.315  22.549  28.537  1.00  0.00     0.010 A 
ATOM     34  C   UNL A   1      42.860  23.259  26.258  1.00  0.00     0.010 A 
ATOM     35  C   UNL A   1      42.828  23.497  27.641  1.00  0.00    -0.014 A 
BRANCH  35  36
ATOM     36  C   UNL A   1      43.088  24.840  28.173  1.00  0.00     0.031 A 
ATOM     37  C   UNL A   1      44.516  25.268  28.355  1.00  0.00     0.074 A 
ATOM     38  C   UNL A   1      42.061  25.685  28.330  1.00  0.00     0.049 A 
ATOM     39  N   UNL A   1      44.986  26.433  28.707  1.00  0.00    -0.248 NA
ATOM     40  C   UNL A   1      45.557  24.253  28.099  1.00  0.00     0.031 C 
ATOM     41  C   UNL A   1      40.654  25.354  28.095  1.00  0.00     0.029 A 
ATOM     42  N   UNL A   1      42.051  27.002  28.687  1.00  0.00    -0.354 N 
ATOM     43  C   UNL A   1      46.368  26.288  28.726  1.00  0.00     0.074 A 
ATOM     44  C   UNL A   1      46.665  24.918  28.384  1.00  0.00     0.031 C 
ATOM     45  C   UNL A   1      39.914  26.456  28.294  1.00  0.00     0.029 A 
ATOM     46  C   UNL A   1      40.793  27.544  28.711  1.00  0.00     0.049 A 
ATOM     47  H   UNL A   1      42.864  27.511  28.903  1.00  0.00     0.167 HD
ATOM     48  C   UNL A   1      47.303  27.227  28.998  1.00  0.00     0.031 A 
ATOM     49  C   UNL A   1      40.404  28.782  29.056  1.00  0.00     0.031 A 
ATOM     50  C   UNL A   1      46.979  28.585  29.337  1.00  0.00     0.049 A 
ATOM     51  C   UNL A   1      41.460  29.781  29.434  1.00  0.00     0.074 A 
ATOM     52  C   UNL A   1      47.836  29.629  29.625  1.00  0.00     0.029 A 
ATOM     53  N   UNL A   1      45.687  29.081  29.435  1.00  0.00    -0.354 N 
ATOM     54  N   UNL A   1      42.765  29.643  29.437  1.00  0.00    -0.248 NA
ATOM     55  C   UNL A   1      40.990  31.106  29.851  1.00  0.00     0.031 C 
ATOM     56  C   UNL A   1      47.060  30.739  29.972  1.00  0.00     0.029 A 
ATOM     57  C   UNL A   1      45.722  30.408  29.824  1.00  0.00     0.049 A 
ATOM     58  H   UNL A   1      44.867  28.566  29.256  1.00  0.00     0.167 HD
ATOM     59  C   UNL A   1      43.275  30.869  29.838  1.00  0.00     0.074 A 
ATOM     60  C   UNL A   1      42.137  31.744  30.042  1.00  0.00     0.031 C 
ATOM     61  C   UNL A   1      44.565  31.243  30.028  1.00  0.00     0.031 A 
BRANCH  48  62
ATOM     62  C   UNL A   1      48.744  26.801  28.998  1.00  0.00    -0.014 A 
ATOM     63  C   UNL A   1      49.552  26.919  27.855  1.00  0.00     0.009 A 
ATOM     64  C   UNL A   1      49.311  26.296  30.178  1.00  0.00     0.009 A 
ATOM     65  C   UNL A   1      50.890  26.517  27.890  1.00  0.00     0.001 A 
ATOM     66  C   UNL A   1      50.656  25.923  30.219  1.00  0.00     0.001 A 
ATOM     67  C   UNL A   1      51.442  26.026  29.074  1.00  0.00     0.000 A 
ENDBRANCH  48  62
BRANCH  49  68
ATOM     68  C   UNL A   1      38.959  29.116  29.096  1.00  0.00    -0.014 A 
ATOM     69  C   UNL A   1      38.197  28.908  30.253  1.00  0.00     0.009 A 
ATOM     70  C   UNL A   1      38.333  29.656  27.959  1.00  0.00     0.009 A 
ATOM     71  C   UNL A   1      36.832  29.206  30.262  1.00  0.00     0.001 A 
ATOM     72  C   UNL A   1      36.978  29.985  27.981  1.00  0.00     0.001 A 
ATOM     73  C   UNL A   1      36.226  29.748  29.130  1.00  0.00     0.000 A 
ENDBRANCH  49  68
BRANCH  61  74
ATOM     74  C   UNL A   1      44.803  32.663  30.457  1.00  0.00    -0.014 A 
ATOM     75  C   UNL A   1      44.896  33.007  31.814  1.00  0.00     0.009 A 
ATOM     76  C   UNL A   1      44.974  33.662  29.486  1.00  0.00     0.009 A 
ATOM     77  C   UNL A   1      45.115  34.333  32.191  1.00  0.00     0.001 A 
ATOM     78  C   UNL A   1      45.229  34.979  29.864  1.00  0.00     0.001 A 
ATOM     79  C   UNL A   1      45.286  35.316  31.216  1.00  0.00     0.000 A 
ENDBRANCH  61  74
ENDBRANCH  35  36
ENDBRANCH  28  30
ENDBRANCH  27  28
ENDBRANCH  26  27
ENDBRANCH  25  26
ENDBRANCH  24  25
ENDBRANCH   1  24
TORSDOF 20
ENDMDL
