MODEL 1
REMARK VINA RESULT:     -11.5      0.000      0.000
REMARK SMILES O=C(OCCOCCOC(=O)[C@@H]1[C@@H](C(=O)Nc2cccc([N+](=O)[O-])c2)[C@@H]2C=C[C@H]1O2)c1ccc(-c2c3nc(c(-c4ccccc4)c4ccc([nH]4)c(-c4ccccc4)c4nc(c(-c5ccccc5)c5ccc2[nH]5)C=C4)C=C3)cc1
REMARK SMILES IDX 7 1 6 2 5 3 4 4 3 5 2 6 1 7 31 8 32 9 78 10 33 11 77 12
REMARK SMILES IDX 34 13 35 14 36 15 71 16 37 17 76 18 70 19 72 20 38 21 75 22
REMARK SMILES IDX 69 23 68 24 39 26 61 27 46 28 60 29 47 30 50 31 59 32 73 33
REMARK SMILES IDX 48 34 49 35 58 37 74 38 51 39 40 40 41 41 45 42 42 43 44 44
REMARK SMILES IDX 43 45 62 46 63 47 67 48 64 49 66 50 65 51 52 52 53 53 57 54
REMARK SMILES IDX 54 55 56 56 55 57 8 58 9 59 10 60 11 61 12 62 13 63 29 64
REMARK SMILES IDX 26 65 28 66 30 67 27 68 14 69 15 70 16 71 17 73 18 74 25 75
REMARK SMILES IDX 19 76 21 77 20 78 22 79 23 80 24 81
REMARK H PARENT 72 25 50 36 16 72
REMARK Flexibility Score: inf
ROOT
ATOM      1  C   UNL A   1      36.919  21.972  24.104  1.00  0.00     0.202 C 
ENDROOT
BRANCH   1   2
ATOM      2  O   UNL A   1      37.091  20.975  25.118  1.00  0.00    -0.374 OA
BRANCH   2   3
ATOM      3  C   UNL A   1      38.166  20.047  24.988  1.00  0.00     0.202 C 
BRANCH   3   4
ATOM      4  C   UNL A   1      39.259  20.025  26.052  1.00  0.00     0.261 C 
BRANCH   4   5
ATOM      5  O   UNL A   1      40.298  19.105  25.678  1.00  0.00    -0.460 OA
BRANCH   5   6
ATOM      6  C   UNL A   1      41.620  19.280  25.915  1.00  0.00     0.338 C 
ATOM      7  O   UNL A   1      42.392  18.329  25.852  1.00  0.00    -0.246 OA
BRANCH   6   8
ATOM      8  C   UNL A   1      42.145  20.606  26.333  1.00  0.00     0.060 A 
ATOM      9  C   UNL A   1      42.435  21.597  25.401  1.00  0.00     0.016 A 
ATOM     10  C   UNL A   1      42.237  20.927  27.686  1.00  0.00     0.016 A 
ATOM     11  C   UNL A   1      42.812  22.863  25.742  1.00  0.00     0.010 A 
ATOM     12  C   UNL A   1      42.567  22.232  28.062  1.00  0.00     0.010 A 
ATOM     13  C   UNL A   1      42.816  23.199  27.078  1.00  0.00    -0.014 A 
BRANCH  13  14
ATOM     14  C   UNL A   1      43.154  24.590  27.354  1.00  0.00     0.031 A 
ATOM     15  C   UNL A   1      44.571  24.994  27.186  1.00  0.00     0.074 A 
ATOM     16  C   UNL A   1      42.152  25.467  27.550  1.00  0.00     0.049 A 
ATOM     17  N   UNL A   1      45.138  26.120  27.504  1.00  0.00    -0.248 NA
ATOM     18  C   UNL A   1      45.473  24.005  26.567  1.00  0.00     0.031 C 
ATOM     19  C   UNL A   1      40.716  25.153  27.479  1.00  0.00     0.029 A 
ATOM     20  N   UNL A   1      42.181  26.805  27.811  1.00  0.00    -0.354 N 
ATOM     21  C   UNL A   1      46.479  25.947  27.199  1.00  0.00     0.074 A 
ATOM     22  C   UNL A   1      46.637  24.632  26.627  1.00  0.00     0.031 C 
ATOM     23  C   UNL A   1      40.008  26.271  27.700  1.00  0.00     0.029 A 
ATOM     24  C   UNL A   1      40.934  27.341  28.033  1.00  0.00     0.049 A 
ATOM     25  H   UNL A   1      43.011  27.335  27.840  1.00  0.00     0.167 HD
ATOM     26  C   UNL A   1      47.479  26.820  27.438  1.00  0.00     0.031 A 
ATOM     27  C   UNL A   1      40.606  28.543  28.536  1.00  0.00     0.031 A 
ATOM     28  C   UNL A   1      47.242  28.111  28.017  1.00  0.00     0.049 A 
ATOM     29  C   UNL A   1      41.750  29.444  28.917  1.00  0.00     0.074 A 
ATOM     30  C   UNL A   1      48.154  29.077  28.380  1.00  0.00     0.029 A 
ATOM     31  N   UNL A   1      45.977  28.604  28.319  1.00  0.00    -0.354 N 
ATOM     32  N   UNL A   1      43.037  29.262  28.726  1.00  0.00    -0.248 NA
ATOM     33  C   UNL A   1      41.410  30.688  29.612  1.00  0.00     0.031 C 
ATOM     34  C   UNL A   1      47.444  30.130  28.967  1.00  0.00     0.029 A 
ATOM     35  C   UNL A   1      46.085  29.847  28.906  1.00  0.00     0.049 A 
ATOM     36  H   UNL A   1      45.130  28.135  28.141  1.00  0.00     0.167 HD
ATOM     37  C   UNL A   1      43.663  30.372  29.269  1.00  0.00     0.074 A 
ATOM     38  C   UNL A   1      42.608  31.235  29.768  1.00  0.00     0.031 C 
ATOM     39  C   UNL A   1      44.985  30.656  29.369  1.00  0.00     0.031 A 
BRANCH  26  40
ATOM     40  C   UNL A   1      48.877  26.334  27.213  1.00  0.00    -0.014 A 
ATOM     41  C   UNL A   1      49.663  25.806  28.246  1.00  0.00     0.009 A 
ATOM     42  C   UNL A   1      49.429  26.451  25.927  1.00  0.00     0.009 A 
ATOM     43  C   UNL A   1      50.986  25.428  28.000  1.00  0.00     0.001 A 
ATOM     44  C   UNL A   1      50.741  26.050  25.678  1.00  0.00     0.001 A 
ATOM     45  C   UNL A   1      51.521  25.545  26.716  1.00  0.00     0.000 A 
ENDBRANCH  26  40
BRANCH  27  46
ATOM     46  C   UNL A   1      39.192  28.892  28.849  1.00  0.00    -0.014 A 
ATOM     47  C   UNL A   1      38.390  29.573  27.921  1.00  0.00     0.009 A 
ATOM     48  C   UNL A   1      38.646  28.588  30.109  1.00  0.00     0.009 A 
ATOM     49  C   UNL A   1      37.097  29.979  28.263  1.00  0.00     0.001 A 
ATOM     50  C   UNL A   1      37.339  28.961  30.435  1.00  0.00     0.001 A 
ATOM     51  C   UNL A   1      36.571  29.673  29.517  1.00  0.00     0.000 A 
ENDBRANCH  27  46
BRANCH  39  52
ATOM     52  C   UNL A   1      45.341  31.960  30.013  1.00  0.00    -0.014 A 
ATOM     53  C   UNL A   1      45.608  32.035  31.387  1.00  0.00     0.009 A 
ATOM     54  C   UNL A   1      45.499  33.101  29.213  1.00  0.00     0.009 A 
ATOM     55  C   UNL A   1      46.013  33.242  31.954  1.00  0.00     0.001 A 
ATOM     56  C   UNL A   1      45.937  34.296  29.777  1.00  0.00     0.001 A 
ATOM     57  C   UNL A   1      46.187  34.367  31.147  1.00  0.00     0.000 A 
ENDBRANCH  39  52
ENDBRANCH  13  14
ENDBRANCH   6   8
ENDBRANCH   5   6
ENDBRANCH   4   5
ENDBRANCH   3   4
ENDBRANCH   2   3
ENDBRANCH   1   2
BRANCH   1  58
ATOM     58  C   UNL A   1      36.394  23.260  24.750  1.00  0.00     0.261 C 
BRANCH  58  59
ATOM     59  O   UNL A   1      35.724  24.014  23.727  1.00  0.00    -0.463 OA
BRANCH  59  60
ATOM     60  C   UNL A   1      34.476  23.566  23.400  1.00  0.00     0.312 C 
ATOM     61  O   UNL A   1      34.153  23.150  22.302  1.00  0.00    -0.252 OA
BRANCH  60  62
ATOM     62  C   UNL A   1      33.626  23.556  24.651  1.00  0.00     0.147 C 
ATOM     63  C   UNL A   1      32.939  22.199  24.920  1.00  0.00     0.129 C 
ATOM     64  C   UNL A   1      32.462  24.542  24.601  1.00  0.00     0.157 C 
ATOM     65  C   UNL A   1      31.457  22.652  24.973  1.00  0.00     0.155 C 
ATOM     66  C   UNL A   1      31.580  24.317  23.420  1.00  0.00     0.004 C 
ATOM     67  O   UNL A   1      31.625  23.942  25.630  1.00  0.00    -0.365 OA
ATOM     68  C   UNL A   1      30.986  23.136  23.626  1.00  0.00     0.004 C 
BRANCH  63  69
ATOM     69  C   UNL A   1      33.219  21.297  26.151  1.00  0.00     0.231 C 
ATOM     70  O   UNL A   1      33.397  21.851  27.251  1.00  0.00    -0.274 OA
ATOM     71  N   UNL A   1      32.988  19.950  26.258  1.00  0.00    -0.325 N 
ATOM     72  H   UNL A   1      32.846  19.663  27.189  1.00  0.00     0.169 HD
BRANCH  71  73
ATOM     73  C   UNL A   1      32.909  18.889  25.350  1.00  0.00     0.048 A 
ATOM     74  C   UNL A   1      32.603  19.160  24.009  1.00  0.00     0.026 A 
ATOM     75  C   UNL A   1      33.108  17.576  25.735  1.00  0.00     0.111 A 
ATOM     76  C   UNL A   1      32.744  18.159  23.036  1.00  0.00     0.009 A 
ATOM     77  C   UNL A   1      33.353  16.601  24.762  1.00  0.00     0.271 A 
ATOM     78  C   UNL A   1      33.185  16.888  23.404  1.00  0.00     0.086 A 
BRANCH  77  79
ATOM     79  N   UNL A   1      33.972  15.334  25.177  1.00  0.00     0.062 N 
ATOM     80  O   UNL A   1      35.205  15.305  25.282  1.00  0.00    -0.258 OA
ATOM     81  O   UNL A   1      33.217  14.390  25.452  1.00  0.00    -0.258 OA
ENDBRANCH  77  79
ENDBRANCH  71  73
ENDBRANCH  63  69
ENDBRANCH  60  62
ENDBRANCH  59  60
ENDBRANCH  58  59
ENDBRANCH   1  58
TORSDOF 17
ENDMDL
MODEL 2
REMARK VINA RESULT:     -11.5      2.099      7.109
REMARK SMILES O=C(OCCOCCOC(=O)[C@@H]1[C@@H](C(=O)Nc2cccc([N+](=O)[O-])c2)[C@@H]2C=C[C@H]1O2)c1ccc(-c2c3nc(c(-c4ccccc4)c4ccc([nH]4)c(-c4ccccc4)c4nc(c(-c5ccccc5)c5ccc2[nH]5)C=C4)C=C3)cc1
REMARK SMILES IDX 7 1 6 2 5 3 4 4 3 5 2 6 1 7 31 8 32 9 78 10 33 11 77 12
REMARK SMILES IDX 34 13 35 14 36 15 71 16 37 17 76 18 70 19 72 20 38 21 75 22
REMARK SMILES IDX 69 23 68 24 39 26 61 27 46 28 60 29 47 30 50 31 59 32 73 33
REMARK SMILES IDX 48 34 49 35 58 37 74 38 51 39 40 40 41 41 45 42 42 43 44 44
REMARK SMILES IDX 43 45 62 46 63 47 67 48 64 49 66 50 65 51 52 52 53 53 57 54
REMARK SMILES IDX 54 55 56 56 55 57 8 58 9 59 10 60 11 61 12 62 13 63 29 64
REMARK SMILES IDX 26 65 28 66 30 67 27 68 14 69 15 70 16 71 17 73 18 74 25 75
REMARK SMILES IDX 19 76 21 77 20 78 22 79 23 80 24 81
REMARK H PARENT 72 25 50 36 16 72
REMARK Flexibility Score: inf
ROOT
ATOM      1  C   UNL A   1      36.850  22.732  24.887  1.00  0.00     0.202 C 
ENDROOT
BRANCH   1   2
ATOM      2  O   UNL A   1      37.222  21.521  24.220  1.00  0.00    -0.374 OA
BRANCH   2   3
ATOM      3  C   UNL A   1      37.745  20.446  24.999  1.00  0.00     0.202 C 
BRANCH   3   4
ATOM      4  C   UNL A   1      39.023  20.668  25.804  1.00  0.00     0.261 C 
BRANCH   4   5
ATOM      5  O   UNL A   1      39.885  19.523  25.693  1.00  0.00    -0.460 OA
BRANCH   5   6
ATOM      6  C   UNL A   1      41.226  19.532  25.889  1.00  0.00     0.338 C 
ATOM      7  O   UNL A   1      41.879  18.504  25.742  1.00  0.00    -0.246 OA
BRANCH   6   8
ATOM      8  C   UNL A   1      41.913  20.762  26.358  1.00  0.00     0.060 A 
ATOM      9  C   UNL A   1      42.235  21.794  25.482  1.00  0.00     0.016 A 
ATOM     10  C   UNL A   1      42.138  20.961  27.720  1.00  0.00     0.016 A 
ATOM     11  C   UNL A   1      42.764  22.985  25.883  1.00  0.00     0.010 A 
ATOM     12  C   UNL A   1      42.628  22.193  28.163  1.00  0.00     0.010 A 
ATOM     13  C   UNL A   1      42.902  23.208  27.236  1.00  0.00    -0.014 A 
BRANCH  13  14
ATOM     14  C   UNL A   1      43.400  24.532  27.586  1.00  0.00     0.031 A 
ATOM     15  C   UNL A   1      42.426  25.505  28.138  1.00  0.00     0.074 A 
ATOM     16  C   UNL A   1      44.730  24.740  27.579  1.00  0.00     0.049 A 
ATOM     17  N   UNL A   1      42.591  26.769  28.386  1.00  0.00    -0.248 NA
ATOM     18  C   UNL A   1      41.085  24.984  28.467  1.00  0.00     0.031 C 
ATOM     19  C   UNL A   1      45.751  23.725  27.275  1.00  0.00     0.029 A 
ATOM     20  N   UNL A   1      45.456  25.857  27.869  1.00  0.00    -0.354 N 
ATOM     21  C   UNL A   1      41.355  27.216  28.825  1.00  0.00     0.074 A 
ATOM     22  C   UNL A   1      40.460  26.084  28.856  1.00  0.00     0.031 C 
ATOM     23  C   UNL A   1      46.970  24.276  27.390  1.00  0.00     0.029 A 
ATOM     24  C   UNL A   1      46.806  25.695  27.664  1.00  0.00     0.049 A 
ATOM     25  H   UNL A   1      45.055  26.697  28.192  1.00  0.00     0.167 HD
ATOM     26  C   UNL A   1      41.015  28.487  29.119  1.00  0.00     0.031 A 
ATOM     27  C   UNL A   1      47.775  26.625  27.621  1.00  0.00     0.031 A 
ATOM     28  C   UNL A   1      41.962  29.563  29.058  1.00  0.00     0.049 A 
ATOM     29  C   UNL A   1      47.341  28.052  27.824  1.00  0.00     0.074 A 
ATOM     30  C   UNL A   1      41.756  30.910  29.262  1.00  0.00     0.029 A 
ATOM     31  N   UNL A   1      43.310  29.393  28.760  1.00  0.00    -0.354 N 
ATOM     32  N   UNL A   1      46.153  28.512  28.146  1.00  0.00    -0.248 NA
ATOM     33  C   UNL A   1      48.357  29.088  27.622  1.00  0.00     0.031 C 
ATOM     34  C   UNL A   1      42.968  31.565  29.020  1.00  0.00     0.029 A 
ATOM     35  C   UNL A   1      43.944  30.617  28.733  1.00  0.00     0.049 A 
ATOM     36  H   UNL A   1      43.747  28.526  28.594  1.00  0.00     0.167 HD
ATOM     37  C   UNL A   1      46.279  29.890  28.194  1.00  0.00     0.074 A 
ATOM     38  C   UNL A   1      47.668  30.186  27.898  1.00  0.00     0.031 C 
ATOM     39  C   UNL A   1      45.338  30.835  28.441  1.00  0.00     0.031 A 
BRANCH  26  40
ATOM     40  C   UNL A   1      39.566  28.765  29.373  1.00  0.00    -0.014 A 
ATOM     41  C   UNL A   1      38.680  29.125  28.348  1.00  0.00     0.009 A 
ATOM     42  C   UNL A   1      39.091  28.700  30.693  1.00  0.00     0.009 A 
ATOM     43  C   UNL A   1      37.351  29.440  28.645  1.00  0.00     0.001 A 
ATOM     44  C   UNL A   1      37.759  28.990  30.984  1.00  0.00     0.001 A 
ATOM     45  C   UNL A   1      36.891  29.367  29.961  1.00  0.00     0.000 A 
ENDBRANCH  26  40
BRANCH  27  46
ATOM     46  C   UNL A   1      49.169  26.274  27.232  1.00  0.00    -0.014 A 
ATOM     47  C   UNL A   1      50.149  26.011  28.201  1.00  0.00     0.009 A 
ATOM     48  C   UNL A   1      49.546  26.251  25.877  1.00  0.00     0.009 A 
ATOM     49  C   UNL A   1      51.475  25.777  27.825  1.00  0.00     0.001 A 
ATOM     50  C   UNL A   1      50.864  25.979  25.502  1.00  0.00     0.001 A 
ATOM     51  C   UNL A   1      51.832  25.760  26.478  1.00  0.00     0.000 A 
ENDBRANCH  27  46
BRANCH  39  52
ATOM     52  C   UNL A   1      45.802  32.259  28.427  1.00  0.00    -0.014 A 
ATOM     53  C   UNL A   1      45.729  33.029  27.258  1.00  0.00     0.009 A 
ATOM     54  C   UNL A   1      46.229  32.854  29.623  1.00  0.00     0.009 A 
ATOM     55  C   UNL A   1      46.093  34.374  27.285  1.00  0.00     0.001 A 
ATOM     56  C   UNL A   1      46.560  34.206  29.654  1.00  0.00     0.001 A 
ATOM     57  C   UNL A   1      46.497  34.962  28.484  1.00  0.00     0.000 A 
ENDBRANCH  39  52
ENDBRANCH  13  14
ENDBRANCH   6   8
ENDBRANCH   5   6
ENDBRANCH   4   5
ENDBRANCH   3   4
ENDBRANCH   2   3
ENDBRANCH   1   2
BRANCH   1  58
ATOM     58  C   UNL A   1      36.147  23.659  23.888  1.00  0.00     0.261 C 
BRANCH  58  59
ATOM     59  O   UNL A   1      34.788  23.815  24.327  1.00  0.00    -0.463 OA
BRANCH  59  60
ATOM     60  C   UNL A   1      33.840  23.390  23.440  1.00  0.00     0.312 C 
ATOM     61  O   UNL A   1      33.982  23.365  22.232  1.00  0.00    -0.252 OA
BRANCH  60  62
ATOM     62  C   UNL A   1      32.662  22.847  24.220  1.00  0.00     0.147 C 
ATOM     63  C   UNL A   1      32.807  23.010  25.749  1.00  0.00     0.129 C 
ATOM     64  C   UNL A   1      32.455  21.347  24.038  1.00  0.00     0.157 C 
ATOM     65  C   UNL A   1      32.661  21.531  26.193  1.00  0.00     0.155 C 
ATOM     66  C   UNL A   1      33.671  20.560  24.394  1.00  0.00     0.004 C 
ATOM     67  O   UNL A   1      31.659  21.091  25.230  1.00  0.00    -0.365 OA
ATOM     68  C   UNL A   1      33.824  20.701  25.716  1.00  0.00     0.004 C 
BRANCH  63  69
ATOM     69  C   UNL A   1      31.880  23.882  26.636  1.00  0.00     0.231 C 
ATOM     70  O   UNL A   1      31.334  23.341  27.615  1.00  0.00    -0.274 OA
ATOM     71  N   UNL A   1      31.820  25.250  26.675  1.00  0.00    -0.325 N 
ATOM     72  H   UNL A   1      31.496  25.591  27.540  1.00  0.00     0.169 HD
BRANCH  71  73
ATOM     73  C   UNL A   1      32.113  26.275  25.769  1.00  0.00     0.048 A 
ATOM     74  C   UNL A   1      33.210  27.112  26.017  1.00  0.00     0.026 A 
ATOM     75  C   UNL A   1      31.345  26.501  24.642  1.00  0.00     0.111 A 
ATOM     76  C   UNL A   1      33.668  27.990  25.022  1.00  0.00     0.009 A 
ATOM     77  C   UNL A   1      31.853  27.294  23.608  1.00  0.00     0.271 A 
ATOM     78  C   UNL A   1      33.026  28.035  23.786  1.00  0.00     0.086 A 
BRANCH  77  79
ATOM     79  N   UNL A   1      31.244  27.187  22.275  1.00  0.00     0.062 N 
ATOM     80  O   UNL A   1      31.582  26.231  21.565  1.00  0.00    -0.258 OA
ATOM     81  O   UNL A   1      30.386  28.027  21.966  1.00  0.00    -0.258 OA
ENDBRANCH  77  79
ENDBRANCH  71  73
ENDBRANCH  63  69
ENDBRANCH  60  62
ENDBRANCH  59  60
ENDBRANCH  58  59
ENDBRANCH   1  58
TORSDOF 17
ENDMDL
MODEL 3
REMARK VINA RESULT:     -11.4      4.785      9.492
REMARK SMILES O=C(OCCOCCOC(=O)[C@@H]1[C@@H](C(=O)Nc2cccc([N+](=O)[O-])c2)[C@@H]2C=C[C@H]1O2)c1ccc(-c2c3nc(c(-c4ccccc4)c4ccc([nH]4)c(-c4ccccc4)c4nc(c(-c5ccccc5)c5ccc2[nH]5)C=C4)C=C3)cc1
REMARK SMILES IDX 7 1 6 2 5 3 4 4 3 5 2 6 1 7 31 8 32 9 78 10 33 11 77 12
REMARK SMILES IDX 34 13 35 14 36 15 71 16 37 17 76 18 70 19 72 20 38 21 75 22
REMARK SMILES IDX 69 23 68 24 39 26 61 27 46 28 60 29 47 30 50 31 59 32 73 33
REMARK SMILES IDX 48 34 49 35 58 37 74 38 51 39 40 40 41 41 45 42 42 43 44 44
REMARK SMILES IDX 43 45 62 46 63 47 67 48 64 49 66 50 65 51 52 52 53 53 57 54
REMARK SMILES IDX 54 55 56 56 55 57 8 58 9 59 10 60 11 61 12 62 13 63 29 64
REMARK SMILES IDX 26 65 28 66 30 67 27 68 14 69 15 70 16 71 17 73 18 74 25 75
REMARK SMILES IDX 19 76 21 77 20 78 22 79 23 80 24 81
REMARK H PARENT 72 25 50 36 16 72
REMARK Flexibility Score: inf
ROOT
ATOM      1  C   UNL A   1      33.689  30.100  27.356  1.00  0.00     0.202 C 
ENDROOT
BRANCH   1   2
ATOM      2  O   UNL A   1      32.283  30.162  27.094  1.00  0.00    -0.374 OA
BRANCH   2   3
ATOM      3  C   UNL A   1      31.770  31.287  26.383  1.00  0.00     0.202 C 
BRANCH   3   4
ATOM      4  C   UNL A   1      31.415  32.554  27.157  1.00  0.00     0.261 C 
BRANCH   4   5
ATOM      5  O   UNL A   1      32.520  33.473  27.139  1.00  0.00    -0.460 OA
BRANCH   5   6
ATOM      6  C   UNL A   1      33.017  34.120  28.221  1.00  0.00     0.338 C 
ATOM      7  O   UNL A   1      32.482  35.144  28.629  1.00  0.00    -0.246 OA
BRANCH   6   8
ATOM      8  C   UNL A   1      34.261  33.645  28.881  1.00  0.00     0.060 A 
ATOM      9  C   UNL A   1      34.225  32.699  29.900  1.00  0.00     0.016 A 
ATOM     10  C   UNL A   1      35.505  34.049  28.399  1.00  0.00     0.016 A 
ATOM     11  C   UNL A   1      35.344  32.152  30.458  1.00  0.00     0.010 A 
ATOM     12  C   UNL A   1      36.665  33.463  28.916  1.00  0.00     0.010 A 
ATOM     13  C   UNL A   1      36.566  32.489  29.920  1.00  0.00    -0.014 A 
BRANCH  13  14
ATOM     14  C   UNL A   1      37.704  31.804  30.520  1.00  0.00     0.031 A 
ATOM     15  C   UNL A   1      38.209  32.323  31.815  1.00  0.00     0.074 A 
ATOM     16  C   UNL A   1      38.108  30.638  29.982  1.00  0.00     0.049 A 
ATOM     17  N   UNL A   1      39.280  31.980  32.465  1.00  0.00    -0.248 NA
ATOM     18  C   UNL A   1      37.393  33.360  32.475  1.00  0.00     0.031 C 
ATOM     19  C   UNL A   1      37.474  29.960  28.840  1.00  0.00     0.029 A 
ATOM     20  N   UNL A   1      39.118  29.796  30.341  1.00  0.00    -0.354 N 
ATOM     21  C   UNL A   1      39.312  32.815  33.572  1.00  0.00     0.074 A 
ATOM     22  C   UNL A   1      38.133  33.646  33.534  1.00  0.00     0.031 C 
ATOM     23  C   UNL A   1      38.121  28.810  28.595  1.00  0.00     0.029 A 
ATOM     24  C   UNL A   1      39.269  28.732  29.484  1.00  0.00     0.049 A 
ATOM     25  H   UNL A   1      39.686  29.937  31.135  1.00  0.00     0.167 HD
ATOM     26  C   UNL A   1      40.290  32.889  34.497  1.00  0.00     0.031 A 
ATOM     27  C   UNL A   1      40.282  27.854  29.392  1.00  0.00     0.031 A 
ATOM     28  C   UNL A   1      41.439  32.030  34.463  1.00  0.00     0.049 A 
ATOM     29  C   UNL A   1      41.423  28.046  30.356  1.00  0.00     0.074 A 
ATOM     30  C   UNL A   1      42.543  32.028  35.288  1.00  0.00     0.029 A 
ATOM     31  N   UNL A   1      41.619  31.013  33.531  1.00  0.00    -0.354 N 
ATOM     32  N   UNL A   1      41.520  28.894  31.355  1.00  0.00    -0.248 NA
ATOM     33  C   UNL A   1      42.601  27.198  30.163  1.00  0.00     0.031 C 
ATOM     34  C   UNL A   1      43.424  31.052  34.811  1.00  0.00     0.029 A 
ATOM     35  C   UNL A   1      42.838  30.401  33.732  1.00  0.00     0.049 A 
ATOM     36  H   UNL A   1      40.971  30.767  32.831  1.00  0.00     0.167 HD
ATOM     37  C   UNL A   1      42.767  28.678  31.916  1.00  0.00     0.074 A 
ATOM     38  C   UNL A   1      43.374  27.595  31.164  1.00  0.00     0.031 C 
ATOM     39  C   UNL A   1      43.374  29.318  32.947  1.00  0.00     0.031 A 
BRANCH  26  40
ATOM     40  C   UNL A   1      40.209  34.009  35.487  1.00  0.00    -0.014 A 
ATOM     41  C   UNL A   1      39.600  33.859  36.741  1.00  0.00     0.009 A 
ATOM     42  C   UNL A   1      40.729  35.263  35.127  1.00  0.00     0.009 A 
ATOM     43  C   UNL A   1      39.491  34.953  37.604  1.00  0.00     0.001 A 
ATOM     44  C   UNL A   1      40.641  36.347  36.000  1.00  0.00     0.001 A 
ATOM     45  C   UNL A   1      40.015  36.193  37.235  1.00  0.00     0.000 A 
ENDBRANCH  26  40
BRANCH  27  46
ATOM     46  C   UNL A   1      40.341  26.853  28.291  1.00  0.00    -0.014 A 
ATOM     47  C   UNL A   1      40.958  27.154  27.068  1.00  0.00     0.009 A 
ATOM     48  C   UNL A   1      39.729  25.595  28.440  1.00  0.00     0.009 A 
ATOM     49  C   UNL A   1      40.922  26.240  26.010  1.00  0.00     0.001 A 
ATOM     50  C   UNL A   1      39.727  24.668  27.394  1.00  0.00     0.001 A 
ATOM     51  C   UNL A   1      40.309  24.999  26.173  1.00  0.00     0.000 A 
ENDBRANCH  27  46
BRANCH  39  52
ATOM     52  C   UNL A   1      44.740  28.835  33.322  1.00  0.00    -0.014 A 
ATOM     53  C   UNL A   1      45.888  29.429  32.781  1.00  0.00     0.009 A 
ATOM     54  C   UNL A   1      44.872  27.835  34.298  1.00  0.00     0.009 A 
ATOM     55  C   UNL A   1      47.151  29.017  33.201  1.00  0.00     0.001 A 
ATOM     56  C   UNL A   1      46.134  27.450  34.740  1.00  0.00     0.001 A 
ATOM     57  C   UNL A   1      47.272  28.037  34.187  1.00  0.00     0.000 A 
ENDBRANCH  39  52
ENDBRANCH  13  14
ENDBRANCH   6   8
ENDBRANCH   5   6
ENDBRANCH   4   5
ENDBRANCH   3   4
ENDBRANCH   2   3
ENDBRANCH   1   2
BRANCH   1  58
ATOM     58  C   UNL A   1      34.239  28.767  26.835  1.00  0.00     0.261 C 
BRANCH  58  59
ATOM     59  O   UNL A   1      33.187  28.126  26.096  1.00  0.00    -0.463 OA
BRANCH  59  60
ATOM     60  C   UNL A   1      33.399  28.031  24.750  1.00  0.00     0.312 C 
ATOM     61  O   UNL A   1      34.256  28.641  24.138  1.00  0.00    -0.252 OA
BRANCH  60  62
ATOM     62  C   UNL A   1      32.486  26.960  24.194  1.00  0.00     0.147 C 
ATOM     63  C   UNL A   1      32.590  26.795  22.662  1.00  0.00     0.129 C 
ATOM     64  C   UNL A   1      31.005  27.247  24.423  1.00  0.00     0.157 C 
ATOM     65  C   UNL A   1      31.109  27.030  22.264  1.00  0.00     0.155 C 
ATOM     66  C   UNL A   1      30.592  28.568  23.866  1.00  0.00     0.004 C 
ATOM     67  O   UNL A   1      30.453  26.381  23.392  1.00  0.00    -0.365 OA
ATOM     68  C   UNL A   1      30.690  28.451  22.537  1.00  0.00     0.004 C 
BRANCH  63  69
ATOM     69  C   UNL A   1      33.092  25.515  21.944  1.00  0.00     0.231 C 
ATOM     70  O   UNL A   1      33.187  25.542  20.704  1.00  0.00    -0.274 OA
ATOM     71  N   UNL A   1      33.747  24.453  22.510  1.00  0.00    -0.325 N 
ATOM     72  H   UNL A   1      34.315  23.970  21.866  1.00  0.00     0.169 HD
BRANCH  71  73
ATOM     73  C   UNL A   1      33.795  23.895  23.791  1.00  0.00     0.048 A 
ATOM     74  C   UNL A   1      35.007  23.909  24.497  1.00  0.00     0.026 A 
ATOM     75  C   UNL A   1      32.689  23.314  24.382  1.00  0.00     0.111 A 
ATOM     76  C   UNL A   1      35.036  23.574  25.860  1.00  0.00     0.009 A 
ATOM     77  C   UNL A   1      32.685  23.079  25.762  1.00  0.00     0.271 A 
ATOM     78  C   UNL A   1      33.856  23.220  26.513  1.00  0.00     0.086 A 
BRANCH  77  79
ATOM     79  N   UNL A   1      31.397  22.872  26.436  1.00  0.00     0.062 N 
ATOM     80  O   UNL A   1      31.080  23.668  27.329  1.00  0.00    -0.258 OA
ATOM     81  O   UNL A   1      30.678  21.946  26.030  1.00  0.00    -0.258 OA
ENDBRANCH  77  79
ENDBRANCH  71  73
ENDBRANCH  63  69
ENDBRANCH  60  62
ENDBRANCH  59  60
ENDBRANCH  58  59
ENDBRANCH   1  58
TORSDOF 17
ENDMDL
