MODEL 1
REMARK VINA RESULT:     -10.7      0.000      0.000
REMARK SMILES CC(C)[C@@H](NC(=O)/C(=C\c1ccccc1F)NC(=O)c1ccccc1)C(=O)OCCOCCOC(=O)c1ccc(-c2c3nc(c(-c4ccccc4)c4ccc([nH]4)c(-c4ccccc4)c4nc(c(-c5ccccc5)c5ccc2[nH]5)C=C4)C=C3)cc1
REMARK SMILES IDX 30 1 29 2 28 3 26 4 27 5 4 6 2 7 1 8 3 9 5 10 6 11 7 13 8 14
REMARK SMILES IDX 9 15 17 16 18 17 19 19 20 20 21 21 25 22 22 23 24 24 23 25
REMARK SMILES IDX 10 26 11 27 15 28 12 29 14 30 16 31 13 32 31 33 32 34 33 35
REMARK SMILES IDX 34 36 35 37 36 38 37 39 38 40 84 41 39 42 83 43 40 44 41 45
REMARK SMILES IDX 42 46 77 47 43 48 82 49 76 50 78 51 44 52 81 53 75 54 74 55
REMARK SMILES IDX 45 57 67 58 52 59 66 60 53 61 56 62 65 63 79 64 54 65 55 66
REMARK SMILES IDX 64 68 80 69 57 70 46 71 47 72 51 73 48 74 50 75 49 76 68 77
REMARK SMILES IDX 69 78 73 79 70 80 72 81 71 82 58 83 59 84 63 85 60 86 62 87
REMARK SMILES IDX 61 88
REMARK H PARENT 5 12 17 18 78 56 56 67
REMARK Flexibility Score: inf
ROOT
ATOM      1  C   UNL A   1      33.559  29.750  26.790  1.00  0.00     0.202 C 
ENDROOT
BRANCH   1   2
ATOM      2  C   UNL A   1      33.811  28.638  25.758  1.00  0.00     0.261 C 
BRANCH   2   3
ATOM      3  O   UNL A   1      32.748  27.731  25.337  1.00  0.00    -0.462 OA
BRANCH   3   4
ATOM      4  C   UNL A   1      32.940  26.398  25.308  1.00  0.00     0.328 C 
ATOM      5  O   UNL A   1      33.040  25.675  26.285  1.00  0.00    -0.250 OA
BRANCH   4   6
ATOM      6  C   UNL A   1      32.949  25.740  23.935  1.00  0.00     0.195 C 
BRANCH   6   7
ATOM      7  C   UNL A   1      32.450  26.730  22.850  1.00  0.00     0.017 C 
ATOM      8  C   UNL A   1      33.638  27.298  22.060  1.00  0.00     0.010 C 
ATOM      9  C   UNL A   1      31.503  26.050  21.843  1.00  0.00     0.010 C 
ENDBRANCH   6   7
BRANCH   6  10
ATOM     10  N   UNL A   1      34.177  25.042  23.574  1.00  0.00    -0.337 N 
ATOM     11  C   UNL A   1      34.373  23.686  23.709  1.00  0.00     0.268 C 
ATOM     12  H   UNL A   1      34.918  25.577  23.209  1.00  0.00     0.164 HD
ATOM     13  O   UNL A   1      35.020  23.076  22.864  1.00  0.00    -0.268 OA
BRANCH  11  14
ATOM     14  C   UNL A   1      33.922  23.017  24.976  1.00  0.00     0.107 C 
ATOM     15  C   UNL A   1      34.806  22.577  25.900  1.00  0.00     0.043 C 
BRANCH  14  16
ATOM     16  N   UNL A   1      32.574  22.776  25.184  1.00  0.00    -0.317 N 
ATOM     17  C   UNL A   1      31.796  21.636  25.154  1.00  0.00     0.255 C 
ATOM     18  H   UNL A   1      32.061  23.589  25.398  1.00  0.00     0.170 HD
ATOM     19  O   UNL A   1      30.631  21.688  25.550  1.00  0.00    -0.269 OA
BRANCH  17  20
ATOM     20  C   UNL A   1      32.281  20.362  24.606  1.00  0.00     0.040 A 
ATOM     21  C   UNL A   1      32.879  19.449  25.477  1.00  0.00     0.014 A 
ATOM     22  C   UNL A   1      32.193  20.088  23.238  1.00  0.00     0.014 A 
ATOM     23  C   UNL A   1      33.313  18.216  24.991  1.00  0.00     0.001 A 
ATOM     24  C   UNL A   1      32.599  18.840  22.762  1.00  0.00     0.001 A 
ATOM     25  C   UNL A   1      33.150  17.903  23.640  1.00  0.00     0.000 A 
ENDBRANCH  17  20
ENDBRANCH  14  16
BRANCH  15  26
ATOM     26  C   UNL A   1      36.275  22.609  25.814  1.00  0.00     0.012 A 
ATOM     27  C   UNL A   1      36.939  23.794  26.170  1.00  0.00     0.011 A 
ATOM     28  C   UNL A   1      37.046  21.503  25.453  1.00  0.00     0.130 A 
ATOM     29  C   UNL A   1      38.330  23.821  26.302  1.00  0.00     0.001 A 
ATOM     30  C   UNL A   1      38.436  21.532  25.554  1.00  0.00     0.040 A 
ATOM     31  F   UNL A   1      36.458  20.384  25.008  1.00  0.00    -0.206 F 
ATOM     32  C   UNL A   1      39.078  22.683  26.012  1.00  0.00     0.003 A 
ENDBRANCH  15  26
ENDBRANCH  11  14
ENDBRANCH   6  10
ENDBRANCH   4   6
ENDBRANCH   3   4
ENDBRANCH   2   3
ENDBRANCH   1   2
BRANCH   1  33
ATOM     33  O   UNL A   1      33.039  30.957  26.236  1.00  0.00    -0.374 OA
BRANCH  33  34
ATOM     34  C   UNL A   1      31.852  31.473  26.873  1.00  0.00     0.202 C 
BRANCH  34  35
ATOM     35  C   UNL A   1      31.774  32.998  27.187  1.00  0.00     0.261 C 
BRANCH  35  36
ATOM     36  O   UNL A   1      33.057  33.645  27.243  1.00  0.00    -0.460 OA
BRANCH  36  37
ATOM     37  C   UNL A   1      33.492  33.907  28.495  1.00  0.00     0.338 C 
ATOM     38  O   UNL A   1      32.849  34.412  29.402  1.00  0.00    -0.246 OA
BRANCH  37  39
ATOM     39  C   UNL A   1      34.766  33.184  28.698  1.00  0.00     0.060 A 
ATOM     40  C   UNL A   1      34.666  31.878  29.197  1.00  0.00     0.016 A 
ATOM     41  C   UNL A   1      36.008  33.718  28.339  1.00  0.00     0.016 A 
ATOM     42  C   UNL A   1      35.813  31.124  29.402  1.00  0.00     0.010 A 
ATOM     43  C   UNL A   1      37.167  32.968  28.569  1.00  0.00     0.010 A 
ATOM     44  C   UNL A   1      37.070  31.690  29.150  1.00  0.00    -0.014 A 
BRANCH  44  45
ATOM     45  C   UNL A   1      38.239  31.060  29.801  1.00  0.00     0.031 A 
ATOM     46  C   UNL A   1      38.460  31.376  31.256  1.00  0.00     0.074 A 
ATOM     47  C   UNL A   1      38.999  30.151  29.168  1.00  0.00     0.049 A 
ATOM     48  N   UNL A   1      39.334  30.884  32.092  1.00  0.00    -0.248 NA
ATOM     49  C   UNL A   1      37.554  32.377  31.852  1.00  0.00     0.031 C 
ATOM     50  C   UNL A   1      38.831  29.717  27.781  1.00  0.00     0.029 A 
ATOM     51  N   UNL A   1      40.057  29.408  29.629  1.00  0.00    -0.354 N 
ATOM     52  C   UNL A   1      39.075  31.505  33.309  1.00  0.00     0.074 A 
ATOM     53  C   UNL A   1      37.991  32.435  33.098  1.00  0.00     0.031 C 
ATOM     54  C   UNL A   1      39.753  28.777  27.505  1.00  0.00     0.029 A 
ATOM     55  C   UNL A   1      40.585  28.559  28.688  1.00  0.00     0.049 A 
ATOM     56  H   UNL A   1      40.405  29.478  30.546  1.00  0.00     0.167 HD
ATOM     57  C   UNL A   1      39.679  31.311  34.503  1.00  0.00     0.031 A 
ATOM     58  C   UNL A   1      41.626  27.708  28.778  1.00  0.00     0.031 A 
ATOM     59  C   UNL A   1      40.775  30.407  34.701  1.00  0.00     0.049 A 
ATOM     60  C   UNL A   1      42.348  27.581  30.096  1.00  0.00     0.074 A 
ATOM     61  C   UNL A   1      41.481  30.146  35.860  1.00  0.00     0.029 A 
ATOM     62  N   UNL A   1      41.329  29.620  33.702  1.00  0.00    -0.354 N 
ATOM     63  N   UNL A   1      42.087  28.163  31.243  1.00  0.00    -0.248 NA
ATOM     64  C   UNL A   1      43.500  26.670  30.134  1.00  0.00     0.031 C 
ATOM     65  C   UNL A   1      42.500  29.241  35.549  1.00  0.00     0.029 A 
ATOM     66  C   UNL A   1      42.387  28.892  34.212  1.00  0.00     0.049 A 
ATOM     67  H   UNL A   1      41.016  29.586  32.770  1.00  0.00     0.167 HD
ATOM     68  C   UNL A   1      43.023  27.671  32.143  1.00  0.00     0.074 A 
ATOM     69  C   UNL A   1      43.848  26.729  31.413  1.00  0.00     0.031 C 
ATOM     70  C   UNL A   1      43.188  27.964  33.457  1.00  0.00     0.031 A 
BRANCH  57  71
ATOM     71  C   UNL A   1      39.191  32.136  35.660  1.00  0.00    -0.014 A 
ATOM     72  C   UNL A   1      39.728  33.405  35.930  1.00  0.00     0.009 A 
ATOM     73  C   UNL A   1      38.183  31.632  36.494  1.00  0.00     0.009 A 
ATOM     74  C   UNL A   1      39.288  34.137  37.036  1.00  0.00     0.001 A 
ATOM     75  C   UNL A   1      37.725  32.377  37.581  1.00  0.00     0.001 A 
ATOM     76  C   UNL A   1      38.283  33.624  37.857  1.00  0.00     0.000 A 
ENDBRANCH  57  71
BRANCH  58  77
ATOM     77  C   UNL A   1      42.063  26.924  27.592  1.00  0.00    -0.014 A 
ATOM     78  C   UNL A   1      42.967  27.460  26.662  1.00  0.00     0.009 A 
ATOM     79  C   UNL A   1      41.554  25.634  27.372  1.00  0.00     0.009 A 
ATOM     80  C   UNL A   1      43.331  26.730  25.525  1.00  0.00     0.001 A 
ATOM     81  C   UNL A   1      41.942  24.895  26.251  1.00  0.00     0.001 A 
ATOM     82  C   UNL A   1      42.823  25.447  25.324  1.00  0.00     0.000 A 
ENDBRANCH  58  77
BRANCH  70  83
ATOM     83  C   UNL A   1      44.278  27.236  34.192  1.00  0.00    -0.014 A 
ATOM     84  C   UNL A   1      45.564  27.782  34.318  1.00  0.00     0.009 A 
ATOM     85  C   UNL A   1      43.991  26.012  34.816  1.00  0.00     0.009 A 
ATOM     86  C   UNL A   1      46.552  27.097  35.027  1.00  0.00     0.001 A 
ATOM     87  C   UNL A   1      44.971  25.345  35.550  1.00  0.00     0.001 A 
ATOM     88  C   UNL A   1      46.254  25.883  35.647  1.00  0.00     0.000 A 
ENDBRANCH  70  83
ENDBRANCH  44  45
ENDBRANCH  37  39
ENDBRANCH  36  37
ENDBRANCH  35  36
ENDBRANCH  34  35
ENDBRANCH  33  34
ENDBRANCH   1  33
TORSDOF 20
ENDMDL
MODEL 2
REMARK VINA RESULT:     -10.7      4.016      7.227
REMARK SMILES CC(C)[C@@H](NC(=O)/C(=C\c1ccccc1F)NC(=O)c1ccccc1)C(=O)OCCOCCOC(=O)c1ccc(-c2c3nc(c(-c4ccccc4)c4ccc([nH]4)c(-c4ccccc4)c4nc(c(-c5ccccc5)c5ccc2[nH]5)C=C4)C=C3)cc1
REMARK SMILES IDX 30 1 29 2 28 3 26 4 27 5 4 6 2 7 1 8 3 9 5 10 6 11 7 13 8 14
REMARK SMILES IDX 9 15 17 16 18 17 19 19 20 20 21 21 25 22 22 23 24 24 23 25
REMARK SMILES IDX 10 26 11 27 15 28 12 29 14 30 16 31 13 32 31 33 32 34 33 35
REMARK SMILES IDX 34 36 35 37 36 38 37 39 38 40 84 41 39 42 83 43 40 44 41 45
REMARK SMILES IDX 42 46 77 47 43 48 82 49 76 50 78 51 44 52 81 53 75 54 74 55
REMARK SMILES IDX 45 57 67 58 52 59 66 60 53 61 56 62 65 63 79 64 54 65 55 66
REMARK SMILES IDX 64 68 80 69 57 70 46 71 47 72 51 73 48 74 50 75 49 76 68 77
REMARK SMILES IDX 69 78 73 79 70 80 72 81 71 82 58 83 59 84 63 85 60 86 62 87
REMARK SMILES IDX 61 88
REMARK H PARENT 5 12 17 18 78 56 56 67
REMARK Flexibility Score: inf
ROOT
ATOM      1  C   UNL A   1      31.850  28.737  27.268  1.00  0.00     0.202 C 
ENDROOT
BRANCH   1   2
ATOM      2  C   UNL A   1      31.603  27.458  26.449  1.00  0.00     0.261 C 
BRANCH   2   3
ATOM      3  O   UNL A   1      32.706  26.626  25.981  1.00  0.00    -0.462 OA
BRANCH   3   4
ATOM      4  C   UNL A   1      33.321  26.876  24.809  1.00  0.00     0.328 C 
ATOM      5  O   UNL A   1      34.067  27.815  24.587  1.00  0.00    -0.250 OA
BRANCH   4   6
ATOM      6  C   UNL A   1      33.124  25.850  23.702  1.00  0.00     0.195 C 
BRANCH   6   7
ATOM      7  C   UNL A   1      32.474  26.509  22.456  1.00  0.00     0.017 C 
ATOM      8  C   UNL A   1      32.670  25.618  21.220  1.00  0.00     0.010 C 
ATOM      9  C   UNL A   1      30.959  26.720  22.642  1.00  0.00     0.010 C 
ENDBRANCH   6   7
BRANCH   6  10
ATOM     10  N   UNL A   1      34.282  25.020  23.392  1.00  0.00    -0.337 N 
ATOM     11  C   UNL A   1      34.373  23.675  23.668  1.00  0.00     0.268 C 
ATOM     12  H   UNL A   1      35.051  25.452  22.955  1.00  0.00     0.164 HD
ATOM     13  O   UNL A   1      34.945  22.928  22.880  1.00  0.00    -0.268 OA
BRANCH  11  14
ATOM     14  C   UNL A   1      33.910  23.183  25.009  1.00  0.00     0.107 C 
ATOM     15  C   UNL A   1      34.784  22.883  25.997  1.00  0.00     0.043 C 
BRANCH  14  16
ATOM     16  N   UNL A   1      32.561  22.960  25.232  1.00  0.00    -0.317 N 
ATOM     17  C   UNL A   1      31.767  21.832  25.211  1.00  0.00     0.255 C 
ATOM     18  H   UNL A   1      32.061  23.781  25.450  1.00  0.00     0.170 HD
ATOM     19  O   UNL A   1      30.607  21.900  25.619  1.00  0.00    -0.269 OA
BRANCH  17  20
ATOM     20  C   UNL A   1      32.229  20.550  24.659  1.00  0.00     0.040 A 
ATOM     21  C   UNL A   1      32.819  19.629  25.527  1.00  0.00     0.014 A 
ATOM     22  C   UNL A   1      32.128  20.277  23.292  1.00  0.00     0.014 A 
ATOM     23  C   UNL A   1      33.231  18.389  25.037  1.00  0.00     0.001 A 
ATOM     24  C   UNL A   1      32.512  19.023  22.814  1.00  0.00     0.001 A 
ATOM     25  C   UNL A   1      33.054  18.079  23.688  1.00  0.00     0.000 A 
ENDBRANCH  17  20
ENDBRANCH  14  16
BRANCH  15  26
ATOM     26  C   UNL A   1      36.254  22.916  25.926  1.00  0.00     0.012 A 
ATOM     27  C   UNL A   1      36.912  24.107  26.274  1.00  0.00     0.011 A 
ATOM     28  C   UNL A   1      37.030  21.807  25.588  1.00  0.00     0.130 A 
ATOM     29  C   UNL A   1      38.301  24.138  26.421  1.00  0.00     0.001 A 
ATOM     30  C   UNL A   1      38.419  21.840  25.704  1.00  0.00     0.040 A 
ATOM     31  F   UNL A   1      36.448  20.682  25.151  1.00  0.00    -0.206 F 
ATOM     32  C   UNL A   1      39.054  22.997  26.154  1.00  0.00     0.003 A 
ENDBRANCH  15  26
ENDBRANCH  11  14
ENDBRANCH   6  10
ENDBRANCH   4   6
ENDBRANCH   3   4
ENDBRANCH   2   3
ENDBRANCH   1   2
BRANCH   1  33
ATOM     33  O   UNL A   1      33.218  28.966  27.599  1.00  0.00    -0.374 OA
BRANCH  33  34
ATOM     34  C   UNL A   1      33.681  30.321  27.419  1.00  0.00     0.202 C 
BRANCH  34  35
ATOM     35  C   UNL A   1      35.145  30.670  27.826  1.00  0.00     0.261 C 
BRANCH  35  36
ATOM     36  O   UNL A   1      35.959  29.518  28.110  1.00  0.00    -0.460 OA
BRANCH  36  37
ATOM     37  C   UNL A   1      36.520  29.524  29.339  1.00  0.00     0.338 C 
ATOM     38  O   UNL A   1      35.965  29.273  30.397  1.00  0.00    -0.246 OA
BRANCH  37  39
ATOM     39  C   UNL A   1      37.988  29.560  29.172  1.00  0.00     0.060 A 
ATOM     40  C   UNL A   1      38.467  29.449  27.860  1.00  0.00     0.016 A 
ATOM     41  C   UNL A   1      38.869  29.778  30.237  1.00  0.00     0.016 A 
ATOM     42  C   UNL A   1      39.832  29.488  27.613  1.00  0.00     0.010 A 
ATOM     43  C   UNL A   1      40.247  29.793  29.992  1.00  0.00     0.010 A 
ATOM     44  C   UNL A   1      40.728  29.596  28.685  1.00  0.00    -0.014 A 
BRANCH  44  45
ATOM     45  C   UNL A   1      42.125  29.174  28.445  1.00  0.00     0.031 A 
ATOM     46  C   UNL A   1      42.353  27.716  28.146  1.00  0.00     0.074 A 
ATOM     47  C   UNL A   1      43.132  30.060  28.371  1.00  0.00     0.049 A 
ATOM     48  N   UNL A   1      43.450  27.099  27.795  1.00  0.00    -0.248 NA
ATOM     49  C   UNL A   1      41.172  26.837  28.240  1.00  0.00     0.031 C 
ATOM     50  C   UNL A   1      43.011  31.503  28.574  1.00  0.00     0.029 A 
ATOM     51  N   UNL A   1      44.458  29.869  28.078  1.00  0.00    -0.354 N 
ATOM     52  C   UNL A   1      43.087  25.769  27.617  1.00  0.00     0.074 A 
ATOM     53  C   UNL A   1      41.682  25.657  27.933  1.00  0.00     0.031 C 
ATOM     54  C   UNL A   1      44.218  32.069  28.392  1.00  0.00     0.029 A 
ATOM     55  C   UNL A   1      45.195  31.027  28.080  1.00  0.00     0.049 A 
ATOM     56  H   UNL A   1      44.845  28.985  27.884  1.00  0.00     0.167 HD
ATOM     57  C   UNL A   1      43.853  24.730  27.215  1.00  0.00     0.031 A 
ATOM     58  C   UNL A   1      46.512  31.215  27.859  1.00  0.00     0.031 A 
ATOM     59  C   UNL A   1      45.255  24.840  26.931  1.00  0.00     0.049 A 
ATOM     60  C   UNL A   1      47.367  30.024  27.508  1.00  0.00     0.074 A 
ATOM     61  C   UNL A   1      46.137  23.851  26.539  1.00  0.00     0.029 A 
ATOM     62  N   UNL A   1      45.979  26.018  27.019  1.00  0.00    -0.354 N 
ATOM     63  N   UNL A   1      47.011  28.773  27.331  1.00  0.00    -0.248 NA
ATOM     64  C   UNL A   1      48.802  30.273  27.315  1.00  0.00     0.031 C 
ATOM     65  C   UNL A   1      47.409  24.422  26.444  1.00  0.00     0.029 A 
ATOM     66  C   UNL A   1      47.305  25.778  26.715  1.00  0.00     0.049 A 
ATOM     67  H   UNL A   1      45.605  26.896  27.263  1.00  0.00     0.167 HD
ATOM     68  C   UNL A   1      48.170  28.092  26.979  1.00  0.00     0.074 A 
ATOM     69  C   UNL A   1      49.237  29.073  26.954  1.00  0.00     0.031 C 
ATOM     70  C   UNL A   1      48.343  26.776  26.700  1.00  0.00     0.031 A 
BRANCH  57  71
ATOM     71  C   UNL A   1      43.188  23.386  27.116  1.00  0.00    -0.014 A 
ATOM     72  C   UNL A   1      42.886  22.810  25.871  1.00  0.00     0.009 A 
ATOM     73  C   UNL A   1      42.854  22.690  28.287  1.00  0.00     0.009 A 
ATOM     74  C   UNL A   1      42.230  21.578  25.805  1.00  0.00     0.001 A 
ATOM     75  C   UNL A   1      42.224  21.447  28.216  1.00  0.00     0.001 A 
ATOM     76  C   UNL A   1      41.904  20.896  26.977  1.00  0.00     0.000 A 
ENDBRANCH  57  71
BRANCH  58  77
ATOM     77  C   UNL A   1      47.109  32.572  27.980  1.00  0.00    -0.014 A 
ATOM     78  C   UNL A   1      47.581  33.050  29.212  1.00  0.00     0.009 A 
ATOM     79  C   UNL A   1      47.188  33.410  26.856  1.00  0.00     0.009 A 
ATOM     80  C   UNL A   1      48.095  34.347  29.320  1.00  0.00     0.001 A 
ATOM     81  C   UNL A   1      47.730  34.694  26.961  1.00  0.00     0.001 A 
ATOM     82  C   UNL A   1      48.174  35.164  28.194  1.00  0.00     0.000 A 
ENDBRANCH  58  77
BRANCH  70  83
ATOM     83  C   UNL A   1      49.724  26.331  26.310  1.00  0.00    -0.014 A 
ATOM     84  C   UNL A   1      50.200  26.490  25.001  1.00  0.00     0.009 A 
ATOM     85  C   UNL A   1      50.578  25.798  27.288  1.00  0.00     0.009 A 
ATOM     86  C   UNL A   1      51.496  26.091  24.671  1.00  0.00     0.001 A 
ATOM     87  C   UNL A   1      51.883  25.429  26.963  1.00  0.00     0.001 A 
ATOM     88  C   UNL A   1      52.337  25.567  25.652  1.00  0.00     0.000 A 
ENDBRANCH  70  83
ENDBRANCH  44  45
ENDBRANCH  37  39
ENDBRANCH  36  37
ENDBRANCH  35  36
ENDBRANCH  34  35
ENDBRANCH  33  34
ENDBRANCH   1  33
TORSDOF 20
ENDMDL
MODEL 3
REMARK VINA RESULT:     -10.2      1.268      1.962
REMARK SMILES CC(C)[C@@H](NC(=O)/C(=C\c1ccccc1F)NC(=O)c1ccccc1)C(=O)OCCOCCOC(=O)c1ccc(-c2c3nc(c(-c4ccccc4)c4ccc([nH]4)c(-c4ccccc4)c4nc(c(-c5ccccc5)c5ccc2[nH]5)C=C4)C=C3)cc1
REMARK SMILES IDX 30 1 29 2 28 3 26 4 27 5 4 6 2 7 1 8 3 9 5 10 6 11 7 13 8 14
REMARK SMILES IDX 9 15 17 16 18 17 19 19 20 20 21 21 25 22 22 23 24 24 23 25
REMARK SMILES IDX 10 26 11 27 15 28 12 29 14 30 16 31 13 32 31 33 32 34 33 35
REMARK SMILES IDX 34 36 35 37 36 38 37 39 38 40 84 41 39 42 83 43 40 44 41 45
REMARK SMILES IDX 42 46 77 47 43 48 82 49 76 50 78 51 44 52 81 53 75 54 74 55
REMARK SMILES IDX 45 57 67 58 52 59 66 60 53 61 56 62 65 63 79 64 54 65 55 66
REMARK SMILES IDX 64 68 80 69 57 70 46 71 47 72 51 73 48 74 50 75 49 76 68 77
REMARK SMILES IDX 69 78 73 79 70 80 72 81 71 82 58 83 59 84 63 85 60 86 62 87
REMARK SMILES IDX 61 88
REMARK H PARENT 5 12 17 18 78 56 56 67
REMARK Flexibility Score: inf
ROOT
ATOM      1  C   UNL A   1      33.069  29.268  27.070  1.00  0.00     0.202 C 
ENDROOT
BRANCH   1   2
ATOM      2  C   UNL A   1      32.355  28.512  25.937  1.00  0.00     0.261 C 
BRANCH   2   3
ATOM      3  O   UNL A   1      33.061  27.551  25.097  1.00  0.00    -0.462 OA
BRANCH   3   4
ATOM      4  C   UNL A   1      32.708  26.251  25.075  1.00  0.00     0.328 C 
ATOM      5  O   UNL A   1      32.236  25.630  26.012  1.00  0.00    -0.250 OA
BRANCH   4   6
ATOM      6  C   UNL A   1      32.840  25.530  23.741  1.00  0.00     0.195 C 
BRANCH   6   7
ATOM      7  C   UNL A   1      32.309  26.417  22.585  1.00  0.00     0.017 C 
ATOM      8  C   UNL A   1      32.477  25.695  21.240  1.00  0.00     0.010 C 
ATOM      9  C   UNL A   1      30.813  26.747  22.753  1.00  0.00     0.010 C 
ENDBRANCH   6   7
BRANCH   6  10
ATOM     10  N   UNL A   1      34.140  24.927  23.471  1.00  0.00    -0.337 N 
ATOM     11  C   UNL A   1      34.438  23.596  23.661  1.00  0.00     0.268 C 
ATOM     12  H   UNL A   1      34.854  25.511  23.129  1.00  0.00     0.164 HD
ATOM     13  O   UNL A   1      35.180  23.018  22.874  1.00  0.00    -0.268 OA
BRANCH  11  14
ATOM     14  C   UNL A   1      33.972  22.929  24.924  1.00  0.00     0.107 C 
ATOM     15  C   UNL A   1      34.846  22.462  25.844  1.00  0.00     0.043 C 
BRANCH  14  16
ATOM     16  N   UNL A   1      32.618  22.718  25.131  1.00  0.00    -0.317 N 
ATOM     17  C   UNL A   1      31.821  21.592  25.130  1.00  0.00     0.255 C 
ATOM     18  H   UNL A   1      32.119  23.546  25.317  1.00  0.00     0.170 HD
ATOM     19  O   UNL A   1      30.655  21.676  25.517  1.00  0.00    -0.269 OA
BRANCH  17  20
ATOM     20  C   UNL A   1      32.286  20.293  24.623  1.00  0.00     0.040 A 
ATOM     21  C   UNL A   1      32.181  20.039  23.254  1.00  0.00     0.014 A 
ATOM     22  C   UNL A   1      32.775  19.315  25.494  1.00  0.00     0.014 A 
ATOM     23  C   UNL A   1      32.651  18.830  22.741  1.00  0.00     0.001 A 
ATOM     24  C   UNL A   1      33.273  18.119  24.971  1.00  0.00     0.001 A 
ATOM     25  C   UNL A   1      33.218  17.883  23.595  1.00  0.00     0.000 A 
ENDBRANCH  17  20
ENDBRANCH  14  16
BRANCH  15  26
ATOM     26  C   UNL A   1      36.315  22.460  25.758  1.00  0.00     0.012 A 
ATOM     27  C   UNL A   1      37.007  23.618  26.147  1.00  0.00     0.011 A 
ATOM     28  C   UNL A   1      37.058  21.346  25.366  1.00  0.00     0.130 A 
ATOM     29  C   UNL A   1      38.399  23.607  26.278  1.00  0.00     0.001 A 
ATOM     30  C   UNL A   1      38.448  21.338  25.466  1.00  0.00     0.040 A 
ATOM     31  F   UNL A   1      36.443  20.255  24.890  1.00  0.00    -0.206 F 
ATOM     32  C   UNL A   1      39.119  22.460  25.955  1.00  0.00     0.003 A 
ENDBRANCH  15  26
ENDBRANCH  11  14
ENDBRANCH   6  10
ENDBRANCH   4   6
ENDBRANCH   3   4
ENDBRANCH   2   3
ENDBRANCH   1   2
BRANCH   1  33
ATOM     33  O   UNL A   1      32.456  30.507  27.425  1.00  0.00    -0.374 OA
BRANCH  33  34
ATOM     34  C   UNL A   1      33.348  31.638  27.509  1.00  0.00     0.202 C 
BRANCH  34  35
ATOM     35  C   UNL A   1      32.777  33.061  27.225  1.00  0.00     0.261 C 
BRANCH  35  36
ATOM     36  O   UNL A   1      32.294  33.738  28.399  1.00  0.00    -0.460 OA
BRANCH  36  37
ATOM     37  C   UNL A   1      32.983  34.855  28.717  1.00  0.00     0.338 C 
ATOM     38  O   UNL A   1      32.584  36.007  28.640  1.00  0.00    -0.246 OA
BRANCH  37  39
ATOM     39  C   UNL A   1      34.179  34.453  29.488  1.00  0.00     0.060 A 
ATOM     40  C   UNL A   1      35.417  34.660  28.866  1.00  0.00     0.016 A 
ATOM     41  C   UNL A   1      34.111  33.972  30.800  1.00  0.00     0.016 A 
ATOM     42  C   UNL A   1      36.591  34.325  29.526  1.00  0.00     0.010 A 
ATOM     43  C   UNL A   1      35.293  33.610  31.457  1.00  0.00     0.010 A 
ATOM     44  C   UNL A   1      36.529  33.739  30.798  1.00  0.00    -0.014 A 
BRANCH  44  45
ATOM     45  C   UNL A   1      37.717  32.987  31.256  1.00  0.00     0.031 A 
ATOM     46  C   UNL A   1      38.264  33.341  32.612  1.00  0.00     0.074 A 
ATOM     47  C   UNL A   1      38.215  31.953  30.558  1.00  0.00     0.049 A 
ATOM     48  N   UNL A   1      39.220  32.774  33.299  1.00  0.00    -0.248 NA
ATOM     49  C   UNL A   1      37.629  34.484  33.296  1.00  0.00     0.031 C 
ATOM     50  C   UNL A   1      37.717  31.479  29.266  1.00  0.00     0.029 A 
ATOM     51  N   UNL A   1      39.242  31.096  30.860  1.00  0.00    -0.354 N 
ATOM     52  C   UNL A   1      39.292  33.483  34.492  1.00  0.00     0.074 A 
ATOM     53  C   UNL A   1      38.312  34.542  34.426  1.00  0.00     0.031 C 
ATOM     54  C   UNL A   1      38.440  30.409  28.888  1.00  0.00     0.029 A 
ATOM     55  C   UNL A   1      39.460  30.137  29.901  1.00  0.00     0.049 A 
ATOM     56  H   UNL A   1      39.774  31.162  31.685  1.00  0.00     0.167 HD
ATOM     57  C   UNL A   1      40.095  33.267  35.558  1.00  0.00     0.031 A 
ATOM     58  C   UNL A   1      40.384  29.157  29.852  1.00  0.00     0.031 A 
ATOM     59  C   UNL A   1      41.087  32.232  35.608  1.00  0.00     0.049 A 
ATOM     60  C   UNL A   1      41.334  28.996  31.011  1.00  0.00     0.074 A 
ATOM     61  C   UNL A   1      41.974  31.934  36.625  1.00  0.00     0.029 A 
ATOM     62  N   UNL A   1      41.326  31.330  34.583  1.00  0.00    -0.354 N 
ATOM     63  N   UNL A   1      41.385  29.665  32.139  1.00  0.00    -0.248 NA
ATOM     64  C   UNL A   1      42.348  27.939  30.894  1.00  0.00     0.031 C 
ATOM     65  C   UNL A   1      42.788  30.884  36.191  1.00  0.00     0.029 A 
ATOM     66  C   UNL A   1      42.365  30.489  34.931  1.00  0.00     0.049 A 
ATOM     67  H   UNL A   1      40.829  31.294  33.734  1.00  0.00     0.167 HD
ATOM     68  C   UNL A   1      42.414  29.093  32.877  1.00  0.00     0.074 A 
ATOM     69  C   UNL A   1      42.951  28.013  32.073  1.00  0.00     0.031 C 
ATOM     70  C   UNL A   1      42.876  29.424  34.108  1.00  0.00     0.031 A 
BRANCH  57  71
ATOM     71  C   UNL A   1      39.957  34.207  36.722  1.00  0.00    -0.014 A 
ATOM     72  C   UNL A   1      40.680  35.410  36.781  1.00  0.00     0.009 A 
ATOM     73  C   UNL A   1      39.095  33.879  37.779  1.00  0.00     0.009 A 
ATOM     74  C   UNL A   1      40.566  36.248  37.893  1.00  0.00     0.001 A 
ATOM     75  C   UNL A   1      38.962  34.733  38.875  1.00  0.00     0.001 A 
ATOM     76  C   UNL A   1      39.704  35.910  38.936  1.00  0.00     0.000 A 
ENDBRANCH  57  71
BRANCH  58  77
ATOM     77  C   UNL A   1      40.472  28.264  28.665  1.00  0.00    -0.014 A 
ATOM     78  C   UNL A   1      39.840  27.011  28.653  1.00  0.00     0.009 A 
ATOM     79  C   UNL A   1      41.214  28.656  27.540  1.00  0.00     0.009 A 
ATOM     80  C   UNL A   1      39.972  26.161  27.549  1.00  0.00     0.001 A 
ATOM     81  C   UNL A   1      41.320  27.818  26.427  1.00  0.00     0.001 A 
ATOM     82  C   UNL A   1      40.707  26.568  26.436  1.00  0.00     0.000 A 
ENDBRANCH  58  77
BRANCH  70  83
ATOM     83  C   UNL A   1      43.992  28.590  34.671  1.00  0.00    -0.014 A 
ATOM     84  C   UNL A   1      45.335  28.953  34.493  1.00  0.00     0.009 A 
ATOM     85  C   UNL A   1      43.686  27.457  35.440  1.00  0.00     0.009 A 
ATOM     86  C   UNL A   1      46.353  28.175  35.047  1.00  0.00     0.001 A 
ATOM     87  C   UNL A   1      44.704  26.698  36.018  1.00  0.00     0.001 A 
ATOM     88  C   UNL A   1      46.037  27.053  35.813  1.00  0.00     0.000 A 
ENDBRANCH  70  83
ENDBRANCH  44  45
ENDBRANCH  37  39
ENDBRANCH  36  37
ENDBRANCH  35  36
ENDBRANCH  34  35
ENDBRANCH  33  34
ENDBRANCH   1  33
TORSDOF 20
ENDMDL
