MODEL 1
REMARK VINA RESULT:      -8.8      0.000      0.000
REMARK SMILES CC1([C@](C)(Nc2cccc(Cl)c2)C(=O)OCCOCCOC(=O)c2ccc(-c3c4nc(c(-c5ccccc5)c5ccc([nH]5)c(-c5ccccc5)c5nc(c(-c6ccccc6)c6ccc3[nH]6)C=C5)C=C4)cc2)CC1
REMARK SMILES IDX 18 1 17 2 16 3 15 4 13 5 14 6 3 7 4 8 2 9 1 10 72 11 73 12
REMARK SMILES IDX 5 13 6 15 7 16 12 17 8 18 10 19 9 20 11 21 19 22 20 23 21 24
REMARK SMILES IDX 22 25 23 26 24 27 25 28 71 29 26 30 70 31 27 32 28 33 29 34
REMARK SMILES IDX 64 35 30 36 69 37 63 38 65 39 31 40 68 41 62 42 61 43 32 45
REMARK SMILES IDX 54 46 39 47 53 48 40 49 43 50 52 51 66 52 41 53 42 54 51 56
REMARK SMILES IDX 67 57 44 58 33 59 34 60 38 61 35 62 37 63 36 64 55 65 56 66
REMARK SMILES IDX 60 67 57 68 59 69 58 70 45 71 46 72 50 73 47 74 49 75 48 76
REMARK H PARENT 5 14 65 44 43 55
REMARK Flexibility Score: inf
ROOT
ATOM      1  O   UNL A   1      34.662  36.457  33.414  1.00  0.00    -0.374 OA
ENDROOT
BRANCH   1   2
ATOM      2  C   UNL A   1      34.820  35.104  33.843  1.00  0.00     0.202 C 
BRANCH   2   3
ATOM      3  C   UNL A   1      36.231  34.543  33.693  1.00  0.00     0.261 C 
BRANCH   3   4
ATOM      4  O   UNL A   1      36.285  33.193  34.184  1.00  0.00    -0.461 OA
BRANCH   4   5
ATOM      5  C   UNL A   1      36.816  33.029  35.428  1.00  0.00     0.332 C 
ATOM      6  O   UNL A   1      36.258  33.419  36.452  1.00  0.00    -0.249 OA
BRANCH   5   7
ATOM      7  C   UNL A   1      38.245  32.394  35.400  1.00  0.00     0.138 C 
ATOM      8  C   UNL A   1      38.123  31.092  36.274  1.00  0.00     0.048 C 
BRANCH   7   9
ATOM      9  C   UNL A   1      39.327  33.348  36.012  1.00  0.00     0.001 C 
ATOM     10  C   UNL A   1      39.235  34.807  35.625  1.00  0.00     0.014 C 
ATOM     11  C   UNL A   1      40.749  32.810  36.189  1.00  0.00     0.010 C 
ATOM     12  C   UNL A   1      39.917  33.071  37.399  1.00  0.00     0.010 C 
ENDBRANCH   7   9
BRANCH   7  13
ATOM     13  N   UNL A   1      38.654  31.846  34.073  1.00  0.00    -0.370 N 
ATOM     14  H   UNL A   1      38.963  32.560  33.468  1.00  0.00     0.161 HD
BRANCH  13  15
ATOM     15  C   UNL A   1      38.716  30.616  33.468  1.00  0.00     0.036 A 
ATOM     16  C   UNL A   1      37.648  29.933  32.895  1.00  0.00     0.026 A 
ATOM     17  C   UNL A   1      39.966  29.963  33.482  1.00  0.00     0.046 A 
ATOM     18  C   UNL A   1      37.829  28.674  32.301  1.00  0.00     0.004 A 
ATOM     19  C   UNL A   1      40.145  28.702  32.917  1.00  0.00     0.043 A 
ATOM     20  C   UNL A   1      39.081  28.061  32.305  1.00  0.00     0.020 A 
ATOM     21  Cl  UNL A   1      41.682  27.933  33.002  1.00  0.00    -0.084 Cl
ENDBRANCH  13  15
ENDBRANCH   7  13
ENDBRANCH   5   7
ENDBRANCH   4   5
ENDBRANCH   3   4
ENDBRANCH   2   3
ENDBRANCH   1   2
BRANCH   1  22
ATOM     22  C   UNL A   1      33.374  36.787  32.887  1.00  0.00     0.202 C 
BRANCH  22  23
ATOM     23  C   UNL A   1      33.228  36.607  31.370  1.00  0.00     0.261 C 
BRANCH  23  24
ATOM     24  O   UNL A   1      32.990  35.230  31.015  1.00  0.00    -0.460 OA
BRANCH  24  25
ATOM     25  C   UNL A   1      33.240  34.908  29.721  1.00  0.00     0.338 C 
ATOM     26  O   UNL A   1      32.667  35.314  28.732  1.00  0.00    -0.246 OA
BRANCH  25  27
ATOM     27  C   UNL A   1      34.487  34.109  29.660  1.00  0.00     0.060 A 
ATOM     28  C   UNL A   1      34.720  33.168  30.669  1.00  0.00     0.016 A 
ATOM     29  C   UNL A   1      35.420  34.280  28.639  1.00  0.00     0.016 A 
ATOM     30  C   UNL A   1      35.910  32.435  30.684  1.00  0.00     0.010 A 
ATOM     31  C   UNL A   1      36.585  33.504  28.623  1.00  0.00     0.010 A 
ATOM     32  C   UNL A   1      36.870  32.618  29.679  1.00  0.00    -0.014 A 
BRANCH  32  33
ATOM     33  C   UNL A   1      38.237  32.039  29.830  1.00  0.00     0.031 A 
ATOM     34  C   UNL A   1      39.283  32.823  30.590  1.00  0.00     0.074 A 
ATOM     35  C   UNL A   1      38.554  30.824  29.341  1.00  0.00     0.049 A 
ATOM     36  N   UNL A   1      40.533  32.521  30.841  1.00  0.00    -0.248 NA
ATOM     37  C   UNL A   1      38.871  34.134  31.117  1.00  0.00     0.031 C 
ATOM     38  C   UNL A   1      37.655  29.942  28.597  1.00  0.00     0.029 A 
ATOM     39  N   UNL A   1      39.730  30.114  29.411  1.00  0.00    -0.354 N 
ATOM     40  C   UNL A   1      41.053  33.612  31.529  1.00  0.00     0.074 A 
ATOM     41  C   UNL A   1      40.009  34.609  31.593  1.00  0.00     0.031 C 
ATOM     42  C   UNL A   1      38.301  28.800  28.306  1.00  0.00     0.029 A 
ATOM     43  C   UNL A   1      39.671  28.879  28.811  1.00  0.00     0.049 A 
ATOM     44  H   UNL A   1      40.541  30.461  29.850  1.00  0.00     0.167 HD
ATOM     45  C   UNL A   1      42.275  33.770  32.092  1.00  0.00     0.031 A 
ATOM     46  C   UNL A   1      40.611  27.920  28.683  1.00  0.00     0.031 A 
ATOM     47  C   UNL A   1      43.316  32.779  32.059  1.00  0.00     0.049 A 
ATOM     48  C   UNL A   1      41.981  28.134  29.273  1.00  0.00     0.074 A 
ATOM     49  C   UNL A   1      44.572  32.830  32.636  1.00  0.00     0.029 A 
ATOM     50  N   UNL A   1      43.219  31.557  31.414  1.00  0.00    -0.354 N 
ATOM     51  N   UNL A   1      42.439  29.152  29.962  1.00  0.00    -0.248 NA
ATOM     52  C   UNL A   1      42.962  27.054  29.077  1.00  0.00     0.031 C 
ATOM     53  C   UNL A   1      45.259  31.662  32.288  1.00  0.00     0.029 A 
ATOM     54  C   UNL A   1      44.403  30.855  31.555  1.00  0.00     0.049 A 
ATOM     55  H   UNL A   1      42.426  31.236  30.927  1.00  0.00     0.167 HD
ATOM     56  C   UNL A   1      43.744  28.820  30.311  1.00  0.00     0.074 A 
ATOM     57  C   UNL A   1      44.000  27.501  29.770  1.00  0.00     0.031 C 
ATOM     58  C   UNL A   1      44.648  29.542  31.018  1.00  0.00     0.031 A 
BRANCH  45  59
ATOM     59  C   UNL A   1      42.550  35.077  32.787  1.00  0.00    -0.014 A 
ATOM     60  C   UNL A   1      42.150  35.299  34.116  1.00  0.00     0.009 A 
ATOM     61  C   UNL A   1      43.224  36.102  32.104  1.00  0.00     0.009 A 
ATOM     62  C   UNL A   1      42.370  36.535  34.726  1.00  0.00     0.001 A 
ATOM     63  C   UNL A   1      43.477  37.324  32.730  1.00  0.00     0.001 A 
ATOM     64  C   UNL A   1      43.038  37.545  34.034  1.00  0.00     0.000 A 
ENDBRANCH  45  59
BRANCH  46  65
ATOM     65  C   UNL A   1      40.293  26.647  27.979  1.00  0.00    -0.014 A 
ATOM     66  C   UNL A   1      40.704  26.444  26.652  1.00  0.00     0.009 A 
ATOM     67  C   UNL A   1      39.550  25.640  28.617  1.00  0.00     0.009 A 
ATOM     68  C   UNL A   1      40.355  25.275  25.971  1.00  0.00     0.001 A 
ATOM     69  C   UNL A   1      39.230  24.459  27.943  1.00  0.00     0.001 A 
ATOM     70  C   UNL A   1      39.624  24.282  26.618  1.00  0.00     0.000 A 
ENDBRANCH  46  65
BRANCH  58  71
ATOM     71  C   UNL A   1      45.985  28.909  31.291  1.00  0.00    -0.014 A 
ATOM     72  C   UNL A   1      46.201  28.102  32.420  1.00  0.00     0.009 A 
ATOM     73  C   UNL A   1      47.033  29.081  30.373  1.00  0.00     0.009 A 
ATOM     74  C   UNL A   1      47.448  27.514  32.641  1.00  0.00     0.001 A 
ATOM     75  C   UNL A   1      48.269  28.465  30.579  1.00  0.00     0.001 A 
ATOM     76  C   UNL A   1      48.478  27.690  31.717  1.00  0.00     0.000 A 
ENDBRANCH  58  71
ENDBRANCH  32  33
ENDBRANCH  25  27
ENDBRANCH  24  25
ENDBRANCH  23  24
ENDBRANCH  22  23
ENDBRANCH   1  22
TORSDOF 17
ENDMDL
MODEL 2
REMARK VINA RESULT:      -8.6      0.419      5.986
REMARK SMILES CC1([C@](C)(Nc2cccc(Cl)c2)C(=O)OCCOCCOC(=O)c2ccc(-c3c4nc(c(-c5ccccc5)c5ccc([nH]5)c(-c5ccccc5)c5nc(c(-c6ccccc6)c6ccc3[nH]6)C=C5)C=C4)cc2)CC1
REMARK SMILES IDX 18 1 17 2 16 3 15 4 13 5 14 6 3 7 4 8 2 9 1 10 72 11 73 12
REMARK SMILES IDX 5 13 6 15 7 16 12 17 8 18 10 19 9 20 11 21 19 22 20 23 21 24
REMARK SMILES IDX 22 25 23 26 24 27 25 28 71 29 26 30 70 31 27 32 28 33 29 34
REMARK SMILES IDX 64 35 30 36 69 37 63 38 65 39 31 40 68 41 62 42 61 43 32 45
REMARK SMILES IDX 54 46 39 47 53 48 40 49 43 50 52 51 66 52 41 53 42 54 51 56
REMARK SMILES IDX 67 57 44 58 33 59 34 60 38 61 35 62 37 63 36 64 55 65 56 66
REMARK SMILES IDX 60 67 57 68 59 69 58 70 45 71 46 72 50 73 47 74 49 75 48 76
REMARK H PARENT 5 14 65 44 43 55
REMARK Flexibility Score: inf
ROOT
ATOM      1  O   UNL A   1      34.413  36.324  33.389  1.00  0.00    -0.374 OA
ENDROOT
BRANCH   1   2
ATOM      2  C   UNL A   1      34.685  34.957  33.700  1.00  0.00     0.202 C 
BRANCH   2   3
ATOM      3  C   UNL A   1      36.165  34.599  33.785  1.00  0.00     0.261 C 
BRANCH   3   4
ATOM      4  O   UNL A   1      36.324  33.229  34.191  1.00  0.00    -0.461 OA
BRANCH   4   5
ATOM      5  C   UNL A   1      36.923  33.028  35.399  1.00  0.00     0.332 C 
ATOM      6  O   UNL A   1      36.459  33.449  36.456  1.00  0.00    -0.249 OA
BRANCH   5   7
ATOM      7  C   UNL A   1      38.305  32.305  35.278  1.00  0.00     0.138 C 
ATOM      8  C   UNL A   1      38.169  31.026  36.184  1.00  0.00     0.048 C 
BRANCH   7   9
ATOM      9  C   UNL A   1      39.485  33.199  35.791  1.00  0.00     0.001 C 
ATOM     10  C   UNL A   1      39.362  34.686  35.542  1.00  0.00     0.014 C 
ATOM     11  C   UNL A   1      40.908  32.640  35.700  1.00  0.00     0.010 C 
ATOM     12  C   UNL A   1      40.278  32.804  37.042  1.00  0.00     0.010 C 
ENDBRANCH   7   9
BRANCH   7  13
ATOM     13  N   UNL A   1      38.580  31.713  33.936  1.00  0.00    -0.370 N 
ATOM     14  H   UNL A   1      38.719  32.412  33.256  1.00  0.00     0.161 HD
BRANCH  13  15
ATOM     15  C   UNL A   1      38.692  30.457  33.394  1.00  0.00     0.036 A 
ATOM     16  C   UNL A   1      37.645  29.686  32.898  1.00  0.00     0.026 A 
ATOM     17  C   UNL A   1      39.978  29.878  33.392  1.00  0.00     0.046 A 
ATOM     18  C   UNL A   1      37.878  28.409  32.365  1.00  0.00     0.004 A 
ATOM     19  C   UNL A   1      40.209  28.599  32.887  1.00  0.00     0.043 A 
ATOM     20  C   UNL A   1      39.163  27.868  32.351  1.00  0.00     0.020 A 
ATOM     21  Cl  UNL A   1      41.790  27.925  32.951  1.00  0.00    -0.084 Cl
ENDBRANCH  13  15
ENDBRANCH   7  13
ENDBRANCH   5   7
ENDBRANCH   4   5
ENDBRANCH   3   4
ENDBRANCH   2   3
ENDBRANCH   1   2
BRANCH   1  22
ATOM     22  C   UNL A   1      33.212  36.558  32.649  1.00  0.00     0.202 C 
BRANCH  22  23
ATOM     23  C   UNL A   1      33.325  36.324  31.137  1.00  0.00     0.261 C 
BRANCH  23  24
ATOM     24  O   UNL A   1      32.901  34.997  30.768  1.00  0.00    -0.460 OA
BRANCH  24  25
ATOM     25  C   UNL A   1      33.245  34.599  29.517  1.00  0.00     0.338 C 
ATOM     26  O   UNL A   1      32.691  34.876  28.473  1.00  0.00    -0.246 OA
BRANCH  25  27
ATOM     27  C   UNL A   1      34.556  33.911  29.577  1.00  0.00     0.060 A 
ATOM     28  C   UNL A   1      34.770  32.983  30.602  1.00  0.00     0.016 A 
ATOM     29  C   UNL A   1      35.566  34.172  28.653  1.00  0.00     0.016 A 
ATOM     30  C   UNL A   1      36.011  32.354  30.732  1.00  0.00     0.010 A 
ATOM     31  C   UNL A   1      36.789  33.500  28.750  1.00  0.00     0.010 A 
ATOM     32  C   UNL A   1      37.045  32.630  29.826  1.00  0.00    -0.014 A 
BRANCH  32  33
ATOM     33  C   UNL A   1      38.436  32.168  30.110  1.00  0.00     0.031 A 
ATOM     34  C   UNL A   1      38.886  30.830  29.568  1.00  0.00     0.074 A 
ATOM     35  C   UNL A   1      39.310  32.923  30.805  1.00  0.00     0.049 A 
ATOM     36  N   UNL A   1      40.042  30.226  29.694  1.00  0.00    -0.248 NA
ATOM     37  C   UNL A   1      37.893  30.061  28.801  1.00  0.00     0.031 C 
ATOM     38  C   UNL A   1      39.031  34.238  31.382  1.00  0.00     0.029 A 
ATOM     39  N   UNL A   1      40.625  32.690  31.132  1.00  0.00    -0.354 N 
ATOM     40  C   UNL A   1      39.900  29.004  29.045  1.00  0.00     0.074 A 
ATOM     41  C   UNL A   1      38.530  28.922  28.591  1.00  0.00     0.031 C 
ATOM     42  C   UNL A   1      40.148  34.707  31.966  1.00  0.00     0.029 A 
ATOM     43  C   UNL A   1      41.213  33.715  31.835  1.00  0.00     0.049 A 
ATOM     44  H   UNL A   1      41.102  31.864  30.885  1.00  0.00     0.167 HD
ATOM     45  C   UNL A   1      40.826  28.043  28.810  1.00  0.00     0.031 A 
ATOM     46  C   UNL A   1      42.466  33.841  32.318  1.00  0.00     0.031 A 
ATOM     47  C   UNL A   1      42.197  28.119  29.234  1.00  0.00     0.049 A 
ATOM     48  C   UNL A   1      43.469  32.739  32.091  1.00  0.00     0.074 A 
ATOM     49  C   UNL A   1      43.220  27.216  29.007  1.00  0.00     0.029 A 
ATOM     50  N   UNL A   1      42.737  29.162  29.968  1.00  0.00    -0.354 N 
ATOM     51  N   UNL A   1      43.330  31.612  31.433  1.00  0.00    -0.248 NA
ATOM     52  C   UNL A   1      44.810  32.935  32.663  1.00  0.00     0.031 C 
ATOM     53  C   UNL A   1      44.366  27.683  29.658  1.00  0.00     0.029 A 
ATOM     54  C   UNL A   1      44.074  28.912  30.229  1.00  0.00     0.049 A 
ATOM     55  H   UNL A   1      42.244  29.962  30.262  1.00  0.00     0.167 HD
ATOM     56  C   UNL A   1      44.571  30.986  31.483  1.00  0.00     0.074 A 
ATOM     57  C   UNL A   1      45.454  31.864  32.222  1.00  0.00     0.031 C 
ATOM     58  C   UNL A   1      44.946  29.793  30.961  1.00  0.00     0.031 A 
BRANCH  45  59
ATOM     59  C   UNL A   1      40.370  26.816  28.065  1.00  0.00    -0.014 A 
ATOM     60  C   UNL A   1      39.584  25.831  28.688  1.00  0.00     0.009 A 
ATOM     61  C   UNL A   1      40.728  26.645  26.719  1.00  0.00     0.009 A 
ATOM     62  C   UNL A   1      39.213  24.677  27.994  1.00  0.00     0.001 A 
ATOM     63  C   UNL A   1      40.323  25.508  26.017  1.00  0.00     0.001 A 
ATOM     64  C   UNL A   1      39.579  24.519  26.658  1.00  0.00     0.000 A 
ENDBRANCH  45  59
BRANCH  46  65
ATOM     65  C   UNL A   1      42.865  35.071  33.057  1.00  0.00    -0.014 A 
ATOM     66  C   UNL A   1      43.386  36.179  32.370  1.00  0.00     0.009 A 
ATOM     67  C   UNL A   1      42.757  35.134  34.456  1.00  0.00     0.009 A 
ATOM     68  C   UNL A   1      43.815  37.310  33.068  1.00  0.00     0.001 A 
ATOM     69  C   UNL A   1      43.158  36.279  35.148  1.00  0.00     0.001 A 
ATOM     70  C   UNL A   1      43.696  37.361  34.455  1.00  0.00     0.000 A 
ENDBRANCH  46  65
BRANCH  58  71
ATOM     71  C   UNL A   1      46.383  29.379  31.127  1.00  0.00    -0.014 A 
ATOM     72  C   UNL A   1      47.368  29.753  30.198  1.00  0.00     0.009 A 
ATOM     73  C   UNL A   1      46.766  28.647  32.261  1.00  0.00     0.009 A 
ATOM     74  C   UNL A   1      48.698  29.369  30.385  1.00  0.00     0.001 A 
ATOM     75  C   UNL A   1      48.101  28.293  32.463  1.00  0.00     0.001 A 
ATOM     76  C   UNL A   1      49.064  28.646  31.520  1.00  0.00     0.000 A 
ENDBRANCH  58  71
ENDBRANCH  32  33
ENDBRANCH  25  27
ENDBRANCH  24  25
ENDBRANCH  23  24
ENDBRANCH  22  23
ENDBRANCH   1  22
TORSDOF 17
ENDMDL
MODEL 3
REMARK VINA RESULT:      -7.7      6.220     11.726
REMARK SMILES CC1([C@](C)(Nc2cccc(Cl)c2)C(=O)OCCOCCOC(=O)c2ccc(-c3c4nc(c(-c5ccccc5)c5ccc([nH]5)c(-c5ccccc5)c5nc(c(-c6ccccc6)c6ccc3[nH]6)C=C5)C=C4)cc2)CC1
REMARK SMILES IDX 18 1 17 2 16 3 15 4 13 5 14 6 3 7 4 8 2 9 1 10 72 11 73 12
REMARK SMILES IDX 5 13 6 15 7 16 12 17 8 18 10 19 9 20 11 21 19 22 20 23 21 24
REMARK SMILES IDX 22 25 23 26 24 27 25 28 71 29 26 30 70 31 27 32 28 33 29 34
REMARK SMILES IDX 64 35 30 36 69 37 63 38 65 39 31 40 68 41 62 42 61 43 32 45
REMARK SMILES IDX 54 46 39 47 53 48 40 49 43 50 52 51 66 52 41 53 42 54 51 56
REMARK SMILES IDX 67 57 44 58 33 59 34 60 38 61 35 62 37 63 36 64 55 65 56 66
REMARK SMILES IDX 60 67 57 68 59 69 58 70 45 71 46 72 50 73 47 74 49 75 48 76
REMARK H PARENT 5 14 65 44 43 55
REMARK Flexibility Score: inf
ROOT
ATOM      1  O   UNL A   1      37.599  21.604  25.734  1.00  0.00    -0.374 OA
ENDROOT
BRANCH   1   2
ATOM      2  C   UNL A   1      37.273  21.514  24.347  1.00  0.00     0.202 C 
BRANCH   2   3
ATOM      3  C   UNL A   1      36.096  22.379  23.906  1.00  0.00     0.261 C 
BRANCH   3   4
ATOM      4  O   UNL A   1      34.854  21.747  24.259  1.00  0.00    -0.461 OA
BRANCH   4   5
ATOM      5  C   UNL A   1      33.735  22.515  24.136  1.00  0.00     0.332 C 
ATOM      6  O   UNL A   1      33.670  23.491  23.391  1.00  0.00    -0.249 OA
BRANCH   5   7
ATOM      7  C   UNL A   1      32.594  22.088  25.118  1.00  0.00     0.138 C 
ATOM      8  C   UNL A   1      31.302  22.794  24.562  1.00  0.00     0.048 C 
BRANCH   7   9
ATOM      9  C   UNL A   1      32.871  22.561  26.585  1.00  0.00     0.001 C 
ATOM     10  C   UNL A   1      31.708  23.190  27.321  1.00  0.00     0.014 C 
ATOM     11  C   UNL A   1      34.243  23.159  26.906  1.00  0.00     0.010 C 
ATOM     12  C   UNL A   1      33.885  21.824  27.466  1.00  0.00     0.010 C 
ENDBRANCH   7   9
BRANCH   7  13
ATOM     13  N   UNL A   1      32.221  20.645  25.044  1.00  0.00    -0.370 N 
ATOM     14  H   UNL A   1      31.532  20.417  25.711  1.00  0.00     0.161 HD
BRANCH  13  15
ATOM     15  C   UNL A   1      32.579  19.550  24.299  1.00  0.00     0.036 A 
ATOM     16  C   UNL A   1      32.154  19.269  23.004  1.00  0.00     0.026 A 
ATOM     17  C   UNL A   1      33.407  18.597  24.928  1.00  0.00     0.046 A 
ATOM     18  C   UNL A   1      32.587  18.112  22.337  1.00  0.00     0.004 A 
ATOM     19  C   UNL A   1      33.817  17.434  24.279  1.00  0.00     0.043 A 
ATOM     20  C   UNL A   1      33.426  17.198  22.972  1.00  0.00     0.020 A 
ATOM     21  Cl  UNL A   1      34.791  16.285  25.109  1.00  0.00    -0.084 Cl
ENDBRANCH  13  15
ENDBRANCH   7  13
ENDBRANCH   5   7
ENDBRANCH   4   5
ENDBRANCH   3   4
ENDBRANCH   2   3
ENDBRANCH   1   2
BRANCH   1  22
ATOM     22  C   UNL A   1      38.981  21.420  26.053  1.00  0.00     0.202 C 
BRANCH  22  23
ATOM     23  C   UNL A   1      39.583  20.086  25.590  1.00  0.00     0.261 C 
BRANCH  23  24
ATOM     24  O   UNL A   1      40.661  19.660  26.446  1.00  0.00    -0.460 OA
BRANCH  24  25
ATOM     25  C   UNL A   1      41.911  19.914  25.984  1.00  0.00     0.338 C 
ATOM     26  O   UNL A   1      42.529  19.299  25.141  1.00  0.00    -0.246 OA
BRANCH  25  27
ATOM     27  C   UNL A   1      42.367  21.215  26.530  1.00  0.00     0.060 A 
ATOM     28  C   UNL A   1      42.338  21.397  27.917  1.00  0.00     0.016 A 
ATOM     29  C   UNL A   1      42.809  22.245  25.701  1.00  0.00     0.016 A 
ATOM     30  C   UNL A   1      42.703  22.627  28.471  1.00  0.00     0.010 A 
ATOM     31  C   UNL A   1      43.228  23.457  26.261  1.00  0.00     0.010 A 
ATOM     32  C   UNL A   1      43.121  23.681  27.646  1.00  0.00    -0.014 A 
BRANCH  32  33
ATOM     33  C   UNL A   1      43.258  25.060  28.201  1.00  0.00     0.031 A 
ATOM     34  C   UNL A   1      44.637  25.571  28.553  1.00  0.00     0.074 A 
ATOM     35  C   UNL A   1      42.195  25.872  28.363  1.00  0.00     0.049 A 
ATOM     36  N   UNL A   1      44.995  26.729  29.052  1.00  0.00    -0.248 NA
ATOM     37  C   UNL A   1      45.760  24.646  28.335  1.00  0.00     0.031 C 
ATOM     38  C   UNL A   1      40.806  25.530  28.060  1.00  0.00     0.029 A 
ATOM     39  N   UNL A   1      42.125  27.169  28.817  1.00  0.00    -0.354 N 
ATOM     40  C   UNL A   1      46.372  26.655  29.227  1.00  0.00     0.074 A 
ATOM     41  C   UNL A   1      46.775  25.319  28.850  1.00  0.00     0.031 C 
ATOM     42  C   UNL A   1      40.027  26.597  28.308  1.00  0.00     0.029 A 
ATOM     43  C   UNL A   1      40.853  27.689  28.819  1.00  0.00     0.049 A 
ATOM     44  H   UNL A   1      42.915  27.677  29.114  1.00  0.00     0.167 HD
ATOM     45  C   UNL A   1      47.241  27.613  29.630  1.00  0.00     0.031 A 
ATOM     46  C   UNL A   1      40.404  28.906  29.190  1.00  0.00     0.031 A 
ATOM     47  C   UNL A   1      46.861  28.953  29.986  1.00  0.00     0.049 A 
ATOM     48  C   UNL A   1      41.379  29.943  29.684  1.00  0.00     0.074 A 
ATOM     49  C   UNL A   1      47.672  30.006  30.366  1.00  0.00     0.029 A 
ATOM     50  N   UNL A   1      45.558  29.423  30.000  1.00  0.00    -0.354 N 
ATOM     51  N   UNL A   1      42.684  29.870  29.796  1.00  0.00    -0.248 NA
ATOM     52  C   UNL A   1      40.816  31.241  30.090  1.00  0.00     0.031 C 
ATOM     53  C   UNL A   1      46.854  31.099  30.671  1.00  0.00     0.029 A 
ATOM     54  C   UNL A   1      45.539  30.745  30.411  1.00  0.00     0.049 A 
ATOM     55  H   UNL A   1      44.763  28.896  29.756  1.00  0.00     0.167 HD
ATOM     56  C   UNL A   1      43.098  31.118  30.249  1.00  0.00     0.074 A 
ATOM     57  C   UNL A   1      41.909  31.934  30.378  1.00  0.00     0.031 C 
ATOM     58  C   UNL A   1      44.352  31.550  30.531  1.00  0.00     0.031 A 
BRANCH  45  59
ATOM     59  C   UNL A   1      48.695  27.232  29.716  1.00  0.00    -0.014 A 
ATOM     60  C   UNL A   1      49.248  26.718  30.902  1.00  0.00     0.009 A 
ATOM     61  C   UNL A   1      49.524  27.383  28.594  1.00  0.00     0.009 A 
ATOM     62  C   UNL A   1      50.610  26.417  30.977  1.00  0.00     0.001 A 
ATOM     63  C   UNL A   1      50.877  27.044  28.660  1.00  0.00     0.001 A 
ATOM     64  C   UNL A   1      51.421  26.575  29.855  1.00  0.00     0.000 A 
ENDBRANCH  45  59
BRANCH  46  65
ATOM     65  C   UNL A   1      38.954  29.231  29.094  1.00  0.00    -0.014 A 
ATOM     66  C   UNL A   1      38.114  29.078  30.209  1.00  0.00     0.009 A 
ATOM     67  C   UNL A   1      38.395  29.668  27.882  1.00  0.00     0.009 A 
ATOM     68  C   UNL A   1      36.742  29.326  30.104  1.00  0.00     0.001 A 
ATOM     69  C   UNL A   1      37.029  29.945  27.790  1.00  0.00     0.001 A 
ATOM     70  C   UNL A   1      36.202  29.764  28.897  1.00  0.00     0.000 A 
ENDBRANCH  46  65
BRANCH  58  71
ATOM     71  C   UNL A   1      44.515  32.982  30.963  1.00  0.00    -0.014 A 
ATOM     72  C   UNL A   1      44.689  34.017  30.030  1.00  0.00     0.009 A 
ATOM     73  C   UNL A   1      44.441  33.306  32.328  1.00  0.00     0.009 A 
ATOM     74  C   UNL A   1      44.822  35.340  30.459  1.00  0.00     0.001 A 
ATOM     75  C   UNL A   1      44.541  34.633  32.751  1.00  0.00     0.001 A 
ATOM     76  C   UNL A   1      44.741  35.647  31.817  1.00  0.00     0.000 A 
ENDBRANCH  58  71
ENDBRANCH  32  33
ENDBRANCH  25  27
ENDBRANCH  24  25
ENDBRANCH  23  24
ENDBRANCH  22  23
ENDBRANCH   1  22
TORSDOF 17
ENDMDL
