MODEL 1
REMARK VINA RESULT:     -11.1      0.000      0.000
REMARK SMILES CCn1cc(Br)cc1C(=O)N[C@@H]1C=C[C@@H](C(=O)OCCOCCOC(=O)c2ccc(-c3c4nc(c(-c5ccccc5)c5ccc([nH]5)c(-c5ccccc5)c5nc(c(-c6ccccc6)c6ccc3[nH]6)C=C5)C=C4)cc2)C1
REMARK SMILES IDX 20 1 19 2 18 3 16 4 17 5 15 6 12 7 13 8 75 9 14 10 11 11
REMARK SMILES IDX 9 12 10 13 8 15 3 16 4 17 5 18 7 19 6 20 2 21 1 22 21 23
REMARK SMILES IDX 22 24 23 25 24 26 25 27 26 28 27 29 28 30 74 31 29 32 73 33
REMARK SMILES IDX 30 34 31 35 32 36 67 37 33 38 72 39 66 40 68 41 34 42 71 43
REMARK SMILES IDX 65 44 64 45 35 47 57 48 42 49 56 50 43 51 46 52 55 53 69 54
REMARK SMILES IDX 44 55 45 56 54 58 70 59 47 60 36 61 37 62 41 63 38 64 40 65
REMARK SMILES IDX 39 66 58 67 59 68 63 69 60 70 62 71 61 72 48 73 49 74 53 75
REMARK SMILES IDX 50 76 52 77 51 78
REMARK H PARENT 11 14 68 46 46 57
REMARK Flexibility Score: inf
ROOT
ATOM      1  C   UNL A   1      40.856  20.985  27.445  1.00  0.00     0.202 C 
ENDROOT
BRANCH   1   2
ATOM      2  C   UNL A   1      40.306  21.423  26.085  1.00  0.00     0.261 C 
BRANCH   2   3
ATOM      3  O   UNL A   1      38.892  21.132  25.997  1.00  0.00    -0.463 OA
BRANCH   3   4
ATOM      4  C   UNL A   1      38.076  22.169  25.657  1.00  0.00     0.312 C 
ATOM      5  O   UNL A   1      38.114  23.282  26.167  1.00  0.00    -0.252 OA
BRANCH   4   6
ATOM      6  C   UNL A   1      37.069  21.808  24.560  1.00  0.00     0.124 C 
ATOM      7  C   UNL A   1      34.637  22.208  24.371  1.00  0.00     0.106 C 
ATOM      8  C   UNL A   1      35.428  23.101  23.476  1.00  0.00    -0.006 C 
ATOM      9  C   UNL A   1      35.696  21.341  25.052  1.00  0.00     0.048 C 
ATOM     10  C   UNL A   1      36.747  22.933  23.628  1.00  0.00    -0.014 C 
BRANCH   7  11
ATOM     11  N   UNL A   1      33.649  21.479  23.632  1.00  0.00    -0.345 N 
ATOM     12  C   UNL A   1      32.428  21.849  23.132  1.00  0.00     0.268 C 
ATOM     13  O   UNL A   1      31.852  20.990  22.460  1.00  0.00    -0.268 OA
ATOM     14  H   UNL A   1      33.892  20.543  23.448  1.00  0.00     0.164 HD
BRANCH  12  15
ATOM     15  C   UNL A   1      31.771  23.106  23.460  1.00  0.00     0.108 A 
ATOM     16  N   UNL A   1      31.020  23.521  24.558  1.00  0.00    -0.343 N 
ATOM     17  C   UNL A   1      30.643  24.839  24.373  1.00  0.00     0.102 A 
ATOM     18  C   UNL A   1      31.236  25.306  23.237  1.00  0.00     0.036 A 
ATOM     19  C   UNL A   1      31.952  24.250  22.673  1.00  0.00     0.049 A 
ATOM     20  Br  UNL A   1      31.193  27.056  22.578  1.00  0.00    -0.049 Br
BRANCH  16  21
ATOM     21  C   UNL A   1      30.916  22.884  25.869  1.00  0.00     0.119 C 
ATOM     22  C   UNL A   1      32.047  23.177  26.855  1.00  0.00     0.027 C 
ENDBRANCH  16  21
ENDBRANCH  12  15
ENDBRANCH   7  11
ENDBRANCH   4   6
ENDBRANCH   3   4
ENDBRANCH   2   3
ENDBRANCH   1   2
BRANCH   1  23
ATOM     23  O   UNL A   1      41.493  19.707  27.393  1.00  0.00    -0.374 OA
BRANCH  23  24
ATOM     24  C   UNL A   1      41.718  19.183  26.087  1.00  0.00     0.202 C 
BRANCH  24  25
ATOM     25  C   UNL A   1      43.192  18.939  25.778  1.00  0.00     0.261 C 
BRANCH  25  26
ATOM     26  O   UNL A   1      43.546  19.562  24.549  1.00  0.00    -0.460 OA
BRANCH  26  27
ATOM     27  C   UNL A   1      44.848  19.840  24.271  1.00  0.00     0.338 C 
ATOM     28  O   UNL A   1      45.724  19.078  23.954  1.00  0.00    -0.246 OA
BRANCH  27  29
ATOM     29  C   UNL A   1      45.004  21.292  24.535  1.00  0.00     0.060 A 
ATOM     30  C   UNL A   1      46.170  21.810  25.084  1.00  0.00     0.016 A 
ATOM     31  C   UNL A   1      43.883  22.112  24.384  1.00  0.00     0.016 A 
ATOM     32  C   UNL A   1      46.095  23.052  25.704  1.00  0.00     0.010 A 
ATOM     33  C   UNL A   1      43.824  23.368  24.902  1.00  0.00     0.010 A 
ATOM     34  C   UNL A   1      44.874  23.744  25.703  1.00  0.00    -0.014 A 
BRANCH  34  35
ATOM     35  C   UNL A   1      44.634  24.886  26.547  1.00  0.00     0.031 A 
ATOM     36  C   UNL A   1      45.642  25.939  26.361  1.00  0.00     0.074 A 
ATOM     37  C   UNL A   1      43.506  25.029  27.275  1.00  0.00     0.049 A 
ATOM     38  N   UNL A   1      46.648  26.168  27.133  1.00  0.00    -0.248 NA
ATOM     39  C   UNL A   1      45.684  26.655  25.076  1.00  0.00     0.031 C 
ATOM     40  C   UNL A   1      42.280  24.218  27.278  1.00  0.00     0.029 A 
ATOM     41  N   UNL A   1      43.196  26.023  28.141  1.00  0.00    -0.354 N 
ATOM     42  C   UNL A   1      47.324  27.226  26.549  1.00  0.00     0.074 A 
ATOM     43  C   UNL A   1      46.837  27.317  25.197  1.00  0.00     0.031 C 
ATOM     44  C   UNL A   1      41.298  24.885  27.935  1.00  0.00     0.029 A 
ATOM     45  C   UNL A   1      41.863  26.086  28.526  1.00  0.00     0.049 A 
ATOM     46  H   UNL A   1      43.871  26.658  28.475  1.00  0.00     0.167 HD
ATOM     47  C   UNL A   1      47.997  28.120  27.322  1.00  0.00     0.031 A 
ATOM     48  C   UNL A   1      41.288  27.088  29.242  1.00  0.00     0.031 A 
ATOM     49  C   UNL A   1      48.154  27.627  28.671  1.00  0.00     0.049 A 
ATOM     50  C   UNL A   1      42.388  27.822  29.921  1.00  0.00     0.074 A 
ATOM     51  C   UNL A   1      48.761  26.520  29.234  1.00  0.00     0.029 A 
ATOM     52  N   UNL A   1      47.249  28.081  29.605  1.00  0.00    -0.354 N 
ATOM     53  N   UNL A   1      43.117  27.293  30.863  1.00  0.00    -0.248 NA
ATOM     54  C   UNL A   1      43.003  28.930  29.204  1.00  0.00     0.031 C 
ATOM     55  C   UNL A   1      47.862  26.090  30.256  1.00  0.00     0.029 A 
ATOM     56  C   UNL A   1      46.806  27.000  30.327  1.00  0.00     0.049 A 
ATOM     57  H   UNL A   1      46.969  29.015  29.734  1.00  0.00     0.167 HD
ATOM     58  C   UNL A   1      44.417  27.683  30.568  1.00  0.00     0.074 A 
ATOM     59  C   UNL A   1      44.275  28.755  29.579  1.00  0.00     0.031 C 
ATOM     60  C   UNL A   1      45.486  26.904  30.912  1.00  0.00     0.031 A 
BRANCH  47  61
ATOM     61  C   UNL A   1      48.090  29.585  26.992  1.00  0.00    -0.014 A 
ATOM     62  C   UNL A   1      49.306  30.241  27.238  1.00  0.00     0.009 A 
ATOM     63  C   UNL A   1      46.973  30.401  26.723  1.00  0.00     0.009 A 
ATOM     64  C   UNL A   1      49.379  31.636  27.304  1.00  0.00     0.001 A 
ATOM     65  C   UNL A   1      47.049  31.794  26.749  1.00  0.00     0.001 A 
ATOM     66  C   UNL A   1      48.247  32.411  27.072  1.00  0.00     0.000 A 
ENDBRANCH  47  61
BRANCH  48  67
ATOM     67  C   UNL A   1      39.926  27.662  29.114  1.00  0.00    -0.014 A 
ATOM     68  C   UNL A   1      39.096  27.823  30.237  1.00  0.00     0.009 A 
ATOM     69  C   UNL A   1      39.552  28.326  27.932  1.00  0.00     0.009 A 
ATOM     70  C   UNL A   1      37.959  28.646  30.186  1.00  0.00     0.001 A 
ATOM     71  C   UNL A   1      38.420  29.149  27.882  1.00  0.00     0.001 A 
ATOM     72  C   UNL A   1      37.631  29.322  29.013  1.00  0.00     0.000 A 
ENDBRANCH  48  67
BRANCH  60  73
ATOM     73  C   UNL A   1      45.230  25.705  31.799  1.00  0.00    -0.014 A 
ATOM     74  C   UNL A   1      45.430  25.711  33.193  1.00  0.00     0.009 A 
ATOM     75  C   UNL A   1      44.614  24.585  31.224  1.00  0.00     0.009 A 
ATOM     76  C   UNL A   1      45.047  24.616  33.977  1.00  0.00     0.001 A 
ATOM     77  C   UNL A   1      44.215  23.501  32.010  1.00  0.00     0.001 A 
ATOM     78  C   UNL A   1      44.435  23.514  33.384  1.00  0.00     0.000 A 
ENDBRANCH  60  73
ENDBRANCH  34  35
ENDBRANCH  27  29
ENDBRANCH  26  27
ENDBRANCH  25  26
ENDBRANCH  24  25
ENDBRANCH  23  24
ENDBRANCH   1  23
TORSDOF 17
ENDMDL
MODEL 2
REMARK VINA RESULT:     -10.8      5.716     10.724
REMARK SMILES CCn1cc(Br)cc1C(=O)N[C@@H]1C=C[C@@H](C(=O)OCCOCCOC(=O)c2ccc(-c3c4nc(c(-c5ccccc5)c5ccc([nH]5)c(-c5ccccc5)c5nc(c(-c6ccccc6)c6ccc3[nH]6)C=C5)C=C4)cc2)C1
REMARK SMILES IDX 20 1 19 2 18 3 16 4 17 5 15 6 12 7 13 8 75 9 14 10 11 11
REMARK SMILES IDX 9 12 10 13 8 15 3 16 4 17 5 18 7 19 6 20 2 21 1 22 21 23
REMARK SMILES IDX 22 24 23 25 24 26 25 27 26 28 27 29 28 30 74 31 29 32 73 33
REMARK SMILES IDX 30 34 31 35 32 36 67 37 33 38 72 39 66 40 68 41 34 42 71 43
REMARK SMILES IDX 65 44 64 45 35 47 57 48 42 49 56 50 43 51 46 52 55 53 69 54
REMARK SMILES IDX 44 55 45 56 54 58 70 59 47 60 36 61 37 62 41 63 38 64 40 65
REMARK SMILES IDX 39 66 58 67 59 68 63 69 60 70 62 71 61 72 48 73 49 74 53 75
REMARK SMILES IDX 50 76 52 77 51 78
REMARK H PARENT 11 14 68 46 46 57
REMARK Flexibility Score: inf
ROOT
ATOM      1  C   UNL A   1      34.133  32.451  28.780  1.00  0.00     0.202 C 
ENDROOT
BRANCH   1   2
ATOM      2  C   UNL A   1      34.677  31.641  27.602  1.00  0.00     0.261 C 
BRANCH   2   3
ATOM      3  O   UNL A   1      33.693  30.678  27.156  1.00  0.00    -0.463 OA
BRANCH   3   4
ATOM      4  C   UNL A   1      34.139  29.411  26.929  1.00  0.00     0.312 C 
ATOM      5  O   UNL A   1      35.221  28.975  27.303  1.00  0.00    -0.252 OA
BRANCH   4   6
ATOM      6  C   UNL A   1      33.149  28.558  26.129  1.00  0.00     0.124 C 
ATOM      7  C   UNL A   1      32.309  26.260  26.477  1.00  0.00     0.106 C 
ATOM      8  C   UNL A   1      31.286  27.293  26.814  1.00  0.00    -0.006 C 
ATOM      9  C   UNL A   1      33.509  27.076  25.998  1.00  0.00     0.048 C 
ATOM     10  C   UNL A   1      31.762  28.538  26.692  1.00  0.00    -0.014 C 
BRANCH   7  11
ATOM     11  N   UNL A   1      31.799  25.322  25.521  1.00  0.00    -0.345 N 
ATOM     12  C   UNL A   1      31.309  25.488  24.252  1.00  0.00     0.268 C 
ATOM     13  O   UNL A   1      31.023  24.447  23.658  1.00  0.00    -0.268 OA
ATOM     14  H   UNL A   1      31.802  24.388  25.832  1.00  0.00     0.164 HD
BRANCH  12  15
ATOM     15  C   UNL A   1      31.011  26.789  23.668  1.00  0.00     0.108 A 
ATOM     16  N   UNL A   1      31.785  27.703  22.957  1.00  0.00    -0.343 N 
ATOM     17  C   UNL A   1      30.996  28.786  22.611  1.00  0.00     0.102 A 
ATOM     18  C   UNL A   1      29.711  28.525  22.986  1.00  0.00     0.036 A 
ATOM     19  C   UNL A   1      29.702  27.285  23.624  1.00  0.00     0.049 A 
ATOM     20  Br  UNL A   1      28.200  29.573  22.642  1.00  0.00    -0.049 Br
BRANCH  16  21
ATOM     21  C   UNL A   1      33.082  27.483  22.323  1.00  0.00     0.119 C 
ATOM     22  C   UNL A   1      34.134  28.572  22.539  1.00  0.00     0.027 C 
ENDBRANCH  16  21
ENDBRANCH  12  15
ENDBRANCH   7  11
ENDBRANCH   4   6
ENDBRANCH   3   4
ENDBRANCH   2   3
ENDBRANCH   1   2
BRANCH   1  23
ATOM     23  O   UNL A   1      34.428  33.845  28.670  1.00  0.00    -0.374 OA
BRANCH  23  24
ATOM     24  C   UNL A   1      33.298  34.714  28.641  1.00  0.00     0.202 C 
BRANCH  24  25
ATOM     25  C   UNL A   1      33.190  35.609  29.871  1.00  0.00     0.261 C 
BRANCH  25  26
ATOM     26  O   UNL A   1      32.916  34.825  31.026  1.00  0.00    -0.460 OA
BRANCH  26  27
ATOM     27  C   UNL A   1      33.168  35.320  32.267  1.00  0.00     0.338 C 
ATOM     28  O   UNL A   1      32.592  36.199  32.853  1.00  0.00    -0.246 OA
BRANCH  27  29
ATOM     29  C   UNL A   1      34.387  34.611  32.732  1.00  0.00     0.060 A 
ATOM     30  C   UNL A   1      35.524  35.303  33.128  1.00  0.00     0.016 A 
ATOM     31  C   UNL A   1      34.431  33.222  32.596  1.00  0.00     0.016 A 
ATOM     32  C   UNL A   1      36.732  34.617  33.120  1.00  0.00     0.010 A 
ATOM     33  C   UNL A   1      35.592  32.518  32.678  1.00  0.00     0.010 A 
ATOM     34  C   UNL A   1      36.744  33.259  32.767  1.00  0.00    -0.014 A 
BRANCH  34  35
ATOM     35  C   UNL A   1      37.963  32.551  32.464  1.00  0.00     0.031 A 
ATOM     36  C   UNL A   1      38.812  32.370  33.648  1.00  0.00     0.074 A 
ATOM     37  C   UNL A   1      38.187  31.970  31.266  1.00  0.00     0.049 A 
ATOM     38  N   UNL A   1      39.847  33.073  33.952  1.00  0.00    -0.248 NA
ATOM     39  C   UNL A   1      38.339  31.485  34.725  1.00  0.00     0.031 C 
ATOM     40  C   UNL A   1      37.279  31.786  30.125  1.00  0.00     0.029 A 
ATOM     41  N   UNL A   1      39.307  31.332  30.849  1.00  0.00    -0.354 N 
ATOM     42  C   UNL A   1      40.301  32.557  35.154  1.00  0.00     0.074 A 
ATOM     43  C   UNL A   1      39.220  31.768  35.686  1.00  0.00     0.031 C 
ATOM     44  C   UNL A   1      37.821  30.898  29.254  1.00  0.00     0.029 A 
ATOM     45  C   UNL A   1      39.167  30.573  29.694  1.00  0.00     0.049 A 
ATOM     46  H   UNL A   1      40.162  31.402  31.332  1.00  0.00     0.167 HD
ATOM     47  C   UNL A   1      41.629  32.576  35.451  1.00  0.00     0.031 A 
ATOM     48  C   UNL A   1      40.094  29.717  29.188  1.00  0.00     0.031 A 
ATOM     49  C   UNL A   1      42.351  33.445  34.550  1.00  0.00     0.049 A 
ATOM     50  C   UNL A   1      41.401  30.089  29.789  1.00  0.00     0.074 A 
ATOM     51  C   UNL A   1      42.290  34.791  34.246  1.00  0.00     0.029 A 
ATOM     52  N   UNL A   1      42.988  32.843  33.488  1.00  0.00    -0.354 N 
ATOM     53  N   UNL A   1      42.004  31.214  29.532  1.00  0.00    -0.248 NA
ATOM     54  C   UNL A   1      41.770  29.457  31.048  1.00  0.00     0.031 C 
ATOM     55  C   UNL A   1      42.456  34.855  32.830  1.00  0.00     0.029 A 
ATOM     56  C   UNL A   1      42.700  33.564  32.356  1.00  0.00     0.049 A 
ATOM     57  H   UNL A   1      43.553  32.038  33.532  1.00  0.00     0.167 HD
ATOM     58  C   UNL A   1      42.473  31.656  30.762  1.00  0.00     0.074 A 
ATOM     59  C   UNL A   1      42.366  30.493  31.647  1.00  0.00     0.031 C 
ATOM     60  C   UNL A   1      42.611  32.989  31.031  1.00  0.00     0.031 A 
BRANCH  47  61
ATOM     61  C   UNL A   1      42.313  31.482  36.225  1.00  0.00    -0.014 A 
ATOM     62  C   UNL A   1      43.184  31.853  37.262  1.00  0.00     0.009 A 
ATOM     63  C   UNL A   1      42.362  30.138  35.805  1.00  0.00     0.009 A 
ATOM     64  C   UNL A   1      44.117  30.951  37.783  1.00  0.00     0.001 A 
ATOM     65  C   UNL A   1      43.265  29.224  36.351  1.00  0.00     0.001 A 
ATOM     66  C   UNL A   1      44.165  29.641  37.318  1.00  0.00     0.000 A 
ENDBRANCH  47  61
BRANCH  48  67
ATOM     67  C   UNL A   1      39.886  28.415  28.508  1.00  0.00    -0.014 A 
ATOM     68  C   UNL A   1      40.486  28.138  27.267  1.00  0.00     0.009 A 
ATOM     69  C   UNL A   1      39.338  27.331  29.218  1.00  0.00     0.009 A 
ATOM     70  C   UNL A   1      40.566  26.824  26.778  1.00  0.00     0.001 A 
ATOM     71  C   UNL A   1      39.420  26.021  28.731  1.00  0.00     0.001 A 
ATOM     72  C   UNL A   1      40.047  25.764  27.518  1.00  0.00     0.000 A 
ENDBRANCH  48  67
BRANCH  60  73
ATOM     73  C   UNL A   1      42.432  33.963  29.887  1.00  0.00    -0.014 A 
ATOM     74  C   UNL A   1      41.222  34.627  29.612  1.00  0.00     0.009 A 
ATOM     75  C   UNL A   1      43.572  34.341  29.164  1.00  0.00     0.009 A 
ATOM     76  C   UNL A   1      41.156  35.619  28.625  1.00  0.00     0.001 A 
ATOM     77  C   UNL A   1      43.510  35.343  28.193  1.00  0.00     0.001 A 
ATOM     78  C   UNL A   1      42.301  35.978  27.920  1.00  0.00     0.000 A 
ENDBRANCH  60  73
ENDBRANCH  34  35
ENDBRANCH  27  29
ENDBRANCH  26  27
ENDBRANCH  25  26
ENDBRANCH  24  25
ENDBRANCH  23  24
ENDBRANCH   1  23
TORSDOF 17
ENDMDL
MODEL 3
REMARK VINA RESULT:     -10.2      5.803     11.616
REMARK SMILES CCn1cc(Br)cc1C(=O)N[C@@H]1C=C[C@@H](C(=O)OCCOCCOC(=O)c2ccc(-c3c4nc(c(-c5ccccc5)c5ccc([nH]5)c(-c5ccccc5)c5nc(c(-c6ccccc6)c6ccc3[nH]6)C=C5)C=C4)cc2)C1
REMARK SMILES IDX 20 1 19 2 18 3 16 4 17 5 15 6 12 7 13 8 75 9 14 10 11 11
REMARK SMILES IDX 9 12 10 13 8 15 3 16 4 17 5 18 7 19 6 20 2 21 1 22 21 23
REMARK SMILES IDX 22 24 23 25 24 26 25 27 26 28 27 29 28 30 74 31 29 32 73 33
REMARK SMILES IDX 30 34 31 35 32 36 67 37 33 38 72 39 66 40 68 41 34 42 71 43
REMARK SMILES IDX 65 44 64 45 35 47 57 48 42 49 56 50 43 51 46 52 55 53 69 54
REMARK SMILES IDX 44 55 45 56 54 58 70 59 47 60 36 61 37 62 41 63 38 64 40 65
REMARK SMILES IDX 39 66 58 67 59 68 63 69 60 70 62 71 61 72 48 73 49 74 53 75
REMARK SMILES IDX 50 76 52 77 51 78
REMARK H PARENT 11 14 68 46 46 57
REMARK Flexibility Score: inf
ROOT
ATOM      1  C   UNL A   1      33.284  36.221  29.065  1.00  0.00     0.202 C 
ENDROOT
BRANCH   1   2
ATOM      2  C   UNL A   1      32.870  36.840  30.403  1.00  0.00     0.261 C 
BRANCH   2   3
ATOM      3  O   UNL A   1      32.758  35.815  31.418  1.00  0.00    -0.463 OA
BRANCH   3   4
ATOM      4  C   UNL A   1      33.461  36.016  32.567  1.00  0.00     0.312 C 
ATOM      5  O   UNL A   1      33.579  37.096  33.133  1.00  0.00    -0.252 OA
BRANCH   4   6
ATOM      6  C   UNL A   1      34.125  34.740  33.097  1.00  0.00     0.124 C 
ATOM      7  C   UNL A   1      36.428  33.873  32.869  1.00  0.00     0.106 C 
ATOM      8  C   UNL A   1      36.157  34.408  34.235  1.00  0.00    -0.006 C 
ATOM      9  C   UNL A   1      35.099  34.054  32.136  1.00  0.00     0.048 C 
ATOM     10  C   UNL A   1      34.934  34.941  34.339  1.00  0.00    -0.014 C 
BRANCH   7  11
ATOM     11  N   UNL A   1      36.903  32.522  32.929  1.00  0.00    -0.345 N 
ATOM     12  C   UNL A   1      38.169  32.003  32.990  1.00  0.00     0.268 C 
ATOM     13  O   UNL A   1      38.230  30.778  33.116  1.00  0.00    -0.268 OA
ATOM     14  H   UNL A   1      36.189  31.843  32.926  1.00  0.00     0.164 HD
BRANCH  12  15
ATOM     15  C   UNL A   1      39.375  32.795  32.792  1.00  0.00     0.108 A 
ATOM     16  N   UNL A   1      40.213  33.475  33.673  1.00  0.00    -0.343 N 
ATOM     17  C   UNL A   1      41.243  34.057  32.956  1.00  0.00     0.102 A 
ATOM     18  C   UNL A   1      41.142  33.664  31.654  1.00  0.00     0.036 A 
ATOM     19  C   UNL A   1      40.002  32.868  31.542  1.00  0.00     0.049 A 
ATOM     20  Br  UNL A   1      42.343  34.031  30.267  1.00  0.00    -0.049 Br
BRANCH  16  21
ATOM     21  C   UNL A   1      40.287  33.343  35.126  1.00  0.00     0.119 C 
ATOM     22  C   UNL A   1      41.063  32.137  35.657  1.00  0.00     0.027 C 
ENDBRANCH  16  21
ENDBRANCH  12  15
ENDBRANCH   7  11
ENDBRANCH   4   6
ENDBRANCH   3   4
ENDBRANCH   2   3
ENDBRANCH   1   2
BRANCH   1  23
ATOM     23  O   UNL A   1      32.532  35.048  28.747  1.00  0.00    -0.374 OA
BRANCH  23  24
ATOM     24  C   UNL A   1      33.222  34.065  27.979  1.00  0.00     0.202 C 
BRANCH  24  25
ATOM     25  C   UNL A   1      34.332  33.362  28.752  1.00  0.00     0.261 C 
BRANCH  25  26
ATOM     26  O   UNL A   1      35.201  32.681  27.854  1.00  0.00    -0.460 OA
BRANCH  26  27
ATOM     27  C   UNL A   1      35.198  31.323  27.792  1.00  0.00     0.338 C 
ATOM     28  O   UNL A   1      34.401  30.601  27.252  1.00  0.00    -0.246 OA
BRANCH  27  29
ATOM     29  C   UNL A   1      36.348  30.890  28.624  1.00  0.00     0.060 A 
ATOM     30  C   UNL A   1      37.487  31.674  28.755  1.00  0.00     0.016 A 
ATOM     31  C   UNL A   1      36.336  29.590  29.136  1.00  0.00     0.016 A 
ATOM     32  C   UNL A   1      38.660  31.046  29.157  1.00  0.00     0.010 A 
ATOM     33  C   UNL A   1      37.455  28.988  29.622  1.00  0.00     0.010 A 
ATOM     34  C   UNL A   1      38.632  29.676  29.459  1.00  0.00    -0.014 A 
BRANCH  34  35
ATOM     35  C   UNL A   1      39.833  28.894  29.609  1.00  0.00     0.031 A 
ATOM     36  C   UNL A   1      40.175  28.661  31.019  1.00  0.00     0.074 A 
ATOM     37  C   UNL A   1      40.449  28.300  28.565  1.00  0.00     0.049 A 
ATOM     38  N   UNL A   1      41.064  29.298  31.697  1.00  0.00    -0.248 NA
ATOM     39  C   UNL A   1      39.289  27.807  31.826  1.00  0.00     0.031 C 
ATOM     40  C   UNL A   1      40.016  28.172  27.166  1.00  0.00     0.029 A 
ATOM     41  N   UNL A   1      41.605  27.593  28.574  1.00  0.00    -0.354 N 
ATOM     42  C   UNL A   1      41.013  28.755  32.970  1.00  0.00     0.074 A 
ATOM     43  C   UNL A   1      39.768  28.035  33.050  1.00  0.00     0.031 C 
ATOM     44  C   UNL A   1      40.789  27.252  26.535  1.00  0.00     0.029 A 
ATOM     45  C   UNL A   1      41.857  26.844  27.432  1.00  0.00     0.049 A 
ATOM     46  H   UNL A   1      42.225  27.610  29.340  1.00  0.00     0.167 HD
ATOM     47  C   UNL A   1      42.137  28.693  33.734  1.00  0.00     0.031 A 
ATOM     48  C   UNL A   1      42.854  25.932  27.283  1.00  0.00     0.031 A 
ATOM     49  C   UNL A   1      43.189  29.516  33.182  1.00  0.00     0.049 A 
ATOM     50  C   UNL A   1      43.868  26.223  28.330  1.00  0.00     0.074 A 
ATOM     51  C   UNL A   1      43.321  30.863  32.907  1.00  0.00     0.029 A 
ATOM     52  N   UNL A   1      44.137  28.875  32.415  1.00  0.00    -0.354 N 
ATOM     53  N   UNL A   1      44.587  27.309  28.338  1.00  0.00    -0.248 NA
ATOM     54  C   UNL A   1      43.710  25.570  29.622  1.00  0.00     0.031 C 
ATOM     55  C   UNL A   1      44.000  30.916  31.653  1.00  0.00     0.029 A 
ATOM     56  C   UNL A   1      44.327  29.612  31.273  1.00  0.00     0.049 A 
ATOM     57  H   UNL A   1      44.598  28.037  32.645  1.00  0.00     0.167 HD
ATOM     58  C   UNL A   1      44.594  27.722  29.664  1.00  0.00     0.074 A 
ATOM     59  C   UNL A   1      44.102  26.568  30.422  1.00  0.00     0.031 C 
ATOM     60  C   UNL A   1      44.700  29.044  29.995  1.00  0.00     0.031 A 
BRANCH  47  61
ATOM     61  C   UNL A   1      42.424  27.558  34.680  1.00  0.00    -0.014 A 
ATOM     62  C   UNL A   1      43.002  26.392  34.156  1.00  0.00     0.009 A 
ATOM     63  C   UNL A   1      41.901  27.475  35.986  1.00  0.00     0.009 A 
ATOM     64  C   UNL A   1      42.972  25.185  34.863  1.00  0.00     0.001 A 
ATOM     65  C   UNL A   1      41.906  26.283  36.711  1.00  0.00     0.001 A 
ATOM     66  C   UNL A   1      42.413  25.130  36.135  1.00  0.00     0.000 A 
ENDBRANCH  47  61
BRANCH  48  67
ATOM     67  C   UNL A   1      42.836  24.646  26.545  1.00  0.00    -0.014 A 
ATOM     68  C   UNL A   1      44.025  24.061  26.073  1.00  0.00     0.009 A 
ATOM     69  C   UNL A   1      41.683  23.842  26.561  1.00  0.00     0.009 A 
ATOM     70  C   UNL A   1      44.062  22.716  25.672  1.00  0.00     0.001 A 
ATOM     71  C   UNL A   1      41.719  22.500  26.163  1.00  0.00     0.001 A 
ATOM     72  C   UNL A   1      42.912  21.932  25.732  1.00  0.00     0.000 A 
ENDBRANCH  48  67
BRANCH  60  73
ATOM     73  C   UNL A   1      45.011  30.027  28.888  1.00  0.00    -0.014 A 
ATOM     74  C   UNL A   1      46.319  30.373  28.500  1.00  0.00     0.009 A 
ATOM     75  C   UNL A   1      43.944  30.492  28.106  1.00  0.00     0.009 A 
ATOM     76  C   UNL A   1      46.544  31.184  27.380  1.00  0.00     0.001 A 
ATOM     77  C   UNL A   1      44.171  31.284  26.979  1.00  0.00     0.001 A 
ATOM     78  C   UNL A   1      45.470  31.634  26.618  1.00  0.00     0.000 A 
ENDBRANCH  60  73
ENDBRANCH  34  35
ENDBRANCH  27  29
ENDBRANCH  26  27
ENDBRANCH  25  26
ENDBRANCH  24  25
ENDBRANCH  23  24
ENDBRANCH   1  23
TORSDOF 17
ENDMDL
