MODEL 1
REMARK VINA RESULT:      -9.9      0.000      0.000
REMARK SMILES O=C1[NH+]=C(S)N(c2cccc(Br)c2)C(=O)/C1=C/c1ccc(-c2ccc(C(=O)OCCOCCOC(=O)c3ccc(-c4c5nc(c(-c6ccccc6)c6ccc([nH]6)c(-c6ccccc6)c6nc(c(-c7ccccc7)c7ccc4[nH]7)C=C6)C=C5)cc3)cc2)o1
REMARK SMILES IDX 30 1 29 2 28 3 26 4 27 5 25 6 22 7 23 8 86 9 24 10 85 11
REMARK SMILES IDX 21 12 18 13 19 14 87 15 20 16 17 17 1 18 2 19 3 20 16 21
REMARK SMILES IDX 4 22 14 24 6 25 15 26 5 27 7 29 8 30 13 31 9 32 11 33 10 34
REMARK SMILES IDX 12 35 31 36 32 37 33 38 34 39 35 40 36 41 37 42 38 43 84 44
REMARK SMILES IDX 39 45 83 46 40 47 41 48 42 49 77 50 43 51 82 52 76 53 78 54
REMARK SMILES IDX 44 55 81 56 75 57 74 58 45 60 67 61 52 62 66 63 53 64 56 65
REMARK SMILES IDX 65 66 79 67 54 68 55 69 64 71 80 72 57 73 46 74 47 75 51 76
REMARK SMILES IDX 48 77 50 78 49 79 68 80 69 81 73 82 70 83 72 84 71 85 58 86
REMARK SMILES IDX 59 87 63 88 60 89 62 90 61 91
REMARK H PARENT 3 23 5 28 78 59 56 70
REMARK Flexibility Score: inf
ROOT
ATOM      1  C   UNL A   1      33.052  36.233  30.340  1.00  0.00     0.202 C 
ENDROOT
BRANCH   1   2
ATOM      2  C   UNL A   1      32.738  35.753  31.760  1.00  0.00     0.261 C 
BRANCH   2   3
ATOM      3  O   UNL A   1      33.923  35.425  32.496  1.00  0.00    -0.460 OA
BRANCH   3   4
ATOM      4  C   UNL A   1      33.999  34.127  32.880  1.00  0.00     0.338 C 
ATOM      5  O   UNL A   1      33.070  33.408  33.210  1.00  0.00    -0.246 OA
BRANCH   4   6
ATOM      6  C   UNL A   1      35.382  33.620  32.722  1.00  0.00     0.060 A 
ATOM      7  C   UNL A   1      37.975  32.564  32.743  1.00  0.00     0.017 A 
ATOM      8  C   UNL A   1      36.871  31.708  32.820  1.00  0.00     0.013 A 
ATOM      9  C   UNL A   1      37.765  33.939  32.544  1.00  0.00     0.013 A 
ATOM     10  C   UNL A   1      35.580  32.236  32.823  1.00  0.00     0.016 A 
ATOM     11  C   UNL A   1      36.473  34.470  32.524  1.00  0.00     0.016 A 
BRANCH   7  12
ATOM     12  C   UNL A   1      39.302  32.081  33.076  1.00  0.00     0.134 A 
ATOM     13  C   UNL A   1      40.864  30.529  33.325  1.00  0.00     0.128 A 
ATOM     14  C   UNL A   1      41.356  31.719  33.848  1.00  0.00     0.051 A 
ATOM     15  O   UNL A   1      39.598  30.773  32.832  1.00  0.00    -0.457 OA
ATOM     16  C   UNL A   1      40.363  32.704  33.691  1.00  0.00     0.051 A 
BRANCH  13  17
ATOM     17  C   UNL A   1      41.525  29.275  33.234  1.00  0.00     0.071 C 
ATOM     18  O   UNL A   1      40.287  29.464  35.868  1.00  0.00    -0.241 OA
ATOM     19  C   UNL A   1      41.115  28.597  35.614  1.00  0.00     0.347 C 
ATOM     20  N   UNL A   1      41.511  27.721  36.574  1.00  0.00    -0.200 N 
ATOM     21  C   UNL A   1      41.722  28.434  34.272  1.00  0.00     0.158 C 
ATOM     22  C   UNL A   1      42.280  26.726  36.322  1.00  0.00     0.323 C 
ATOM     23  H   UNL A   1      41.198  27.856  37.498  1.00  0.00     0.316 HD
ATOM     24  C   UNL A   1      42.607  27.268  34.008  1.00  0.00     0.354 C 
ATOM     25  N   UNL A   1      42.824  26.421  35.088  1.00  0.00    -0.151 N 
ATOM     26  O   UNL A   1      43.096  27.102  32.890  1.00  0.00    -0.240 OA
BRANCH  22  27
ATOM     27  S   UNL A   1      42.695  25.774  37.737  1.00  0.00    -0.055 SA
ATOM     28  H   UNL A   1      42.475  24.457  37.478  1.00  0.00     0.116 HD
ENDBRANCH  22  27
BRANCH  25  29
ATOM     29  C   UNL A   1      43.645  25.267  34.871  1.00  0.00     0.138 A 
ATOM     30  C   UNL A   1      43.056  24.014  34.642  1.00  0.00     0.052 A 
ATOM     31  C   UNL A   1      45.043  25.370  34.897  1.00  0.00     0.068 A 
ATOM     32  C   UNL A   1      43.851  22.891  34.403  1.00  0.00     0.006 A 
ATOM     33  C   UNL A   1      45.828  24.241  34.668  1.00  0.00     0.022 A 
ATOM     34  C   UNL A   1      45.240  23.004  34.412  1.00  0.00     0.016 A 
ATOM     35  Br  UNL A   1      47.713  24.390  34.711  1.00  0.00    -0.051 Br
ENDBRANCH  25  29
ENDBRANCH  13  17
ENDBRANCH   7  12
ENDBRANCH   4   6
ENDBRANCH   3   4
ENDBRANCH   2   3
ENDBRANCH   1   2
BRANCH   1  36
ATOM     36  O   UNL A   1      32.969  35.289  29.276  1.00  0.00    -0.374 OA
BRANCH  36  37
ATOM     37  C   UNL A   1      34.110  34.481  28.996  1.00  0.00     0.202 C 
BRANCH  37  38
ATOM     38  C   UNL A   1      34.048  32.987  29.344  1.00  0.00     0.261 C 
BRANCH  38  39
ATOM     39  O   UNL A   1      35.260  32.284  29.026  1.00  0.00    -0.460 OA
BRANCH  39  40
ATOM     40  C   UNL A   1      35.081  31.146  28.312  1.00  0.00     0.338 C 
ATOM     41  O   UNL A   1      34.150  30.862  27.579  1.00  0.00    -0.246 OA
BRANCH  40  42
ATOM     42  C   UNL A   1      36.299  30.321  28.405  1.00  0.00     0.060 A 
ATOM     43  C   UNL A   1      36.628  29.761  29.648  1.00  0.00     0.016 A 
ATOM     44  C   UNL A   1      37.141  30.167  27.305  1.00  0.00     0.016 A 
ATOM     45  C   UNL A   1      37.831  29.076  29.806  1.00  0.00     0.010 A 
ATOM     46  C   UNL A   1      38.349  29.489  27.469  1.00  0.00     0.010 A 
ATOM     47  C   UNL A   1      38.714  28.973  28.726  1.00  0.00    -0.014 A 
BRANCH  47  48
ATOM     48  C   UNL A   1      40.095  28.479  28.923  1.00  0.00     0.031 A 
ATOM     49  C   UNL A   1      41.139  29.441  29.415  1.00  0.00     0.074 A 
ATOM     50  C   UNL A   1      40.426  27.209  28.632  1.00  0.00     0.049 A 
ATOM     51  N   UNL A   1      42.431  29.281  29.525  1.00  0.00    -0.248 NA
ATOM     52  C   UNL A   1      40.654  30.769  29.827  1.00  0.00     0.031 C 
ATOM     53  C   UNL A   1      39.494  26.165  28.213  1.00  0.00     0.029 A 
ATOM     54  N   UNL A   1      41.651  26.593  28.633  1.00  0.00    -0.354 N 
ATOM     55  C   UNL A   1      42.919  30.495  29.991  1.00  0.00     0.074 A 
ATOM     56  C   UNL A   1      41.788  31.388  30.115  1.00  0.00     0.031 C 
ATOM     57  C   UNL A   1      40.185  25.033  27.991  1.00  0.00     0.029 A 
ATOM     58  C   UNL A   1      41.607  25.291  28.202  1.00  0.00     0.049 A 
ATOM     59  H   UNL A   1      42.481  27.040  28.917  1.00  0.00     0.167 HD
ATOM     60  C   UNL A   1      44.196  30.837  30.287  1.00  0.00     0.031 A 
ATOM     61  C   UNL A   1      42.609  24.419  27.974  1.00  0.00     0.031 A 
ATOM     62  C   UNL A   1      45.319  29.950  30.139  1.00  0.00     0.049 A 
ATOM     63  C   UNL A   1      44.032  24.853  28.201  1.00  0.00     0.074 A 
ATOM     64  C   UNL A   1      46.651  30.189  30.423  1.00  0.00     0.029 A 
ATOM     65  N   UNL A   1      45.238  28.654  29.652  1.00  0.00    -0.354 N 
ATOM     66  N   UNL A   1      44.487  25.998  28.652  1.00  0.00    -0.248 NA
ATOM     67  C   UNL A   1      45.083  23.873  27.886  1.00  0.00     0.031 C 
ATOM     68  C   UNL A   1      47.386  29.063  30.040  1.00  0.00     0.029 A 
ATOM     69  C   UNL A   1      46.502  28.094  29.594  1.00  0.00     0.049 A 
ATOM     70  H   UNL A   1      44.405  28.200  29.386  1.00  0.00     0.167 HD
ATOM     71  C   UNL A   1      45.869  25.859  28.720  1.00  0.00     0.074 A 
ATOM     72  C   UNL A   1      46.178  24.522  28.258  1.00  0.00     0.031 C 
ATOM     73  C   UNL A   1      46.794  26.756  29.143  1.00  0.00     0.031 A 
BRANCH  60  74
ATOM     74  C   UNL A   1      44.442  32.251  30.740  1.00  0.00    -0.014 A 
ATOM     75  C   UNL A   1      44.400  32.608  32.098  1.00  0.00     0.009 A 
ATOM     76  C   UNL A   1      44.712  33.246  29.788  1.00  0.00     0.009 A 
ATOM     77  C   UNL A   1      44.565  33.941  32.485  1.00  0.00     0.001 A 
ATOM     78  C   UNL A   1      44.915  34.570  30.180  1.00  0.00     0.001 A 
ATOM     79  C   UNL A   1      44.824  34.920  31.526  1.00  0.00     0.000 A 
ENDBRANCH  60  74
BRANCH  61  80
ATOM     80  C   UNL A   1      42.300  23.042  27.507  1.00  0.00    -0.014 A 
ATOM     81  C   UNL A   1      42.428  22.713  26.150  1.00  0.00     0.009 A 
ATOM     82  C   UNL A   1      41.885  22.050  28.410  1.00  0.00     0.009 A 
ATOM     83  C   UNL A   1      42.129  21.424  25.702  1.00  0.00     0.001 A 
ATOM     84  C   UNL A   1      41.614  20.754  27.964  1.00  0.00     0.001 A 
ATOM     85  C   UNL A   1      41.729  20.445  26.610  1.00  0.00     0.000 A 
ENDBRANCH  61  80
BRANCH  73  86
ATOM     86  C   UNL A   1      48.230  26.309  29.196  1.00  0.00    -0.014 A 
ATOM     87  C   UNL A   1      48.812  25.827  30.378  1.00  0.00     0.009 A 
ATOM     88  C   UNL A   1      48.985  26.291  28.011  1.00  0.00     0.009 A 
ATOM     89  C   UNL A   1      50.125  25.352  30.374  1.00  0.00     0.001 A 
ATOM     90  C   UNL A   1      50.286  25.786  28.004  1.00  0.00     0.001 A 
ATOM     91  C   UNL A   1      50.856  25.322  29.187  1.00  0.00     0.000 A 
ENDBRANCH  73  86
ENDBRANCH  47  48
ENDBRANCH  40  42
ENDBRANCH  39  40
ENDBRANCH  38  39
ENDBRANCH  37  38
ENDBRANCH  36  37
ENDBRANCH   1  36
TORSDOF 18
ENDMDL
MODEL 2
REMARK VINA RESULT:      -9.4      5.760      9.234
REMARK SMILES O=C1[NH+]=C(S)N(c2cccc(Br)c2)C(=O)/C1=C/c1ccc(-c2ccc(C(=O)OCCOCCOC(=O)c3ccc(-c4c5nc(c(-c6ccccc6)c6ccc([nH]6)c(-c6ccccc6)c6nc(c(-c7ccccc7)c7ccc4[nH]7)C=C6)C=C5)cc3)cc2)o1
REMARK SMILES IDX 30 1 29 2 28 3 26 4 27 5 25 6 22 7 23 8 86 9 24 10 85 11
REMARK SMILES IDX 21 12 18 13 19 14 87 15 20 16 17 17 1 18 2 19 3 20 16 21
REMARK SMILES IDX 4 22 14 24 6 25 15 26 5 27 7 29 8 30 13 31 9 32 11 33 10 34
REMARK SMILES IDX 12 35 31 36 32 37 33 38 34 39 35 40 36 41 37 42 38 43 84 44
REMARK SMILES IDX 39 45 83 46 40 47 41 48 42 49 77 50 43 51 82 52 76 53 78 54
REMARK SMILES IDX 44 55 81 56 75 57 74 58 45 60 67 61 52 62 66 63 53 64 56 65
REMARK SMILES IDX 65 66 79 67 54 68 55 69 64 71 80 72 57 73 46 74 47 75 51 76
REMARK SMILES IDX 48 77 50 78 49 79 68 80 69 81 73 82 70 83 72 84 71 85 58 86
REMARK SMILES IDX 59 87 63 88 60 89 62 90 61 91
REMARK H PARENT 3 23 5 28 78 59 56 70
REMARK Flexibility Score: inf
ROOT
ATOM      1  C   UNL A   1      33.432  34.376  28.542  1.00  0.00     0.202 C 
ENDROOT
BRANCH   1   2
ATOM      2  C   UNL A   1      34.180  33.070  28.823  1.00  0.00     0.261 C 
BRANCH   2   3
ATOM      3  O   UNL A   1      33.621  31.960  28.108  1.00  0.00    -0.460 OA
BRANCH   3   4
ATOM      4  C   UNL A   1      34.542  31.136  27.549  1.00  0.00     0.338 C 
ATOM      5  O   UNL A   1      35.752  31.289  27.548  1.00  0.00    -0.246 OA
BRANCH   4   6
ATOM      6  C   UNL A   1      33.892  29.910  27.031  1.00  0.00     0.060 A 
ATOM      7  C   UNL A   1      32.597  27.517  26.372  1.00  0.00     0.017 A 
ATOM      8  C   UNL A   1      31.861  28.592  26.882  1.00  0.00     0.013 A 
ATOM      9  C   UNL A   1      33.963  27.690  26.093  1.00  0.00     0.013 A 
ATOM     10  C   UNL A   1      32.509  29.779  27.223  1.00  0.00     0.016 A 
ATOM     11  C   UNL A   1      34.612  28.886  26.412  1.00  0.00     0.016 A 
BRANCH   7  12
ATOM     12  C   UNL A   1      32.019  26.186  26.332  1.00  0.00     0.134 A 
ATOM     13  C   UNL A   1      32.092  23.973  26.238  1.00  0.00     0.128 A 
ATOM     14  C   UNL A   1      30.765  24.364  26.097  1.00  0.00     0.051 A 
ATOM     15  O   UNL A   1      32.855  25.112  26.403  1.00  0.00    -0.457 OA
ATOM     16  C   UNL A   1      30.720  25.770  26.154  1.00  0.00     0.051 A 
BRANCH  13  17
ATOM     17  C   UNL A   1      32.615  22.654  26.274  1.00  0.00     0.071 C 
ATOM     18  O   UNL A   1      31.977  23.305  23.504  1.00  0.00    -0.241 OA
ATOM     19  C   UNL A   1      32.215  22.155  23.848  1.00  0.00     0.347 C 
ATOM     20  N   UNL A   1      32.147  21.138  22.948  1.00  0.00    -0.200 N 
ATOM     21  C   UNL A   1      32.599  21.793  25.233  1.00  0.00     0.158 C 
ATOM     22  C   UNL A   1      32.506  19.941  23.235  1.00  0.00     0.323 C 
ATOM     23  H   UNL A   1      31.808  21.328  22.043  1.00  0.00     0.316 HD
ATOM     24  C   UNL A   1      33.015  20.397  25.534  1.00  0.00     0.354 C 
ATOM     25  N   UNL A   1      32.973  19.513  24.463  1.00  0.00    -0.151 N 
ATOM     26  O   UNL A   1      33.364  20.087  26.674  1.00  0.00    -0.240 OA
BRANCH  22  27
ATOM     27  S   UNL A   1      32.270  18.797  21.925  1.00  0.00    -0.055 SA
ATOM     28  H   UNL A   1      32.142  17.543  22.435  1.00  0.00     0.116 HD
ENDBRANCH  22  27
BRANCH  25  29
ATOM     29  C   UNL A   1      33.395  18.164  24.701  1.00  0.00     0.138 A 
ATOM     30  C   UNL A   1      34.690  17.757  24.346  1.00  0.00     0.052 A 
ATOM     31  C   UNL A   1      32.519  17.233  25.276  1.00  0.00     0.068 A 
ATOM     32  C   UNL A   1      35.115  16.451  24.601  1.00  0.00     0.006 A 
ATOM     33  C   UNL A   1      32.949  15.928  25.515  1.00  0.00     0.022 A 
ATOM     34  C   UNL A   1      34.246  15.535  25.189  1.00  0.00     0.016 A 
ATOM     35  Br  UNL A   1      31.758  14.678  26.287  1.00  0.00    -0.051 Br
ENDBRANCH  25  29
ENDBRANCH  13  17
ENDBRANCH   7  12
ENDBRANCH   4   6
ENDBRANCH   3   4
ENDBRANCH   2   3
ENDBRANCH   1   2
BRANCH   1  36
ATOM     36  O   UNL A   1      33.860  35.556  29.217  1.00  0.00    -0.374 OA
BRANCH  36  37
ATOM     37  C   UNL A   1      32.900  36.292  29.972  1.00  0.00     0.202 C 
BRANCH  37  38
ATOM     38  C   UNL A   1      32.676  35.905  31.440  1.00  0.00     0.261 C 
BRANCH  38  39
ATOM     39  O   UNL A   1      33.484  34.793  31.858  1.00  0.00    -0.460 OA
BRANCH  39  40
ATOM     40  C   UNL A   1      34.585  35.132  32.574  1.00  0.00     0.338 C 
ATOM     41  O   UNL A   1      34.702  36.039  33.379  1.00  0.00    -0.246 OA
BRANCH  40  42
ATOM     42  C   UNL A   1      35.626  34.110  32.371  1.00  0.00     0.060 A 
ATOM     43  C   UNL A   1      35.427  32.838  32.927  1.00  0.00     0.016 A 
ATOM     44  C   UNL A   1      36.812  34.423  31.709  1.00  0.00     0.016 A 
ATOM     45  C   UNL A   1      36.438  31.883  32.860  1.00  0.00     0.010 A 
ATOM     46  C   UNL A   1      37.827  33.469  31.651  1.00  0.00     0.010 A 
ATOM     47  C   UNL A   1      37.657  32.209  32.256  1.00  0.00    -0.014 A 
BRANCH  47  48
ATOM     48  C   UNL A   1      38.831  31.315  32.389  1.00  0.00     0.031 A 
ATOM     49  C   UNL A   1      39.799  31.564  33.510  1.00  0.00     0.074 A 
ATOM     50  C   UNL A   1      39.053  30.326  31.507  1.00  0.00     0.049 A 
ATOM     51  N   UNL A   1      40.962  31.013  33.743  1.00  0.00    -0.248 NA
ATOM     52  C   UNL A   1      39.404  32.584  34.495  1.00  0.00     0.031 C 
ATOM     53  C   UNL A   1      38.155  29.942  30.420  1.00  0.00     0.029 A 
ATOM     54  N   UNL A   1      40.120  29.474  31.385  1.00  0.00    -0.354 N 
ATOM     55  C   UNL A   1      41.450  31.638  34.883  1.00  0.00     0.074 A 
ATOM     56  C   UNL A   1      40.471  32.628  35.276  1.00  0.00     0.031 C 
ATOM     57  C   UNL A   1      38.715  28.930  29.735  1.00  0.00     0.029 A 
ATOM     58  C   UNL A   1      40.028  28.634  30.304  1.00  0.00     0.049 A 
ATOM     59  H   UNL A   1      40.879  29.465  32.013  1.00  0.00     0.167 HD
ATOM     60  C   UNL A   1      42.611  31.410  35.541  1.00  0.00     0.031 A 
ATOM     61  C   UNL A   1      40.918  27.751  29.814  1.00  0.00     0.031 A 
ATOM     62  C   UNL A   1      43.590  30.439  35.129  1.00  0.00     0.049 A 
ATOM     63  C   UNL A   1      42.252  27.591  30.494  1.00  0.00     0.074 A 
ATOM     64  C   UNL A   1      44.793  30.118  35.732  1.00  0.00     0.029 A 
ATOM     65  N   UNL A   1      43.480  29.643  33.999  1.00  0.00    -0.354 N 
ATOM     66  N   UNL A   1      42.704  28.176  31.578  1.00  0.00    -0.248 NA
ATOM     67  C   UNL A   1      43.201  26.648  29.882  1.00  0.00     0.031 C 
ATOM     68  C   UNL A   1      45.444  29.178  34.927  1.00  0.00     0.029 A 
ATOM     69  C   UNL A   1      44.610  28.856  33.867  1.00  0.00     0.049 A 
ATOM     70  H   UNL A   1      42.712  29.639  33.383  1.00  0.00     0.167 HD
ATOM     71  C   UNL A   1      43.966  27.638  31.804  1.00  0.00     0.074 A 
ATOM     72  C   UNL A   1      44.210  26.685  30.741  1.00  0.00     0.031 C 
ATOM     73  C   UNL A   1      44.835  27.901  32.811  1.00  0.00     0.031 A 
BRANCH  60  74
ATOM     74  C   UNL A   1      42.904  32.274  36.739  1.00  0.00    -0.014 A 
ATOM     75  C   UNL A   1      43.582  33.499  36.617  1.00  0.00     0.009 A 
ATOM     76  C   UNL A   1      42.503  31.848  38.014  1.00  0.00     0.009 A 
ATOM     77  C   UNL A   1      43.901  34.247  37.753  1.00  0.00     0.001 A 
ATOM     78  C   UNL A   1      42.788  32.616  39.143  1.00  0.00     0.001 A 
ATOM     79  C   UNL A   1      43.502  33.806  39.014  1.00  0.00     0.000 A 
ENDBRANCH  60  74
BRANCH  61  80
ATOM     80  C   UNL A   1      40.576  26.941  28.614  1.00  0.00    -0.014 A 
ATOM     81  C   UNL A   1      39.762  25.806  28.739  1.00  0.00     0.009 A 
ATOM     82  C   UNL A   1      41.054  27.298  27.343  1.00  0.00     0.009 A 
ATOM     83  C   UNL A   1      39.446  25.034  27.620  1.00  0.00     0.001 A 
ATOM     84  C   UNL A   1      40.712  26.540  26.220  1.00  0.00     0.001 A 
ATOM     85  C   UNL A   1      39.916  25.405  26.361  1.00  0.00     0.000 A 
ENDBRANCH  61  80
BRANCH  73  86
ATOM     86  C   UNL A   1      46.109  27.103  32.863  1.00  0.00    -0.014 A 
ATOM     87  C   UNL A   1      46.177  25.858  33.505  1.00  0.00     0.009 A 
ATOM     88  C   UNL A   1      47.241  27.575  32.176  1.00  0.00     0.009 A 
ATOM     89  C   UNL A   1      47.356  25.110  33.471  1.00  0.00     0.001 A 
ATOM     90  C   UNL A   1      48.407  26.811  32.116  1.00  0.00     0.001 A 
ATOM     91  C   UNL A   1      48.465  25.582  32.769  1.00  0.00     0.000 A 
ENDBRANCH  73  86
ENDBRANCH  47  48
ENDBRANCH  40  42
ENDBRANCH  39  40
ENDBRANCH  38  39
ENDBRANCH  37  38
ENDBRANCH  36  37
ENDBRANCH   1  36
TORSDOF 18
ENDMDL
MODEL 3
REMARK VINA RESULT:      -9.3      3.966      8.188
REMARK SMILES O=C1[NH+]=C(S)N(c2cccc(Br)c2)C(=O)/C1=C/c1ccc(-c2ccc(C(=O)OCCOCCOC(=O)c3ccc(-c4c5nc(c(-c6ccccc6)c6ccc([nH]6)c(-c6ccccc6)c6nc(c(-c7ccccc7)c7ccc4[nH]7)C=C6)C=C5)cc3)cc2)o1
REMARK SMILES IDX 30 1 29 2 28 3 26 4 27 5 25 6 22 7 23 8 86 9 24 10 85 11
REMARK SMILES IDX 21 12 18 13 19 14 87 15 20 16 17 17 1 18 2 19 3 20 16 21
REMARK SMILES IDX 4 22 14 24 6 25 15 26 5 27 7 29 8 30 13 31 9 32 11 33 10 34
REMARK SMILES IDX 12 35 31 36 32 37 33 38 34 39 35 40 36 41 37 42 38 43 84 44
REMARK SMILES IDX 39 45 83 46 40 47 41 48 42 49 77 50 43 51 82 52 76 53 78 54
REMARK SMILES IDX 44 55 81 56 75 57 74 58 45 60 67 61 52 62 66 63 53 64 56 65
REMARK SMILES IDX 65 66 79 67 54 68 55 69 64 71 80 72 57 73 46 74 47 75 51 76
REMARK SMILES IDX 48 77 50 78 49 79 68 80 69 81 73 82 70 83 72 84 71 85 58 86
REMARK SMILES IDX 59 87 63 88 60 89 62 90 61 91
REMARK H PARENT 3 23 5 28 78 59 56 70
REMARK Flexibility Score: inf
ROOT
ATOM      1  C   UNL A   1      34.788  24.810  25.567  1.00  0.00     0.202 C 
ENDROOT
BRANCH   1   2
ATOM      2  C   UNL A   1      33.578  25.587  25.042  1.00  0.00     0.261 C 
BRANCH   2   3
ATOM      3  O   UNL A   1      33.691  26.996  25.284  1.00  0.00    -0.460 OA
BRANCH   3   4
ATOM      4  C   UNL A   1      32.810  27.477  26.195  1.00  0.00     0.338 C 
ATOM      5  O   UNL A   1      31.875  26.874  26.696  1.00  0.00    -0.246 OA
BRANCH   4   6
ATOM      6  C   UNL A   1      33.208  28.836  26.631  1.00  0.00     0.060 A 
ATOM      7  C   UNL A   1      34.008  31.270  27.759  1.00  0.00     0.017 A 
ATOM      8  C   UNL A   1      34.938  30.239  27.592  1.00  0.00     0.013 A 
ATOM      9  C   UNL A   1      32.706  31.110  27.255  1.00  0.00     0.013 A 
ATOM     10  C   UNL A   1      34.535  29.022  27.043  1.00  0.00     0.016 A 
ATOM     11  C   UNL A   1      32.305  29.900  26.684  1.00  0.00     0.016 A 
BRANCH   7  12
ATOM     12  C   UNL A   1      34.310  32.398  28.621  1.00  0.00     0.134 A 
ATOM     13  C   UNL A   1      34.784  33.369  30.556  1.00  0.00     0.128 A 
ATOM     14  C   UNL A   1      34.551  34.371  29.620  1.00  0.00     0.051 A 
ATOM     15  O   UNL A   1      34.651  32.152  29.918  1.00  0.00    -0.457 OA
ATOM     16  C   UNL A   1      34.248  33.753  28.392  1.00  0.00     0.051 A 
BRANCH  13  17
ATOM     17  C   UNL A   1      35.155  33.516  31.919  1.00  0.00     0.071 C 
ATOM     18  O   UNL A   1      37.589  33.433  30.315  1.00  0.00    -0.241 OA
ATOM     19  C   UNL A   1      37.626  33.313  31.533  1.00  0.00     0.347 C 
ATOM     20  N   UNL A   1      38.806  33.093  32.169  1.00  0.00    -0.200 N 
ATOM     21  C   UNL A   1      36.417  33.407  32.387  1.00  0.00     0.158 C 
ATOM     22  C   UNL A   1      38.907  33.083  33.448  1.00  0.00     0.323 C 
ATOM     23  H   UNL A   1      39.614  32.936  31.629  1.00  0.00     0.316 HD
ATOM     24  C   UNL A   1      36.566  33.396  33.866  1.00  0.00     0.354 C 
ATOM     25  N   UNL A   1      37.865  33.260  34.339  1.00  0.00    -0.151 N 
ATOM     26  O   UNL A   1      35.575  33.502  34.590  1.00  0.00    -0.240 OA
BRANCH  22  27
ATOM     27  S   UNL A   1      40.524  32.723  34.029  1.00  0.00    -0.055 SA
ATOM     28  H   UNL A   1      41.398  32.760  32.988  1.00  0.00     0.116 HD
ENDBRANCH  22  27
BRANCH  25  29
ATOM     29  C   UNL A   1      38.059  33.275  35.759  1.00  0.00     0.138 A 
ATOM     30  C   UNL A   1      37.714  32.155  36.531  1.00  0.00     0.052 A 
ATOM     31  C   UNL A   1      38.580  34.410  36.397  1.00  0.00     0.068 A 
ATOM     32  C   UNL A   1      37.925  32.154  37.911  1.00  0.00     0.006 A 
ATOM     33  C   UNL A   1      38.777  34.403  37.777  1.00  0.00     0.022 A 
ATOM     34  C   UNL A   1      38.461  33.278  38.536  1.00  0.00     0.016 A 
ATOM     35  Br  UNL A   1      39.477  35.940  38.627  1.00  0.00    -0.051 Br
ENDBRANCH  25  29
ENDBRANCH  13  17
ENDBRANCH   7  12
ENDBRANCH   4   6
ENDBRANCH   3   4
ENDBRANCH   2   3
ENDBRANCH   1   2
BRANCH   1  36
ATOM     36  O   UNL A   1      34.555  23.584  26.256  1.00  0.00    -0.374 OA
BRANCH  36  37
ATOM     37  C   UNL A   1      34.310  22.409  25.486  1.00  0.00     0.202 C 
BRANCH  37  38
ATOM     38  C   UNL A   1      35.491  21.475  25.188  1.00  0.00     0.261 C 
BRANCH  38  39
ATOM     39  O   UNL A   1      36.531  21.550  26.176  1.00  0.00    -0.460 OA
BRANCH  39  40
ATOM     40  C   UNL A   1      37.747  21.128  25.750  1.00  0.00     0.338 C 
ATOM     41  O   UNL A   1      38.022  20.077  25.198  1.00  0.00    -0.246 OA
BRANCH  40  42
ATOM     42  C   UNL A   1      38.718  22.228  25.894  1.00  0.00     0.060 A 
ATOM     43  C   UNL A   1      39.956  21.947  26.489  1.00  0.00     0.016 A 
ATOM     44  C   UNL A   1      38.383  23.527  25.519  1.00  0.00     0.016 A 
ATOM     45  C   UNL A   1      40.853  22.980  26.752  1.00  0.00     0.010 A 
ATOM     46  C   UNL A   1      39.278  24.561  25.792  1.00  0.00     0.010 A 
ATOM     47  C   UNL A   1      40.499  24.297  26.440  1.00  0.00    -0.014 A 
BRANCH  47  48
ATOM     48  C   UNL A   1      41.310  25.434  26.930  1.00  0.00     0.031 A 
ATOM     49  C   UNL A   1      40.713  26.350  27.960  1.00  0.00     0.074 A 
ATOM     50  C   UNL A   1      42.538  25.673  26.441  1.00  0.00     0.049 A 
ATOM     51  N   UNL A   1      41.168  27.482  28.431  1.00  0.00    -0.248 NA
ATOM     52  C   UNL A   1      39.419  25.935  28.527  1.00  0.00     0.031 C 
ATOM     53  C   UNL A   1      43.252  24.822  25.491  1.00  0.00     0.029 A 
ATOM     54  N   UNL A   1      43.394  26.719  26.671  1.00  0.00    -0.354 N 
ATOM     55  C   UNL A   1      40.205  27.929  29.326  1.00  0.00     0.074 A 
ATOM     56  C   UNL A   1      39.130  26.961  29.311  1.00  0.00     0.031 C 
ATOM     57  C   UNL A   1      44.441  25.386  25.215  1.00  0.00     0.029 A 
ATOM     58  C   UNL A   1      44.545  26.658  25.925  1.00  0.00     0.049 A 
ATOM     59  H   UNL A   1      43.202  27.443  27.310  1.00  0.00     0.167 HD
ATOM     60  C   UNL A   1      40.213  29.047  30.090  1.00  0.00     0.031 A 
ATOM     61  C   UNL A   1      45.550  27.546  25.810  1.00  0.00     0.031 A 
ATOM     62  C   UNL A   1      41.276  30.017  30.082  1.00  0.00     0.049 A 
ATOM     63  C   UNL A   1      45.489  28.837  26.582  1.00  0.00     0.074 A 
ATOM     64  C   UNL A   1      41.392  31.176  30.827  1.00  0.00     0.029 A 
ATOM     65  N   UNL A   1      42.402  29.942  29.275  1.00  0.00    -0.354 N 
ATOM     66  N   UNL A   1      44.582  29.250  27.435  1.00  0.00    -0.248 NA
ATOM     67  C   UNL A   1      46.592  29.788  26.374  1.00  0.00     0.031 C 
ATOM     68  C   UNL A   1      42.553  31.840  30.419  1.00  0.00     0.029 A 
ATOM     69  C   UNL A   1      43.200  31.053  29.479  1.00  0.00     0.049 A 
ATOM     70  H   UNL A   1      42.603  29.207  28.651  1.00  0.00     0.167 HD
ATOM     71  C   UNL A   1      45.027  30.482  27.901  1.00  0.00     0.074 A 
ATOM     72  C   UNL A   1      46.283  30.753  27.230  1.00  0.00     0.031 C 
ATOM     73  C   UNL A   1      44.454  31.304  28.813  1.00  0.00     0.031 A 
BRANCH  60  74
ATOM     74  C   UNL A   1      39.004  29.302  30.949  1.00  0.00    -0.014 A 
ATOM     75  C   UNL A   1      37.766  29.663  30.391  1.00  0.00     0.009 A 
ATOM     76  C   UNL A   1      39.109  29.190  32.344  1.00  0.00     0.009 A 
ATOM     77  C   UNL A   1      36.678  29.962  31.216  1.00  0.00     0.001 A 
ATOM     78  C   UNL A   1      38.010  29.450  33.164  1.00  0.00     0.001 A 
ATOM     79  C   UNL A   1      36.801  29.853  32.601  1.00  0.00     0.000 A 
ENDBRANCH  60  74
BRANCH  61  80
ATOM     80  C   UNL A   1      46.709  27.244  24.928  1.00  0.00    -0.014 A 
ATOM     81  C   UNL A   1      47.665  26.296  25.322  1.00  0.00     0.009 A 
ATOM     82  C   UNL A   1      46.864  27.891  23.692  1.00  0.00     0.009 A 
ATOM     83  C   UNL A   1      48.762  26.015  24.506  1.00  0.00     0.001 A 
ATOM     84  C   UNL A   1      47.947  27.586  22.864  1.00  0.00     0.001 A 
ATOM     85  C   UNL A   1      48.899  26.655  23.275  1.00  0.00     0.000 A 
ENDBRANCH  61  80
BRANCH  73  86
ATOM     86  C   UNL A   1      45.203  32.550  29.202  1.00  0.00    -0.014 A 
ATOM     87  C   UNL A   1      44.930  33.792  28.612  1.00  0.00     0.009 A 
ATOM     88  C   UNL A   1      46.141  32.486  30.247  1.00  0.00     0.009 A 
ATOM     89  C   UNL A   1      45.592  34.942  29.050  1.00  0.00     0.001 A 
ATOM     90  C   UNL A   1      46.778  33.641  30.703  1.00  0.00     0.001 A 
ATOM     91  C   UNL A   1      46.507  34.866  30.100  1.00  0.00     0.000 A 
ENDBRANCH  73  86
ENDBRANCH  47  48
ENDBRANCH  40  42
ENDBRANCH  39  40
ENDBRANCH  38  39
ENDBRANCH  37  38
ENDBRANCH  36  37
ENDBRANCH   1  36
TORSDOF 18
ENDMDL
