MODEL 1
REMARK VINA RESULT:     -11.3      0.000      0.000
REMARK SMILES C[C@@H](C(=O)OCCOCCOC(=O)c1ccc(-c2c3nc(c(-c4ccccc4)c4ccc([nH]4)c(-c4ccccc4)c4nc(c(-c5ccccc5)c5ccc2[nH]5)C=C4)C=C3)cc1)c1ccc(-c2cccc(OC(=O)NCCC3CCCCC3)c2)c(F)c1
REMARK SMILES IDX 6 1 5 2 3 3 4 4 2 5 1 6 62 7 63 8 86 9 64 10 84 11 65 12
REMARK SMILES IDX 85 13 66 14 67 15 83 16 68 17 70 18 69 19 71 20 72 21 73 22
REMARK SMILES IDX 74 23 75 25 76 26 77 27 78 28 82 29 79 30 81 31 80 32 7 33
REMARK SMILES IDX 8 34 9 35 10 36 11 37 12 38 13 39 14 40 15 41 61 42 16 43
REMARK SMILES IDX 60 44 17 45 18 46 19 47 54 48 20 49 59 50 53 51 55 52 21 53
REMARK SMILES IDX 58 54 52 55 51 56 22 58 44 59 29 60 43 61 30 62 33 63 42 64
REMARK SMILES IDX 56 65 31 66 32 67 41 69 57 70 34 71 23 72 24 73 28 74 25 75
REMARK SMILES IDX 27 76 26 77 45 78 46 79 50 80 47 81 49 82 48 83 35 84 36 85
REMARK SMILES IDX 40 86 37 87 39 88 38 89
REMARK H PARENT 74 24 55 57 33 68
REMARK Flexibility Score: inf
ROOT
ATOM      1  C   UNL A   1      43.318  19.603  25.780  1.00  0.00     0.261 C 
ENDROOT
BRANCH   1   2
ATOM      2  O   UNL A   1      41.914  19.720  25.502  1.00  0.00    -0.463 OA
BRANCH   2   3
ATOM      3  C   UNL A   1      41.141  20.110  26.555  1.00  0.00     0.313 C 
ATOM      4  O   UNL A   1      41.045  19.474  27.599  1.00  0.00    -0.252 OA
BRANCH   3   5
ATOM      5  C   UNL A   1      40.419  21.451  26.312  1.00  0.00     0.126 C 
ATOM      6  C   UNL A   1      40.613  22.445  27.467  1.00  0.00     0.025 C 
BRANCH   5   7
ATOM      7  C   UNL A   1      38.961  21.257  25.870  1.00  0.00    -0.031 A 
ATOM      8  C   UNL A   1      38.458  20.059  25.335  1.00  0.00     0.005 A 
ATOM      9  C   UNL A   1      38.050  22.315  26.028  1.00  0.00     0.044 A 
ATOM     10  C   UNL A   1      37.111  19.941  24.943  1.00  0.00     0.012 A 
ATOM     11  C   UNL A   1      36.722  22.200  25.621  1.00  0.00     0.131 A 
ATOM     12  C   UNL A   1      36.223  21.018  25.065  1.00  0.00     0.018 A 
ATOM     13  F   UNL A   1      35.921  23.265  25.775  1.00  0.00    -0.206 F 
BRANCH  12  14
ATOM     14  C   UNL A   1      34.833  20.940  24.588  1.00  0.00    -0.012 A 
ATOM     15  C   UNL A   1      34.059  19.781  24.747  1.00  0.00     0.009 A 
ATOM     16  C   UNL A   1      34.245  22.058  23.972  1.00  0.00     0.056 A 
ATOM     17  C   UNL A   1      32.729  19.748  24.315  1.00  0.00     0.004 A 
ATOM     18  C   UNL A   1      32.928  22.018  23.520  1.00  0.00     0.133 A 
ATOM     19  C   UNL A   1      32.162  20.867  23.702  1.00  0.00     0.047 A 
BRANCH  18  20
ATOM     20  O   UNL A   1      32.273  23.096  22.871  1.00  0.00    -0.410 OA
BRANCH  20  21
ATOM     21  C   UNL A   1      32.885  23.984  21.991  1.00  0.00     0.412 C 
ATOM     22  O   UNL A   1      33.514  23.695  20.978  1.00  0.00    -0.224 OA
ATOM     23  N   UNL A   1      32.717  25.298  22.316  1.00  0.00    -0.321 N 
ATOM     24  H   UNL A   1      33.129  25.948  21.702  1.00  0.00     0.167 HD
BRANCH  23  25
ATOM     25  C   UNL A   1      32.011  25.860  23.447  1.00  0.00     0.119 C 
BRANCH  25  26
ATOM     26  C   UNL A   1      32.858  25.800  24.721  1.00  0.00     0.025 C 
BRANCH  26  27
ATOM     27  C   UNL A   1      32.988  27.144  25.474  1.00  0.00    -0.009 C 
ATOM     28  C   UNL A   1      32.578  28.340  24.598  1.00  0.00     0.003 C 
ATOM     29  C   UNL A   1      32.150  27.103  26.763  1.00  0.00     0.003 C 
ATOM     30  C   UNL A   1      32.619  29.659  25.370  1.00  0.00     0.000 C 
ATOM     31  C   UNL A   1      32.219  28.423  27.525  1.00  0.00     0.000 C 
ATOM     32  C   UNL A   1      31.792  29.594  26.648  1.00  0.00     0.000 C 
ENDBRANCH  26  27
ENDBRANCH  25  26
ENDBRANCH  23  25
ENDBRANCH  20  21
ENDBRANCH  18  20
ENDBRANCH  12  14
ENDBRANCH   5   7
ENDBRANCH   3   5
ENDBRANCH   2   3
ENDBRANCH   1   2
BRANCH   1  33
ATOM     33  C   UNL A   1      44.101  19.087  24.569  1.00  0.00     0.202 C 
BRANCH  33  34
ATOM     34  O   UNL A   1      44.766  20.039  23.747  1.00  0.00    -0.374 OA
BRANCH  34  35
ATOM     35  C   UNL A   1      45.268  21.229  24.354  1.00  0.00     0.202 C 
BRANCH  35  36
ATOM     36  C   UNL A   1      44.703  22.579  23.889  1.00  0.00     0.261 C 
BRANCH  36  37
ATOM     37  O   UNL A   1      44.117  23.355  24.953  1.00  0.00    -0.460 OA
BRANCH  37  38
ATOM     38  C   UNL A   1      44.698  24.565  25.153  1.00  0.00     0.338 C 
ATOM     39  O   UNL A   1      45.686  25.015  24.596  1.00  0.00    -0.246 OA
BRANCH  38  40
ATOM     40  C   UNL A   1      43.860  25.396  26.036  1.00  0.00     0.060 A 
ATOM     41  C   UNL A   1      44.173  26.759  26.133  1.00  0.00     0.016 A 
ATOM     42  C   UNL A   1      42.868  24.836  26.840  1.00  0.00     0.016 A 
ATOM     43  C   UNL A   1      43.522  27.561  27.066  1.00  0.00     0.010 A 
ATOM     44  C   UNL A   1      42.221  25.641  27.784  1.00  0.00     0.010 A 
ATOM     45  C   UNL A   1      42.571  26.998  27.927  1.00  0.00    -0.014 A 
BRANCH  45  46
ATOM     46  C   UNL A   1      42.051  27.797  29.063  1.00  0.00     0.031 A 
ATOM     47  C   UNL A   1      42.778  27.761  30.380  1.00  0.00     0.074 A 
ATOM     48  C   UNL A   1      40.964  28.574  28.916  1.00  0.00     0.049 A 
ATOM     49  N   UNL A   1      42.478  28.351  31.510  1.00  0.00    -0.248 NA
ATOM     50  C   UNL A   1      44.006  26.950  30.431  1.00  0.00     0.031 C 
ATOM     51  C   UNL A   1      40.202  28.736  27.679  1.00  0.00     0.029 A 
ATOM     52  N   UNL A   1      40.311  29.372  29.821  1.00  0.00    -0.354 N 
ATOM     53  C   UNL A   1      43.472  27.977  32.406  1.00  0.00     0.074 A 
ATOM     54  C   UNL A   1      44.363  27.082  31.700  1.00  0.00     0.031 C 
ATOM     55  C   UNL A   1      39.180  29.578  27.905  1.00  0.00     0.029 A 
ATOM     56  C   UNL A   1      39.192  29.980  29.310  1.00  0.00     0.049 A 
ATOM     57  H   UNL A   1      40.617  29.496  30.750  1.00  0.00     0.167 HD
ATOM     58  C   UNL A   1      43.632  28.349  33.699  1.00  0.00     0.031 A 
ATOM     59  C   UNL A   1      38.268  30.753  29.913  1.00  0.00     0.031 A 
ATOM     60  C   UNL A   1      42.737  29.226  34.405  1.00  0.00     0.049 A 
ATOM     61  C   UNL A   1      38.419  31.080  31.375  1.00  0.00     0.074 A 
ATOM     62  C   UNL A   1      42.818  29.670  35.713  1.00  0.00     0.029 A 
ATOM     63  N   UNL A   1      41.589  29.785  33.864  1.00  0.00    -0.354 N 
ATOM     64  N   UNL A   1      39.371  30.735  32.206  1.00  0.00    -0.248 NA
ATOM     65  C   UNL A   1      37.367  31.913  31.977  1.00  0.00     0.031 C 
ATOM     66  C   UNL A   1      41.685  30.445  35.983  1.00  0.00     0.029 A 
ATOM     67  C   UNL A   1      40.937  30.544  34.822  1.00  0.00     0.049 A 
ATOM     68  H   UNL A   1      41.284  29.662  32.936  1.00  0.00     0.167 HD
ATOM     69  C   UNL A   1      39.052  31.334  33.420  1.00  0.00     0.074 A 
ATOM     70  C   UNL A   1      37.825  32.075  33.210  1.00  0.00     0.031 C 
ATOM     71  C   UNL A   1      39.715  31.276  34.602  1.00  0.00     0.031 A 
BRANCH  58  72
ATOM     72  C   UNL A   1      44.805  27.772  34.446  1.00  0.00    -0.014 A 
ATOM     73  C   UNL A   1      44.705  26.554  35.140  1.00  0.00     0.009 A 
ATOM     74  C   UNL A   1      46.038  28.442  34.428  1.00  0.00     0.009 A 
ATOM     75  C   UNL A   1      45.805  26.043  35.832  1.00  0.00     0.001 A 
ATOM     76  C   UNL A   1      47.145  27.911  35.092  1.00  0.00     0.001 A 
ATOM     77  C   UNL A   1      47.026  26.718  35.802  1.00  0.00     0.000 A 
ENDBRANCH  58  72
BRANCH  59  78
ATOM     78  C   UNL A   1      37.097  31.248  29.141  1.00  0.00    -0.014 A 
ATOM     79  C   UNL A   1      37.038  32.578  28.697  1.00  0.00     0.009 A 
ATOM     80  C   UNL A   1      36.020  30.392  28.860  1.00  0.00     0.009 A 
ATOM     81  C   UNL A   1      35.914  33.046  28.011  1.00  0.00     0.001 A 
ATOM     82  C   UNL A   1      34.913  30.854  28.145  1.00  0.00     0.001 A 
ATOM     83  C   UNL A   1      34.856  32.182  27.730  1.00  0.00     0.000 A 
ENDBRANCH  59  78
BRANCH  71  84
ATOM     84  C   UNL A   1      39.153  32.070  35.750  1.00  0.00    -0.014 A 
ATOM     85  C   UNL A   1      39.486  33.420  35.943  1.00  0.00     0.009 A 
ATOM     86  C   UNL A   1      38.240  31.465  36.629  1.00  0.00     0.009 A 
ATOM     87  C   UNL A   1      38.946  34.135  37.015  1.00  0.00     0.001 A 
ATOM     88  C   UNL A   1      37.676  32.191  37.679  1.00  0.00     0.001 A 
ATOM     89  C   UNL A   1      38.038  33.522  37.878  1.00  0.00     0.000 A 
ENDBRANCH  71  84
ENDBRANCH  45  46
ENDBRANCH  38  40
ENDBRANCH  37  38
ENDBRANCH  36  37
ENDBRANCH  35  36
ENDBRANCH  34  35
ENDBRANCH  33  34
ENDBRANCH   1  33
TORSDOF 21
ENDMDL
MODEL 2
REMARK VINA RESULT:     -11.0      2.296      9.239
REMARK SMILES C[C@@H](C(=O)OCCOCCOC(=O)c1ccc(-c2c3nc(c(-c4ccccc4)c4ccc([nH]4)c(-c4ccccc4)c4nc(c(-c5ccccc5)c5ccc2[nH]5)C=C4)C=C3)cc1)c1ccc(-c2cccc(OC(=O)NCCC3CCCCC3)c2)c(F)c1
REMARK SMILES IDX 6 1 5 2 3 3 4 4 2 5 1 6 62 7 63 8 86 9 64 10 84 11 65 12
REMARK SMILES IDX 85 13 66 14 67 15 83 16 68 17 70 18 69 19 71 20 72 21 73 22
REMARK SMILES IDX 74 23 75 25 76 26 77 27 78 28 82 29 79 30 81 31 80 32 7 33
REMARK SMILES IDX 8 34 9 35 10 36 11 37 12 38 13 39 14 40 15 41 61 42 16 43
REMARK SMILES IDX 60 44 17 45 18 46 19 47 54 48 20 49 59 50 53 51 55 52 21 53
REMARK SMILES IDX 58 54 52 55 51 56 22 58 44 59 29 60 43 61 30 62 33 63 42 64
REMARK SMILES IDX 56 65 31 66 32 67 41 69 57 70 34 71 23 72 24 73 28 74 25 75
REMARK SMILES IDX 27 76 26 77 45 78 46 79 50 80 47 81 49 82 48 83 35 84 36 85
REMARK SMILES IDX 40 86 37 87 39 88 38 89
REMARK H PARENT 74 24 55 57 33 68
REMARK Flexibility Score: inf
ROOT
ATOM      1  C   UNL A   1      33.231  27.285  22.308  1.00  0.00     0.261 C 
ENDROOT
BRANCH   1   2
ATOM      2  O   UNL A   1      32.462  26.085  22.485  1.00  0.00    -0.463 OA
BRANCH   2   3
ATOM      3  C   UNL A   1      32.896  25.004  21.777  1.00  0.00     0.313 C 
ATOM      4  O   UNL A   1      33.256  25.059  20.606  1.00  0.00    -0.252 OA
BRANCH   3   5
ATOM      5  C   UNL A   1      32.917  23.705  22.607  1.00  0.00     0.126 C 
ATOM      6  C   UNL A   1      31.577  23.428  23.306  1.00  0.00     0.025 C 
BRANCH   5   7
ATOM      7  C   UNL A   1      34.149  23.614  23.520  1.00  0.00    -0.031 A 
ATOM      8  C   UNL A   1      34.235  24.225  24.782  1.00  0.00     0.005 A 
ATOM      9  C   UNL A   1      35.256  22.856  23.102  1.00  0.00     0.044 A 
ATOM     10  C   UNL A   1      35.393  24.111  25.573  1.00  0.00     0.012 A 
ATOM     11  C   UNL A   1      36.408  22.761  23.882  1.00  0.00     0.131 A 
ATOM     12  C   UNL A   1      36.508  23.388  25.128  1.00  0.00     0.018 A 
ATOM     13  F   UNL A   1      37.437  22.046  23.401  1.00  0.00    -0.206 F 
BRANCH  12  14
ATOM     14  C   UNL A   1      37.755  23.323  25.904  1.00  0.00    -0.012 A 
ATOM     15  C   UNL A   1      38.331  24.465  26.481  1.00  0.00     0.009 A 
ATOM     16  C   UNL A   1      38.390  22.084  26.099  1.00  0.00     0.056 A 
ATOM     17  C   UNL A   1      39.499  24.367  27.244  1.00  0.00     0.004 A 
ATOM     18  C   UNL A   1      39.567  21.988  26.839  1.00  0.00     0.133 A 
ATOM     19  C   UNL A   1      40.117  23.129  27.424  1.00  0.00     0.047 A 
BRANCH  18  20
ATOM     20  O   UNL A   1      40.275  20.779  27.062  1.00  0.00    -0.410 OA
BRANCH  20  21
ATOM     21  C   UNL A   1      40.833  19.989  26.060  1.00  0.00     0.412 C 
ATOM     22  O   UNL A   1      40.283  19.072  25.459  1.00  0.00    -0.224 OA
ATOM     23  N   UNL A   1      42.112  20.328  25.731  1.00  0.00    -0.321 N 
ATOM     24  H   UNL A   1      42.526  19.794  25.015  1.00  0.00     0.167 HD
BRANCH  23  25
ATOM     25  C   UNL A   1      42.939  21.371  26.297  1.00  0.00     0.119 C 
BRANCH  25  26
ATOM     26  C   UNL A   1      44.297  21.451  25.595  1.00  0.00     0.025 C 
BRANCH  26  27
ATOM     27  C   UNL A   1      44.976  22.839  25.658  1.00  0.00    -0.009 C 
ATOM     28  C   UNL A   1      45.518  23.155  27.062  1.00  0.00     0.003 C 
ATOM     29  C   UNL A   1      46.101  22.918  24.612  1.00  0.00     0.003 C 
ATOM     30  C   UNL A   1      46.268  24.486  27.103  1.00  0.00     0.000 C 
ATOM     31  C   UNL A   1      46.825  24.260  24.660  1.00  0.00     0.000 C 
ATOM     32  C   UNL A   1      47.371  24.549  26.053  1.00  0.00     0.000 C 
ENDBRANCH  26  27
ENDBRANCH  25  26
ENDBRANCH  23  25
ENDBRANCH  20  21
ENDBRANCH  18  20
ENDBRANCH  12  14
ENDBRANCH   5   7
ENDBRANCH   3   5
ENDBRANCH   2   3
ENDBRANCH   1   2
BRANCH   1  33
ATOM     33  C   UNL A   1      33.022  28.274  23.459  1.00  0.00     0.202 C 
BRANCH  33  34
ATOM     34  O   UNL A   1      31.688  28.632  23.801  1.00  0.00    -0.374 OA
BRANCH  34  35
ATOM     35  C   UNL A   1      31.478  29.478  24.931  1.00  0.00     0.202 C 
BRANCH  35  36
ATOM     36  C   UNL A   1      32.704  29.944  25.730  1.00  0.00     0.261 C 
BRANCH  36  37
ATOM     37  O   UNL A   1      32.372  30.542  26.998  1.00  0.00    -0.460 OA
BRANCH  37  38
ATOM     38  C   UNL A   1      33.017  31.707  27.257  1.00  0.00     0.338 C 
ATOM     39  O   UNL A   1      32.540  32.829  27.288  1.00  0.00    -0.246 OA
BRANCH  38  40
ATOM     40  C   UNL A   1      34.398  31.440  27.699  1.00  0.00     0.060 A 
ATOM     41  C   UNL A   1      34.731  30.119  28.027  1.00  0.00     0.016 A 
ATOM     42  C   UNL A   1      35.312  32.474  27.901  1.00  0.00     0.016 A 
ATOM     43  C   UNL A   1      35.967  29.831  28.600  1.00  0.00     0.010 A 
ATOM     44  C   UNL A   1      36.550  32.184  28.486  1.00  0.00     0.010 A 
ATOM     45  C   UNL A   1      36.869  30.867  28.871  1.00  0.00    -0.014 A 
BRANCH  45  46
ATOM     46  C   UNL A   1      38.078  30.589  29.683  1.00  0.00     0.031 A 
ATOM     47  C   UNL A   1      39.214  29.816  29.069  1.00  0.00     0.074 A 
ATOM     48  C   UNL A   1      38.180  31.049  30.942  1.00  0.00     0.049 A 
ATOM     49  N   UNL A   1      40.343  29.432  29.609  1.00  0.00    -0.248 NA
ATOM     50  C   UNL A   1      39.054  29.423  27.660  1.00  0.00     0.031 C 
ATOM     51  C   UNL A   1      37.174  31.853  31.634  1.00  0.00     0.029 A 
ATOM     52  N   UNL A   1      39.185  30.900  31.865  1.00  0.00    -0.354 N 
ATOM     53  C   UNL A   1      41.024  28.746  28.610  1.00  0.00     0.074 A 
ATOM     54  C   UNL A   1      40.166  28.735  27.444  1.00  0.00     0.031 C 
ATOM     55  C   UNL A   1      37.610  32.122  32.875  1.00  0.00     0.029 A 
ATOM     56  C   UNL A   1      38.904  31.475  33.080  1.00  0.00     0.049 A 
ATOM     57  H   UNL A   1      40.027  30.425  31.674  1.00  0.00     0.167 HD
ATOM     58  C   UNL A   1      42.253  28.179  28.657  1.00  0.00     0.031 A 
ATOM     59  C   UNL A   1      39.600  31.460  34.232  1.00  0.00     0.031 A 
ATOM     60  C   UNL A   1      43.099  28.176  29.821  1.00  0.00     0.049 A 
ATOM     61  C   UNL A   1      40.925  30.747  34.286  1.00  0.00     0.074 A 
ATOM     62  C   UNL A   1      44.365  27.637  29.966  1.00  0.00     0.029 A 
ATOM     63  N   UNL A   1      42.758  28.731  31.045  1.00  0.00    -0.354 N 
ATOM     64  N   UNL A   1      41.566  30.118  33.332  1.00  0.00    -0.248 NA
ATOM     65  C   UNL A   1      41.627  30.752  35.578  1.00  0.00     0.031 C 
ATOM     66  C   UNL A   1      44.764  27.808  31.296  1.00  0.00     0.029 A 
ATOM     67  C   UNL A   1      43.777  28.519  31.960  1.00  0.00     0.049 A 
ATOM     68  H   UNL A   1      41.917  29.206  31.236  1.00  0.00     0.167 HD
ATOM     69  C   UNL A   1      42.758  29.680  33.897  1.00  0.00     0.074 A 
ATOM     70  C   UNL A   1      42.757  30.130  35.274  1.00  0.00     0.031 C 
ATOM     71  C   UNL A   1      43.764  28.970  33.328  1.00  0.00     0.031 A 
BRANCH  58  72
ATOM     72  C   UNL A   1      42.741  27.479  27.417  1.00  0.00    -0.014 A 
ATOM     73  C   UNL A   1      43.639  28.097  26.531  1.00  0.00     0.009 A 
ATOM     74  C   UNL A   1      42.321  26.167  27.149  1.00  0.00     0.009 A 
ATOM     75  C   UNL A   1      44.073  27.429  25.383  1.00  0.00     0.001 A 
ATOM     76  C   UNL A   1      42.782  25.489  26.019  1.00  0.00     0.001 A 
ATOM     77  C   UNL A   1      43.649  26.124  25.132  1.00  0.00     0.000 A 
ENDBRANCH  58  72
BRANCH  59  78
ATOM     78  C   UNL A   1      39.044  32.119  35.444  1.00  0.00    -0.014 A 
ATOM     79  C   UNL A   1      38.383  31.371  36.431  1.00  0.00     0.009 A 
ATOM     80  C   UNL A   1      39.156  33.509  35.610  1.00  0.00     0.009 A 
ATOM     81  C   UNL A   1      37.825  32.005  37.544  1.00  0.00     0.001 A 
ATOM     82  C   UNL A   1      38.627  34.135  36.740  1.00  0.00     0.001 A 
ATOM     83  C   UNL A   1      37.952  33.385  37.700  1.00  0.00     0.000 A 
ENDBRANCH  59  78
BRANCH  71  84
ATOM     84  C   UNL A   1      44.968  28.673  34.180  1.00  0.00    -0.014 A 
ATOM     85  C   UNL A   1      45.101  27.457  34.867  1.00  0.00     0.009 A 
ATOM     86  C   UNL A   1      46.009  29.614  34.259  1.00  0.00     0.009 A 
ATOM     87  C   UNL A   1      46.233  27.206  35.647  1.00  0.00     0.001 A 
ATOM     88  C   UNL A   1      47.153  29.346  35.011  1.00  0.00     0.001 A 
ATOM     89  C   UNL A   1      47.260  28.148  35.714  1.00  0.00     0.000 A 
ENDBRANCH  71  84
ENDBRANCH  45  46
ENDBRANCH  38  40
ENDBRANCH  37  38
ENDBRANCH  36  37
ENDBRANCH  35  36
ENDBRANCH  34  35
ENDBRANCH  33  34
ENDBRANCH   1  33
TORSDOF 21
ENDMDL
MODEL 3
REMARK VINA RESULT:     -11.0      1.541      3.554
REMARK SMILES C[C@@H](C(=O)OCCOCCOC(=O)c1ccc(-c2c3nc(c(-c4ccccc4)c4ccc([nH]4)c(-c4ccccc4)c4nc(c(-c5ccccc5)c5ccc2[nH]5)C=C4)C=C3)cc1)c1ccc(-c2cccc(OC(=O)NCCC3CCCCC3)c2)c(F)c1
REMARK SMILES IDX 6 1 5 2 3 3 4 4 2 5 1 6 62 7 63 8 86 9 64 10 84 11 65 12
REMARK SMILES IDX 85 13 66 14 67 15 83 16 68 17 70 18 69 19 71 20 72 21 73 22
REMARK SMILES IDX 74 23 75 25 76 26 77 27 78 28 82 29 79 30 81 31 80 32 7 33
REMARK SMILES IDX 8 34 9 35 10 36 11 37 12 38 13 39 14 40 15 41 61 42 16 43
REMARK SMILES IDX 60 44 17 45 18 46 19 47 54 48 20 49 59 50 53 51 55 52 21 53
REMARK SMILES IDX 58 54 52 55 51 56 22 58 44 59 29 60 43 61 30 62 33 63 42 64
REMARK SMILES IDX 56 65 31 66 32 67 41 69 57 70 34 71 23 72 24 73 28 74 25 75
REMARK SMILES IDX 27 76 26 77 45 78 46 79 50 80 47 81 49 82 48 83 35 84 36 85
REMARK SMILES IDX 40 86 37 87 39 88 38 89
REMARK H PARENT 74 24 55 57 33 68
REMARK Flexibility Score: inf
ROOT
ATOM      1  C   UNL A   1      43.095  20.625  25.807  1.00  0.00     0.261 C 
ENDROOT
BRANCH   1   2
ATOM      2  O   UNL A   1      41.891  19.901  26.106  1.00  0.00    -0.463 OA
BRANCH   2   3
ATOM      3  C   UNL A   1      41.187  20.359  27.180  1.00  0.00     0.313 C 
ATOM      4  O   UNL A   1      40.781  19.636  28.084  1.00  0.00    -0.252 OA
BRANCH   3   5
ATOM      5  C   UNL A   1      40.976  21.886  27.159  1.00  0.00     0.126 C 
ATOM      6  C   UNL A   1      41.188  22.532  28.537  1.00  0.00     0.025 C 
BRANCH   5   7
ATOM      7  C   UNL A   1      39.669  22.285  26.457  1.00  0.00    -0.031 A 
ATOM      8  C   UNL A   1      39.185  23.603  26.393  1.00  0.00     0.005 A 
ATOM      9  C   UNL A   1      38.911  21.296  25.808  1.00  0.00     0.044 A 
ATOM     10  C   UNL A   1      37.977  23.908  25.739  1.00  0.00     0.012 A 
ATOM     11  C   UNL A   1      37.705  21.601  25.177  1.00  0.00     0.131 A 
ATOM     12  C   UNL A   1      37.207  22.907  25.132  1.00  0.00     0.018 A 
ATOM     13  F   UNL A   1      37.022  20.597  24.607  1.00  0.00    -0.206 F 
BRANCH  12  14
ATOM     14  C   UNL A   1      35.905  23.193  24.512  1.00  0.00    -0.012 A 
ATOM     15  C   UNL A   1      35.736  23.225  23.120  1.00  0.00     0.009 A 
ATOM     16  C   UNL A   1      34.782  23.423  25.327  1.00  0.00     0.056 A 
ATOM     17  C   UNL A   1      34.477  23.466  22.560  1.00  0.00     0.004 A 
ATOM     18  C   UNL A   1      33.532  23.686  24.770  1.00  0.00     0.133 A 
ATOM     19  C   UNL A   1      33.375  23.695  23.384  1.00  0.00     0.047 A 
BRANCH  18  20
ATOM     20  O   UNL A   1      32.360  23.947  25.524  1.00  0.00    -0.410 OA
BRANCH  20  21
ATOM     21  C   UNL A   1      31.983  23.254  26.672  1.00  0.00     0.412 C 
ATOM     22  O   UNL A   1      31.693  23.742  27.760  1.00  0.00    -0.224 OA
ATOM     23  N   UNL A   1      31.917  21.902  26.511  1.00  0.00    -0.321 N 
ATOM     24  H   UNL A   1      31.640  21.388  27.304  1.00  0.00     0.167 HD
BRANCH  23  25
ATOM     25  C   UNL A   1      32.203  21.124  25.325  1.00  0.00     0.119 C 
BRANCH  25  26
ATOM     26  C   UNL A   1      33.458  20.266  25.507  1.00  0.00     0.025 C 
BRANCH  26  27
ATOM     27  C   UNL A   1      33.729  19.267  24.360  1.00  0.00    -0.009 C 
ATOM     28  C   UNL A   1      34.646  18.113  24.801  1.00  0.00     0.003 C 
ATOM     29  C   UNL A   1      32.398  18.723  23.815  1.00  0.00     0.003 C 
ATOM     30  C   UNL A   1      34.841  17.077  23.694  1.00  0.00     0.000 C 
ATOM     31  C   UNL A   1      32.616  17.703  22.701  1.00  0.00     0.000 C 
ATOM     32  C   UNL A   1      33.511  16.558  23.162  1.00  0.00     0.000 C 
ENDBRANCH  26  27
ENDBRANCH  25  26
ENDBRANCH  23  25
ENDBRANCH  20  21
ENDBRANCH  18  20
ENDBRANCH  12  14
ENDBRANCH   5   7
ENDBRANCH   3   5
ENDBRANCH   2   3
ENDBRANCH   1   2
BRANCH   1  33
ATOM     33  C   UNL A   1      44.210  19.700  25.307  1.00  0.00     0.202 C 
BRANCH  33  34
ATOM     34  O   UNL A   1      45.105  20.203  24.321  1.00  0.00    -0.374 OA
BRANCH  34  35
ATOM     35  C   UNL A   1      44.834  21.481  23.747  1.00  0.00     0.202 C 
BRANCH  35  36
ATOM     36  C   UNL A   1      45.459  22.722  24.402  1.00  0.00     0.261 C 
BRANCH  36  37
ATOM     37  O   UNL A   1      44.522  23.795  24.616  1.00  0.00    -0.460 OA
BRANCH  37  38
ATOM     38  C   UNL A   1      45.087  24.969  24.993  1.00  0.00     0.338 C 
ATOM     39  O   UNL A   1      46.123  25.461  24.578  1.00  0.00    -0.246 OA
BRANCH  38  40
ATOM     40  C   UNL A   1      44.173  25.716  25.877  1.00  0.00     0.060 A 
ATOM     41  C   UNL A   1      44.365  27.101  25.986  1.00  0.00     0.016 A 
ATOM     42  C   UNL A   1      43.230  25.065  26.670  1.00  0.00     0.016 A 
ATOM     43  C   UNL A   1      43.640  27.835  26.921  1.00  0.00     0.010 A 
ATOM     44  C   UNL A   1      42.509  25.803  27.616  1.00  0.00     0.010 A 
ATOM     45  C   UNL A   1      42.738  27.183  27.771  1.00  0.00    -0.014 A 
BRANCH  45  46
ATOM     46  C   UNL A   1      42.143  27.924  28.911  1.00  0.00     0.031 A 
ATOM     47  C   UNL A   1      42.882  27.975  30.220  1.00  0.00     0.074 A 
ATOM     48  C   UNL A   1      40.975  28.575  28.771  1.00  0.00     0.049 A 
ATOM     49  N   UNL A   1      42.529  28.533  31.351  1.00  0.00    -0.248 NA
ATOM     50  C   UNL A   1      44.192  27.306  30.261  1.00  0.00     0.031 C 
ATOM     51  C   UNL A   1      40.188  28.647  27.541  1.00  0.00     0.029 A 
ATOM     52  N   UNL A   1      40.246  29.299  29.681  1.00  0.00    -0.354 N 
ATOM     53  C   UNL A   1      43.567  28.275  32.239  1.00  0.00     0.074 A 
ATOM     54  C   UNL A   1      44.545  27.482  31.527  1.00  0.00     0.031 C 
ATOM     55  C   UNL A   1      39.081  29.371  27.775  1.00  0.00     0.029 A 
ATOM     56  C   UNL A   1      39.061  29.778  29.179  1.00  0.00     0.049 A 
ATOM     57  H   UNL A   1      40.545  29.461  30.606  1.00  0.00     0.167 HD
ATOM     58  C   UNL A   1      43.697  28.668  33.528  1.00  0.00     0.031 A 
ATOM     59  C   UNL A   1      38.063  30.445  29.788  1.00  0.00     0.031 A 
ATOM     60  C   UNL A   1      42.716  29.443  34.241  1.00  0.00     0.049 A 
ATOM     61  C   UNL A   1      38.190  30.793  31.248  1.00  0.00     0.074 A 
ATOM     62  C   UNL A   1      42.760  29.898  35.547  1.00  0.00     0.029 A 
ATOM     63  N   UNL A   1      41.509  29.869  33.709  1.00  0.00    -0.354 N 
ATOM     64  N   UNL A   1      39.183  30.560  32.071  1.00  0.00    -0.248 NA
ATOM     65  C   UNL A   1      37.058  31.506  31.858  1.00  0.00     0.031 C 
ATOM     66  C   UNL A   1      41.550  30.544  35.826  1.00  0.00     0.029 A 
ATOM     67  C   UNL A   1      40.785  30.555  34.671  1.00  0.00     0.049 A 
ATOM     68  H   UNL A   1      41.210  29.708  32.785  1.00  0.00     0.167 HD
ATOM     69  C   UNL A   1      38.811  31.124  33.285  1.00  0.00     0.074 A 
ATOM     70  C   UNL A   1      37.507  31.724  33.086  1.00  0.00     0.031 C 
ATOM     71  C   UNL A   1      39.487  31.145  34.461  1.00  0.00     0.031 A 
BRANCH  58  72
ATOM     72  C   UNL A   1      44.933  28.228  34.266  1.00  0.00    -0.014 A 
ATOM     73  C   UNL A   1      45.003  26.976  34.901  1.00  0.00     0.009 A 
ATOM     74  C   UNL A   1      46.058  29.066  34.299  1.00  0.00     0.009 A 
ATOM     75  C   UNL A   1      46.159  26.593  35.585  1.00  0.00     0.001 A 
ATOM     76  C   UNL A   1      47.224  28.667  34.954  1.00  0.00     0.001 A 
ATOM     77  C   UNL A   1      47.270  27.436  35.605  1.00  0.00     0.000 A 
ENDBRANCH  58  72
BRANCH  59  78
ATOM     78  C   UNL A   1      36.837  30.805  29.027  1.00  0.00    -0.014 A 
ATOM     79  C   UNL A   1      35.870  29.835  28.720  1.00  0.00     0.009 A 
ATOM     80  C   UNL A   1      36.638  32.123  28.586  1.00  0.00     0.009 A 
ATOM     81  C   UNL A   1      34.743  30.173  27.966  1.00  0.00     0.001 A 
ATOM     82  C   UNL A   1      35.494  32.465  27.861  1.00  0.00     0.001 A 
ATOM     83  C   UNL A   1      34.554  31.488  27.543  1.00  0.00     0.000 A 
ENDBRANCH  59  78
BRANCH  71  84
ATOM     84  C   UNL A   1      38.852  31.877  35.612  1.00  0.00    -0.014 A 
ATOM     85  C   UNL A   1      38.164  31.195  36.628  1.00  0.00     0.009 A 
ATOM     86  C   UNL A   1      38.982  33.273  35.701  1.00  0.00     0.009 A 
ATOM     87  C   UNL A   1      37.588  31.900  37.688  1.00  0.00     0.001 A 
ATOM     88  C   UNL A   1      38.434  33.971  36.778  1.00  0.00     0.001 A 
ATOM     89  C   UNL A   1      37.728  33.285  37.765  1.00  0.00     0.000 A 
ENDBRANCH  71  84
ENDBRANCH  45  46
ENDBRANCH  38  40
ENDBRANCH  37  38
ENDBRANCH  36  37
ENDBRANCH  35  36
ENDBRANCH  34  35
ENDBRANCH  33  34
ENDBRANCH   1  33
TORSDOF 21
ENDMDL
