MODEL 1
REMARK VINA RESULT:     -11.3      0.000      0.000
REMARK SMILES C[C@@H](C(=O)OCCOCCOC(=O)c1ccc(-c2c3nc(c(-c4ccccc4)c4ccc([nH]4)c(-c4ccccc4)c4nc(c(-c5ccccc5)c5ccc2[nH]5)C=C4)C=C3)cc1)c1ccc(-c2cccc(OC(=O)Nc3ccccc3)c2)c(F)c1
REMARK SMILES IDX 6 1 5 2 3 3 4 4 2 5 1 6 62 7 63 8 84 9 64 10 82 11 65 12
REMARK SMILES IDX 83 13 66 14 67 15 81 16 68 17 70 18 69 19 71 20 72 21 73 22
REMARK SMILES IDX 74 23 75 25 76 26 80 27 77 28 79 29 78 30 7 31 8 32 9 33
REMARK SMILES IDX 10 34 11 35 12 36 13 37 14 38 15 39 61 40 16 41 60 42 17 43
REMARK SMILES IDX 18 44 19 45 54 46 20 47 59 48 53 49 55 50 21 51 58 52 52 53
REMARK SMILES IDX 51 54 22 56 44 57 29 58 43 59 30 60 33 61 42 62 56 63 31 64
REMARK SMILES IDX 32 65 41 67 57 68 34 69 23 70 24 71 28 72 25 73 27 74 26 75
REMARK SMILES IDX 45 76 46 77 50 78 47 79 49 80 48 81 35 82 36 83 40 84 37 85
REMARK SMILES IDX 39 86 38 87
REMARK H PARENT 74 24 55 55 33 66
REMARK Flexibility Score: inf
ROOT
ATOM      1  C   UNL A   1      36.090  20.430  25.001  1.00  0.00     0.261 C 
ENDROOT
BRANCH   1   2
ATOM      2  O   UNL A   1      34.658  20.327  25.053  1.00  0.00    -0.463 OA
BRANCH   2   3
ATOM      3  C   UNL A   1      34.140  19.141  24.627  1.00  0.00     0.313 C 
ATOM      4  O   UNL A   1      34.765  18.085  24.622  1.00  0.00    -0.252 OA
BRANCH   3   5
ATOM      5  C   UNL A   1      32.668  19.250  24.193  1.00  0.00     0.126 C 
ATOM      6  C   UNL A   1      32.339  18.340  23.001  1.00  0.00     0.025 C 
BRANCH   5   7
ATOM      7  C   UNL A   1      32.214  20.707  24.044  1.00  0.00    -0.031 A 
ATOM      8  C   UNL A   1      32.176  21.396  22.820  1.00  0.00     0.005 A 
ATOM      9  C   UNL A   1      31.779  21.403  25.184  1.00  0.00     0.044 A 
ATOM     10  C   UNL A   1      31.754  22.737  22.750  1.00  0.00     0.012 A 
ATOM     11  C   UNL A   1      31.375  22.736  25.110  1.00  0.00     0.131 A 
ATOM     12  C   UNL A   1      31.361  23.436  23.899  1.00  0.00     0.018 A 
ATOM     13  F   UNL A   1      30.993  23.342  26.245  1.00  0.00    -0.206 F 
BRANCH  12  14
ATOM     14  C   UNL A   1      30.987  24.858  23.856  1.00  0.00    -0.012 A 
ATOM     15  C   UNL A   1      29.829  25.337  24.489  1.00  0.00     0.009 A 
ATOM     16  C   UNL A   1      31.812  25.779  23.185  1.00  0.00     0.056 A 
ATOM     17  C   UNL A   1      29.512  26.700  24.465  1.00  0.00     0.004 A 
ATOM     18  C   UNL A   1      31.486  27.132  23.147  1.00  0.00     0.133 A 
ATOM     19  C   UNL A   1      30.341  27.598  23.795  1.00  0.00     0.047 A 
BRANCH  18  20
ATOM     20  O   UNL A   1      32.244  28.124  22.475  1.00  0.00    -0.410 OA
BRANCH  20  21
ATOM     21  C   UNL A   1      33.625  28.298  22.559  1.00  0.00     0.417 C 
ATOM     22  O   UNL A   1      34.416  28.202  21.625  1.00  0.00    -0.224 OA
ATOM     23  N   UNL A   1      34.082  28.719  23.781  1.00  0.00    -0.291 N 
ATOM     24  H   UNL A   1      35.032  28.975  23.796  1.00  0.00     0.173 HD
BRANCH  23  25
ATOM     25  C   UNL A   1      33.426  28.847  25.013  1.00  0.00     0.044 A 
ATOM     26  C   UNL A   1      33.535  27.771  25.903  1.00  0.00     0.026 A 
ATOM     27  C   UNL A   1      32.655  29.953  25.378  1.00  0.00     0.026 A 
ATOM     28  C   UNL A   1      32.924  27.820  27.157  1.00  0.00     0.002 A 
ATOM     29  C   UNL A   1      32.025  29.992  26.626  1.00  0.00     0.002 A 
ATOM     30  C   UNL A   1      32.169  28.931  27.519  1.00  0.00     0.000 A 
ENDBRANCH  23  25
ENDBRANCH  20  21
ENDBRANCH  18  20
ENDBRANCH  12  14
ENDBRANCH   5   7
ENDBRANCH   3   5
ENDBRANCH   2   3
ENDBRANCH   1   2
BRANCH   1  31
ATOM     31  C   UNL A   1      36.530  21.796  24.465  1.00  0.00     0.202 C 
BRANCH  31  32
ATOM     32  O   UNL A   1      37.874  22.189  24.730  1.00  0.00    -0.374 OA
BRANCH  32  33
ATOM     33  C   UNL A   1      38.577  21.513  25.773  1.00  0.00     0.202 C 
BRANCH  33  34
ATOM     34  C   UNL A   1      39.388  20.270  25.379  1.00  0.00     0.261 C 
BRANCH  34  35
ATOM     35  O   UNL A   1      40.302  19.845  26.410  1.00  0.00    -0.460 OA
BRANCH  35  36
ATOM     36  C   UNL A   1      41.614  19.957  26.082  1.00  0.00     0.338 C 
ATOM     37  O   UNL A   1      42.269  19.208  25.377  1.00  0.00    -0.246 OA
BRANCH  36  38
ATOM     38  C   UNL A   1      42.154  21.245  26.558  1.00  0.00     0.060 A 
ATOM     39  C   UNL A   1      42.082  21.510  27.931  1.00  0.00     0.016 A 
ATOM     40  C   UNL A   1      42.616  22.217  25.670  1.00  0.00     0.016 A 
ATOM     41  C   UNL A   1      42.431  22.767  28.420  1.00  0.00     0.010 A 
ATOM     42  C   UNL A   1      42.956  23.483  26.162  1.00  0.00     0.010 A 
ATOM     43  C   UNL A   1      42.832  23.775  27.533  1.00  0.00    -0.014 A 
BRANCH  43  44
ATOM     44  C   UNL A   1      42.974  25.166  28.027  1.00  0.00     0.031 A 
ATOM     45  C   UNL A   1      44.341  25.679  28.393  1.00  0.00     0.074 A 
ATOM     46  C   UNL A   1      41.907  25.980  28.112  1.00  0.00     0.049 A 
ATOM     47  N   UNL A   1      44.689  26.852  28.858  1.00  0.00    -0.248 NA
ATOM     48  C   UNL A   1      45.463  24.745  28.209  1.00  0.00     0.031 C 
ATOM     49  C   UNL A   1      40.539  25.623  27.742  1.00  0.00     0.029 A 
ATOM     50  N   UNL A   1      41.813  27.281  28.540  1.00  0.00    -0.354 N 
ATOM     51  C   UNL A   1      46.068  26.796  29.026  1.00  0.00     0.074 A 
ATOM     52  C   UNL A   1      46.487  25.464  28.643  1.00  0.00     0.031 C 
ATOM     53  C   UNL A   1      39.738  26.680  27.965  1.00  0.00     0.029 A 
ATOM     54  C   UNL A   1      40.531  27.773  28.523  1.00  0.00     0.049 A 
ATOM     55  H   UNL A   1      42.590  27.810  28.831  1.00  0.00     0.167 HD
ATOM     56  C   UNL A   1      46.911  27.765  29.454  1.00  0.00     0.031 A 
ATOM     57  C   UNL A   1      40.050  28.963  28.932  1.00  0.00     0.031 A 
ATOM     58  C   UNL A   1      46.497  29.085  29.850  1.00  0.00     0.049 A 
ATOM     59  C   UNL A   1      40.995  29.997  29.481  1.00  0.00     0.074 A 
ATOM     60  C   UNL A   1      47.278  30.139  30.291  1.00  0.00     0.029 A 
ATOM     61  N   UNL A   1      45.184  29.528  29.861  1.00  0.00    -0.354 N 
ATOM     62  N   UNL A   1      42.298  29.937  29.618  1.00  0.00    -0.248 NA
ATOM     63  C   UNL A   1      40.401  31.266  29.927  1.00  0.00     0.031 C 
ATOM     64  C   UNL A   1      46.431  31.203  30.620  1.00  0.00     0.029 A 
ATOM     65  C   UNL A   1      45.129  30.831  30.327  1.00  0.00     0.049 A 
ATOM     66  H   UNL A   1      44.405  28.996  29.579  1.00  0.00     0.167 HD
ATOM     67  C   UNL A   1      42.682  31.167  30.137  1.00  0.00     0.074 A 
ATOM     68  C   UNL A   1      41.476  31.958  30.279  1.00  0.00     0.031 C 
ATOM     69  C   UNL A   1      43.922  31.605  30.467  1.00  0.00     0.031 A 
BRANCH  56  70
ATOM     70  C   UNL A   1      48.370  27.418  29.547  1.00  0.00    -0.014 A 
ATOM     71  C   UNL A   1      48.911  26.840  30.708  1.00  0.00     0.009 A 
ATOM     72  C   UNL A   1      49.212  27.645  28.447  1.00  0.00     0.009 A 
ATOM     73  C   UNL A   1      50.271  26.530  30.776  1.00  0.00     0.001 A 
ATOM     74  C   UNL A   1      50.565  27.310  28.508  1.00  0.00     0.001 A 
ATOM     75  C   UNL A   1      51.096  26.761  29.675  1.00  0.00     0.000 A 
ENDBRANCH  56  70
BRANCH  57  76
ATOM     76  C   UNL A   1      38.591  29.237  28.859  1.00  0.00    -0.014 A 
ATOM     77  C   UNL A   1      38.002  29.689  27.669  1.00  0.00     0.009 A 
ATOM     78  C   UNL A   1      37.781  29.062  29.993  1.00  0.00     0.009 A 
ATOM     79  C   UNL A   1      36.636  29.982  27.623  1.00  0.00     0.001 A 
ATOM     80  C   UNL A   1      36.411  29.327  29.936  1.00  0.00     0.001 A 
ATOM     81  C   UNL A   1      35.843  29.796  28.753  1.00  0.00     0.000 A 
ENDBRANCH  57  76
BRANCH  69  82
ATOM     82  C   UNL A   1      44.045  33.013  30.979  1.00  0.00    -0.014 A 
ATOM     83  C   UNL A   1      43.957  33.302  32.349  1.00  0.00     0.009 A 
ATOM     84  C   UNL A   1      44.296  34.060  30.078  1.00  0.00     0.009 A 
ATOM     85  C   UNL A   1      44.084  34.616  32.804  1.00  0.00     0.001 A 
ATOM     86  C   UNL A   1      44.452  35.369  30.538  1.00  0.00     0.001 A 
ATOM     87  C   UNL A   1      44.336  35.647  31.898  1.00  0.00     0.000 A 
ENDBRANCH  69  82
ENDBRANCH  43  44
ENDBRANCH  36  38
ENDBRANCH  35  36
ENDBRANCH  34  35
ENDBRANCH  33  34
ENDBRANCH  32  33
ENDBRANCH  31  32
ENDBRANCH   1  31
TORSDOF 19
ENDMDL
MODEL 2
REMARK VINA RESULT:     -11.2      3.315      9.435
REMARK SMILES C[C@@H](C(=O)OCCOCCOC(=O)c1ccc(-c2c3nc(c(-c4ccccc4)c4ccc([nH]4)c(-c4ccccc4)c4nc(c(-c5ccccc5)c5ccc2[nH]5)C=C4)C=C3)cc1)c1ccc(-c2cccc(OC(=O)Nc3ccccc3)c2)c(F)c1
REMARK SMILES IDX 6 1 5 2 3 3 4 4 2 5 1 6 62 7 63 8 84 9 64 10 82 11 65 12
REMARK SMILES IDX 83 13 66 14 67 15 81 16 68 17 70 18 69 19 71 20 72 21 73 22
REMARK SMILES IDX 74 23 75 25 76 26 80 27 77 28 79 29 78 30 7 31 8 32 9 33
REMARK SMILES IDX 10 34 11 35 12 36 13 37 14 38 15 39 61 40 16 41 60 42 17 43
REMARK SMILES IDX 18 44 19 45 54 46 20 47 59 48 53 49 55 50 21 51 58 52 52 53
REMARK SMILES IDX 51 54 22 56 44 57 29 58 43 59 30 60 33 61 42 62 56 63 31 64
REMARK SMILES IDX 32 65 41 67 57 68 34 69 23 70 24 71 28 72 25 73 27 74 26 75
REMARK SMILES IDX 45 76 46 77 50 78 47 79 49 80 48 81 35 82 36 83 40 84 37 85
REMARK SMILES IDX 39 86 38 87
REMARK H PARENT 74 24 55 55 33 66
REMARK Flexibility Score: inf
ROOT
ATOM      1  C   UNL A   1      31.236  27.777  25.851  1.00  0.00     0.261 C 
ENDROOT
BRANCH   1   2
ATOM      2  O   UNL A   1      31.761  26.512  26.282  1.00  0.00    -0.463 OA
BRANCH   2   3
ATOM      3  C   UNL A   1      31.925  25.580  25.302  1.00  0.00     0.313 C 
ATOM      4  O   UNL A   1      31.113  24.692  25.061  1.00  0.00    -0.252 OA
BRANCH   3   5
ATOM      5  C   UNL A   1      33.216  25.782  24.490  1.00  0.00     0.126 C 
ATOM      6  C   UNL A   1      32.938  26.105  23.016  1.00  0.00     0.025 C 
BRANCH   5   7
ATOM      7  C   UNL A   1      34.232  24.658  24.730  1.00  0.00    -0.031 A 
ATOM      8  C   UNL A   1      34.480  24.079  25.986  1.00  0.00     0.005 A 
ATOM      9  C   UNL A   1      34.946  24.143  23.636  1.00  0.00     0.044 A 
ATOM     10  C   UNL A   1      35.430  23.053  26.142  1.00  0.00     0.012 A 
ATOM     11  C   UNL A   1      35.896  23.135  23.798  1.00  0.00     0.131 A 
ATOM     12  C   UNL A   1      36.168  22.574  25.050  1.00  0.00     0.018 A 
ATOM     13  F   UNL A   1      36.555  22.709  22.710  1.00  0.00    -0.206 F 
BRANCH  12  14
ATOM     14  C   UNL A   1      37.216  21.554  25.206  1.00  0.00    -0.012 A 
ATOM     15  C   UNL A   1      37.002  20.214  24.848  1.00  0.00     0.009 A 
ATOM     16  C   UNL A   1      38.480  21.919  25.707  1.00  0.00     0.056 A 
ATOM     17  C   UNL A   1      38.026  19.268  24.971  1.00  0.00     0.004 A 
ATOM     18  C   UNL A   1      39.492  20.973  25.846  1.00  0.00     0.133 A 
ATOM     19  C   UNL A   1      39.271  19.647  25.469  1.00  0.00     0.047 A 
BRANCH  18  20
ATOM     20  O   UNL A   1      40.783  21.246  26.363  1.00  0.00    -0.410 OA
BRANCH  20  21
ATOM     21  C   UNL A   1      41.277  20.830  27.599  1.00  0.00     0.417 C 
ATOM     22  O   UNL A   1      40.829  19.908  28.274  1.00  0.00    -0.224 OA
ATOM     23  N   UNL A   1      42.426  21.458  28.004  1.00  0.00    -0.291 N 
ATOM     24  H   UNL A   1      42.846  21.066  28.803  1.00  0.00     0.173 HD
BRANCH  23  25
ATOM     25  C   UNL A   1      43.105  22.564  27.474  1.00  0.00     0.044 A 
ATOM     26  C   UNL A   1      43.345  23.636  28.344  1.00  0.00     0.026 A 
ATOM     27  C   UNL A   1      43.513  22.667  26.143  1.00  0.00     0.026 A 
ATOM     28  C   UNL A   1      44.026  24.771  27.903  1.00  0.00     0.002 A 
ATOM     29  C   UNL A   1      44.176  23.815  25.696  1.00  0.00     0.002 A 
ATOM     30  C   UNL A   1      44.442  24.861  26.578  1.00  0.00     0.000 A 
ENDBRANCH  23  25
ENDBRANCH  20  21
ENDBRANCH  18  20
ENDBRANCH  12  14
ENDBRANCH   5   7
ENDBRANCH   3   5
ENDBRANCH   2   3
ENDBRANCH   1   2
BRANCH   1  31
ATOM     31  C   UNL A   1      31.957  28.943  26.536  1.00  0.00     0.202 C 
BRANCH  31  32
ATOM     32  O   UNL A   1      31.912  30.205  25.876  1.00  0.00    -0.374 OA
BRANCH  32  33
ATOM     33  C   UNL A   1      31.462  31.336  26.622  1.00  0.00     0.202 C 
BRANCH  33  34
ATOM     34  C   UNL A   1      32.471  32.470  26.853  1.00  0.00     0.261 C 
BRANCH  34  35
ATOM     35  O   UNL A   1      32.002  33.457  27.793  1.00  0.00    -0.460 OA
BRANCH  35  36
ATOM     36  C   UNL A   1      32.958  34.311  28.237  1.00  0.00     0.338 C 
ATOM     37  O   UNL A   1      32.832  35.497  28.495  1.00  0.00    -0.246 OA
BRANCH  36  38
ATOM     38  C   UNL A   1      34.197  33.576  28.555  1.00  0.00     0.060 A 
ATOM     39  C   UNL A   1      34.143  32.628  29.584  1.00  0.00     0.016 A 
ATOM     40  C   UNL A   1      35.411  33.886  27.940  1.00  0.00     0.016 A 
ATOM     41  C   UNL A   1      35.310  32.016  30.035  1.00  0.00     0.010 A 
ATOM     42  C   UNL A   1      36.585  33.278  28.401  1.00  0.00     0.010 A 
ATOM     43  C   UNL A   1      36.544  32.367  29.472  1.00  0.00    -0.014 A 
BRANCH  43  44
ATOM     44  C   UNL A   1      37.797  31.892  30.109  1.00  0.00     0.031 A 
ATOM     45  C   UNL A   1      38.465  30.651  29.580  1.00  0.00     0.074 A 
ATOM     46  C   UNL A   1      38.359  32.577  31.121  1.00  0.00     0.049 A 
ATOM     47  N   UNL A   1      39.553  30.054  29.995  1.00  0.00    -0.248 NA
ATOM     48  C   UNL A   1      37.820  29.999  28.430  1.00  0.00     0.031 C 
ATOM     49  C   UNL A   1      37.842  33.819  31.693  1.00  0.00     0.029 A 
ATOM     50  N   UNL A   1      39.495  32.318  31.847  1.00  0.00    -0.354 N 
ATOM     51  C   UNL A   1      39.720  28.955  29.161  1.00  0.00     0.074 A 
ATOM     52  C   UNL A   1      38.606  28.951  28.238  1.00  0.00     0.031 C 
ATOM     53  C   UNL A   1      38.656  34.212  32.687  1.00  0.00     0.029 A 
ATOM     54  C   UNL A   1      39.730  33.234  32.842  1.00  0.00     0.049 A 
ATOM     55  H   UNL A   1      40.084  31.550  31.670  1.00  0.00     0.167 HD
ATOM     56  C   UNL A   1      40.714  28.035  29.159  1.00  0.00     0.031 A 
ATOM     57  C   UNL A   1      40.692  33.267  33.785  1.00  0.00     0.031 A 
ATOM     58  C   UNL A   1      41.815  28.027  30.085  1.00  0.00     0.049 A 
ATOM     59  C   UNL A   1      41.740  32.188  33.815  1.00  0.00     0.074 A 
ATOM     60  C   UNL A   1      42.875  27.140  30.157  1.00  0.00     0.029 A 
ATOM     61  N   UNL A   1      41.992  28.946  31.107  1.00  0.00    -0.354 N 
ATOM     62  N   UNL A   1      41.897  31.165  33.009  1.00  0.00    -0.248 NA
ATOM     63  C   UNL A   1      42.748  32.273  34.882  1.00  0.00     0.031 C 
ATOM     64  C   UNL A   1      43.665  27.491  31.257  1.00  0.00     0.029 A 
ATOM     65  C   UNL A   1      43.129  28.632  31.832  1.00  0.00     0.049 A 
ATOM     66  H   UNL A   1      41.398  29.709  31.290  1.00  0.00     0.167 HD
ATOM     67  C   UNL A   1      43.035  30.502  33.454  1.00  0.00     0.074 A 
ATOM     68  C   UNL A   1      43.536  31.246  34.592  1.00  0.00     0.031 C 
ATOM     69  C   UNL A   1      43.614  29.379  32.964  1.00  0.00     0.031 A 
BRANCH  56  70
ATOM     70  C   UNL A   1      40.634  26.936  28.136  1.00  0.00    -0.014 A 
ATOM     71  C   UNL A   1      41.193  27.087  26.857  1.00  0.00     0.009 A 
ATOM     72  C   UNL A   1      40.014  25.721  28.467  1.00  0.00     0.009 A 
ATOM     73  C   UNL A   1      41.103  26.055  25.920  1.00  0.00     0.001 A 
ATOM     74  C   UNL A   1      39.948  24.682  27.538  1.00  0.00     0.001 A 
ATOM     75  C   UNL A   1      40.485  24.853  26.262  1.00  0.00     0.000 A 
ENDBRANCH  56  70
BRANCH  57  76
ATOM     76  C   UNL A   1      40.697  34.353  34.801  1.00  0.00    -0.014 A 
ATOM     77  C   UNL A   1      39.945  34.240  35.979  1.00  0.00     0.009 A 
ATOM     78  C   UNL A   1      41.447  35.520  34.584  1.00  0.00     0.009 A 
ATOM     79  C   UNL A   1      39.925  35.283  36.908  1.00  0.00     0.001 A 
ATOM     80  C   UNL A   1      41.449  36.549  35.528  1.00  0.00     0.001 A 
ATOM     81  C   UNL A   1      40.680  36.433  36.685  1.00  0.00     0.000 A 
ENDBRANCH  57  76
BRANCH  69  82
ATOM     82  C   UNL A   1      44.875  28.904  33.632  1.00  0.00    -0.014 A 
ATOM     83  C   UNL A   1      44.841  27.970  34.677  1.00  0.00     0.009 A 
ATOM     84  C   UNL A   1      46.119  29.370  33.175  1.00  0.00     0.009 A 
ATOM     85  C   UNL A   1      46.026  27.535  35.276  1.00  0.00     0.001 A 
ATOM     86  C   UNL A   1      47.304  28.911  33.756  1.00  0.00     0.001 A 
ATOM     87  C   UNL A   1      47.255  28.003  34.811  1.00  0.00     0.000 A 
ENDBRANCH  69  82
ENDBRANCH  43  44
ENDBRANCH  36  38
ENDBRANCH  35  36
ENDBRANCH  34  35
ENDBRANCH  33  34
ENDBRANCH  32  33
ENDBRANCH  31  32
ENDBRANCH   1  31
TORSDOF 19
ENDMDL
MODEL 3
REMARK VINA RESULT:     -10.8      6.134     12.754
REMARK SMILES C[C@@H](C(=O)OCCOCCOC(=O)c1ccc(-c2c3nc(c(-c4ccccc4)c4ccc([nH]4)c(-c4ccccc4)c4nc(c(-c5ccccc5)c5ccc2[nH]5)C=C4)C=C3)cc1)c1ccc(-c2cccc(OC(=O)Nc3ccccc3)c2)c(F)c1
REMARK SMILES IDX 6 1 5 2 3 3 4 4 2 5 1 6 62 7 63 8 84 9 64 10 82 11 65 12
REMARK SMILES IDX 83 13 66 14 67 15 81 16 68 17 70 18 69 19 71 20 72 21 73 22
REMARK SMILES IDX 74 23 75 25 76 26 80 27 77 28 79 29 78 30 7 31 8 32 9 33
REMARK SMILES IDX 10 34 11 35 12 36 13 37 14 38 15 39 61 40 16 41 60 42 17 43
REMARK SMILES IDX 18 44 19 45 54 46 20 47 59 48 53 49 55 50 21 51 58 52 52 53
REMARK SMILES IDX 51 54 22 56 44 57 29 58 43 59 30 60 33 61 42 62 56 63 31 64
REMARK SMILES IDX 32 65 41 67 57 68 34 69 23 70 24 71 28 72 25 73 27 74 26 75
REMARK SMILES IDX 45 76 46 77 50 78 47 79 49 80 48 81 35 82 36 83 40 84 37 85
REMARK SMILES IDX 39 86 38 87
REMARK H PARENT 74 24 55 55 33 66
REMARK Flexibility Score: inf
ROOT
ATOM      1  C   UNL A   1      34.513  35.954  33.171  1.00  0.00     0.261 C 
ENDROOT
BRANCH   1   2
ATOM      2  O   UNL A   1      35.091  34.652  32.991  1.00  0.00    -0.463 OA
BRANCH   2   3
ATOM      3  C   UNL A   1      36.275  34.442  33.630  1.00  0.00     0.313 C 
ATOM      4  O   UNL A   1      37.318  35.023  33.345  1.00  0.00    -0.252 OA
BRANCH   3   5
ATOM      5  C   UNL A   1      36.165  33.431  34.784  1.00  0.00     0.126 C 
ATOM      6  C   UNL A   1      35.676  34.078  36.087  1.00  0.00     0.025 C 
BRANCH   5   7
ATOM      7  C   UNL A   1      37.424  32.567  34.919  1.00  0.00    -0.031 A 
ATOM      8  C   UNL A   1      37.755  31.519  34.043  1.00  0.00     0.005 A 
ATOM      9  C   UNL A   1      38.329  32.841  35.958  1.00  0.00     0.044 A 
ATOM     10  C   UNL A   1      38.925  30.758  34.223  1.00  0.00     0.012 A 
ATOM     11  C   UNL A   1      39.480  32.075  36.140  1.00  0.00     0.131 A 
ATOM     12  C   UNL A   1      39.801  31.013  35.288  1.00  0.00     0.018 A 
ATOM     13  F   UNL A   1      40.286  32.382  37.168  1.00  0.00    -0.206 F 
BRANCH  12  14
ATOM     14  C   UNL A   1      40.989  30.182  35.535  1.00  0.00    -0.012 A 
ATOM     15  C   UNL A   1      42.104  30.675  36.231  1.00  0.00     0.009 A 
ATOM     16  C   UNL A   1      41.017  28.849  35.086  1.00  0.00     0.056 A 
ATOM     17  C   UNL A   1      43.208  29.855  36.486  1.00  0.00     0.004 A 
ATOM     18  C   UNL A   1      42.124  28.039  35.325  1.00  0.00     0.133 A 
ATOM     19  C   UNL A   1      43.219  28.537  36.034  1.00  0.00     0.047 A 
BRANCH  18  20
ATOM     20  O   UNL A   1      42.248  26.696  34.889  1.00  0.00    -0.410 OA
BRANCH  20  21
ATOM     21  C   UNL A   1      41.590  25.593  35.433  1.00  0.00     0.417 C 
ATOM     22  O   UNL A   1      40.462  25.601  35.917  1.00  0.00    -0.224 OA
ATOM     23  N   UNL A   1      42.250  24.399  35.296  1.00  0.00    -0.291 N 
ATOM     24  H   UNL A   1      41.723  23.609  35.553  1.00  0.00     0.173 HD
BRANCH  23  25
ATOM     25  C   UNL A   1      43.548  24.113  34.851  1.00  0.00     0.044 A 
ATOM     26  C   UNL A   1      44.487  23.757  35.827  1.00  0.00     0.026 A 
ATOM     27  C   UNL A   1      43.955  24.199  33.518  1.00  0.00     0.026 A 
ATOM     28  C   UNL A   1      45.800  23.442  35.472  1.00  0.00     0.002 A 
ATOM     29  C   UNL A   1      45.277  23.906  33.165  1.00  0.00     0.002 A 
ATOM     30  C   UNL A   1      46.195  23.517  34.139  1.00  0.00     0.000 A 
ENDBRANCH  23  25
ENDBRANCH  20  21
ENDBRANCH  18  20
ENDBRANCH  12  14
ENDBRANCH   5   7
ENDBRANCH   3   5
ENDBRANCH   2   3
ENDBRANCH   1   2
BRANCH   1  31
ATOM     31  C   UNL A   1      33.069  35.999  32.661  1.00  0.00     0.202 C 
BRANCH  31  32
ATOM     32  O   UNL A   1      32.765  36.979  31.672  1.00  0.00    -0.374 OA
BRANCH  32  33
ATOM     33  C   UNL A   1      33.263  36.773  30.350  1.00  0.00     0.202 C 
BRANCH  33  34
ATOM     34  C   UNL A   1      32.804  35.503  29.619  1.00  0.00     0.261 C 
BRANCH  34  35
ATOM     35  O   UNL A   1      33.660  35.151  28.513  1.00  0.00    -0.460 OA
BRANCH  35  36
ATOM     36  C   UNL A   1      33.912  33.823  28.396  1.00  0.00     0.338 C 
ATOM     37  O   UNL A   1      33.296  33.006  27.732  1.00  0.00    -0.246 OA
BRANCH  36  38
ATOM     38  C   UNL A   1      35.183  33.480  29.062  1.00  0.00     0.060 A 
ATOM     39  C   UNL A   1      36.371  33.847  28.417  1.00  0.00     0.016 A 
ATOM     40  C   UNL A   1      35.216  32.719  30.231  1.00  0.00     0.016 A 
ATOM     41  C   UNL A   1      37.599  33.416  28.915  1.00  0.00     0.010 A 
ATOM     42  C   UNL A   1      36.450  32.278  30.724  1.00  0.00     0.010 A 
ATOM     43  C   UNL A   1      37.643  32.595  30.050  1.00  0.00    -0.014 A 
BRANCH  43  44
ATOM     44  C   UNL A   1      38.923  31.952  30.434  1.00  0.00     0.031 A 
ATOM     45  C   UNL A   1      39.269  30.604  29.859  1.00  0.00     0.074 A 
ATOM     46  C   UNL A   1      39.790  32.574  31.253  1.00  0.00     0.049 A 
ATOM     47  N   UNL A   1      40.324  29.858  30.071  1.00  0.00    -0.248 NA
ATOM     48  C   UNL A   1      38.297  30.022  28.920  1.00  0.00     0.031 C 
ATOM     49  C   UNL A   1      39.598  33.900  31.837  1.00  0.00     0.029 A 
ATOM     50  N   UNL A   1      41.008  32.166  31.734  1.00  0.00    -0.354 N 
ATOM     51  C   UNL A   1      40.141  28.719  29.297  1.00  0.00     0.074 A 
ATOM     52  C   UNL A   1      38.861  28.858  28.636  1.00  0.00     0.031 C 
ATOM     53  C   UNL A   1      40.661  34.195  32.605  1.00  0.00     0.029 A 
ATOM     54  C   UNL A   1      41.590  33.067  32.592  1.00  0.00     0.049 A 
ATOM     55  H   UNL A   1      41.426  31.309  31.488  1.00  0.00     0.167 HD
ATOM     56  C   UNL A   1      40.964  27.655  29.143  1.00  0.00     0.031 A 
ATOM     57  C   UNL A   1      42.731  32.981  33.302  1.00  0.00     0.031 A 
ATOM     58  C   UNL A   1      42.231  27.506  29.811  1.00  0.00     0.049 A 
ATOM     59  C   UNL A   1      43.592  31.752  33.179  1.00  0.00     0.074 A 
ATOM     60  C   UNL A   1      43.141  26.467  29.714  1.00  0.00     0.029 A 
ATOM     61  N   UNL A   1      42.762  28.421  30.706  1.00  0.00    -0.354 N 
ATOM     62  N   UNL A   1      43.415  30.691  32.430  1.00  0.00    -0.248 NA
ATOM     63  C   UNL A   1      44.813  31.715  33.997  1.00  0.00     0.031 C 
ATOM     64  C   UNL A   1      44.197  26.728  30.592  1.00  0.00     0.029 A 
ATOM     65  C   UNL A   1      43.974  27.958  31.190  1.00  0.00     0.049 A 
ATOM     66  H   UNL A   1      42.341  29.273  30.960  1.00  0.00     0.167 HD
ATOM     67  C   UNL A   1      44.515  29.874  32.664  1.00  0.00     0.074 A 
ATOM     68  C   UNL A   1      45.359  30.569  33.615  1.00  0.00     0.031 C 
ATOM     69  C   UNL A   1      44.801  28.658  32.139  1.00  0.00     0.031 A 
BRANCH  56  70
ATOM     70  C   UNL A   1      40.500  26.548  28.238  1.00  0.00    -0.014 A 
ATOM     71  C   UNL A   1      39.583  25.581  28.679  1.00  0.00     0.009 A 
ATOM     72  C   UNL A   1      40.966  26.489  26.916  1.00  0.00     0.009 A 
ATOM     73  C   UNL A   1      39.169  24.557  27.824  1.00  0.00     0.001 A 
ATOM     74  C   UNL A   1      40.530  25.481  26.055  1.00  0.00     0.001 A 
ATOM     75  C   UNL A   1      39.639  24.511  26.512  1.00  0.00     0.000 A 
ENDBRANCH  56  70
BRANCH  57  76
ATOM     76  C   UNL A   1      43.119  34.086  34.217  1.00  0.00    -0.014 A 
ATOM     77  C   UNL A   1      42.610  34.153  35.522  1.00  0.00     0.009 A 
ATOM     78  C   UNL A   1      43.994  35.094  33.778  1.00  0.00     0.009 A 
ATOM     79  C   UNL A   1      42.950  35.218  36.360  1.00  0.00     0.001 A 
ATOM     80  C   UNL A   1      44.354  36.142  34.627  1.00  0.00     0.001 A 
ATOM     81  C   UNL A   1      43.825  36.207  35.915  1.00  0.00     0.000 A 
ENDBRANCH  57  76
BRANCH  69  82
ATOM     82  C   UNL A   1      46.097  28.015  32.551  1.00  0.00    -0.014 A 
ATOM     83  C   UNL A   1      47.231  28.066  31.727  1.00  0.00     0.009 A 
ATOM     84  C   UNL A   1      46.192  27.385  33.802  1.00  0.00     0.009 A 
ATOM     85  C   UNL A   1      48.428  27.470  32.135  1.00  0.00     0.001 A 
ATOM     86  C   UNL A   1      47.397  26.816  34.219  1.00  0.00     0.001 A 
ATOM     87  C   UNL A   1      48.510  26.850  33.382  1.00  0.00     0.000 A 
ENDBRANCH  69  82
ENDBRANCH  43  44
ENDBRANCH  36  38
ENDBRANCH  35  36
ENDBRANCH  34  35
ENDBRANCH  33  34
ENDBRANCH  32  33
ENDBRANCH  31  32
ENDBRANCH   1  31
TORSDOF 19
ENDMDL
