MODEL 1
REMARK VINA RESULT:      -9.1      0.000      0.000
REMARK SMILES CC(C)Cc1ccc([C@H](C)C(=O)OCCOCCOC(=O)c2ccc(-c3c4nc(c(-c5ccccc5)c5ccc([nH]5)c(-c5ccccc5)c5nc(c(-c6ccccc6)c6ccc3[nH]6)C=C5)C=C4)cc2)cc1
REMARK SMILES IDX 15 1 14 2 13 3 11 4 12 5 9 6 10 7 8 8 5 9 6 10 71 11 7 12
REMARK SMILES IDX 70 13 4 14 2 15 1 16 3 17 16 18 17 19 18 20 19 21 20 22
REMARK SMILES IDX 21 23 22 24 23 25 69 26 24 27 68 28 25 29 26 30 27 31 62 32
REMARK SMILES IDX 28 33 67 34 61 35 63 36 29 37 66 38 60 39 59 40 30 42 52 43
REMARK SMILES IDX 37 44 51 45 38 46 41 47 50 48 64 49 39 50 40 51 49 53 65 54
REMARK SMILES IDX 42 55 31 56 32 57 36 58 33 59 35 60 34 61 53 62 54 63 58 64
REMARK SMILES IDX 55 65 57 66 56 67 43 68 44 69 48 70 45 71 47 72 46 73
REMARK H PARENT 63 41 41 52
REMARK Flexibility Score: inf
ROOT
ATOM      1  C   UNL A   1      33.322  31.377  27.345  1.00  0.00     0.202 C 
ENDROOT
BRANCH   1   2
ATOM      2  C   UNL A   1      34.126  30.086  27.512  1.00  0.00     0.261 C 
BRANCH   2   3
ATOM      3  O   UNL A   1      34.005  29.237  26.357  1.00  0.00    -0.463 OA
BRANCH   3   4
ATOM      4  C   UNL A   1      33.146  28.187  26.476  1.00  0.00     0.313 C 
ATOM      5  O   UNL A   1      32.503  27.926  27.486  1.00  0.00    -0.252 OA
BRANCH   4   6
ATOM      6  C   UNL A   1      33.084  27.341  25.207  1.00  0.00     0.126 C 
ATOM      7  C   UNL A   1      33.121  25.836  25.505  1.00  0.00     0.025 C 
BRANCH   6   8
ATOM      8  C   UNL A   1      31.976  27.754  24.248  1.00  0.00    -0.034 A 
ATOM      9  C   UNL A   1      29.914  28.884  22.679  1.00  0.00    -0.048 A 
ATOM     10  C   UNL A   1      31.254  29.162  22.398  1.00  0.00     0.004 A 
ATOM     11  C   UNL A   1      29.612  27.968  23.688  1.00  0.00     0.004 A 
ATOM     12  C   UNL A   1      32.268  28.624  23.188  1.00  0.00     0.005 A 
ATOM     13  C   UNL A   1      30.632  27.404  24.459  1.00  0.00     0.005 A 
BRANCH   9  14
ATOM     14  C   UNL A   1      28.817  29.648  21.982  1.00  0.00     0.038 C 
BRANCH  14  15
ATOM     15  C   UNL A   1      28.790  31.140  22.385  1.00  0.00    -0.013 C 
ATOM     16  C   UNL A   1      28.232  32.048  21.282  1.00  0.00     0.008 C 
ATOM     17  C   UNL A   1      27.956  31.318  23.654  1.00  0.00     0.008 C 
ENDBRANCH  14  15
ENDBRANCH   9  14
ENDBRANCH   6   8
ENDBRANCH   4   6
ENDBRANCH   3   4
ENDBRANCH   2   3
ENDBRANCH   1   2
BRANCH   1  18
ATOM     18  O   UNL A   1      33.994  32.596  27.656  1.00  0.00    -0.374 OA
BRANCH  18  19
ATOM     19  C   UNL A   1      33.866  33.114  28.977  1.00  0.00     0.202 C 
BRANCH  19  20
ATOM     20  C   UNL A   1      35.168  33.367  29.747  1.00  0.00     0.261 C 
BRANCH  20  21
ATOM     21  O   UNL A   1      36.198  32.415  29.418  1.00  0.00    -0.460 OA
BRANCH  21  22
ATOM     22  C   UNL A   1      36.385  31.456  30.352  1.00  0.00     0.338 C 
ATOM     23  O   UNL A   1      35.699  31.243  31.347  1.00  0.00    -0.246 OA
BRANCH  22  24
ATOM     24  C   UNL A   1      37.469  30.539  29.963  1.00  0.00     0.060 A 
ATOM     25  C   UNL A   1      38.269  30.027  30.993  1.00  0.00     0.016 A 
ATOM     26  C   UNL A   1      37.791  30.294  28.626  1.00  0.00     0.016 A 
ATOM     27  C   UNL A   1      39.442  29.342  30.690  1.00  0.00     0.010 A 
ATOM     28  C   UNL A   1      38.975  29.610  28.323  1.00  0.00     0.010 A 
ATOM     29  C   UNL A   1      39.831  29.182  29.355  1.00  0.00    -0.014 A 
BRANCH  29  30
ATOM     30  C   UNL A   1      41.225  28.760  29.070  1.00  0.00     0.031 A 
ATOM     31  C   UNL A   1      41.476  27.342  28.628  1.00  0.00     0.074 A 
ATOM     32  C   UNL A   1      42.241  29.640  29.116  1.00  0.00     0.049 A 
ATOM     33  N   UNL A   1      42.597  26.771  28.266  1.00  0.00    -0.248 NA
ATOM     34  C   UNL A   1      40.305  26.450  28.583  1.00  0.00     0.031 C 
ATOM     35  C   UNL A   1      42.124  31.051  29.481  1.00  0.00     0.029 A 
ATOM     36  N   UNL A   1      43.574  29.469  28.840  1.00  0.00    -0.354 N 
ATOM     37  C   UNL A   1      42.267  25.458  27.953  1.00  0.00     0.074 A 
ATOM     38  C   UNL A   1      40.850  25.306  28.197  1.00  0.00     0.031 C 
ATOM     39  C   UNL A   1      43.339  31.621  29.400  1.00  0.00     0.029 A 
ATOM     40  C   UNL A   1      44.318  30.613  29.000  1.00  0.00     0.049 A 
ATOM     41  H   UNL A   1      43.960  28.611  28.555  1.00  0.00     0.167 HD
ATOM     42  C   UNL A   1      43.067  24.467  27.494  1.00  0.00     0.031 A 
ATOM     43  C   UNL A   1      45.640  30.819  28.844  1.00  0.00     0.031 A 
ATOM     44  C   UNL A   1      44.478  24.608  27.255  1.00  0.00     0.049 A 
ATOM     45  C   UNL A   1      46.520  29.685  28.393  1.00  0.00     0.074 A 
ATOM     46  C   UNL A   1      45.372  23.662  26.785  1.00  0.00     0.029 A 
ATOM     47  N   UNL A   1      45.200  25.769  27.474  1.00  0.00    -0.354 N 
ATOM     48  N   UNL A   1      46.191  28.454  28.081  1.00  0.00    -0.248 NA
ATOM     49  C   UNL A   1      47.956  29.974  28.261  1.00  0.00     0.031 C 
ATOM     50  C   UNL A   1      46.646  24.241  26.762  1.00  0.00     0.029 A 
ATOM     51  C   UNL A   1      46.534  25.560  27.168  1.00  0.00     0.049 A 
ATOM     52  H   UNL A   1      44.821  26.618  27.799  1.00  0.00     0.167 HD
ATOM     53  C   UNL A   1      47.370  27.834  27.687  1.00  0.00     0.074 A 
ATOM     54  C   UNL A   1      48.421  28.826  27.789  1.00  0.00     0.031 C 
ATOM     55  C   UNL A   1      47.566  26.558  27.274  1.00  0.00     0.031 A 
BRANCH  42  56
ATOM     56  C   UNL A   1      42.432  23.128  27.249  1.00  0.00    -0.014 A 
ATOM     57  C   UNL A   1      41.943  22.775  25.981  1.00  0.00     0.009 A 
ATOM     58  C   UNL A   1      42.340  22.199  28.297  1.00  0.00     0.009 A 
ATOM     59  C   UNL A   1      41.346  21.529  25.777  1.00  0.00     0.001 A 
ATOM     60  C   UNL A   1      41.766  20.946  28.082  1.00  0.00     0.001 A 
ATOM     61  C   UNL A   1      41.261  20.615  26.826  1.00  0.00     0.000 A 
ENDBRANCH  42  56
BRANCH  43  62
ATOM     62  C   UNL A   1      46.220  32.156  29.125  1.00  0.00    -0.014 A 
ATOM     63  C   UNL A   1      46.667  32.490  30.413  1.00  0.00     0.009 A 
ATOM     64  C   UNL A   1      46.312  33.116  28.105  1.00  0.00     0.009 A 
ATOM     65  C   UNL A   1      47.171  33.766  30.677  1.00  0.00     0.001 A 
ATOM     66  C   UNL A   1      46.840  34.382  28.366  1.00  0.00     0.001 A 
ATOM     67  C   UNL A   1      47.261  34.708  29.654  1.00  0.00     0.000 A 
ENDBRANCH  43  62
BRANCH  55  68
ATOM     68  C   UNL A   1      48.960  26.173  26.865  1.00  0.00    -0.014 A 
ATOM     69  C   UNL A   1      49.431  26.417  25.566  1.00  0.00     0.009 A 
ATOM     70  C   UNL A   1      49.824  25.593  27.807  1.00  0.00     0.009 A 
ATOM     71  C   UNL A   1      50.732  26.055  25.210  1.00  0.00     0.001 A 
ATOM     72  C   UNL A   1      51.132  25.256  27.455  1.00  0.00     0.001 A 
ATOM     73  C   UNL A   1      51.582  25.479  26.155  1.00  0.00     0.000 A 
ENDBRANCH  55  68
ENDBRANCH  29  30
ENDBRANCH  22  24
ENDBRANCH  21  22
ENDBRANCH  20  21
ENDBRANCH  19  20
ENDBRANCH  18  19
ENDBRANCH   1  18
TORSDOF 17
ENDMDL
MODEL 2
REMARK VINA RESULT:      -9.0      5.723     11.266
REMARK SMILES CC(C)Cc1ccc([C@H](C)C(=O)OCCOCCOC(=O)c2ccc(-c3c4nc(c(-c5ccccc5)c5ccc([nH]5)c(-c5ccccc5)c5nc(c(-c6ccccc6)c6ccc3[nH]6)C=C5)C=C4)cc2)cc1
REMARK SMILES IDX 15 1 14 2 13 3 11 4 12 5 9 6 10 7 8 8 5 9 6 10 71 11 7 12
REMARK SMILES IDX 70 13 4 14 2 15 1 16 3 17 16 18 17 19 18 20 19 21 20 22
REMARK SMILES IDX 21 23 22 24 23 25 69 26 24 27 68 28 25 29 26 30 27 31 62 32
REMARK SMILES IDX 28 33 67 34 61 35 63 36 29 37 66 38 60 39 59 40 30 42 52 43
REMARK SMILES IDX 37 44 51 45 38 46 41 47 50 48 64 49 39 50 40 51 49 53 65 54
REMARK SMILES IDX 42 55 31 56 32 57 36 58 33 59 35 60 34 61 53 62 54 63 58 64
REMARK SMILES IDX 55 65 57 66 56 67 43 68 44 69 48 70 45 71 47 72 46 73
REMARK H PARENT 63 41 41 52
REMARK Flexibility Score: inf
ROOT
ATOM      1  C   UNL A   1      43.414  22.412  26.425  1.00  0.00     0.202 C 
ENDROOT
BRANCH   1   2
ATOM      2  C   UNL A   1      42.354  23.302  25.772  1.00  0.00     0.261 C 
BRANCH   2   3
ATOM      3  O   UNL A   1      41.948  24.367  26.650  1.00  0.00    -0.463 OA
BRANCH   3   4
ATOM      4  C   UNL A   1      41.258  25.387  26.070  1.00  0.00     0.313 C 
ATOM      5  O   UNL A   1      41.570  25.926  25.014  1.00  0.00    -0.252 OA
BRANCH   4   6
ATOM      6  C   UNL A   1      40.048  25.814  26.895  1.00  0.00     0.126 C 
ATOM      7  C   UNL A   1      39.384  24.633  27.616  1.00  0.00     0.025 C 
BRANCH   6   8
ATOM      8  C   UNL A   1      40.309  27.017  27.792  1.00  0.00    -0.034 A 
ATOM      9  C   UNL A   1      40.376  29.258  29.512  1.00  0.00    -0.048 A 
ATOM     10  C   UNL A   1      40.336  27.963  30.034  1.00  0.00     0.004 A 
ATOM     11  C   UNL A   1      40.475  29.426  28.130  1.00  0.00     0.004 A 
ATOM     12  C   UNL A   1      40.277  26.860  29.185  1.00  0.00     0.005 A 
ATOM     13  C   UNL A   1      40.449  28.317  27.280  1.00  0.00     0.005 A 
BRANCH   9  14
ATOM     14  C   UNL A   1      40.199  30.450  30.419  1.00  0.00     0.038 C 
BRANCH  14  15
ATOM     15  C   UNL A   1      38.820  31.125  30.243  1.00  0.00    -0.013 C 
ATOM     16  C   UNL A   1      37.795  30.675  31.291  1.00  0.00     0.008 C 
ATOM     17  C   UNL A   1      38.976  32.645  30.310  1.00  0.00     0.008 C 
ENDBRANCH  14  15
ENDBRANCH   9  14
ENDBRANCH   6   8
ENDBRANCH   4   6
ENDBRANCH   3   4
ENDBRANCH   2   3
ENDBRANCH   1   2
BRANCH   1  18
ATOM     18  O   UNL A   1      43.868  22.800  27.720  1.00  0.00    -0.374 OA
BRANCH  18  19
ATOM     19  C   UNL A   1      45.189  23.321  27.840  1.00  0.00     0.202 C 
BRANCH  19  20
ATOM     20  C   UNL A   1      46.033  23.356  26.560  1.00  0.00     0.261 C 
BRANCH  20  21
ATOM     21  O   UNL A   1      46.969  24.451  26.546  1.00  0.00    -0.460 OA
BRANCH  21  22
ATOM     22  C   UNL A   1      46.626  25.465  25.720  1.00  0.00     0.338 C 
ATOM     23  O   UNL A   1      46.684  25.475  24.495  1.00  0.00    -0.246 OA
BRANCH  22  24
ATOM     24  C   UNL A   1      45.998  26.568  26.465  1.00  0.00     0.060 A 
ATOM     25  C   UNL A   1      46.828  27.322  27.304  1.00  0.00     0.016 A 
ATOM     26  C   UNL A   1      44.616  26.776  26.458  1.00  0.00     0.016 A 
ATOM     27  C   UNL A   1      46.273  28.227  28.204  1.00  0.00     0.010 A 
ATOM     28  C   UNL A   1      44.059  27.683  27.369  1.00  0.00     0.010 A 
ATOM     29  C   UNL A   1      44.882  28.368  28.283  1.00  0.00    -0.014 A 
BRANCH  29  30
ATOM     30  C   UNL A   1      44.308  29.068  29.458  1.00  0.00     0.031 A 
ATOM     31  C   UNL A   1      43.961  30.528  29.333  1.00  0.00     0.074 A 
ATOM     32  C   UNL A   1      44.016  28.402  30.590  1.00  0.00     0.049 A 
ATOM     33  N   UNL A   1      43.394  31.325  30.203  1.00  0.00    -0.248 NA
ATOM     34  C   UNL A   1      44.294  31.176  28.053  1.00  0.00     0.031 C 
ATOM     35  C   UNL A   1      44.256  26.978  30.821  1.00  0.00     0.029 A 
ATOM     36  N   UNL A   1      43.439  28.843  31.753  1.00  0.00    -0.354 N 
ATOM     37  C   UNL A   1      43.303  32.562  29.579  1.00  0.00     0.074 A 
ATOM     38  C   UNL A   1      43.901  32.422  28.269  1.00  0.00     0.031 C 
ATOM     39  C   UNL A   1      43.823  26.661  32.053  1.00  0.00     0.029 A 
ATOM     40  C   UNL A   1      43.297  27.860  32.702  1.00  0.00     0.049 A 
ATOM     41  H   UNL A   1      43.155  29.774  31.895  1.00  0.00     0.167 HD
ATOM     42  C   UNL A   1      42.763  33.713  30.045  1.00  0.00     0.031 A 
ATOM     43  C   UNL A   1      42.802  27.924  33.953  1.00  0.00     0.031 A 
ATOM     44  C   UNL A   1      42.172  33.863  31.347  1.00  0.00     0.049 A 
ATOM     45  C   UNL A   1      42.264  29.230  34.473  1.00  0.00     0.074 A 
ATOM     46  C   UNL A   1      41.593  34.987  31.908  1.00  0.00     0.029 A 
ATOM     47  N   UNL A   1      42.091  32.855  32.294  1.00  0.00    -0.354 N 
ATOM     48  N   UNL A   1      42.166  30.387  33.863  1.00  0.00    -0.248 NA
ATOM     49  C   UNL A   1      41.756  29.233  35.853  1.00  0.00     0.031 C 
ATOM     50  C   UNL A   1      41.201  34.670  33.213  1.00  0.00     0.029 A 
ATOM     51  C   UNL A   1      41.490  33.335  33.444  1.00  0.00     0.049 A 
ATOM     52  H   UNL A   1      42.412  31.932  32.167  1.00  0.00     0.167 HD
ATOM     53  C   UNL A   1      41.558  31.245  34.772  1.00  0.00     0.074 A 
ATOM     54  C   UNL A   1      41.301  30.473  35.970  1.00  0.00     0.031 C 
ATOM     55  C   UNL A   1      41.239  32.554  34.627  1.00  0.00     0.031 A 
BRANCH  42  56
ATOM     56  C   UNL A   1      42.815  34.913  29.143  1.00  0.00    -0.014 A 
ATOM     57  C   UNL A   1      41.687  35.330  28.419  1.00  0.00     0.009 A 
ATOM     58  C   UNL A   1      44.005  35.649  29.032  1.00  0.00     0.009 A 
ATOM     59  C   UNL A   1      41.760  36.442  27.577  1.00  0.00     0.001 A 
ATOM     60  C   UNL A   1      44.067  36.774  28.210  1.00  0.00     0.001 A 
ATOM     61  C   UNL A   1      42.948  37.165  27.477  1.00  0.00     0.000 A 
ENDBRANCH  42  56
BRANCH  43  62
ATOM     62  C   UNL A   1      42.797  26.713  34.812  1.00  0.00    -0.014 A 
ATOM     63  C   UNL A   1      43.912  26.387  35.600  1.00  0.00     0.009 A 
ATOM     64  C   UNL A   1      41.680  25.864  34.832  1.00  0.00     0.009 A 
ATOM     65  C   UNL A   1      43.915  25.222  36.371  1.00  0.00     0.001 A 
ATOM     66  C   UNL A   1      41.676  24.714  35.623  1.00  0.00     0.001 A 
ATOM     67  C   UNL A   1      42.797  24.389  36.386  1.00  0.00     0.000 A 
ENDBRANCH  43  62
BRANCH  55  68
ATOM     68  C   UNL A   1      40.541  33.224  35.776  1.00  0.00    -0.014 A 
ATOM     69  C   UNL A   1      41.263  33.784  36.841  1.00  0.00     0.009 A 
ATOM     70  C   UNL A   1      39.141  33.330  35.771  1.00  0.00     0.009 A 
ATOM     71  C   UNL A   1      40.592  34.406  37.897  1.00  0.00     0.001 A 
ATOM     72  C   UNL A   1      38.476  33.975  36.814  1.00  0.00     0.001 A 
ATOM     73  C   UNL A   1      39.201  34.505  37.880  1.00  0.00     0.000 A 
ENDBRANCH  55  68
ENDBRANCH  29  30
ENDBRANCH  22  24
ENDBRANCH  21  22
ENDBRANCH  20  21
ENDBRANCH  19  20
ENDBRANCH  18  19
ENDBRANCH   1  18
TORSDOF 17
ENDMDL
MODEL 3
REMARK VINA RESULT:      -9.0      5.580     12.563
REMARK SMILES CC(C)Cc1ccc([C@H](C)C(=O)OCCOCCOC(=O)c2ccc(-c3c4nc(c(-c5ccccc5)c5ccc([nH]5)c(-c5ccccc5)c5nc(c(-c6ccccc6)c6ccc3[nH]6)C=C5)C=C4)cc2)cc1
REMARK SMILES IDX 15 1 14 2 13 3 11 4 12 5 9 6 10 7 8 8 5 9 6 10 71 11 7 12
REMARK SMILES IDX 70 13 4 14 2 15 1 16 3 17 16 18 17 19 18 20 19 21 20 22
REMARK SMILES IDX 21 23 22 24 23 25 69 26 24 27 68 28 25 29 26 30 27 31 62 32
REMARK SMILES IDX 28 33 67 34 61 35 63 36 29 37 66 38 60 39 59 40 30 42 52 43
REMARK SMILES IDX 37 44 51 45 38 46 41 47 50 48 64 49 39 50 40 51 49 53 65 54
REMARK SMILES IDX 42 55 31 56 32 57 36 58 33 59 35 60 34 61 53 62 54 63 58 64
REMARK SMILES IDX 55 65 57 66 56 67 43 68 44 69 48 70 45 71 47 72 46 73
REMARK H PARENT 63 41 41 52
REMARK Flexibility Score: inf
ROOT
ATOM      1  C   UNL A   1      48.508  27.047  30.293  1.00  0.00     0.202 C 
ENDROOT
BRANCH   1   2
ATOM      2  C   UNL A   1      47.880  27.060  28.897  1.00  0.00     0.261 C 
BRANCH   2   3
ATOM      3  O   UNL A   1      47.042  25.910  28.686  1.00  0.00    -0.463 OA
BRANCH   3   4
ATOM      4  C   UNL A   1      47.269  25.208  27.541  1.00  0.00     0.313 C 
ATOM      5  O   UNL A   1      48.198  24.425  27.379  1.00  0.00    -0.252 OA
BRANCH   4   6
ATOM      6  C   UNL A   1      46.245  25.521  26.454  1.00  0.00     0.126 C 
ATOM      7  C   UNL A   1      46.833  25.397  25.043  1.00  0.00     0.025 C 
BRANCH   6   8
ATOM      8  C   UNL A   1      44.917  24.798  26.636  1.00  0.00    -0.034 A 
ATOM      9  C   UNL A   1      42.674  23.169  27.186  1.00  0.00    -0.048 A 
ATOM     10  C   UNL A   1      43.126  24.097  28.127  1.00  0.00     0.004 A 
ATOM     11  C   UNL A   1      43.291  23.122  25.935  1.00  0.00     0.004 A 
ATOM     12  C   UNL A   1      44.247  24.882  27.865  1.00  0.00     0.005 A 
ATOM     13  C   UNL A   1      44.395  23.933  25.660  1.00  0.00     0.005 A 
BRANCH   9  14
ATOM     14  C   UNL A   1      41.618  22.160  27.560  1.00  0.00     0.038 C 
BRANCH  14  15
ATOM     15  C   UNL A   1      41.048  21.419  26.328  1.00  0.00    -0.013 C 
ATOM     16  C   UNL A   1      41.344  19.915  26.344  1.00  0.00     0.008 C 
ATOM     17  C   UNL A   1      39.536  21.635  26.249  1.00  0.00     0.008 C 
ENDBRANCH  14  15
ENDBRANCH   9  14
ENDBRANCH   6   8
ENDBRANCH   4   6
ENDBRANCH   3   4
ENDBRANCH   2   3
ENDBRANCH   1   2
BRANCH   1  18
ATOM     18  O   UNL A   1      47.855  26.253  31.282  1.00  0.00    -0.374 OA
BRANCH  18  19
ATOM     19  C   UNL A   1      48.657  25.649  32.293  1.00  0.00     0.202 C 
BRANCH  19  20
ATOM     20  C   UNL A   1      47.912  24.962  33.444  1.00  0.00     0.261 C 
BRANCH  20  21
ATOM     21  O   UNL A   1      47.847  25.782  34.627  1.00  0.00    -0.460 OA
BRANCH  21  22
ATOM     22  C   UNL A   1      46.831  25.471  35.463  1.00  0.00     0.338 C 
ATOM     23  O   UNL A   1      46.856  24.675  36.396  1.00  0.00    -0.246 OA
BRANCH  22  24
ATOM     24  C   UNL A   1      45.665  26.338  35.229  1.00  0.00     0.060 A 
ATOM     25  C   UNL A   1      44.405  25.724  35.235  1.00  0.00     0.016 A 
ATOM     26  C   UNL A   1      45.799  27.682  34.873  1.00  0.00     0.016 A 
ATOM     27  C   UNL A   1      43.286  26.427  34.801  1.00  0.00     0.010 A 
ATOM     28  C   UNL A   1      44.671  28.387  34.431  1.00  0.00     0.010 A 
ATOM     29  C   UNL A   1      43.423  27.742  34.341  1.00  0.00    -0.014 A 
BRANCH  29  30
ATOM     30  C   UNL A   1      42.302  28.345  33.578  1.00  0.00     0.031 A 
ATOM     31  C   UNL A   1      41.386  29.313  34.281  1.00  0.00     0.074 A 
ATOM     32  C   UNL A   1      42.149  28.109  32.263  1.00  0.00     0.049 A 
ATOM     33  N   UNL A   1      40.384  30.006  33.801  1.00  0.00    -0.248 NA
ATOM     34  C   UNL A   1      41.636  29.532  35.716  1.00  0.00     0.031 C 
ATOM     35  C   UNL A   1      42.996  27.233  31.456  1.00  0.00     0.029 A 
ATOM     36  N   UNL A   1      41.227  28.603  31.376  1.00  0.00    -0.354 N 
ATOM     37  C   UNL A   1      39.887  30.740  34.871  1.00  0.00     0.074 A 
ATOM     38  C   UNL A   1      40.674  30.385  36.032  1.00  0.00     0.031 C 
ATOM     39  C   UNL A   1      42.556  27.256  30.186  1.00  0.00     0.029 A 
ATOM     40  C   UNL A   1      41.387  28.128  30.097  1.00  0.00     0.049 A 
ATOM     41  H   UNL A   1      40.518  29.236  31.630  1.00  0.00     0.167 HD
ATOM     42  C   UNL A   1      38.873  31.636  34.889  1.00  0.00     0.031 A 
ATOM     43  C   UNL A   1      40.669  28.369  28.983  1.00  0.00     0.031 A 
ATOM     44  C   UNL A   1      38.082  31.990  33.742  1.00  0.00     0.049 A 
ATOM     45  C   UNL A   1      39.506  29.322  29.042  1.00  0.00     0.074 A 
ATOM     46  C   UNL A   1      37.036  32.893  33.660  1.00  0.00     0.029 A 
ATOM     47  N   UNL A   1      38.248  31.451  32.477  1.00  0.00    -0.354 N 
ATOM     48  N   UNL A   1      39.061  30.024  30.056  1.00  0.00    -0.248 NA
ATOM     49  C   UNL A   1      38.755  29.525  27.794  1.00  0.00     0.031 C 
ATOM     50  C   UNL A   1      36.540  32.866  32.352  1.00  0.00     0.029 A 
ATOM     51  C   UNL A   1      37.311  31.986  31.610  1.00  0.00     0.049 A 
ATOM     52  H   UNL A   1      38.932  30.786  32.230  1.00  0.00     0.167 HD
ATOM     53  C   UNL A   1      37.999  30.773  29.562  1.00  0.00     0.074 A 
ATOM     54  C   UNL A   1      37.874  30.448  28.156  1.00  0.00     0.031 C 
ATOM     55  C   UNL A   1      37.201  31.653  30.213  1.00  0.00     0.031 A 
BRANCH  42  56
ATOM     56  C   UNL A   1      38.544  32.277  36.208  1.00  0.00    -0.014 A 
ATOM     57  C   UNL A   1      37.805  31.593  37.186  1.00  0.00     0.009 A 
ATOM     58  C   UNL A   1      38.998  33.576  36.483  1.00  0.00     0.009 A 
ATOM     59  C   UNL A   1      37.501  32.210  38.401  1.00  0.00     0.001 A 
ATOM     60  C   UNL A   1      38.713  34.181  37.707  1.00  0.00     0.001 A 
ATOM     61  C   UNL A   1      37.958  33.501  38.662  1.00  0.00     0.000 A 
ENDBRANCH  42  56
BRANCH  43  62
ATOM     62  C   UNL A   1      41.022  27.689  27.711  1.00  0.00    -0.014 A 
ATOM     63  C   UNL A   1      40.375  26.505  27.326  1.00  0.00     0.009 A 
ATOM     64  C   UNL A   1      42.026  28.214  26.883  1.00  0.00     0.009 A 
ATOM     65  C   UNL A   1      40.745  25.849  26.149  1.00  0.00     0.001 A 
ATOM     66  C   UNL A   1      42.375  27.571  25.695  1.00  0.00     0.001 A 
ATOM     67  C   UNL A   1      41.740  26.384  25.333  1.00  0.00     0.000 A 
ENDBRANCH  43  62
BRANCH  55  68
ATOM     68  C   UNL A   1      36.148  32.357  29.405  1.00  0.00    -0.014 A 
ATOM     69  C   UNL A   1      34.926  31.737  29.102  1.00  0.00     0.009 A 
ATOM     70  C   UNL A   1      36.369  33.675  28.975  1.00  0.00     0.009 A 
ATOM     71  C   UNL A   1      33.960  32.412  28.353  1.00  0.00     0.001 A 
ATOM     72  C   UNL A   1      35.391  34.356  28.249  1.00  0.00     0.001 A 
ATOM     73  C   UNL A   1      34.192  33.722  27.931  1.00  0.00     0.000 A 
ENDBRANCH  55  68
ENDBRANCH  29  30
ENDBRANCH  22  24
ENDBRANCH  21  22
ENDBRANCH  20  21
ENDBRANCH  19  20
ENDBRANCH  18  19
ENDBRANCH   1  18
TORSDOF 17
ENDMDL
