MODEL 1
REMARK VINA RESULT:     -10.6      0.000      0.000
REMARK SMILES C[C@]1(C(=O)N2CCC(CC(=O)OCCOCCOC(=O)c3ccc(-c4c5nc(c(-c6ccccc6)c6ccc([nH]6)c(-c6ccccc6)c6nc(c(-c7ccccc7)c7ccc4[nH]7)C=C6)C=C5)cc3)CC2)CCC[NH2+]C1
REMARK SMILES IDX 15 1 14 2 13 3 12 4 10 5 11 6 9 7 8 8 3 9 4 10 5 11 6 12
REMARK SMILES IDX 70 13 7 14 69 15 2 16 1 17 71 18 75 19 72 20 74 21 73 22
REMARK SMILES IDX 16 25 17 26 18 27 19 28 20 29 21 30 22 31 68 32 23 33 67 34
REMARK SMILES IDX 24 35 25 36 26 37 61 38 27 39 66 40 60 41 62 42 28 43 65 44
REMARK SMILES IDX 59 45 58 46 29 48 51 49 36 50 50 51 37 52 40 53 49 54 63 55
REMARK SMILES IDX 38 56 39 57 48 59 64 60 41 61 30 62 31 63 35 64 32 65 34 66
REMARK SMILES IDX 33 67 52 68 53 69 57 70 54 71 56 72 55 73 42 74 43 75 47 76
REMARK SMILES IDX 44 77 46 78 45 79
REMARK H PARENT 74 23 74 24 62 47 40 58
REMARK Flexibility Score: inf
ROOT
ATOM      1  O   UNL A   1      33.927  33.888  30.072  1.00  0.00    -0.374 OA
ENDROOT
BRANCH   1   2
ATOM      2  C   UNL A   1      34.674  34.209  28.899  1.00  0.00     0.202 C 
BRANCH   2   3
ATOM      3  C   UNL A   1      35.077  33.031  28.008  1.00  0.00     0.261 C 
BRANCH   3   4
ATOM      4  O   UNL A   1      34.035  32.040  27.944  1.00  0.00    -0.463 OA
BRANCH   4   5
ATOM      5  C   UNL A   1      34.422  30.771  27.661  1.00  0.00     0.306 C 
ATOM      6  O   UNL A   1      35.575  30.363  27.707  1.00  0.00    -0.252 OA
BRANCH   5   7
ATOM      7  C   UNL A   1      33.267  29.906  27.206  1.00  0.00     0.126 C 
BRANCH   7   8
ATOM      8  C   UNL A   1      33.012  29.750  25.690  1.00  0.00     0.003 C 
ATOM      9  C   UNL A   1      31.740  26.547  23.302  1.00  0.00     0.234 C 
ATOM     10  O   UNL A   1      30.761  26.505  22.545  1.00  0.00    -0.274 OA
ATOM     11  N   UNL A   1      32.176  27.762  23.780  1.00  0.00    -0.342 N 
ATOM     12  C   UNL A   1      31.215  28.800  24.099  1.00  0.00     0.120 C 
ATOM     13  C   UNL A   1      33.536  28.250  23.679  1.00  0.00     0.120 C 
ATOM     14  C   UNL A   1      31.533  29.317  25.499  1.00  0.00     0.026 C 
ATOM     15  C   UNL A   1      34.007  28.765  25.032  1.00  0.00     0.026 C 
BRANCH   9  16
ATOM     16  C   UNL A   1      32.312  25.219  23.887  1.00  0.00     0.095 C 
ATOM     17  C   UNL A   1      33.552  24.937  22.993  1.00  0.00     0.028 C 
ATOM     18  C   UNL A   1      32.798  25.449  25.330  1.00  0.00     0.028 C 
ATOM     19  C   UNL A   1      31.451  23.940  23.834  1.00  0.00     0.277 C 
ATOM     20  C   UNL A   1      31.637  25.396  26.318  1.00  0.00     0.063 C 
ATOM     21  N   UNL A   1      30.392  23.838  24.843  1.00  0.00    -0.345 N 
ATOM     22  C   UNL A   1      30.870  24.080  26.200  1.00  0.00     0.260 C 
ATOM     23  H   UNL A   1      29.669  24.524  24.626  1.00  0.00     0.346 HD
ATOM     24  H   UNL A   1      30.033  22.884  24.812  1.00  0.00     0.346 HD
ENDBRANCH   9  16
ENDBRANCH   7   8
ENDBRANCH   5   7
ENDBRANCH   4   5
ENDBRANCH   3   4
ENDBRANCH   2   3
ENDBRANCH   1   2
BRANCH   1  25
ATOM     25  C   UNL A   1      34.303  34.549  31.278  1.00  0.00     0.202 C 
BRANCH  25  26
ATOM     26  C   UNL A   1      34.128  33.749  32.575  1.00  0.00     0.261 C 
BRANCH  26  27
ATOM     27  O   UNL A   1      34.784  32.468  32.514  1.00  0.00    -0.460 OA
BRANCH  27  28
ATOM     28  C   UNL A   1      35.981  32.410  33.145  1.00  0.00     0.338 C 
ATOM     29  O   UNL A   1      36.228  32.734  34.299  1.00  0.00    -0.246 OA
BRANCH  28  30
ATOM     30  C   UNL A   1      36.961  31.704  32.299  1.00  0.00     0.060 A 
ATOM     31  C   UNL A   1      37.920  30.912  32.943  1.00  0.00     0.016 A 
ATOM     32  C   UNL A   1      36.979  31.849  30.910  1.00  0.00     0.016 A 
ATOM     33  C   UNL A   1      38.926  30.289  32.206  1.00  0.00     0.010 A 
ATOM     34  C   UNL A   1      37.997  31.233  30.173  1.00  0.00     0.010 A 
ATOM     35  C   UNL A   1      38.988  30.471  30.819  1.00  0.00    -0.014 A 
BRANCH  35  36
ATOM     36  C   UNL A   1      40.153  29.959  30.056  1.00  0.00     0.031 A 
ATOM     37  C   UNL A   1      41.344  30.852  29.846  1.00  0.00     0.074 A 
ATOM     38  C   UNL A   1      40.157  28.707  29.566  1.00  0.00     0.049 A 
ATOM     39  N   UNL A   1      42.434  30.630  29.154  1.00  0.00    -0.248 NA
ATOM     40  C   UNL A   1      41.302  32.169  30.503  1.00  0.00     0.031 C 
ATOM     41  C   UNL A   1      39.093  27.721  29.753  1.00  0.00     0.029 A 
ATOM     42  N   UNL A   1      41.093  28.055  28.802  1.00  0.00    -0.354 N 
ATOM     43  C   UNL A   1      43.200  31.782  29.282  1.00  0.00     0.074 A 
ATOM     44  C   UNL A   1      42.443  32.707  30.098  1.00  0.00     0.031 C 
ATOM     45  C   UNL A   1      39.433  26.590  29.111  1.00  0.00     0.029 A 
ATOM     46  C   UNL A   1      40.713  26.787  28.434  1.00  0.00     0.049 A 
ATOM     47  H   UNL A   1      41.953  28.456  28.543  1.00  0.00     0.167 HD
ATOM     48  C   UNL A   1      44.426  32.045  28.769  1.00  0.00     0.031 A 
ATOM     49  C   UNL A   1      41.316  25.899  27.619  1.00  0.00     0.031 A 
ATOM     50  C   UNL A   1      45.174  31.132  27.946  1.00  0.00     0.049 A 
ATOM     51  C   UNL A   1      42.628  26.256  26.973  1.00  0.00     0.074 A 
ATOM     52  C   UNL A   1      46.431  31.303  27.392  1.00  0.00     0.029 A 
ATOM     53  N   UNL A   1      44.729  29.881  27.550  1.00  0.00    -0.354 N 
ATOM     54  N   UNL A   1      43.352  27.340  27.115  1.00  0.00    -0.248 NA
ATOM     55  C   UNL A   1      43.204  25.266  26.049  1.00  0.00     0.031 C 
ATOM     56  C   UNL A   1      46.717  30.182  26.606  1.00  0.00     0.029 A 
ATOM     57  C   UNL A   1      45.668  29.286  26.724  1.00  0.00     0.049 A 
ATOM     58  H   UNL A   1      43.871  29.476  27.815  1.00  0.00     0.167 HD
ATOM     59  C   UNL A   1      44.478  27.151  26.323  1.00  0.00     0.074 A 
ATOM     60  C   UNL A   1      44.348  25.845  25.712  1.00  0.00     0.031 C 
ATOM     61  C   UNL A   1      45.526  27.986  26.119  1.00  0.00     0.031 A 
BRANCH  48  62
ATOM     62  C   UNL A   1      45.019  33.398  29.048  1.00  0.00    -0.014 A 
ATOM     63  C   UNL A   1      45.809  33.632  30.184  1.00  0.00     0.009 A 
ATOM     64  C   UNL A   1      44.814  34.446  28.136  1.00  0.00     0.009 A 
ATOM     65  C   UNL A   1      46.354  34.897  30.418  1.00  0.00     0.001 A 
ATOM     66  C   UNL A   1      45.383  35.701  28.358  1.00  0.00     0.001 A 
ATOM     67  C   UNL A   1      46.145  35.928  29.502  1.00  0.00     0.000 A 
ENDBRANCH  48  62
BRANCH  49  68
ATOM     68  C   UNL A   1      40.664  24.594  27.330  1.00  0.00    -0.014 A 
ATOM     69  C   UNL A   1      41.227  23.394  27.789  1.00  0.00     0.009 A 
ATOM     70  C   UNL A   1      39.483  24.542  26.571  1.00  0.00     0.009 A 
ATOM     71  C   UNL A   1      40.634  22.169  27.474  1.00  0.00     0.001 A 
ATOM     72  C   UNL A   1      38.876  23.318  26.285  1.00  0.00     0.001 A 
ATOM     73  C   UNL A   1      39.457  22.132  26.729  1.00  0.00     0.000 A 
ENDBRANCH  49  68
BRANCH  61  74
ATOM     74  C   UNL A   1      46.633  27.507  25.222  1.00  0.00    -0.014 A 
ATOM     75  C   UNL A   1      47.497  26.474  25.619  1.00  0.00     0.009 A 
ATOM     76  C   UNL A   1      46.774  28.055  23.937  1.00  0.00     0.009 A 
ATOM     77  C   UNL A   1      48.495  26.019  24.755  1.00  0.00     0.001 A 
ATOM     78  C   UNL A   1      47.754  27.578  23.066  1.00  0.00     0.001 A 
ATOM     79  C   UNL A   1      48.618  26.566  23.478  1.00  0.00     0.000 A 
ENDBRANCH  61  74
ENDBRANCH  35  36
ENDBRANCH  28  30
ENDBRANCH  27  28
ENDBRANCH  26  27
ENDBRANCH  25  26
ENDBRANCH   1  25
TORSDOF 16
ENDMDL
MODEL 2
REMARK VINA RESULT:     -10.5      1.479      1.743
REMARK SMILES C[C@]1(C(=O)N2CCC(CC(=O)OCCOCCOC(=O)c3ccc(-c4c5nc(c(-c6ccccc6)c6ccc([nH]6)c(-c6ccccc6)c6nc(c(-c7ccccc7)c7ccc4[nH]7)C=C6)C=C5)cc3)CC2)CCC[NH2+]C1
REMARK SMILES IDX 15 1 14 2 13 3 12 4 10 5 11 6 9 7 8 8 3 9 4 10 5 11 6 12
REMARK SMILES IDX 70 13 7 14 69 15 2 16 1 17 71 18 75 19 72 20 74 21 73 22
REMARK SMILES IDX 16 25 17 26 18 27 19 28 20 29 21 30 22 31 68 32 23 33 67 34
REMARK SMILES IDX 24 35 25 36 26 37 61 38 27 39 66 40 60 41 62 42 28 43 65 44
REMARK SMILES IDX 59 45 58 46 29 48 51 49 36 50 50 51 37 52 40 53 49 54 63 55
REMARK SMILES IDX 38 56 39 57 48 59 64 60 41 61 30 62 31 63 35 64 32 65 34 66
REMARK SMILES IDX 33 67 52 68 53 69 57 70 54 71 56 72 55 73 42 74 43 75 47 76
REMARK SMILES IDX 44 77 46 78 45 79
REMARK H PARENT 74 23 74 24 62 47 40 58
REMARK Flexibility Score: inf
ROOT
ATOM      1  O   UNL A   1      33.460  33.350  29.216  1.00  0.00    -0.374 OA
ENDROOT
BRANCH   1   2
ATOM      2  C   UNL A   1      34.188  32.615  28.233  1.00  0.00     0.202 C 
BRANCH   2   3
ATOM      3  C   UNL A   1      33.377  31.640  27.376  1.00  0.00     0.261 C 
BRANCH   3   4
ATOM      4  O   UNL A   1      33.821  30.283  27.562  1.00  0.00    -0.463 OA
BRANCH   4   5
ATOM      5  C   UNL A   1      32.948  29.306  27.211  1.00  0.00     0.306 C 
ATOM      6  O   UNL A   1      31.741  29.339  27.414  1.00  0.00    -0.252 OA
BRANCH   5   7
ATOM      7  C   UNL A   1      33.640  28.112  26.590  1.00  0.00     0.126 C 
BRANCH   7   8
ATOM      8  C   UNL A   1      32.926  27.356  25.447  1.00  0.00     0.003 C 
ATOM      9  C   UNL A   1      32.597  23.297  24.449  1.00  0.00     0.234 C 
ATOM     10  O   UNL A   1      31.563  22.631  24.308  1.00  0.00    -0.274 OA
ATOM     11  N   UNL A   1      32.517  24.671  24.487  1.00  0.00    -0.342 N 
ATOM     12  C   UNL A   1      31.384  25.312  25.122  1.00  0.00     0.120 C 
ATOM     13  C   UNL A   1      33.289  25.567  23.649  1.00  0.00     0.120 C 
ATOM     14  C   UNL A   1      31.922  26.362  26.090  1.00  0.00     0.026 C 
ATOM     15  C   UNL A   1      33.928  26.656  24.500  1.00  0.00     0.026 C 
BRANCH   9  16
ATOM     16  C   UNL A   1      33.929  22.575  24.817  1.00  0.00     0.095 C 
ATOM     17  C   UNL A   1      34.788  22.724  23.530  1.00  0.00     0.028 C 
ATOM     18  C   UNL A   1      34.635  23.328  25.960  1.00  0.00     0.028 C 
ATOM     19  C   UNL A   1      33.904  21.065  25.138  1.00  0.00     0.277 C 
ATOM     20  C   UNL A   1      34.045  22.952  27.316  1.00  0.00     0.063 C 
ATOM     21  N   UNL A   1      33.427  20.701  26.475  1.00  0.00    -0.345 N 
ATOM     22  C   UNL A   1      34.094  21.441  27.540  1.00  0.00     0.260 C 
ATOM     23  H   UNL A   1      32.426  20.890  26.526  1.00  0.00     0.346 HD
ATOM     24  H   UNL A   1      33.635  19.713  26.614  1.00  0.00     0.346 HD
ENDBRANCH   9  16
ENDBRANCH   7   8
ENDBRANCH   5   7
ENDBRANCH   4   5
ENDBRANCH   3   4
ENDBRANCH   2   3
ENDBRANCH   1   2
BRANCH   1  25
ATOM     25  C   UNL A   1      34.154  34.405  29.878  1.00  0.00     0.202 C 
BRANCH  25  26
ATOM     26  C   UNL A   1      34.495  34.174  31.355  1.00  0.00     0.261 C 
BRANCH  26  27
ATOM     27  O   UNL A   1      34.526  32.773  31.690  1.00  0.00    -0.460 OA
BRANCH  27  28
ATOM     28  C   UNL A   1      35.498  32.417  32.563  1.00  0.00     0.338 C 
ATOM     29  O   UNL A   1      35.475  32.518  33.782  1.00  0.00    -0.246 OA
BRANCH  28  30
ATOM     30  C   UNL A   1      36.566  31.688  31.854  1.00  0.00     0.060 A 
ATOM     31  C   UNL A   1      37.568  31.091  32.631  1.00  0.00     0.016 A 
ATOM     32  C   UNL A   1      36.621  31.628  30.460  1.00  0.00     0.016 A 
ATOM     33  C   UNL A   1      38.650  30.462  32.018  1.00  0.00     0.010 A 
ATOM     34  C   UNL A   1      37.714  31.007  29.846  1.00  0.00     0.010 A 
ATOM     35  C   UNL A   1      38.745  30.443  30.620  1.00  0.00    -0.014 A 
BRANCH  35  36
ATOM     36  C   UNL A   1      39.977  29.934  29.969  1.00  0.00     0.031 A 
ATOM     37  C   UNL A   1      41.159  30.849  29.815  1.00  0.00     0.074 A 
ATOM     38  C   UNL A   1      40.049  28.665  29.531  1.00  0.00     0.049 A 
ATOM     39  N   UNL A   1      42.304  30.631  29.217  1.00  0.00    -0.248 NA
ATOM     40  C   UNL A   1      41.036  32.188  30.414  1.00  0.00     0.031 C 
ATOM     41  C   UNL A   1      38.997  27.658  29.674  1.00  0.00     0.029 A 
ATOM     42  N   UNL A   1      41.055  28.009  28.866  1.00  0.00    -0.354 N 
ATOM     43  C   UNL A   1      43.031  31.807  29.357  1.00  0.00     0.074 A 
ATOM     44  C   UNL A   1      42.191  32.741  30.076  1.00  0.00     0.031 C 
ATOM     45  C   UNL A   1      39.411  26.513  29.105  1.00  0.00     0.029 A 
ATOM     46  C   UNL A   1      40.735  26.720  28.520  1.00  0.00     0.049 A 
ATOM     47  H   UNL A   1      41.923  28.424  28.657  1.00  0.00     0.167 HD
ATOM     48  C   UNL A   1      44.285  32.083  28.928  1.00  0.00     0.031 A 
ATOM     49  C   UNL A   1      41.419  25.818  27.789  1.00  0.00     0.031 A 
ATOM     50  C   UNL A   1      45.116  31.160  28.201  1.00  0.00     0.049 A 
ATOM     51  C   UNL A   1      42.768  26.185  27.231  1.00  0.00     0.074 A 
ATOM     52  C   UNL A   1      46.407  31.344  27.738  1.00  0.00     0.029 A 
ATOM     53  N   UNL A   1      44.732  29.884  27.822  1.00  0.00    -0.354 N 
ATOM     54  N   UNL A   1      43.454  27.292  27.385  1.00  0.00    -0.248 NA
ATOM     55  C   UNL A   1      43.437  25.177  26.392  1.00  0.00     0.031 C 
ATOM     56  C   UNL A   1      46.780  30.203  27.021  1.00  0.00     0.029 A 
ATOM     57  C   UNL A   1      45.746  29.284  27.094  1.00  0.00     0.049 A 
ATOM     58  H   UNL A   1      43.867  29.466  28.037  1.00  0.00     0.167 HD
ATOM     59  C   UNL A   1      44.641  27.104  26.688  1.00  0.00     0.074 A 
ATOM     60  C   UNL A   1      44.589  25.773  26.121  1.00  0.00     0.031 C 
ATOM     61  C   UNL A   1      45.682  27.959  26.532  1.00  0.00     0.031 A 
BRANCH  48  62
ATOM     62  C   UNL A   1      44.823  33.461  29.198  1.00  0.00    -0.014 A 
ATOM     63  C   UNL A   1      45.568  33.744  30.354  1.00  0.00     0.009 A 
ATOM     64  C   UNL A   1      44.612  34.483  28.259  1.00  0.00     0.009 A 
ATOM     65  C   UNL A   1      46.061  35.032  30.578  1.00  0.00     0.001 A 
ATOM     66  C   UNL A   1      45.131  35.761  28.472  1.00  0.00     0.001 A 
ATOM     67  C   UNL A   1      45.848  36.036  29.636  1.00  0.00     0.000 A 
ENDBRANCH  48  62
BRANCH  49  68
ATOM     68  C   UNL A   1      40.823  24.486  27.503  1.00  0.00    -0.014 A 
ATOM     69  C   UNL A   1      41.372  23.320  28.057  1.00  0.00     0.009 A 
ATOM     70  C   UNL A   1      39.711  24.373  26.651  1.00  0.00     0.009 A 
ATOM     71  C   UNL A   1      40.834  22.069  27.747  1.00  0.00     0.001 A 
ATOM     72  C   UNL A   1      39.157  23.124  26.369  1.00  0.00     0.001 A 
ATOM     73  C   UNL A   1      39.724  21.971  26.909  1.00  0.00     0.000 A 
ENDBRANCH  49  68
BRANCH  61  74
ATOM     74  C   UNL A   1      46.865  27.476  25.741  1.00  0.00    -0.014 A 
ATOM     75  C   UNL A   1      47.846  26.657  26.322  1.00  0.00     0.009 A 
ATOM     76  C   UNL A   1      46.968  27.794  24.376  1.00  0.00     0.009 A 
ATOM     77  C   UNL A   1      48.918  26.190  25.559  1.00  0.00     0.001 A 
ATOM     78  C   UNL A   1      48.024  27.301  23.610  1.00  0.00     0.001 A 
ATOM     79  C   UNL A   1      49.002  26.506  24.204  1.00  0.00     0.000 A 
ENDBRANCH  61  74
ENDBRANCH  35  36
ENDBRANCH  28  30
ENDBRANCH  27  28
ENDBRANCH  26  27
ENDBRANCH  25  26
ENDBRANCH   1  25
TORSDOF 16
ENDMDL
MODEL 3
REMARK VINA RESULT:     -10.4      3.673      5.231
REMARK SMILES C[C@]1(C(=O)N2CCC(CC(=O)OCCOCCOC(=O)c3ccc(-c4c5nc(c(-c6ccccc6)c6ccc([nH]6)c(-c6ccccc6)c6nc(c(-c7ccccc7)c7ccc4[nH]7)C=C6)C=C5)cc3)CC2)CCC[NH2+]C1
REMARK SMILES IDX 15 1 14 2 13 3 12 4 10 5 11 6 9 7 8 8 3 9 4 10 5 11 6 12
REMARK SMILES IDX 70 13 7 14 69 15 2 16 1 17 71 18 75 19 72 20 74 21 73 22
REMARK SMILES IDX 16 25 17 26 18 27 19 28 20 29 21 30 22 31 68 32 23 33 67 34
REMARK SMILES IDX 24 35 25 36 26 37 61 38 27 39 66 40 60 41 62 42 28 43 65 44
REMARK SMILES IDX 59 45 58 46 29 48 51 49 36 50 50 51 37 52 40 53 49 54 63 55
REMARK SMILES IDX 38 56 39 57 48 59 64 60 41 61 30 62 31 63 35 64 32 65 34 66
REMARK SMILES IDX 33 67 52 68 53 69 57 70 54 71 56 72 55 73 42 74 43 75 47 76
REMARK SMILES IDX 44 77 46 78 45 79
REMARK H PARENT 74 23 74 24 62 47 40 58
REMARK Flexibility Score: inf
ROOT
ATOM      1  O   UNL A   1      33.161  28.193  25.161  1.00  0.00    -0.374 OA
ENDROOT
BRANCH   1   2
ATOM      2  C   UNL A   1      31.738  28.182  25.276  1.00  0.00     0.202 C 
BRANCH   2   3
ATOM      3  C   UNL A   1      31.059  26.814  25.164  1.00  0.00     0.261 C 
BRANCH   3   4
ATOM      4  O   UNL A   1      30.938  26.181  26.451  1.00  0.00    -0.463 OA
BRANCH   4   5
ATOM      5  C   UNL A   1      31.262  24.865  26.513  1.00  0.00     0.306 C 
ATOM      6  O   UNL A   1      30.749  24.052  27.271  1.00  0.00    -0.252 OA
BRANCH   5   7
ATOM      7  C   UNL A   1      32.396  24.508  25.577  1.00  0.00     0.126 C 
BRANCH   7   8
ATOM      8  C   UNL A   1      33.505  23.559  26.087  1.00  0.00     0.003 C 
ATOM      9  C   UNL A   1      34.723  19.702  24.982  1.00  0.00     0.234 C 
ATOM     10  O   UNL A   1      35.846  19.337  24.612  1.00  0.00    -0.274 OA
ATOM     11  N   UNL A   1      34.574  20.933  25.583  1.00  0.00    -0.342 N 
ATOM     12  C   UNL A   1      35.376  22.055  25.139  1.00  0.00     0.120 C 
ATOM     13  C   UNL A   1      33.933  21.155  26.863  1.00  0.00     0.120 C 
ATOM     14  C   UNL A   1      34.437  23.231  24.889  1.00  0.00     0.026 C 
ATOM     15  C   UNL A   1      32.923  22.290  26.750  1.00  0.00     0.026 C 
BRANCH   9  16
ATOM     16  C   UNL A   1      33.470  18.878  24.554  1.00  0.00     0.095 C 
ATOM     17  C   UNL A   1      32.598  19.917  23.793  1.00  0.00     0.028 C 
ATOM     18  C   UNL A   1      33.883  17.773  23.563  1.00  0.00     0.028 C 
ATOM     19  C   UNL A   1      32.557  18.274  25.643  1.00  0.00     0.277 C 
ATOM     20  C   UNL A   1      34.444  16.558  24.294  1.00  0.00     0.063 C 
ATOM     21  N   UNL A   1      33.048  17.051  26.284  1.00  0.00    -0.345 N 
ATOM     22  C   UNL A   1      33.452  16.027  25.328  1.00  0.00     0.260 C 
ATOM     23  H   UNL A   1      33.851  17.288  26.866  1.00  0.00     0.346 HD
ATOM     24  H   UNL A   1      32.279  16.667  26.834  1.00  0.00     0.346 HD
ENDBRANCH   9  16
ENDBRANCH   7   8
ENDBRANCH   5   7
ENDBRANCH   4   5
ENDBRANCH   3   4
ENDBRANCH   2   3
ENDBRANCH   1   2
BRANCH   1  25
ATOM     25  C   UNL A   1      33.907  28.107  26.373  1.00  0.00     0.202 C 
BRANCH  25  26
ATOM     26  C   UNL A   1      33.547  29.120  27.467  1.00  0.00     0.261 C 
BRANCH  26  27
ATOM     27  O   UNL A   1      34.126  30.415  27.216  1.00  0.00    -0.460 OA
BRANCH  27  28
ATOM     28  C   UNL A   1      34.815  30.943  28.255  1.00  0.00     0.338 C 
ATOM     29  O   UNL A   1      34.411  31.748  29.083  1.00  0.00    -0.246 OA
BRANCH  28  30
ATOM     30  C   UNL A   1      36.116  30.261  28.392  1.00  0.00     0.060 A 
ATOM     31  C   UNL A   1      36.426  29.703  29.639  1.00  0.00     0.016 A 
ATOM     32  C   UNL A   1      37.037  30.209  27.343  1.00  0.00     0.016 A 
ATOM     33  C   UNL A   1      37.674  29.121  29.856  1.00  0.00     0.010 A 
ATOM     34  C   UNL A   1      38.294  29.636  27.567  1.00  0.00     0.010 A 
ATOM     35  C   UNL A   1      38.627  29.112  28.830  1.00  0.00    -0.014 A 
BRANCH  35  36
ATOM     36  C   UNL A   1      40.012  28.657  29.109  1.00  0.00     0.031 A 
ATOM     37  C   UNL A   1      40.969  29.593  29.793  1.00  0.00     0.074 A 
ATOM     38  C   UNL A   1      40.410  27.418  28.771  1.00  0.00     0.049 A 
ATOM     39  N   UNL A   1      42.239  29.424  30.068  1.00  0.00    -0.248 NA
ATOM     40  C   UNL A   1      40.425  30.891  30.223  1.00  0.00     0.031 C 
ATOM     41  C   UNL A   1      39.563  26.394  28.160  1.00  0.00     0.029 A 
ATOM     42  N   UNL A   1      41.637  26.816  28.888  1.00  0.00    -0.354 N 
ATOM     43  C   UNL A   1      42.647  30.596  30.692  1.00  0.00     0.074 A 
ATOM     44  C   UNL A   1      41.498  31.476  30.735  1.00  0.00     0.031 C 
ATOM     45  C   UNL A   1      40.301  25.291  27.948  1.00  0.00     0.029 A 
ATOM     46  C   UNL A   1      41.678  25.547  28.366  1.00  0.00     0.049 A 
ATOM     47  H   UNL A   1      42.415  27.251  29.307  1.00  0.00     0.167 HD
ATOM     48  C   UNL A   1      43.867  30.911  31.187  1.00  0.00     0.031 A 
ATOM     49  C   UNL A   1      42.714  24.699  28.214  1.00  0.00     0.031 A 
ATOM     50  C   UNL A   1      45.014  30.044  31.132  1.00  0.00     0.049 A 
ATOM     51  C   UNL A   1      44.086  25.114  28.676  1.00  0.00     0.074 A 
ATOM     52  C   UNL A   1      46.289  30.269  31.621  1.00  0.00     0.029 A 
ATOM     53  N   UNL A   1      45.027  28.790  30.544  1.00  0.00    -0.354 N 
ATOM     54  N   UNL A   1      44.457  26.216  29.281  1.00  0.00    -0.248 NA
ATOM     55  C   UNL A   1      45.185  24.167  28.428  1.00  0.00     0.031 C 
ATOM     56  C   UNL A   1      47.090  29.179  31.270  1.00  0.00     0.029 A 
ATOM     57  C   UNL A   1      46.299  28.246  30.620  1.00  0.00     0.049 A 
ATOM     58  H   UNL A   1      44.248  28.350  30.132  1.00  0.00     0.167 HD
ATOM     59  C   UNL A   1      45.821  26.084  29.509  1.00  0.00     0.074 A 
ATOM     60  C   UNL A   1      46.211  24.790  28.990  1.00  0.00     0.031 C 
ATOM     61  C   UNL A   1      46.675  26.958  30.097  1.00  0.00     0.031 A 
BRANCH  48  62
ATOM     62  C   UNL A   1      44.038  32.276  31.796  1.00  0.00    -0.014 A 
ATOM     63  C   UNL A   1      43.860  32.493  33.171  1.00  0.00     0.009 A 
ATOM     64  C   UNL A   1      44.421  33.354  30.982  1.00  0.00     0.009 A 
ATOM     65  C   UNL A   1      44.030  33.769  33.713  1.00  0.00     0.001 A 
ATOM     66  C   UNL A   1      44.618  34.622  31.531  1.00  0.00     0.001 A 
ATOM     67  C   UNL A   1      44.414  34.830  32.894  1.00  0.00     0.000 A 
ENDBRANCH  48  62
BRANCH  49  68
ATOM     68  C   UNL A   1      42.508  23.380  27.558  1.00  0.00    -0.014 A 
ATOM     69  C   UNL A   1      42.716  23.225  26.179  1.00  0.00     0.009 A 
ATOM     70  C   UNL A   1      42.078  22.273  28.308  1.00  0.00     0.009 A 
ATOM     71  C   UNL A   1      42.476  21.995  25.562  1.00  0.00     0.001 A 
ATOM     72  C   UNL A   1      41.869  21.038  27.693  1.00  0.00     0.001 A 
ATOM     73  C   UNL A   1      42.059  20.902  26.319  1.00  0.00     0.000 A 
ENDBRANCH  49  68
BRANCH  61  74
ATOM     74  C   UNL A   1      48.111  26.537  30.240  1.00  0.00    -0.014 A 
ATOM     75  C   UNL A   1      48.542  25.775  31.337  1.00  0.00     0.009 A 
ATOM     76  C   UNL A   1      49.033  26.855  29.230  1.00  0.00     0.009 A 
ATOM     77  C   UNL A   1      49.873  25.364  31.431  1.00  0.00     0.001 A 
ATOM     78  C   UNL A   1      50.356  26.418  29.312  1.00  0.00     0.001 A 
ATOM     79  C   UNL A   1      50.776  25.679  30.416  1.00  0.00     0.000 A 
ENDBRANCH  61  74
ENDBRANCH  35  36
ENDBRANCH  28  30
ENDBRANCH  27  28
ENDBRANCH  26  27
ENDBRANCH  25  26
ENDBRANCH   1  25
TORSDOF 16
ENDMDL
