MODEL 1
REMARK VINA RESULT:     -10.9      0.000      0.000
REMARK SMILES Cc1nn(C)c(=O)c(C(=O)N2CCCC[C@H]2C(=O)OCCOCCOC(=O)c2ccc(-c3c4nc(c(-c5ccccc5)c5ccc([nH]5)c(-c5ccccc5)c5nc(c(-c6ccccc6)c6ccc3[nH]6)C=C5)C=C4)cc2)c1C
REMARK SMILES IDX 22 1 21 2 20 3 19 4 17 5 18 6 16 7 11 8 12 9 13 10 15 11
REMARK SMILES IDX 14 12 9 13 10 14 8 15 1 16 2 17 3 18 76 19 4 20 77 21 5 22
REMARK SMILES IDX 6 23 7 24 23 25 24 26 25 27 26 28 27 29 28 30 29 31 75 32
REMARK SMILES IDX 30 33 74 34 31 35 32 36 33 37 68 38 34 39 73 40 67 41 69 42
REMARK SMILES IDX 35 43 72 44 66 45 65 46 36 48 58 49 43 50 57 51 44 52 47 53
REMARK SMILES IDX 56 54 70 55 45 56 46 57 55 59 71 60 48 61 37 62 38 63 42 64
REMARK SMILES IDX 39 65 41 66 40 67 59 68 60 69 64 70 61 71 63 72 62 73 49 74
REMARK SMILES IDX 50 75 54 76 51 77 53 78 52 79
REMARK H PARENT 69 47 47 58
REMARK Flexibility Score: inf
ROOT
ATOM      1  O   UNL A   1      35.155  20.743  24.665  1.00  0.00    -0.374 OA
ENDROOT
BRANCH   1   2
ATOM      2  C   UNL A   1      34.303  21.117  25.743  1.00  0.00     0.202 C 
BRANCH   2   3
ATOM      3  C   UNL A   1      32.853  20.650  25.638  1.00  0.00     0.261 C 
BRANCH   3   4
ATOM      4  O   UNL A   1      31.918  21.734  25.464  1.00  0.00    -0.462 OA
BRANCH   4   5
ATOM      5  C   UNL A   1      31.954  22.352  24.252  1.00  0.00     0.328 C 
ATOM      6  O   UNL A   1      32.179  21.766  23.197  1.00  0.00    -0.250 OA
BRANCH   5   7
ATOM      7  C   UNL A   1      31.717  23.885  24.316  1.00  0.00     0.195 C 
ATOM      8  N   UNL A   1      31.897  24.622  25.597  1.00  0.00    -0.325 N 
ATOM      9  C   UNL A   1      33.263  24.627  26.130  1.00  0.00     0.121 C 
ATOM     10  C   UNL A   1      34.306  25.075  25.108  1.00  0.00     0.022 C 
ATOM     11  C   UNL A   1      32.698  24.476  23.277  1.00  0.00     0.037 C 
ATOM     12  C   UNL A   1      34.145  24.355  23.774  1.00  0.00     0.005 C 
BRANCH   8  13
ATOM     13  C   UNL A   1      31.074  25.694  25.991  1.00  0.00     0.260 C 
ATOM     14  O   UNL A   1      30.070  25.482  26.672  1.00  0.00    -0.269 OA
BRANCH  13  15
ATOM     15  C   UNL A   1      31.264  27.072  25.386  1.00  0.00     0.111 A 
ATOM     16  C   UNL A   1      30.094  29.394  22.593  1.00  0.00     0.069 C 
ATOM     17  C   UNL A   1      30.620  28.902  23.922  1.00  0.00     0.062 A 
ATOM     18  N   UNL A   1      31.109  29.831  24.668  1.00  0.00    -0.175 NA
ATOM     19  C   UNL A   1      30.532  27.466  24.323  1.00  0.00    -0.010 A 
ATOM     20  N   UNL A   1      31.650  29.466  25.856  1.00  0.00    -0.232 N 
ATOM     21  C   UNL A   1      29.481  26.630  23.687  1.00  0.00     0.047 C 
ATOM     22  C   UNL A   1      31.999  30.587  26.711  1.00  0.00     0.178 C 
ATOM     23  C   UNL A   1      31.936  28.146  26.209  1.00  0.00     0.279 A 
ATOM     24  O   UNL A   1      32.657  27.858  27.160  1.00  0.00    -0.267 OA
ENDBRANCH  13  15
ENDBRANCH   8  13
ENDBRANCH   5   7
ENDBRANCH   4   5
ENDBRANCH   3   4
ENDBRANCH   2   3
ENDBRANCH   1   2
BRANCH   1  25
ATOM     25  C   UNL A   1      36.476  20.312  24.993  1.00  0.00     0.202 C 
BRANCH  25  26
ATOM     26  C   UNL A   1      37.583  21.283  24.574  1.00  0.00     0.261 C 
BRANCH  26  27
ATOM     27  O   UNL A   1      38.020  22.040  25.726  1.00  0.00    -0.460 OA
BRANCH  27  28
ATOM     28  C   UNL A   1      39.241  21.751  26.232  1.00  0.00     0.338 C 
ATOM     29  O   UNL A   1      39.902  20.754  26.025  1.00  0.00    -0.246 OA
BRANCH  28  30
ATOM     30  C   UNL A   1      39.744  22.932  26.974  1.00  0.00     0.060 A 
ATOM     31  C   UNL A   1      39.079  24.146  26.789  1.00  0.00     0.016 A 
ATOM     32  C   UNL A   1      40.893  22.885  27.770  1.00  0.00     0.016 A 
ATOM     33  C   UNL A   1      39.595  25.321  27.346  1.00  0.00     0.010 A 
ATOM     34  C   UNL A   1      41.381  24.057  28.371  1.00  0.00     0.010 A 
ATOM     35  C   UNL A   1      40.776  25.298  28.105  1.00  0.00    -0.014 A 
BRANCH  35  36
ATOM     36  C   UNL A   1      41.457  26.593  28.411  1.00  0.00     0.031 A 
ATOM     37  C   UNL A   1      42.790  26.895  27.765  1.00  0.00     0.074 A 
ATOM     38  C   UNL A   1      40.860  27.557  29.141  1.00  0.00     0.049 A 
ATOM     39  N   UNL A   1      43.457  28.023  27.735  1.00  0.00    -0.248 NA
ATOM     40  C   UNL A   1      43.452  25.791  27.052  1.00  0.00     0.031 C 
ATOM     41  C   UNL A   1      39.569  27.435  29.814  1.00  0.00     0.029 A 
ATOM     42  N   UNL A   1      41.256  28.849  29.406  1.00  0.00    -0.354 N 
ATOM     43  C   UNL A   1      44.600  27.766  26.985  1.00  0.00     0.074 A 
ATOM     44  C   UNL A   1      44.571  26.365  26.635  1.00  0.00     0.031 C 
ATOM     45  C   UNL A   1      39.261  28.616  30.381  1.00  0.00     0.029 A 
ATOM     46  C   UNL A   1      40.338  29.574  30.129  1.00  0.00     0.049 A 
ATOM     47  H   UNL A   1      42.117  29.220  29.105  1.00  0.00     0.167 HD
ATOM     48  C   UNL A   1      45.575  28.618  26.589  1.00  0.00     0.031 A 
ATOM     49  C   UNL A   1      40.350  30.862  30.536  1.00  0.00     0.031 A 
ATOM     50  C   UNL A   1      45.635  30.013  26.925  1.00  0.00     0.049 A 
ATOM     51  C   UNL A   1      41.497  31.768  30.166  1.00  0.00     0.074 A 
ATOM     52  C   UNL A   1      46.578  30.948  26.530  1.00  0.00     0.029 A 
ATOM     53  N   UNL A   1      44.733  30.672  27.740  1.00  0.00    -0.354 N 
ATOM     54  N   UNL A   1      42.526  31.525  29.393  1.00  0.00    -0.248 NA
ATOM     55  C   UNL A   1      41.479  33.132  30.723  1.00  0.00     0.031 C 
ATOM     56  C   UNL A   1      46.285  32.157  27.165  1.00  0.00     0.029 A 
ATOM     57  C   UNL A   1      45.124  31.990  27.901  1.00  0.00     0.049 A 
ATOM     58  H   UNL A   1      43.933  30.264  28.145  1.00  0.00     0.167 HD
ATOM     59  C   UNL A   1      43.265  32.704  29.358  1.00  0.00     0.074 A 
ATOM     60  C   UNL A   1      42.557  33.671  30.168  1.00  0.00     0.031 C 
ATOM     61  C   UNL A   1      44.429  32.955  28.713  1.00  0.00     0.031 A 
BRANCH  48  62
ATOM     62  C   UNL A   1      46.678  28.060  25.733  1.00  0.00    -0.014 A 
ATOM     63  C   UNL A   1      46.558  28.021  24.335  1.00  0.00     0.009 A 
ATOM     64  C   UNL A   1      47.877  27.635  26.327  1.00  0.00     0.009 A 
ATOM     65  C   UNL A   1      47.608  27.544  23.550  1.00  0.00     0.001 A 
ATOM     66  C   UNL A   1      48.936  27.187  25.537  1.00  0.00     0.001 A 
ATOM     67  C   UNL A   1      48.799  27.135  24.151  1.00  0.00     0.000 A 
ENDBRANCH  48  62
BRANCH  49  68
ATOM     68  C   UNL A   1      39.219  31.392  31.347  1.00  0.00    -0.014 A 
ATOM     69  C   UNL A   1      38.131  32.031  30.731  1.00  0.00     0.009 A 
ATOM     70  C   UNL A   1      39.234  31.277  32.746  1.00  0.00     0.009 A 
ATOM     71  C   UNL A   1      37.090  32.557  31.502  1.00  0.00     0.001 A 
ATOM     72  C   UNL A   1      38.178  31.778  33.511  1.00  0.00     0.001 A 
ATOM     73  C   UNL A   1      37.111  32.423  32.889  1.00  0.00     0.000 A 
ENDBRANCH  49  68
BRANCH  61  74
ATOM     74  C   UNL A   1      45.043  34.323  28.844  1.00  0.00    -0.014 A 
ATOM     75  C   UNL A   1      44.746  35.337  27.922  1.00  0.00     0.009 A 
ATOM     76  C   UNL A   1      45.830  34.636  29.965  1.00  0.00     0.009 A 
ATOM     77  C   UNL A   1      45.229  36.633  28.114  1.00  0.00     0.001 A 
ATOM     78  C   UNL A   1      46.290  35.939  30.169  1.00  0.00     0.001 A 
ATOM     79  C   UNL A   1      45.991  36.936  29.242  1.00  0.00     0.000 A 
ENDBRANCH  61  74
ENDBRANCH  35  36
ENDBRANCH  28  30
ENDBRANCH  27  28
ENDBRANCH  26  27
ENDBRANCH  25  26
ENDBRANCH   1  25
TORSDOF 16
ENDMDL
MODEL 2
REMARK VINA RESULT:     -10.7      3.883      6.813
REMARK SMILES Cc1nn(C)c(=O)c(C(=O)N2CCCC[C@H]2C(=O)OCCOCCOC(=O)c2ccc(-c3c4nc(c(-c5ccccc5)c5ccc([nH]5)c(-c5ccccc5)c5nc(c(-c6ccccc6)c6ccc3[nH]6)C=C5)C=C4)cc2)c1C
REMARK SMILES IDX 22 1 21 2 20 3 19 4 17 5 18 6 16 7 11 8 12 9 13 10 15 11
REMARK SMILES IDX 14 12 9 13 10 14 8 15 1 16 2 17 3 18 76 19 4 20 77 21 5 22
REMARK SMILES IDX 6 23 7 24 23 25 24 26 25 27 26 28 27 29 28 30 29 31 75 32
REMARK SMILES IDX 30 33 74 34 31 35 32 36 33 37 68 38 34 39 73 40 67 41 69 42
REMARK SMILES IDX 35 43 72 44 66 45 65 46 36 48 58 49 43 50 57 51 44 52 47 53
REMARK SMILES IDX 56 54 70 55 45 56 46 57 55 59 71 60 48 61 37 62 38 63 42 64
REMARK SMILES IDX 39 65 41 66 40 67 59 68 60 69 64 70 61 71 63 72 62 73 49 74
REMARK SMILES IDX 50 75 54 76 51 77 53 78 52 79
REMARK H PARENT 69 47 47 58
REMARK Flexibility Score: inf
ROOT
ATOM      1  O   UNL A   1      37.252  22.452  25.695  1.00  0.00    -0.374 OA
ENDROOT
BRANCH   1   2
ATOM      2  C   UNL A   1      35.982  22.337  25.062  1.00  0.00     0.202 C 
BRANCH   2   3
ATOM      3  C   UNL A   1      34.964  21.443  25.767  1.00  0.00     0.261 C 
BRANCH   3   4
ATOM      4  O   UNL A   1      33.748  22.134  26.119  1.00  0.00    -0.462 OA
BRANCH   4   5
ATOM      5  C   UNL A   1      32.714  21.985  25.247  1.00  0.00     0.328 C 
ATOM      6  O   UNL A   1      32.464  20.936  24.662  1.00  0.00    -0.250 OA
BRANCH   5   7
ATOM      7  C   UNL A   1      31.884  23.278  25.025  1.00  0.00     0.195 C 
ATOM      8  N   UNL A   1      32.422  24.601  25.443  1.00  0.00    -0.325 N 
ATOM      9  C   UNL A   1      33.630  25.037  24.734  1.00  0.00     0.121 C 
ATOM     10  C   UNL A   1      33.491  24.976  23.215  1.00  0.00     0.022 C 
ATOM     11  C   UNL A   1      31.627  23.320  23.500  1.00  0.00     0.037 C 
ATOM     12  C   UNL A   1      32.925  23.640  22.746  1.00  0.00     0.005 C 
BRANCH   8  13
ATOM     13  C   UNL A   1      31.622  25.622  25.988  1.00  0.00     0.260 C 
ATOM     14  O   UNL A   1      30.793  25.357  26.859  1.00  0.00    -0.269 OA
BRANCH  13  15
ATOM     15  C   UNL A   1      31.587  26.997  25.347  1.00  0.00     0.111 A 
ATOM     16  C   UNL A   1      29.834  29.115  22.701  1.00  0.00     0.069 C 
ATOM     17  C   UNL A   1      30.573  28.713  23.957  1.00  0.00     0.062 A 
ATOM     18  N   UNL A   1      31.052  29.706  24.623  1.00  0.00    -0.175 NA
ATOM     19  C   UNL A   1      30.689  27.286  24.383  1.00  0.00    -0.010 A 
ATOM     20  N   UNL A   1      31.775  29.429  25.736  1.00  0.00    -0.232 N 
ATOM     21  C   UNL A   1      29.659  26.331  23.897  1.00  0.00     0.047 C 
ATOM     22  C   UNL A   1      32.109  30.601  26.526  1.00  0.00     0.178 C 
ATOM     23  C   UNL A   1      32.241  28.154  26.064  1.00  0.00     0.279 A 
ATOM     24  O   UNL A   1      33.103  27.966  26.918  1.00  0.00    -0.267 OA
ENDBRANCH  13  15
ENDBRANCH   8  13
ENDBRANCH   5   7
ENDBRANCH   4   5
ENDBRANCH   3   4
ENDBRANCH   2   3
ENDBRANCH   1   2
BRANCH   1  25
ATOM     25  C   UNL A   1      38.241  21.477  25.364  1.00  0.00     0.202 C 
BRANCH  25  26
ATOM     26  C   UNL A   1      39.530  21.575  26.184  1.00  0.00     0.261 C 
BRANCH  26  27
ATOM     27  O   UNL A   1      39.559  22.840  26.884  1.00  0.00    -0.460 OA
BRANCH  27  28
ATOM     28  C   UNL A   1      40.679  23.588  26.766  1.00  0.00     0.338 C 
ATOM     29  O   UNL A   1      41.665  23.332  26.104  1.00  0.00    -0.246 OA
BRANCH  28  30
ATOM     30  C   UNL A   1      40.467  24.883  27.457  1.00  0.00     0.060 A 
ATOM     31  C   UNL A   1      41.450  25.864  27.313  1.00  0.00     0.016 A 
ATOM     32  C   UNL A   1      39.374  25.113  28.300  1.00  0.00     0.016 A 
ATOM     33  C   UNL A   1      41.375  27.046  28.057  1.00  0.00     0.010 A 
ATOM     34  C   UNL A   1      39.274  26.323  29.006  1.00  0.00     0.010 A 
ATOM     35  C   UNL A   1      40.311  27.270  28.946  1.00  0.00    -0.014 A 
BRANCH  35  36
ATOM     36  C   UNL A   1      40.429  28.381  29.939  1.00  0.00     0.031 A 
ATOM     37  C   UNL A   1      39.430  29.515  29.896  1.00  0.00     0.074 A 
ATOM     38  C   UNL A   1      41.315  28.339  30.954  1.00  0.00     0.049 A 
ATOM     39  N   UNL A   1      39.226  30.471  30.771  1.00  0.00    -0.248 NA
ATOM     40  C   UNL A   1      38.537  29.577  28.728  1.00  0.00     0.031 C 
ATOM     41  C   UNL A   1      42.331  27.308  31.151  1.00  0.00     0.029 A 
ATOM     42  N   UNL A   1      41.476  29.180  32.033  1.00  0.00    -0.354 N 
ATOM     43  C   UNL A   1      38.174  31.228  30.266  1.00  0.00     0.074 A 
ATOM     44  C   UNL A   1      37.825  30.664  28.983  1.00  0.00     0.031 C 
ATOM     45  C   UNL A   1      42.982  27.553  32.303  1.00  0.00     0.029 A 
ATOM     46  C   UNL A   1      42.445  28.769  32.918  1.00  0.00     0.049 A 
ATOM     47  H   UNL A   1      40.945  29.999  32.160  1.00  0.00     0.167 HD
ATOM     48  C   UNL A   1      37.528  32.278  30.826  1.00  0.00     0.031 A 
ATOM     49  C   UNL A   1      42.852  29.295  34.092  1.00  0.00     0.031 A 
ATOM     50  C   UNL A   1      37.855  32.863  32.095  1.00  0.00     0.049 A 
ATOM     51  C   UNL A   1      42.182  30.526  34.649  1.00  0.00     0.074 A 
ATOM     52  C   UNL A   1      37.220  33.910  32.744  1.00  0.00     0.029 A 
ATOM     53  N   UNL A   1      38.907  32.470  32.902  1.00  0.00    -0.354 N 
ATOM     54  N   UNL A   1      41.141  31.177  34.194  1.00  0.00    -0.248 NA
ATOM     55  C   UNL A   1      42.743  31.090  35.890  1.00  0.00     0.031 C 
ATOM     56  C   UNL A   1      37.933  34.197  33.910  1.00  0.00     0.029 A 
ATOM     57  C   UNL A   1      38.970  33.286  34.019  1.00  0.00     0.049 A 
ATOM     58  H   UNL A   1      39.518  31.723  32.711  1.00  0.00     0.167 HD
ATOM     59  C   UNL A   1      40.913  32.213  35.096  1.00  0.00     0.074 A 
ATOM     60  C   UNL A   1      41.909  32.092  36.138  1.00  0.00     0.031 C 
ATOM     61  C   UNL A   1      39.963  33.177  35.056  1.00  0.00     0.031 A 
BRANCH  48  62
ATOM     62  C   UNL A   1      36.381  32.874  30.058  1.00  0.00    -0.014 A 
ATOM     63  C   UNL A   1      36.594  33.889  29.112  1.00  0.00     0.009 A 
ATOM     64  C   UNL A   1      35.084  32.366  30.232  1.00  0.00     0.009 A 
ATOM     65  C   UNL A   1      35.527  34.401  28.373  1.00  0.00     0.001 A 
ATOM     66  C   UNL A   1      34.025  32.858  29.470  1.00  0.00     0.001 A 
ATOM     67  C   UNL A   1      34.244  33.879  28.547  1.00  0.00     0.000 A 
ENDBRANCH  48  62
BRANCH  49  68
ATOM     68  C   UNL A   1      43.965  28.652  34.846  1.00  0.00    -0.014 A 
ATOM     69  C   UNL A   1      43.701  27.678  35.821  1.00  0.00     0.009 A 
ATOM     70  C   UNL A   1      45.296  29.028  34.605  1.00  0.00     0.009 A 
ATOM     71  C   UNL A   1      44.748  27.104  36.549  1.00  0.00     0.001 A 
ATOM     72  C   UNL A   1      46.341  28.431  35.314  1.00  0.00     0.001 A 
ATOM     73  C   UNL A   1      46.066  27.476  36.289  1.00  0.00     0.000 A 
ENDBRANCH  49  68
BRANCH  61  74
ATOM     74  C   UNL A   1      39.934  34.204  36.156  1.00  0.00    -0.014 A 
ATOM     75  C   UNL A   1      40.589  35.435  36.008  1.00  0.00     0.009 A 
ATOM     76  C   UNL A   1      39.148  33.988  37.300  1.00  0.00     0.009 A 
ATOM     77  C   UNL A   1      40.464  36.426  36.986  1.00  0.00     0.001 A 
ATOM     78  C   UNL A   1      39.003  34.989  38.262  1.00  0.00     0.001 A 
ATOM     79  C   UNL A   1      39.663  36.207  38.106  1.00  0.00     0.000 A 
ENDBRANCH  61  74
ENDBRANCH  35  36
ENDBRANCH  28  30
ENDBRANCH  27  28
ENDBRANCH  26  27
ENDBRANCH  25  26
ENDBRANCH   1  25
TORSDOF 16
ENDMDL
MODEL 3
REMARK VINA RESULT:     -10.7      0.640      5.854
REMARK SMILES Cc1nn(C)c(=O)c(C(=O)N2CCCC[C@H]2C(=O)OCCOCCOC(=O)c2ccc(-c3c4nc(c(-c5ccccc5)c5ccc([nH]5)c(-c5ccccc5)c5nc(c(-c6ccccc6)c6ccc3[nH]6)C=C5)C=C4)cc2)c1C
REMARK SMILES IDX 22 1 21 2 20 3 19 4 17 5 18 6 16 7 11 8 12 9 13 10 15 11
REMARK SMILES IDX 14 12 9 13 10 14 8 15 1 16 2 17 3 18 76 19 4 20 77 21 5 22
REMARK SMILES IDX 6 23 7 24 23 25 24 26 25 27 26 28 27 29 28 30 29 31 75 32
REMARK SMILES IDX 30 33 74 34 31 35 32 36 33 37 68 38 34 39 73 40 67 41 69 42
REMARK SMILES IDX 35 43 72 44 66 45 65 46 36 48 58 49 43 50 57 51 44 52 47 53
REMARK SMILES IDX 56 54 70 55 45 56 46 57 55 59 71 60 48 61 37 62 38 63 42 64
REMARK SMILES IDX 39 65 41 66 40 67 59 68 60 69 64 70 61 71 63 72 62 73 49 74
REMARK SMILES IDX 50 75 54 76 51 77 53 78 52 79
REMARK H PARENT 69 47 47 58
REMARK Flexibility Score: inf
ROOT
ATOM      1  O   UNL A   1      34.931  20.672  24.562  1.00  0.00    -0.374 OA
ENDROOT
BRANCH   1   2
ATOM      2  C   UNL A   1      33.962  20.868  25.587  1.00  0.00     0.202 C 
BRANCH   2   3
ATOM      3  C   UNL A   1      32.515  20.568  25.201  1.00  0.00     0.261 C 
BRANCH   3   4
ATOM      4  O   UNL A   1      31.700  21.753  25.085  1.00  0.00    -0.462 OA
BRANCH   4   5
ATOM      5  C   UNL A   1      31.884  22.484  23.952  1.00  0.00     0.328 C 
ATOM      6  O   UNL A   1      32.173  21.992  22.865  1.00  0.00    -0.250 OA
BRANCH   5   7
ATOM      7  C   UNL A   1      31.728  24.015  24.155  1.00  0.00     0.195 C 
ATOM      8  N   UNL A   1      31.839  24.610  25.515  1.00  0.00    -0.325 N 
ATOM      9  C   UNL A   1      33.154  24.476  26.151  1.00  0.00     0.121 C 
ATOM     10  C   UNL A   1      34.302  24.954  25.266  1.00  0.00     0.022 C 
ATOM     11  C   UNL A   1      32.825  24.641  23.262  1.00  0.00     0.037 C 
ATOM     12  C   UNL A   1      34.216  24.380  23.857  1.00  0.00     0.005 C 
BRANCH   8  13
ATOM     13  C   UNL A   1      31.047  25.689  25.952  1.00  0.00     0.260 C 
ATOM     14  O   UNL A   1      30.061  25.482  26.660  1.00  0.00    -0.269 OA
BRANCH  13  15
ATOM     15  C   UNL A   1      31.241  27.073  25.363  1.00  0.00     0.111 A 
ATOM     16  C   UNL A   1      30.048  29.446  22.624  1.00  0.00     0.069 C 
ATOM     17  C   UNL A   1      30.591  28.930  23.936  1.00  0.00     0.062 A 
ATOM     18  N   UNL A   1      31.102  29.843  24.687  1.00  0.00    -0.175 NA
ATOM     19  C   UNL A   1      30.495  27.489  24.319  1.00  0.00    -0.010 A 
ATOM     20  N   UNL A   1      31.659  29.456  25.860  1.00  0.00    -0.232 N 
ATOM     21  C   UNL A   1      29.425  26.673  23.688  1.00  0.00     0.047 C 
ATOM     22  C   UNL A   1      32.034  30.561  26.725  1.00  0.00     0.178 C 
ATOM     23  C   UNL A   1      31.937  28.128  26.189  1.00  0.00     0.279 A 
ATOM     24  O   UNL A   1      32.671  27.819  27.124  1.00  0.00    -0.267 OA
ENDBRANCH  13  15
ENDBRANCH   8  13
ENDBRANCH   5   7
ENDBRANCH   4   5
ENDBRANCH   3   4
ENDBRANCH   2   3
ENDBRANCH   1   2
BRANCH   1  25
ATOM     25  C   UNL A   1      36.199  20.144  24.951  1.00  0.00     0.202 C 
BRANCH  25  26
ATOM     26  C   UNL A   1      37.379  21.091  24.717  1.00  0.00     0.261 C 
BRANCH  26  27
ATOM     27  O   UNL A   1      37.822  21.629  25.984  1.00  0.00    -0.460 OA
BRANCH  27  28
ATOM     28  C   UNL A   1      39.137  21.522  26.280  1.00  0.00     0.338 C 
ATOM     29  O   UNL A   1      39.857  20.564  26.079  1.00  0.00    -0.246 OA
BRANCH  28  30
ATOM     30  C   UNL A   1      39.631  22.837  26.755  1.00  0.00     0.060 A 
ATOM     31  C   UNL A   1      39.064  23.984  26.195  1.00  0.00     0.016 A 
ATOM     32  C   UNL A   1      40.686  22.958  27.665  1.00  0.00     0.016 A 
ATOM     33  C   UNL A   1      39.589  25.244  26.496  1.00  0.00     0.010 A 
ATOM     34  C   UNL A   1      41.179  24.228  28.005  1.00  0.00     0.010 A 
ATOM     35  C   UNL A   1      40.682  25.378  27.369  1.00  0.00    -0.014 A 
BRANCH  35  36
ATOM     36  C   UNL A   1      41.404  26.686  27.417  1.00  0.00     0.031 A 
ATOM     37  C   UNL A   1      40.842  27.807  28.261  1.00  0.00     0.074 A 
ATOM     38  C   UNL A   1      42.610  26.856  26.838  1.00  0.00     0.049 A 
ATOM     39  N   UNL A   1      41.397  28.945  28.601  1.00  0.00    -0.248 NA
ATOM     40  C   UNL A   1      39.486  27.620  28.804  1.00  0.00     0.031 C 
ATOM     41  C   UNL A   1      43.300  25.871  26.009  1.00  0.00     0.029 A 
ATOM     42  N   UNL A   1      43.483  27.920  26.893  1.00  0.00    -0.354 N 
ATOM     43  C   UNL A   1      40.469  29.593  29.408  1.00  0.00     0.074 A 
ATOM     44  C   UNL A   1      39.292  28.756  29.456  1.00  0.00     0.031 C 
ATOM     45  C   UNL A   1      44.506  26.359  25.666  1.00  0.00     0.029 A 
ATOM     46  C   UNL A   1      44.670  27.699  26.233  1.00  0.00     0.049 A 
ATOM     47  H   UNL A   1      43.278  28.761  27.361  1.00  0.00     0.167 HD
ATOM     48  C   UNL A   1      40.585  30.762  30.081  1.00  0.00     0.031 A 
ATOM     49  C   UNL A   1      45.768  28.473  26.105  1.00  0.00     0.031 A 
ATOM     50  C   UNL A   1      41.738  31.618  30.050  1.00  0.00     0.049 A 
ATOM     51  C   UNL A   1      45.838  29.818  26.784  1.00  0.00     0.074 A 
ATOM     52  C   UNL A   1      41.942  32.804  30.736  1.00  0.00     0.029 A 
ATOM     53  N   UNL A   1      42.871  31.393  29.289  1.00  0.00    -0.354 N 
ATOM     54  N   UNL A   1      44.981  30.374  27.604  1.00  0.00    -0.248 NA
ATOM     55  C   UNL A   1      47.033  30.639  26.522  1.00  0.00     0.031 C 
ATOM     56  C   UNL A   1      43.171  33.334  30.333  1.00  0.00     0.029 A 
ATOM     57  C   UNL A   1      43.758  32.445  29.450  1.00  0.00     0.049 A 
ATOM     58  H   UNL A   1      43.024  30.606  28.720  1.00  0.00     0.167 HD
ATOM     59  C   UNL A   1      45.538  31.597  27.966  1.00  0.00     0.074 A 
ATOM     60  C   UNL A   1      46.817  31.694  27.297  1.00  0.00     0.031 C 
ATOM     61  C   UNL A   1      45.028  32.552  28.780  1.00  0.00     0.031 A 
BRANCH  48  62
ATOM     62  C   UNL A   1      39.419  31.196  30.925  1.00  0.00    -0.014 A 
ATOM     63  C   UNL A   1      38.380  31.967  30.381  1.00  0.00     0.009 A 
ATOM     64  C   UNL A   1      39.325  30.769  32.259  1.00  0.00     0.009 A 
ATOM     65  C   UNL A   1      37.281  32.322  31.163  1.00  0.00     0.001 A 
ATOM     66  C   UNL A   1      38.210  31.100  33.029  1.00  0.00     0.001 A 
ATOM     67  C   UNL A   1      37.193  31.882  32.484  1.00  0.00     0.000 A 
ENDBRANCH  48  62
BRANCH  49  68
ATOM     68  C   UNL A   1      46.922  27.991  25.295  1.00  0.00    -0.014 A 
ATOM     69  C   UNL A   1      48.058  27.448  25.916  1.00  0.00     0.009 A 
ATOM     70  C   UNL A   1      46.899  28.094  23.895  1.00  0.00     0.009 A 
ATOM     71  C   UNL A   1      49.151  27.030  25.151  1.00  0.00     0.001 A 
ATOM     72  C   UNL A   1      47.981  27.649  23.132  1.00  0.00     0.001 A 
ATOM     73  C   UNL A   1      49.108  27.125  23.761  1.00  0.00     0.000 A 
ENDBRANCH  49  68
BRANCH  61  74
ATOM     74  C   UNL A   1      45.828  33.807  29.005  1.00  0.00    -0.014 A 
ATOM     75  C   UNL A   1      46.800  33.869  30.014  1.00  0.00     0.009 A 
ATOM     76  C   UNL A   1      45.694  34.895  28.127  1.00  0.00     0.009 A 
ATOM     77  C   UNL A   1      47.616  34.996  30.144  1.00  0.00     0.001 A 
ATOM     78  C   UNL A   1      46.528  36.008  28.241  1.00  0.00     0.001 A 
ATOM     79  C   UNL A   1      47.487  36.059  29.251  1.00  0.00     0.000 A 
ENDBRANCH  61  74
ENDBRANCH  35  36
ENDBRANCH  28  30
ENDBRANCH  27  28
ENDBRANCH  26  27
ENDBRANCH  25  26
ENDBRANCH   1  25
TORSDOF 16
ENDMDL
