MODEL 1
REMARK VINA RESULT:      -9.3      0.000      0.000
REMARK SMILES Cc1nc(CSCC(=O)N2CCCC[C@@H]2C(=O)OCCOCCOC(=O)c2ccc(-c3c4nc(c(-c5ccccc5)c5ccc([nH]5)c(-c5ccccc5)c5nc(c(-c6ccccc6)c6ccc3[nH]6)C=C5)C=C4)cc2)cs1
REMARK SMILES IDX 19 1 18 2 16 3 17 4 15 5 10 6 11 7 12 8 14 9 13 10 8 11 9 12
REMARK SMILES IDX 7 13 6 14 5 15 4 16 1 17 2 18 3 19 76 20 75 21 20 22 21 23
REMARK SMILES IDX 22 24 23 25 24 26 25 27 26 28 27 29 28 30 74 31 29 32 73 33
REMARK SMILES IDX 30 34 31 35 32 36 67 37 33 38 72 39 66 40 68 41 34 42 71 43
REMARK SMILES IDX 65 44 64 45 35 47 57 48 42 49 56 50 43 51 46 52 55 53 69 54
REMARK SMILES IDX 44 55 45 56 54 58 70 59 47 60 36 61 37 62 41 63 38 64 40 65
REMARK SMILES IDX 39 66 58 67 59 68 63 69 60 70 62 71 61 72 48 73 49 74 53 75
REMARK SMILES IDX 50 76 52 77 51 78
REMARK H PARENT 68 46 46 57
REMARK Flexibility Score: inf
ROOT
ATOM      1  C   UNL A   1      35.172  22.859  26.494  1.00  0.00     0.261 C 
ENDROOT
BRANCH   1   2
ATOM      2  O   UNL A   1      34.674  24.141  26.114  1.00  0.00    -0.462 OA
BRANCH   2   3
ATOM      3  C   UNL A   1      33.327  24.304  26.047  1.00  0.00     0.328 C 
ATOM      4  O   UNL A   1      32.516  23.766  26.790  1.00  0.00    -0.250 OA
BRANCH   3   5
ATOM      5  C   UNL A   1      32.937  25.191  24.848  1.00  0.00     0.195 C 
ATOM      6  N   UNL A   1      32.458  24.415  23.689  1.00  0.00    -0.328 N 
ATOM      7  C   UNL A   1      32.152  25.166  22.476  1.00  0.00     0.120 C 
ATOM      8  C   UNL A   1      33.235  26.189  22.122  1.00  0.00     0.022 C 
ATOM      9  C   UNL A   1      34.002  26.235  24.485  1.00  0.00     0.037 C 
ATOM     10  C   UNL A   1      33.543  27.090  23.312  1.00  0.00     0.005 C 
BRANCH   6  11
ATOM     11  C   UNL A   1      32.902  23.102  23.517  1.00  0.00     0.233 C 
ATOM     12  O   UNL A   1      34.050  22.851  23.168  1.00  0.00    -0.274 OA
BRANCH  11  13
ATOM     13  C   UNL A   1      31.803  22.080  23.831  1.00  0.00     0.170 C 
BRANCH  13  14
ATOM     14  S   UNL A   1      32.298  20.737  24.963  1.00  0.00    -0.146 SA
BRANCH  14  15
ATOM     15  C   UNL A   1      32.689  19.452  23.745  1.00  0.00     0.127 C 
BRANCH  15  16
ATOM     16  C   UNL A   1      33.151  18.163  24.342  1.00  0.00     0.061 A 
ATOM     17  C   UNL A   1      32.038  15.170  26.100  1.00  0.00     0.079 C 
ATOM     18  C   UNL A   1      32.773  16.227  25.357  1.00  0.00     0.090 A 
ATOM     19  N   UNL A   1      32.211  17.336  24.938  1.00  0.00    -0.246 NA
ATOM     20  S   UNL A   1      34.443  16.069  25.000  1.00  0.00    -0.127 S 
ATOM     21  C   UNL A   1      34.418  17.614  24.255  1.00  0.00     0.091 A 
ENDBRANCH  15  16
ENDBRANCH  14  15
ENDBRANCH  13  14
ENDBRANCH  11  13
ENDBRANCH   6  11
ENDBRANCH   3   5
ENDBRANCH   2   3
ENDBRANCH   1   2
BRANCH   1  22
ATOM     22  C   UNL A   1      36.546  22.441  25.959  1.00  0.00     0.202 C 
BRANCH  22  23
ATOM     23  O   UNL A   1      36.661  21.631  24.801  1.00  0.00    -0.374 OA
BRANCH  23  24
ATOM     24  C   UNL A   1      36.823  20.226  24.908  1.00  0.00     0.202 C 
BRANCH  24  25
ATOM     25  C   UNL A   1      38.184  19.654  25.307  1.00  0.00     0.261 C 
BRANCH  25  26
ATOM     26  O   UNL A   1      39.221  20.644  25.392  1.00  0.00    -0.460 OA
BRANCH  26  27
ATOM     27  C   UNL A   1      40.388  20.194  25.915  1.00  0.00     0.338 C 
ATOM     28  O   UNL A   1      40.850  19.070  25.829  1.00  0.00    -0.246 OA
BRANCH  27  29
ATOM     29  C   UNL A   1      41.150  21.303  26.515  1.00  0.00     0.060 A 
ATOM     30  C   UNL A   1      41.027  21.498  27.897  1.00  0.00     0.016 A 
ATOM     31  C   UNL A   1      41.866  22.205  25.728  1.00  0.00     0.016 A 
ATOM     32  C   UNL A   1      41.568  22.635  28.490  1.00  0.00     0.010 A 
ATOM     33  C   UNL A   1      42.395  23.355  26.322  1.00  0.00     0.010 A 
ATOM     34  C   UNL A   1      42.204  23.596  27.695  1.00  0.00    -0.014 A 
BRANCH  34  35
ATOM     35  C   UNL A   1      42.473  24.939  28.261  1.00  0.00     0.031 A 
ATOM     36  C   UNL A   1      43.879  25.273  28.683  1.00  0.00     0.074 A 
ATOM     37  C   UNL A   1      41.501  25.862  28.363  1.00  0.00     0.049 A 
ATOM     38  N   UNL A   1      44.349  26.370  29.219  1.00  0.00    -0.248 NA
ATOM     39  C   UNL A   1      44.890  24.225  28.468  1.00  0.00     0.031 C 
ATOM     40  C   UNL A   1      40.116  25.685  27.935  1.00  0.00     0.029 A 
ATOM     41  N   UNL A   1      41.543  27.137  28.865  1.00  0.00    -0.354 N 
ATOM     42  C   UNL A   1      45.706  26.143  29.410  1.00  0.00     0.074 A 
ATOM     43  C   UNL A   1      45.979  24.794  28.962  1.00  0.00     0.031 C 
ATOM     44  C   UNL A   1      39.434  26.814  28.198  1.00  0.00     0.029 A 
ATOM     45  C   UNL A   1      40.329  27.776  28.841  1.00  0.00     0.049 A 
ATOM     46  H   UNL A   1      42.365  27.556  29.209  1.00  0.00     0.167 HD
ATOM     47  C   UNL A   1      46.646  26.980  29.911  1.00  0.00     0.031 A 
ATOM     48  C   UNL A   1      39.977  28.990  29.305  1.00  0.00     0.031 A 
ATOM     49  C   UNL A   1      46.374  28.312  30.379  1.00  0.00     0.049 A 
ATOM     50  C   UNL A   1      41.016  29.867  29.952  1.00  0.00     0.074 A 
ATOM     51  C   UNL A   1      47.256  29.241  30.902  1.00  0.00     0.029 A 
ATOM     52  N   UNL A   1      45.118  28.899  30.393  1.00  0.00    -0.354 N 
ATOM     53  N   UNL A   1      42.300  29.649  30.114  1.00  0.00    -0.248 NA
ATOM     54  C   UNL A   1      40.557  31.162  30.475  1.00  0.00     0.031 C 
ATOM     55  C   UNL A   1      46.523  30.369  31.285  1.00  0.00     0.029 A 
ATOM     56  C   UNL A   1      45.195  30.166  30.944  1.00  0.00     0.049 A 
ATOM     57  H   UNL A   1      44.293  28.475  30.061  1.00  0.00     0.167 HD
ATOM     58  C   UNL A   1      42.805  30.788  30.730  1.00  0.00     0.074 A 
ATOM     59  C   UNL A   1      41.691  31.699  30.903  1.00  0.00     0.031 C 
ATOM     60  C   UNL A   1      44.077  31.059  31.113  1.00  0.00     0.031 A 
BRANCH  47  61
ATOM     61  C   UNL A   1      48.048  26.450  30.017  1.00  0.00    -0.014 A 
ATOM     62  C   UNL A   1      48.957  26.568  28.953  1.00  0.00     0.009 A 
ATOM     63  C   UNL A   1      48.466  25.822  31.200  1.00  0.00     0.009 A 
ATOM     64  C   UNL A   1      50.242  26.028  29.057  1.00  0.00     0.001 A 
ATOM     65  C   UNL A   1      49.760  25.308  31.312  1.00  0.00     0.001 A 
ATOM     66  C   UNL A   1      50.642  25.401  30.238  1.00  0.00     0.000 A 
ENDBRANCH  47  61
BRANCH  48  67
ATOM     67  C   UNL A   1      38.568  29.448  29.189  1.00  0.00    -0.014 A 
ATOM     68  C   UNL A   1      38.115  30.071  28.017  1.00  0.00     0.009 A 
ATOM     69  C   UNL A   1      37.671  29.269  30.254  1.00  0.00     0.009 A 
ATOM     70  C   UNL A   1      36.795  30.522  27.919  1.00  0.00     0.001 A 
ATOM     71  C   UNL A   1      36.346  29.695  30.144  1.00  0.00     0.001 A 
ATOM     72  C   UNL A   1      35.911  30.327  28.981  1.00  0.00     0.000 A 
ENDBRANCH  48  67
BRANCH  60  73
ATOM     73  C   UNL A   1      44.343  32.407  31.724  1.00  0.00    -0.014 A 
ATOM     74  C   UNL A   1      44.658  33.520  30.930  1.00  0.00     0.009 A 
ATOM     75  C   UNL A   1      44.228  32.573  33.113  1.00  0.00     0.009 A 
ATOM     76  C   UNL A   1      44.885  34.766  31.520  1.00  0.00     0.001 A 
ATOM     77  C   UNL A   1      44.427  33.824  33.697  1.00  0.00     0.001 A 
ATOM     78  C   UNL A   1      44.765  34.918  32.901  1.00  0.00     0.000 A 
ENDBRANCH  60  73
ENDBRANCH  34  35
ENDBRANCH  27  29
ENDBRANCH  26  27
ENDBRANCH  25  26
ENDBRANCH  24  25
ENDBRANCH  23  24
ENDBRANCH  22  23
ENDBRANCH   1  22
TORSDOF 19
ENDMDL
MODEL 2
REMARK VINA RESULT:      -9.2      1.029      6.018
REMARK SMILES Cc1nc(CSCC(=O)N2CCCC[C@@H]2C(=O)OCCOCCOC(=O)c2ccc(-c3c4nc(c(-c5ccccc5)c5ccc([nH]5)c(-c5ccccc5)c5nc(c(-c6ccccc6)c6ccc3[nH]6)C=C5)C=C4)cc2)cs1
REMARK SMILES IDX 19 1 18 2 16 3 17 4 15 5 10 6 11 7 12 8 14 9 13 10 8 11 9 12
REMARK SMILES IDX 7 13 6 14 5 15 4 16 1 17 2 18 3 19 76 20 75 21 20 22 21 23
REMARK SMILES IDX 22 24 23 25 24 26 25 27 26 28 27 29 28 30 74 31 29 32 73 33
REMARK SMILES IDX 30 34 31 35 32 36 67 37 33 38 72 39 66 40 68 41 34 42 71 43
REMARK SMILES IDX 65 44 64 45 35 47 57 48 42 49 56 50 43 51 46 52 55 53 69 54
REMARK SMILES IDX 44 55 45 56 54 58 70 59 47 60 36 61 37 62 41 63 38 64 40 65
REMARK SMILES IDX 39 66 58 67 59 68 63 69 60 70 62 71 61 72 48 73 49 74 53 75
REMARK SMILES IDX 50 76 52 77 51 78
REMARK H PARENT 68 46 46 57
REMARK Flexibility Score: inf
ROOT
ATOM      1  C   UNL A   1      37.019  23.482  24.975  1.00  0.00     0.261 C 
ENDROOT
BRANCH   1   2
ATOM      2  O   UNL A   1      35.679  23.971  24.950  1.00  0.00    -0.462 OA
BRANCH   2   3
ATOM      3  C   UNL A   1      35.057  24.058  23.746  1.00  0.00     0.328 C 
ATOM      4  O   UNL A   1      35.434  23.506  22.719  1.00  0.00    -0.250 OA
BRANCH   3   5
ATOM      5  C   UNL A   1      33.855  25.021  23.812  1.00  0.00     0.195 C 
ATOM      6  N   UNL A   1      32.607  24.355  24.229  1.00  0.00    -0.328 N 
ATOM      7  C   UNL A   1      31.397  25.171  24.231  1.00  0.00     0.120 C 
ATOM      8  C   UNL A   1      31.246  26.013  22.961  1.00  0.00     0.022 C 
ATOM      9  C   UNL A   1      33.695  25.887  22.555  1.00  0.00     0.037 C 
ATOM     10  C   UNL A   1      32.506  26.829  22.696  1.00  0.00     0.005 C 
BRANCH   6  11
ATOM     11  C   UNL A   1      32.442  22.992  23.974  1.00  0.00     0.233 C 
ATOM     12  O   UNL A   1      32.120  22.578  22.867  1.00  0.00    -0.274 OA
BRANCH  11  13
ATOM     13  C   UNL A   1      32.729  22.140  25.216  1.00  0.00     0.170 C 
BRANCH  13  14
ATOM     14  S   UNL A   1      32.159  20.409  25.113  1.00  0.00    -0.146 SA
BRANCH  14  15
ATOM     15  C   UNL A   1      33.599  19.671  24.294  1.00  0.00     0.127 C 
BRANCH  15  16
ATOM     16  C   UNL A   1      33.865  18.254  24.682  1.00  0.00     0.061 A 
ATOM     17  C   UNL A   1      32.280  15.151  25.755  1.00  0.00     0.079 C 
ATOM     18  C   UNL A   1      33.191  16.228  25.287  1.00  0.00     0.090 A 
ATOM     19  N   UNL A   1      32.790  17.451  25.031  1.00  0.00    -0.246 NA
ATOM     20  S   UNL A   1      34.867  15.942  25.056  1.00  0.00    -0.127 S 
ATOM     21  C   UNL A   1      35.074  17.585  24.608  1.00  0.00     0.091 A 
ENDBRANCH  15  16
ENDBRANCH  14  15
ENDBRANCH  13  14
ENDBRANCH  11  13
ENDBRANCH   6  11
ENDBRANCH   3   5
ENDBRANCH   2   3
ENDBRANCH   1   2
BRANCH   1  22
ATOM     22  C   UNL A   1      37.224  21.972  25.141  1.00  0.00     0.202 C 
BRANCH  22  23
ATOM     23  O   UNL A   1      38.470  21.449  25.567  1.00  0.00    -0.374 OA
BRANCH  23  24
ATOM     24  C   UNL A   1      38.873  20.138  25.203  1.00  0.00     0.202 C 
BRANCH  24  25
ATOM     25  C   UNL A   1      39.971  19.438  26.003  1.00  0.00     0.261 C 
BRANCH  25  26
ATOM     26  O   UNL A   1      41.200  19.280  25.276  1.00  0.00    -0.460 OA
BRANCH  26  27
ATOM     27  C   UNL A   1      42.314  19.608  25.975  1.00  0.00     0.338 C 
ATOM     28  O   UNL A   1      43.338  18.958  26.080  1.00  0.00    -0.246 OA
BRANCH  27  29
ATOM     29  C   UNL A   1      42.203  20.975  26.514  1.00  0.00     0.060 A 
ATOM     30  C   UNL A   1      42.403  22.039  25.625  1.00  0.00     0.016 A 
ATOM     31  C   UNL A   1      42.033  21.209  27.880  1.00  0.00     0.016 A 
ATOM     32  C   UNL A   1      42.499  23.341  26.108  1.00  0.00     0.010 A 
ATOM     33  C   UNL A   1      42.144  22.515  28.366  1.00  0.00     0.010 A 
ATOM     34  C   UNL A   1      42.427  23.577  27.487  1.00  0.00    -0.014 A 
BRANCH  34  35
ATOM     35  C   UNL A   1      42.860  24.890  28.020  1.00  0.00     0.031 A 
ATOM     36  C   UNL A   1      41.816  25.946  28.266  1.00  0.00     0.074 A 
ATOM     37  C   UNL A   1      44.148  25.132  28.319  1.00  0.00     0.049 A 
ATOM     38  N   UNL A   1      41.957  27.170  28.707  1.00  0.00    -0.248 NA
ATOM     39  C   UNL A   1      40.423  25.566  27.976  1.00  0.00     0.031 C 
ATOM     40  C   UNL A   1      45.244  24.176  28.184  1.00  0.00     0.029 A 
ATOM     41  N   UNL A   1      44.744  26.270  28.799  1.00  0.00    -0.354 N 
ATOM     42  C   UNL A   1      40.676  27.706  28.741  1.00  0.00     0.074 A 
ATOM     43  C   UNL A   1      39.775  26.688  28.248  1.00  0.00     0.031 C 
ATOM     44  C   UNL A   1      46.387  24.771  28.570  1.00  0.00     0.029 A 
ATOM     45  C   UNL A   1      46.104  26.156  28.946  1.00  0.00     0.049 A 
ATOM     46  H   UNL A   1      44.245  27.090  29.019  1.00  0.00     0.167 HD
ATOM     47  C   UNL A   1      40.280  28.935  29.149  1.00  0.00     0.031 A 
ATOM     48  C   UNL A   1      47.016  27.072  29.321  1.00  0.00     0.031 A 
ATOM     49  C   UNL A   1      41.176  29.959  29.616  1.00  0.00     0.049 A 
ATOM     50  C   UNL A   1      46.568  28.465  29.673  1.00  0.00     0.074 A 
ATOM     51  C   UNL A   1      40.876  31.236  30.055  1.00  0.00     0.029 A 
ATOM     52  N   UNL A   1      42.554  29.822  29.692  1.00  0.00    -0.354 N 
ATOM     53  N   UNL A   1      45.353  28.958  29.717  1.00  0.00    -0.248 NA
ATOM     54  C   UNL A   1      47.619  29.428  30.033  1.00  0.00     0.031 C 
ATOM     55  C   UNL A   1      42.077  31.892  30.342  1.00  0.00     0.029 A 
ATOM     56  C   UNL A   1      43.121  31.003  30.141  1.00  0.00     0.049 A 
ATOM     57  H   UNL A   1      43.054  29.006  29.460  1.00  0.00     0.167 HD
ATOM     58  C   UNL A   1      45.491  30.276  30.137  1.00  0.00     0.074 A 
ATOM     59  C   UNL A   1      46.907  30.503  30.343  1.00  0.00     0.031 C 
ATOM     60  C   UNL A   1      44.532  31.214  30.338  1.00  0.00     0.031 A 
BRANCH  47  61
ATOM     61  C   UNL A   1      38.813  29.248  29.058  1.00  0.00    -0.014 A 
ATOM     62  C   UNL A   1      37.958  29.075  30.159  1.00  0.00     0.009 A 
ATOM     63  C   UNL A   1      38.277  29.721  27.851  1.00  0.00     0.009 A 
ATOM     64  C   UNL A   1      36.589  29.329  30.039  1.00  0.00     0.001 A 
ATOM     65  C   UNL A   1      36.913  30.002  27.742  1.00  0.00     0.001 A 
ATOM     66  C   UNL A   1      36.070  29.794  28.831  1.00  0.00     0.000 A 
ENDBRANCH  47  61
BRANCH  48  67
ATOM     67  C   UNL A   1      48.456  26.706  29.370  1.00  0.00    -0.014 A 
ATOM     68  C   UNL A   1      49.265  26.837  28.232  1.00  0.00     0.009 A 
ATOM     69  C   UNL A   1      49.026  26.218  30.557  1.00  0.00     0.009 A 
ATOM     70  C   UNL A   1      50.613  26.470  28.275  1.00  0.00     0.001 A 
ATOM     71  C   UNL A   1      50.380  25.878  30.605  1.00  0.00     0.001 A 
ATOM     72  C   UNL A   1      51.170  25.997  29.463  1.00  0.00     0.000 A 
ENDBRANCH  48  67
BRANCH  60  73
ATOM     73  C   UNL A   1      44.976  32.560  30.840  1.00  0.00    -0.014 A 
ATOM     74  C   UNL A   1      45.342  33.586  29.956  1.00  0.00     0.009 A 
ATOM     75  C   UNL A   1      44.981  32.817  32.220  1.00  0.00     0.009 A 
ATOM     76  C   UNL A   1      45.737  34.833  30.447  1.00  0.00     0.001 A 
ATOM     77  C   UNL A   1      45.348  34.072  32.707  1.00  0.00     0.001 A 
ATOM     78  C   UNL A   1      45.735  35.076  31.821  1.00  0.00     0.000 A 
ENDBRANCH  60  73
ENDBRANCH  34  35
ENDBRANCH  27  29
ENDBRANCH  26  27
ENDBRANCH  25  26
ENDBRANCH  24  25
ENDBRANCH  23  24
ENDBRANCH  22  23
ENDBRANCH   1  22
TORSDOF 19
ENDMDL
MODEL 3
REMARK VINA RESULT:      -9.1      3.967      8.748
REMARK SMILES Cc1nc(CSCC(=O)N2CCCC[C@@H]2C(=O)OCCOCCOC(=O)c2ccc(-c3c4nc(c(-c5ccccc5)c5ccc([nH]5)c(-c5ccccc5)c5nc(c(-c6ccccc6)c6ccc3[nH]6)C=C5)C=C4)cc2)cs1
REMARK SMILES IDX 19 1 18 2 16 3 17 4 15 5 10 6 11 7 12 8 14 9 13 10 8 11 9 12
REMARK SMILES IDX 7 13 6 14 5 15 4 16 1 17 2 18 3 19 76 20 75 21 20 22 21 23
REMARK SMILES IDX 22 24 23 25 24 26 25 27 26 28 27 29 28 30 74 31 29 32 73 33
REMARK SMILES IDX 30 34 31 35 32 36 67 37 33 38 72 39 66 40 68 41 34 42 71 43
REMARK SMILES IDX 65 44 64 45 35 47 57 48 42 49 56 50 43 51 46 52 55 53 69 54
REMARK SMILES IDX 44 55 45 56 54 58 70 59 47 60 36 61 37 62 41 63 38 64 40 65
REMARK SMILES IDX 39 66 58 67 59 68 63 69 60 70 62 71 61 72 48 73 49 74 53 75
REMARK SMILES IDX 50 76 52 77 51 78
REMARK H PARENT 68 46 46 57
REMARK Flexibility Score: inf
ROOT
ATOM      1  C   UNL A   1      33.963  28.140  26.140  1.00  0.00     0.261 C 
ENDROOT
BRANCH   1   2
ATOM      2  O   UNL A   1      33.677  26.758  25.934  1.00  0.00    -0.462 OA
BRANCH   2   3
ATOM      3  C   UNL A   1      33.639  26.301  24.655  1.00  0.00     0.328 C 
ATOM      4  O   UNL A   1      33.194  26.923  23.700  1.00  0.00    -0.250 OA
BRANCH   3   5
ATOM      5  C   UNL A   1      34.151  24.849  24.571  1.00  0.00     0.195 C 
ATOM      6  N   UNL A   1      33.082  23.850  24.761  1.00  0.00    -0.328 N 
ATOM      7  C   UNL A   1      33.490  22.449  24.788  1.00  0.00     0.120 C 
ATOM      8  C   UNL A   1      34.718  22.205  25.668  1.00  0.00     0.022 C 
ATOM      9  C   UNL A   1      35.393  24.585  25.434  1.00  0.00     0.037 C 
ATOM     10  C   UNL A   1      35.857  23.143  25.286  1.00  0.00     0.005 C 
BRANCH   6  11
ATOM     11  C   UNL A   1      31.957  24.190  25.516  1.00  0.00     0.233 C 
ATOM     12  O   UNL A   1      31.955  24.112  26.738  1.00  0.00    -0.274 OA
BRANCH  11  13
ATOM     13  C   UNL A   1      30.798  24.665  24.632  1.00  0.00     0.170 C 
BRANCH  13  14
ATOM     14  S   UNL A   1      29.921  26.146  25.239  1.00  0.00    -0.146 SA
BRANCH  14  15
ATOM     15  C   UNL A   1      28.852  26.464  23.810  1.00  0.00     0.127 C 
BRANCH  15  16
ATOM     16  C   UNL A   1      29.048  27.807  23.185  1.00  0.00     0.061 A 
ATOM     17  C   UNL A   1      27.657  31.167  22.936  1.00  0.00     0.079 C 
ATOM     18  C   UNL A   1      28.478  29.929  22.882  1.00  0.00     0.090 A 
ATOM     19  N   UNL A   1      28.128  28.806  23.462  1.00  0.00    -0.246 NA
ATOM     20  S   UNL A   1      29.967  29.883  22.031  1.00  0.00    -0.127 S 
ATOM     21  C   UNL A   1      30.139  28.228  22.446  1.00  0.00     0.091 A 
ENDBRANCH  15  16
ENDBRANCH  14  15
ENDBRANCH  13  14
ENDBRANCH  11  13
ENDBRANCH   6  11
ENDBRANCH   3   5
ENDBRANCH   2   3
ENDBRANCH   1   2
BRANCH   1  22
ATOM     22  C   UNL A   1      32.848  29.020  26.717  1.00  0.00     0.202 C 
BRANCH  22  23
ATOM     23  O   UNL A   1      32.986  30.430  26.766  1.00  0.00    -0.374 OA
BRANCH  23  24
ATOM     24  C   UNL A   1      31.847  31.274  26.708  1.00  0.00     0.202 C 
BRANCH  24  25
ATOM     25  C   UNL A   1      32.036  32.791  26.676  1.00  0.00     0.261 C 
BRANCH  25  26
ATOM     26  O   UNL A   1      31.938  33.409  27.970  1.00  0.00    -0.460 OA
BRANCH  26  27
ATOM     27  C   UNL A   1      32.959  34.248  28.271  1.00  0.00     0.338 C 
ATOM     28  O   UNL A   1      32.900  35.452  28.443  1.00  0.00    -0.246 OA
BRANCH  27  29
ATOM     29  C   UNL A   1      34.198  33.489  28.518  1.00  0.00     0.060 A 
ATOM     30  C   UNL A   1      34.138  32.436  29.441  1.00  0.00     0.016 A 
ATOM     31  C   UNL A   1      35.415  33.877  27.956  1.00  0.00     0.016 A 
ATOM     32  C   UNL A   1      35.309  31.807  29.855  1.00  0.00     0.010 A 
ATOM     33  C   UNL A   1      36.592  33.256  28.385  1.00  0.00     0.010 A 
ATOM     34  C   UNL A   1      36.545  32.253  29.372  1.00  0.00    -0.014 A 
BRANCH  34  35
ATOM     35  C   UNL A   1      37.787  31.823  30.056  1.00  0.00     0.031 A 
ATOM     36  C   UNL A   1      38.514  30.614  29.532  1.00  0.00     0.074 A 
ATOM     37  C   UNL A   1      38.286  32.511  31.098  1.00  0.00     0.049 A 
ATOM     38  N   UNL A   1      39.604  30.040  29.975  1.00  0.00    -0.248 NA
ATOM     39  C   UNL A   1      37.932  29.967  28.344  1.00  0.00     0.031 C 
ATOM     40  C   UNL A   1      37.711  33.730  31.661  1.00  0.00     0.029 A 
ATOM     41  N   UNL A   1      39.396  32.270  31.865  1.00  0.00    -0.354 N 
ATOM     42  C   UNL A   1      39.832  28.964  29.126  1.00  0.00     0.074 A 
ATOM     43  C   UNL A   1      38.755  28.945  28.162  1.00  0.00     0.031 C 
ATOM     44  C   UNL A   1      38.475  34.130  32.694  1.00  0.00     0.029 A 
ATOM     45  C   UNL A   1      39.569  33.178  32.879  1.00  0.00     0.049 A 
ATOM     46  H   UNL A   1      40.012  31.519  31.703  1.00  0.00     0.167 HD
ATOM     47  C   UNL A   1      40.850  28.071  29.143  1.00  0.00     0.031 A 
ATOM     48  C   UNL A   1      40.494  33.221  33.858  1.00  0.00     0.031 A 
ATOM     49  C   UNL A   1      41.910  28.071  30.115  1.00  0.00     0.049 A 
ATOM     50  C   UNL A   1      41.559  32.159  33.919  1.00  0.00     0.074 A 
ATOM     51  C   UNL A   1      42.989  27.212  30.218  1.00  0.00     0.029 A 
ATOM     52  N   UNL A   1      42.014  28.973  31.163  1.00  0.00    -0.354 N 
ATOM     53  N   UNL A   1      41.776  31.154  33.104  1.00  0.00    -0.248 NA
ATOM     54  C   UNL A   1      42.511  32.240  35.037  1.00  0.00     0.031 C 
ATOM     55  C   UNL A   1      43.715  27.559  31.362  1.00  0.00     0.029 A 
ATOM     56  C   UNL A   1      43.123  28.672  31.936  1.00  0.00     0.049 A 
ATOM     57  H   UNL A   1      41.391  29.716  31.332  1.00  0.00     0.167 HD
ATOM     58  C   UNL A   1      42.903  30.504  33.592  1.00  0.00     0.074 A 
ATOM     59  C   UNL A   1      43.330  31.233  34.769  1.00  0.00     0.031 C 
ATOM     60  C   UNL A   1      43.532  29.405  33.107  1.00  0.00     0.031 A 
BRANCH  47  61
ATOM     61  C   UNL A   1      40.830  26.990  28.099  1.00  0.00    -0.014 A 
ATOM     62  C   UNL A   1      41.387  27.192  26.825  1.00  0.00     0.009 A 
ATOM     63  C   UNL A   1      40.243  25.750  28.393  1.00  0.00     0.009 A 
ATOM     64  C   UNL A   1      41.317  26.189  25.855  1.00  0.00     0.001 A 
ATOM     65  C   UNL A   1      40.199  24.739  27.431  1.00  0.00     0.001 A 
ATOM     66  C   UNL A   1      40.725  24.963  26.161  1.00  0.00     0.000 A 
ENDBRANCH  47  61
BRANCH  48  67
ATOM     67  C   UNL A   1      40.447  34.305  34.873  1.00  0.00    -0.014 A 
ATOM     68  C   UNL A   1      39.721  34.137  36.062  1.00  0.00     0.009 A 
ATOM     69  C   UNL A   1      41.123  35.515  34.655  1.00  0.00     0.009 A 
ATOM     70  C   UNL A   1      39.659  35.167  37.005  1.00  0.00     0.001 A 
ATOM     71  C   UNL A   1      41.082  36.532  35.610  1.00  0.00     0.001 A 
ATOM     72  C   UNL A   1      40.345  36.361  36.780  1.00  0.00     0.000 A 
ENDBRANCH  48  67
BRANCH  60  73
ATOM     73  C   UNL A   1      44.770  28.944  33.825  1.00  0.00    -0.014 A 
ATOM     74  C   UNL A   1      46.036  29.458  33.504  1.00  0.00     0.009 A 
ATOM     75  C   UNL A   1      44.659  28.015  34.872  1.00  0.00     0.009 A 
ATOM     76  C   UNL A   1      47.169  29.025  34.196  1.00  0.00     0.001 A 
ATOM     77  C   UNL A   1      45.788  27.606  35.581  1.00  0.00     0.001 A 
ATOM     78  C   UNL A   1      47.045  28.104  35.236  1.00  0.00     0.000 A 
ENDBRANCH  60  73
ENDBRANCH  34  35
ENDBRANCH  27  29
ENDBRANCH  26  27
ENDBRANCH  25  26
ENDBRANCH  24  25
ENDBRANCH  23  24
ENDBRANCH  22  23
ENDBRANCH   1  22
TORSDOF 19
ENDMDL
