MODEL 1
REMARK VINA RESULT:     -10.5      0.000      0.000
REMARK SMILES CC[C@H](C(=O)OCCOCCOC(=O)c1ccc(-c2c3nc(c(-c4ccccc4)c4ccc([nH]4)c(-c4ccccc4)c4nc(c(-c5ccccc5)c5ccc2[nH]5)C=C4)C=C3)cc1)N1C(=O)/C(=C\c2cccs2)SC1=S
REMARK SMILES IDX 9 1 8 2 7 3 6 4 4 5 5 6 3 7 2 8 1 9 63 10 64 11 74 12 65 13
REMARK SMILES IDX 66 14 73 15 75 16 67 17 68 18 69 19 72 20 70 21 71 22 10 23
REMARK SMILES IDX 11 24 12 25 13 26 14 27 15 28 16 29 62 30 17 31 61 32 18 33
REMARK SMILES IDX 19 34 20 35 55 36 21 37 60 38 54 39 56 40 22 41 59 42 53 43
REMARK SMILES IDX 52 44 23 46 45 47 30 48 44 49 31 50 34 51 43 52 57 53 32 54
REMARK SMILES IDX 33 55 42 57 58 58 35 59 24 60 25 61 29 62 26 63 28 64 27 65
REMARK SMILES IDX 46 66 47 67 51 68 48 69 50 70 49 71 36 72 37 73 41 74 38 75
REMARK SMILES IDX 40 76 39 77
REMARK H PARENT 56 45 34 56
REMARK Flexibility Score: inf
ROOT
ATOM      1  O   UNL A   1      31.548  31.528  26.537  1.00  0.00    -0.374 OA
ENDROOT
BRANCH   1   2
ATOM      2  C   UNL A   1      31.422  30.527  25.526  1.00  0.00     0.202 C 
BRANCH   2   3
ATOM      3  C   UNL A   1      32.636  29.628  25.268  1.00  0.00     0.261 C 
BRANCH   3   4
ATOM      4  O   UNL A   1      32.389  28.277  25.712  1.00  0.00    -0.462 OA
BRANCH   4   5
ATOM      5  C   UNL A   1      32.969  27.271  24.989  1.00  0.00     0.329 C 
ATOM      6  O   UNL A   1      33.746  26.437  25.433  1.00  0.00    -0.250 OA
BRANCH   5   7
ATOM      7  C   UNL A   1      32.550  27.367  23.508  1.00  0.00     0.201 C 
BRANCH   7   8
ATOM      8  C   UNL A   1      33.458  26.416  22.702  1.00  0.00     0.034 C 
ATOM      9  C   UNL A   1      32.926  25.936  21.353  1.00  0.00     0.007 C 
ENDBRANCH   7   8
BRANCH   7  10
ATOM     10  N   UNL A   1      31.067  27.121  23.477  1.00  0.00    -0.278 N 
ATOM     11  C   UNL A   1      30.310  28.046  22.765  1.00  0.00     0.267 C 
ATOM     12  C   UNL A   1      30.324  26.062  23.946  1.00  0.00     0.149 C 
ATOM     13  O   UNL A   1      30.748  28.752  21.869  1.00  0.00    -0.268 OA
ATOM     14  C   UNL A   1      28.877  27.983  23.153  1.00  0.00     0.081 C 
ATOM     15  S   UNL A   1      28.610  26.490  23.968  1.00  0.00    -0.054 SA
ATOM     16  S   UNL A   1      30.778  24.515  24.374  1.00  0.00    -0.052 S 
ATOM     17  C   UNL A   1      27.910  28.901  23.020  1.00  0.00     0.040 C 
BRANCH  17  18
ATOM     18  C   UNL A   1      28.074  30.190  22.442  1.00  0.00     0.028 A 
ATOM     19  C   UNL A   1      27.994  30.604  21.124  1.00  0.00     0.020 A 
ATOM     20  S   UNL A   1      28.346  31.541  23.479  1.00  0.00    -0.144 S 
ATOM     21  C   UNL A   1      28.188  32.008  20.966  1.00  0.00     0.012 A 
ATOM     22  C   UNL A   1      28.402  32.636  22.170  1.00  0.00     0.065 A 
ENDBRANCH  17  18
ENDBRANCH   7  10
ENDBRANCH   5   7
ENDBRANCH   4   5
ENDBRANCH   3   4
ENDBRANCH   2   3
ENDBRANCH   1   2
BRANCH   1  23
ATOM     23  C   UNL A   1      32.766  31.547  27.275  1.00  0.00     0.202 C 
BRANCH  23  24
ATOM     24  C   UNL A   1      33.398  32.914  27.570  1.00  0.00     0.261 C 
BRANCH  24  25
ATOM     25  O   UNL A   1      32.451  33.914  27.972  1.00  0.00    -0.460 OA
BRANCH  25  26
ATOM     26  C   UNL A   1      32.994  34.945  28.658  1.00  0.00     0.338 C 
ATOM     27  O   UNL A   1      32.565  36.089  28.760  1.00  0.00    -0.246 OA
BRANCH  26  28
ATOM     28  C   UNL A   1      34.158  34.473  29.419  1.00  0.00     0.060 A 
ATOM     29  C   UNL A   1      35.421  34.592  28.828  1.00  0.00     0.016 A 
ATOM     30  C   UNL A   1      34.002  33.851  30.659  1.00  0.00     0.016 A 
ATOM     31  C   UNL A   1      36.538  34.055  29.463  1.00  0.00     0.010 A 
ATOM     32  C   UNL A   1      35.121  33.303  31.289  1.00  0.00     0.010 A 
ATOM     33  C   UNL A   1      36.387  33.377  30.678  1.00  0.00    -0.014 A 
BRANCH  33  34
ATOM     34  C   UNL A   1      37.524  32.615  31.243  1.00  0.00     0.031 A 
ATOM     35  C   UNL A   1      38.142  33.084  32.531  1.00  0.00     0.074 A 
ATOM     36  C   UNL A   1      37.993  31.520  30.622  1.00  0.00     0.049 A 
ATOM     37  N   UNL A   1      39.186  32.618  33.166  1.00  0.00    -0.248 NA
ATOM     38  C   UNL A   1      37.496  34.231  33.188  1.00  0.00     0.031 C 
ATOM     39  C   UNL A   1      37.444  30.941  29.397  1.00  0.00     0.029 A 
ATOM     40  N   UNL A   1      39.052  30.706  30.935  1.00  0.00    -0.354 N 
ATOM     41  C   UNL A   1      39.331  33.424  34.289  1.00  0.00     0.074 A 
ATOM     42  C   UNL A   1      38.287  34.422  34.235  1.00  0.00     0.031 C 
ATOM     43  C   UNL A   1      38.178  29.868  29.056  1.00  0.00     0.029 A 
ATOM     44  C   UNL A   1      39.270  29.712  30.014  1.00  0.00     0.049 A 
ATOM     45  H   UNL A   1      39.602  30.823  31.743  1.00  0.00     0.167 HD
ATOM     46  C   UNL A   1      40.254  33.338  35.276  1.00  0.00     0.031 A 
ATOM     47  C   UNL A   1      40.259  28.801  29.938  1.00  0.00     0.031 A 
ATOM     48  C   UNL A   1      41.301  32.353  35.317  1.00  0.00     0.049 A 
ATOM     49  C   UNL A   1      41.326  28.782  31.001  1.00  0.00     0.074 A 
ATOM     50  C   UNL A   1      42.277  32.171  36.281  1.00  0.00     0.029 A 
ATOM     51  N   UNL A   1      41.511  31.386  34.345  1.00  0.00    -0.354 N 
ATOM     52  N   UNL A   1      41.443  29.535  32.069  1.00  0.00    -0.248 NA
ATOM     53  C   UNL A   1      42.393  27.783  30.850  1.00  0.00     0.031 C 
ATOM     54  C   UNL A   1      43.116  31.135  35.861  1.00  0.00     0.029 A 
ATOM     55  C   UNL A   1      42.621  30.626  34.670  1.00  0.00     0.049 A 
ATOM     56  H   UNL A   1      40.954  31.261  33.544  1.00  0.00     0.167 HD
ATOM     57  C   UNL A   1      42.577  29.080  32.731  1.00  0.00     0.074 A 
ATOM     58  C   UNL A   1      43.104  27.980  31.952  1.00  0.00     0.031 C 
ATOM     59  C   UNL A   1      43.130  29.532  33.884  1.00  0.00     0.031 A 
BRANCH  46  60
ATOM     60  C   UNL A   1      40.195  34.367  36.372  1.00  0.00    -0.014 A 
ATOM     61  C   UNL A   1      39.462  34.144  37.548  1.00  0.00     0.009 A 
ATOM     62  C   UNL A   1      40.911  35.567  36.236  1.00  0.00     0.009 A 
ATOM     63  C   UNL A   1      39.420  35.116  38.550  1.00  0.00     0.001 A 
ATOM     64  C   UNL A   1      40.891  36.525  37.251  1.00  0.00     0.001 A 
ATOM     65  C   UNL A   1      40.139  36.303  38.403  1.00  0.00     0.000 A 
ENDBRANCH  46  60
BRANCH  47  66
ATOM     66  C   UNL A   1      40.307  27.847  28.798  1.00  0.00    -0.014 A 
ATOM     67  C   UNL A   1      40.957  28.191  27.603  1.00  0.00     0.009 A 
ATOM     68  C   UNL A   1      39.686  26.591  28.895  1.00  0.00     0.009 A 
ATOM     69  C   UNL A   1      40.961  27.308  26.521  1.00  0.00     0.001 A 
ATOM     70  C   UNL A   1      39.719  25.698  27.821  1.00  0.00     0.001 A 
ATOM     71  C   UNL A   1      40.347  26.061  26.632  1.00  0.00     0.000 A 
ENDBRANCH  47  66
BRANCH  59  72
ATOM     72  C   UNL A   1      44.344  28.808  34.399  1.00  0.00    -0.014 A 
ATOM     73  C   UNL A   1      44.228  27.681  35.225  1.00  0.00     0.009 A 
ATOM     74  C   UNL A   1      45.622  29.234  34.002  1.00  0.00     0.009 A 
ATOM     75  C   UNL A   1      45.372  27.011  35.667  1.00  0.00     0.001 A 
ATOM     76  C   UNL A   1      46.760  28.544  34.420  1.00  0.00     0.001 A 
ATOM     77  C   UNL A   1      46.635  27.438  35.259  1.00  0.00     0.000 A 
ENDBRANCH  59  72
ENDBRANCH  33  34
ENDBRANCH  26  28
ENDBRANCH  25  26
ENDBRANCH  24  25
ENDBRANCH  23  24
ENDBRANCH   1  23
TORSDOF 17
ENDMDL
MODEL 2
REMARK VINA RESULT:     -10.1      6.115     11.123
REMARK SMILES CC[C@H](C(=O)OCCOCCOC(=O)c1ccc(-c2c3nc(c(-c4ccccc4)c4ccc([nH]4)c(-c4ccccc4)c4nc(c(-c5ccccc5)c5ccc2[nH]5)C=C4)C=C3)cc1)N1C(=O)/C(=C\c2cccs2)SC1=S
REMARK SMILES IDX 9 1 8 2 7 3 6 4 4 5 5 6 3 7 2 8 1 9 63 10 64 11 74 12 65 13
REMARK SMILES IDX 66 14 73 15 75 16 67 17 68 18 69 19 72 20 70 21 71 22 10 23
REMARK SMILES IDX 11 24 12 25 13 26 14 27 15 28 16 29 62 30 17 31 61 32 18 33
REMARK SMILES IDX 19 34 20 35 55 36 21 37 60 38 54 39 56 40 22 41 59 42 53 43
REMARK SMILES IDX 52 44 23 46 45 47 30 48 44 49 31 50 34 51 43 52 57 53 32 54
REMARK SMILES IDX 33 55 42 57 58 58 35 59 24 60 25 61 29 62 26 63 28 64 27 65
REMARK SMILES IDX 46 66 47 67 51 68 48 69 50 70 49 71 36 72 37 73 41 74 38 75
REMARK SMILES IDX 40 76 39 77
REMARK H PARENT 56 45 34 56
REMARK Flexibility Score: inf
ROOT
ATOM      1  O   UNL A   1      39.177  22.199  26.204  1.00  0.00    -0.374 OA
ENDROOT
BRANCH   1   2
ATOM      2  C   UNL A   1      38.059  23.085  26.129  1.00  0.00     0.202 C 
BRANCH   2   3
ATOM      3  C   UNL A   1      36.699  22.474  25.776  1.00  0.00     0.261 C 
BRANCH   3   4
ATOM      4  O   UNL A   1      36.228  22.950  24.498  1.00  0.00    -0.462 OA
BRANCH   4   5
ATOM      5  C   UNL A   1      35.051  23.648  24.491  1.00  0.00     0.329 C 
ATOM      6  O   UNL A   1      34.854  24.698  23.895  1.00  0.00    -0.250 OA
BRANCH   5   7
ATOM      7  C   UNL A   1      34.012  22.951  25.392  1.00  0.00     0.201 C 
BRANCH   7   8
ATOM      8  C   UNL A   1      33.368  24.031  26.284  1.00  0.00     0.034 C 
ATOM      9  C   UNL A   1      32.053  23.663  26.971  1.00  0.00     0.007 C 
ENDBRANCH   7   8
BRANCH   7  10
ATOM     10  N   UNL A   1      33.115  22.172  24.470  1.00  0.00    -0.278 N 
ATOM     11  C   UNL A   1      33.024  20.806  24.717  1.00  0.00     0.267 C 
ATOM     12  C   UNL A   1      32.267  22.597  23.473  1.00  0.00     0.149 C 
ATOM     13  O   UNL A   1      33.254  20.285  25.798  1.00  0.00    -0.268 OA
ATOM     14  C   UNL A   1      32.503  20.077  23.532  1.00  0.00     0.081 C 
ATOM     15  S   UNL A   1      31.761  21.223  22.484  1.00  0.00    -0.054 SA
ATOM     16  S   UNL A   1      31.626  24.103  23.154  1.00  0.00    -0.052 S 
ATOM     17  C   UNL A   1      32.614  18.782  23.203  1.00  0.00     0.040 C 
BRANCH  17  18
ATOM     18  C   UNL A   1      33.290  17.794  23.971  1.00  0.00     0.028 A 
ATOM     19  C   UNL A   1      34.617  17.401  23.968  1.00  0.00     0.020 A 
ATOM     20  S   UNL A   1      32.415  16.941  25.188  1.00  0.00    -0.144 S 
ATOM     21  C   UNL A   1      34.902  16.387  24.930  1.00  0.00     0.012 A 
ATOM     22  C   UNL A   1      33.787  16.038  25.653  1.00  0.00     0.065 A 
ENDBRANCH  17  18
ENDBRANCH   7  10
ENDBRANCH   5   7
ENDBRANCH   4   5
ENDBRANCH   3   4
ENDBRANCH   2   3
ENDBRANCH   1   2
BRANCH   1  23
ATOM     23  C   UNL A   1      39.056  20.951  25.530  1.00  0.00     0.202 C 
BRANCH  23  24
ATOM     24  C   UNL A   1      39.725  19.728  26.172  1.00  0.00     0.261 C 
BRANCH  24  25
ATOM     25  O   UNL A   1      40.814  19.195  25.405  1.00  0.00    -0.460 OA
BRANCH  25  26
ATOM     26  C   UNL A   1      41.953  19.017  26.111  1.00  0.00     0.338 C 
ATOM     27  O   UNL A   1      42.511  17.960  26.385  1.00  0.00    -0.246 OA
BRANCH  26  28
ATOM     28  C   UNL A   1      42.551  20.322  26.419  1.00  0.00     0.060 A 
ATOM     29  C   UNL A   1      42.347  20.853  27.698  1.00  0.00     0.016 A 
ATOM     30  C   UNL A   1      43.235  21.049  25.442  1.00  0.00     0.016 A 
ATOM     31  C   UNL A   1      42.799  22.135  27.999  1.00  0.00     0.010 A 
ATOM     32  C   UNL A   1      43.677  22.339  25.742  1.00  0.00     0.010 A 
ATOM     33  C   UNL A   1      43.433  22.897  27.010  1.00  0.00    -0.014 A 
BRANCH  33  34
ATOM     34  C   UNL A   1      43.712  24.331  27.251  1.00  0.00     0.031 A 
ATOM     35  C   UNL A   1      45.127  24.825  27.126  1.00  0.00     0.074 A 
ATOM     36  C   UNL A   1      42.720  25.180  27.569  1.00  0.00     0.049 A 
ATOM     37  N   UNL A   1      45.612  26.016  27.363  1.00  0.00    -0.248 NA
ATOM     38  C   UNL A   1      46.127  23.843  26.676  1.00  0.00     0.031 C 
ATOM     39  C   UNL A   1      41.305  24.828  27.669  1.00  0.00     0.029 A 
ATOM     40  N   UNL A   1      42.760  26.516  27.880  1.00  0.00    -0.354 N 
ATOM     41  C   UNL A   1      46.974  25.923  27.106  1.00  0.00     0.074 A 
ATOM     42  C   UNL A   1      47.243  24.556  26.720  1.00  0.00     0.031 C 
ATOM     43  C   UNL A   1      40.609  25.921  28.027  1.00  0.00     0.029 A 
ATOM     44  C   UNL A   1      41.536  27.034  28.222  1.00  0.00     0.049 A 
ATOM     45  H   UNL A   1      43.586  27.050  27.858  1.00  0.00     0.167 HD
ATOM     46  C   UNL A   1      47.916  26.894  27.183  1.00  0.00     0.031 A 
ATOM     47  C   UNL A   1      41.208  28.261  28.672  1.00  0.00     0.031 A 
ATOM     48  C   UNL A   1      47.646  28.248  27.582  1.00  0.00     0.049 A 
ATOM     49  C   UNL A   1      42.288  29.297  28.836  1.00  0.00     0.074 A 
ATOM     50  C   UNL A   1      48.528  29.311  27.679  1.00  0.00     0.029 A 
ATOM     51  N   UNL A   1      46.399  28.726  27.958  1.00  0.00    -0.354 N 
ATOM     52  N   UNL A   1      43.570  29.206  28.570  1.00  0.00    -0.248 NA
ATOM     53  C   UNL A   1      41.874  30.609  29.355  1.00  0.00     0.031 C 
ATOM     54  C   UNL A   1      47.826  30.414  28.173  1.00  0.00     0.029 A 
ATOM     55  C   UNL A   1      46.495  30.058  28.318  1.00  0.00     0.049 A 
ATOM     56  H   UNL A   1      45.571  28.195  27.967  1.00  0.00     0.167 HD
ATOM     57  C   UNL A   1      44.107  30.454  28.861  1.00  0.00     0.074 A 
ATOM     58  C   UNL A   1      43.012  31.288  29.311  1.00  0.00     0.031 C 
ATOM     59  C   UNL A   1      45.393  30.873  28.761  1.00  0.00     0.031 A 
BRANCH  46  60
ATOM     60  C   UNL A   1      49.335  26.508  26.869  1.00  0.00    -0.014 A 
ATOM     61  C   UNL A   1      50.192  25.996  27.856  1.00  0.00     0.009 A 
ATOM     62  C   UNL A   1      49.812  26.630  25.554  1.00  0.00     0.009 A 
ATOM     63  C   UNL A   1      51.507  25.647  27.540  1.00  0.00     0.001 A 
ATOM     64  C   UNL A   1      51.118  26.254  25.234  1.00  0.00     0.001 A 
ATOM     65  C   UNL A   1      51.967  25.772  26.229  1.00  0.00     0.000 A 
ENDBRANCH  46  60
BRANCH  47  66
ATOM     66  C   UNL A   1      39.798  28.571  29.029  1.00  0.00    -0.014 A 
ATOM     67  C   UNL A   1      38.939  29.172  28.096  1.00  0.00     0.009 A 
ATOM     68  C   UNL A   1      39.310  28.284  30.314  1.00  0.00     0.009 A 
ATOM     69  C   UNL A   1      37.629  29.501  28.453  1.00  0.00     0.001 A 
ATOM     70  C   UNL A   1      37.991  28.586  30.657  1.00  0.00     0.001 A 
ATOM     71  C   UNL A   1      37.154  29.203  29.729  1.00  0.00     0.000 A 
ENDBRANCH  47  66
BRANCH  59  72
ATOM     72  C   UNL A   1      45.681  32.310  29.101  1.00  0.00    -0.014 A 
ATOM     73  C   UNL A   1      46.023  32.700  30.403  1.00  0.00     0.009 A 
ATOM     74  C   UNL A   1      45.661  33.278  28.083  1.00  0.00     0.009 A 
ATOM     75  C   UNL A   1      46.312  34.037  30.686  1.00  0.00     0.001 A 
ATOM     76  C   UNL A   1      45.981  34.606  28.362  1.00  0.00     0.001 A 
ATOM     77  C   UNL A   1      46.298  34.987  29.665  1.00  0.00     0.000 A 
ENDBRANCH  59  72
ENDBRANCH  33  34
ENDBRANCH  26  28
ENDBRANCH  25  26
ENDBRANCH  24  25
ENDBRANCH  23  24
ENDBRANCH   1  23
TORSDOF 17
ENDMDL
MODEL 3
REMARK VINA RESULT:     -10.1      5.534     10.554
REMARK SMILES CC[C@H](C(=O)OCCOCCOC(=O)c1ccc(-c2c3nc(c(-c4ccccc4)c4ccc([nH]4)c(-c4ccccc4)c4nc(c(-c5ccccc5)c5ccc2[nH]5)C=C4)C=C3)cc1)N1C(=O)/C(=C\c2cccs2)SC1=S
REMARK SMILES IDX 9 1 8 2 7 3 6 4 4 5 5 6 3 7 2 8 1 9 63 10 64 11 74 12 65 13
REMARK SMILES IDX 66 14 73 15 75 16 67 17 68 18 69 19 72 20 70 21 71 22 10 23
REMARK SMILES IDX 11 24 12 25 13 26 14 27 15 28 16 29 62 30 17 31 61 32 18 33
REMARK SMILES IDX 19 34 20 35 55 36 21 37 60 38 54 39 56 40 22 41 59 42 53 43
REMARK SMILES IDX 52 44 23 46 45 47 30 48 44 49 31 50 34 51 43 52 57 53 32 54
REMARK SMILES IDX 33 55 42 57 58 58 35 59 24 60 25 61 29 62 26 63 28 64 27 65
REMARK SMILES IDX 46 66 47 67 51 68 48 69 50 70 49 71 36 72 37 73 41 74 38 75
REMARK SMILES IDX 40 76 39 77
REMARK H PARENT 56 45 34 56
REMARK Flexibility Score: inf
ROOT
ATOM      1  O   UNL A   1      36.946  20.674  25.318  1.00  0.00    -0.374 OA
ENDROOT
BRANCH   1   2
ATOM      2  C   UNL A   1      36.843  21.762  24.398  1.00  0.00     0.202 C 
BRANCH   2   3
ATOM      3  C   UNL A   1      36.287  23.087  24.932  1.00  0.00     0.261 C 
BRANCH   3   4
ATOM      4  O   UNL A   1      35.230  22.863  25.888  1.00  0.00    -0.462 OA
BRANCH   4   5
ATOM      5  C   UNL A   1      34.096  23.615  25.745  1.00  0.00     0.329 C 
ATOM      6  O   UNL A   1      34.065  24.797  25.431  1.00  0.00    -0.250 OA
BRANCH   5   7
ATOM      7  C   UNL A   1      32.850  22.775  26.094  1.00  0.00     0.201 C 
BRANCH   7   8
ATOM      8  C   UNL A   1      31.828  23.713  26.768  1.00  0.00     0.034 C 
ATOM      9  C   UNL A   1      30.381  23.226  26.825  1.00  0.00     0.007 C 
ENDBRANCH   7   8
BRANCH   7  10
ATOM     10  N   UNL A   1      32.443  22.086  24.821  1.00  0.00    -0.278 N 
ATOM     11  C   UNL A   1      32.321  20.701  24.890  1.00  0.00     0.267 C 
ATOM     12  C   UNL A   1      32.055  22.602  23.606  1.00  0.00     0.149 C 
ATOM     13  O   UNL A   1      32.115  20.078  25.920  1.00  0.00    -0.268 OA
ATOM     14  C   UNL A   1      32.360  20.089  23.536  1.00  0.00     0.081 C 
ATOM     15  S   UNL A   1      32.057  21.329  22.381  1.00  0.00    -0.054 SA
ATOM     16  S   UNL A   1      31.531  24.129  23.187  1.00  0.00    -0.052 S 
ATOM     17  C   UNL A   1      32.654  18.834  23.170  1.00  0.00     0.040 C 
BRANCH  17  18
ATOM     18  C   UNL A   1      33.003  17.779  24.057  1.00  0.00     0.028 A 
ATOM     19  C   UNL A   1      32.208  16.940  24.817  1.00  0.00     0.020 A 
ATOM     20  S   UNL A   1      34.664  17.344  24.223  1.00  0.00    -0.144 S 
ATOM     21  C   UNL A   1      32.957  15.975  25.554  1.00  0.00     0.012 A 
ATOM     22  C   UNL A   1      34.308  16.094  25.330  1.00  0.00     0.065 A 
ENDBRANCH  17  18
ENDBRANCH   7  10
ENDBRANCH   5   7
ENDBRANCH   4   5
ENDBRANCH   3   4
ENDBRANCH   2   3
ENDBRANCH   1   2
BRANCH   1  23
ATOM     23  C   UNL A   1      37.720  19.553  24.904  1.00  0.00     0.202 C 
BRANCH  23  24
ATOM     24  C   UNL A   1      39.189  19.501  25.345  1.00  0.00     0.261 C 
BRANCH  24  25
ATOM     25  O   UNL A   1      39.436  20.135  26.608  1.00  0.00    -0.460 OA
BRANCH  25  26
ATOM     26  C   UNL A   1      40.743  20.376  26.859  1.00  0.00     0.338 C 
ATOM     27  O   UNL A   1      41.693  19.621  26.687  1.00  0.00    -0.246 OA
BRANCH  26  28
ATOM     28  C   UNL A   1      40.917  21.777  27.263  1.00  0.00     0.060 A 
ATOM     29  C   UNL A   1      40.194  22.755  26.569  1.00  0.00     0.016 A 
ATOM     30  C   UNL A   1      41.835  22.131  28.253  1.00  0.00     0.016 A 
ATOM     31  C   UNL A   1      40.412  24.103  26.841  1.00  0.00     0.010 A 
ATOM     32  C   UNL A   1      42.060  23.484  28.516  1.00  0.00     0.010 A 
ATOM     33  C   UNL A   1      41.373  24.474  27.790  1.00  0.00    -0.014 A 
BRANCH  33  34
ATOM     34  C   UNL A   1      41.768  25.894  27.922  1.00  0.00     0.031 A 
ATOM     35  C   UNL A   1      43.052  26.352  27.288  1.00  0.00     0.074 A 
ATOM     36  C   UNL A   1      40.991  26.764  28.589  1.00  0.00     0.049 A 
ATOM     37  N   UNL A   1      43.629  27.524  27.338  1.00  0.00    -0.248 NA
ATOM     38  C   UNL A   1      43.784  25.351  26.494  1.00  0.00     0.031 C 
ATOM     39  C   UNL A   1      39.701  26.450  29.200  1.00  0.00     0.029 A 
ATOM     40  N   UNL A   1      41.185  28.092  28.873  1.00  0.00    -0.354 N 
ATOM     41  C   UNL A   1      44.797  27.399  26.596  1.00  0.00     0.074 A 
ATOM     42  C   UNL A   1      44.861  26.032  26.129  1.00  0.00     0.031 C 
ATOM     43  C   UNL A   1      39.222  27.555  29.798  1.00  0.00     0.029 A 
ATOM     44  C   UNL A   1      40.191  28.638  29.646  1.00  0.00     0.049 A 
ATOM     45  H   UNL A   1      41.962  28.604  28.552  1.00  0.00     0.167 HD
ATOM     46  C   UNL A   1      45.732  28.341  26.328  1.00  0.00     0.031 A 
ATOM     47  C   UNL A   1      40.091  29.864  30.193  1.00  0.00     0.031 A 
ATOM     48  C   UNL A   1      45.673  29.695  26.808  1.00  0.00     0.049 A 
ATOM     49  C   UNL A   1      41.189  30.868  29.955  1.00  0.00     0.074 A 
ATOM     50  C   UNL A   1      46.562  30.731  26.582  1.00  0.00     0.029 A 
ATOM     51  N   UNL A   1      44.668  30.199  27.620  1.00  0.00    -0.354 N 
ATOM     52  N   UNL A   1      42.279  30.746  29.236  1.00  0.00    -0.248 NA
ATOM     53  C   UNL A   1      41.038  32.180  30.600  1.00  0.00     0.031 C 
ATOM     54  C   UNL A   1      46.128  31.844  27.307  1.00  0.00     0.029 A 
ATOM     55  C   UNL A   1      44.932  31.522  27.930  1.00  0.00     0.049 A 
ATOM     56  H   UNL A   1      43.884  29.691  27.930  1.00  0.00     0.167 HD
ATOM     57  C   UNL A   1      42.926  31.973  29.317  1.00  0.00     0.074 A 
ATOM     58  C   UNL A   1      42.101  32.828  30.145  1.00  0.00     0.031 C 
ATOM     59  C   UNL A   1      44.098  32.358  28.753  1.00  0.00     0.031 A 
BRANCH  46  60
ATOM     60  C   UNL A   1      46.923  27.922  25.510  1.00  0.00    -0.014 A 
ATOM     61  C   UNL A   1      48.102  27.461  26.115  1.00  0.00     0.009 A 
ATOM     62  C   UNL A   1      46.850  27.962  24.109  1.00  0.00     0.009 A 
ATOM     63  C   UNL A   1      49.196  27.080  25.334  1.00  0.00     0.001 A 
ATOM     64  C   UNL A   1      47.934  27.553  23.329  1.00  0.00     0.001 A 
ATOM     65  C   UNL A   1      49.108  27.122  23.942  1.00  0.00     0.000 A 
ENDBRANCH  46  60
BRANCH  47  66
ATOM     66  C   UNL A   1      38.923  30.207  31.047  1.00  0.00    -0.014 A 
ATOM     67  C   UNL A   1      37.760  30.753  30.484  1.00  0.00     0.009 A 
ATOM     68  C   UNL A   1      38.973  30.005  32.436  1.00  0.00     0.009 A 
ATOM     69  C   UNL A   1      36.682  31.114  31.297  1.00  0.00     0.001 A 
ATOM     70  C   UNL A   1      37.882  30.337  33.242  1.00  0.00     0.001 A 
ATOM     71  C   UNL A   1      36.742  30.900  32.674  1.00  0.00     0.000 A 
ENDBRANCH  47  66
BRANCH  59  72
ATOM     72  C   UNL A   1      44.537  33.780  28.974  1.00  0.00    -0.014 A 
ATOM     73  C   UNL A   1      45.399  34.126  30.024  1.00  0.00     0.009 A 
ATOM     74  C   UNL A   1      44.121  34.778  28.077  1.00  0.00     0.009 A 
ATOM     75  C   UNL A   1      45.813  35.450  30.190  1.00  0.00     0.001 A 
ATOM     76  C   UNL A   1      44.562  36.093  28.227  1.00  0.00     0.001 A 
ATOM     77  C   UNL A   1      45.400  36.430  29.288  1.00  0.00     0.000 A 
ENDBRANCH  59  72
ENDBRANCH  33  34
ENDBRANCH  26  28
ENDBRANCH  25  26
ENDBRANCH  24  25
ENDBRANCH  23  24
ENDBRANCH   1  23
TORSDOF 17
ENDMDL
