MODEL 1
REMARK VINA RESULT:     -12.0      0.000      0.000
REMARK SMILES CC(C)(CC(=O)OCCOCCOC(=O)c1ccc(-c2c3nc(c(-c4ccccc4)c4ccc([nH]4)c(-c4ccccc4)c4nc(c(-c5ccccc5)c5ccc2[nH]5)C=C4)C=C3)cc1)Cc1nc([C@@]2(C)CCCO2)no1
REMARK SMILES IDX 9 1 8 2 7 3 5 4 6 5 4 6 2 7 1 8 3 9 64 10 65 11 66 12 75 13
REMARK SMILES IDX 67 14 74 15 68 16 69 17 70 18 73 19 71 20 72 21 10 22 11 23
REMARK SMILES IDX 12 24 13 25 14 26 15 27 16 28 17 29 63 30 18 31 62 32 19 33
REMARK SMILES IDX 20 34 21 35 56 36 22 37 61 38 55 39 57 40 23 41 60 42 54 43
REMARK SMILES IDX 53 44 24 46 46 47 31 48 45 49 32 50 35 51 44 52 58 53 33 54
REMARK SMILES IDX 34 55 43 57 59 58 36 59 25 60 26 61 30 62 27 63 29 64 28 65
REMARK SMILES IDX 47 66 48 67 52 68 49 69 51 70 50 71 37 72 38 73 42 74 39 75
REMARK SMILES IDX 41 76 40 77
REMARK H PARENT 57 45 35 56
REMARK Flexibility Score: inf
ROOT
ATOM      1  C   UNL A   1      34.038  29.317  26.411  1.00  0.00     0.202 C 
ENDROOT
BRANCH   1   2
ATOM      2  C   UNL A   1      33.039  28.961  25.293  1.00  0.00     0.261 C 
BRANCH   2   3
ATOM      3  O   UNL A   1      31.789  28.430  25.780  1.00  0.00    -0.463 OA
BRANCH   3   4
ATOM      4  C   UNL A   1      31.891  27.431  26.675  1.00  0.00     0.306 C 
ATOM      5  O   UNL A   1      31.467  27.487  27.825  1.00  0.00    -0.252 OA
BRANCH   4   6
ATOM      6  C   UNL A   1      32.474  26.139  26.134  1.00  0.00     0.129 C 
BRANCH   6   7
ATOM      7  C   UNL A   1      31.694  24.947  25.495  1.00  0.00    -0.016 C 
ATOM      8  C   UNL A   1      32.195  23.566  25.931  1.00  0.00     0.012 C 
ATOM      9  C   UNL A   1      30.254  25.104  26.101  1.00  0.00     0.012 C 
BRANCH   7  10
ATOM     10  C   UNL A   1      31.477  25.018  23.947  1.00  0.00     0.107 C 
BRANCH  10  11
ATOM     11  C   UNL A   1      30.906  26.234  23.281  1.00  0.00     0.227 A 
ATOM     12  N   UNL A   1      29.529  27.029  23.518  1.00  0.00    -0.193 NA
ATOM     13  O   UNL A   1      32.066  27.386  22.408  1.00  0.00    -0.339 OA
ATOM     14  C   UNL A   1      29.509  28.706  22.782  1.00  0.00     0.203 A 
ATOM     15  N   UNL A   1      31.062  29.096  22.147  1.00  0.00    -0.059 NA
BRANCH  14  16
ATOM     16  C   UNL A   1      28.313  29.622  22.607  1.00  0.00     0.128 C 
ATOM     17  C   UNL A   1      27.014  28.939  23.031  1.00  0.00     0.051 C 
ATOM     18  C   UNL A   1      28.525  30.942  23.372  1.00  0.00     0.046 C 
ATOM     19  O   UNL A   1      28.080  30.000  21.219  1.00  0.00    -0.367 OA
ATOM     20  C   UNL A   1      28.077  32.028  22.425  1.00  0.00     0.032 C 
ATOM     21  C   UNL A   1      28.269  31.412  21.066  1.00  0.00     0.161 C 
ENDBRANCH  14  16
ENDBRANCH  10  11
ENDBRANCH   7  10
ENDBRANCH   6   7
ENDBRANCH   4   6
ENDBRANCH   3   4
ENDBRANCH   2   3
ENDBRANCH   1   2
BRANCH   1  22
ATOM     22  O   UNL A   1      33.630  30.163  27.495  1.00  0.00    -0.374 OA
BRANCH  22  23
ATOM     23  C   UNL A   1      34.062  31.520  27.642  1.00  0.00     0.202 C 
BRANCH  23  24
ATOM     24  C   UNL A   1      35.102  32.146  28.901  1.00  0.00     0.261 C 
BRANCH  24  25
ATOM     25  O   UNL A   1      35.614  30.954  30.574  1.00  0.00    -0.460 OA
BRANCH  25  26
ATOM     26  C   UNL A   1      36.518  30.067  31.172  1.00  0.00     0.338 C 
ATOM     27  O   UNL A   1      36.570  29.757  32.363  1.00  0.00    -0.246 OA
BRANCH  26  28
ATOM     28  C   UNL A   1      37.314  29.196  30.318  1.00  0.00     0.060 A 
ATOM     29  C   UNL A   1      38.110  28.342  31.094  1.00  0.00     0.016 A 
ATOM     30  C   UNL A   1      37.662  29.518  29.008  1.00  0.00     0.016 A 
ATOM     31  C   UNL A   1      39.365  28.003  30.649  1.00  0.00     0.010 A 
ATOM     32  C   UNL A   1      38.881  29.034  28.505  1.00  0.00     0.010 A 
ATOM     33  C   UNL A   1      39.765  28.332  29.347  1.00  0.00    -0.014 A 
BRANCH  33  34
ATOM     34  C   UNL A   1      41.143  27.942  28.963  1.00  0.00     0.031 A 
ATOM     35  C   UNL A   1      41.446  26.562  28.447  1.00  0.00     0.074 A 
ATOM     36  C   UNL A   1      42.077  28.912  28.921  1.00  0.00     0.049 A 
ATOM     37  N   UNL A   1      42.590  26.075  28.038  1.00  0.00    -0.248 NA
ATOM     38  C   UNL A   1      40.329  25.606  28.376  1.00  0.00     0.031 C 
ATOM     39  C   UNL A   1      41.850  30.311  29.308  1.00  0.00     0.029 A 
ATOM     40  N   UNL A   1      43.369  28.901  28.471  1.00  0.00    -0.354 N 
ATOM     41  C   UNL A   1      42.343  24.748  27.705  1.00  0.00     0.074 A 
ATOM     42  C   UNL A   1      40.940  24.504  27.959  1.00  0.00     0.031 C 
ATOM     43  C   UNL A   1      42.930  31.036  28.992  1.00  0.00     0.029 A 
ATOM     44  C   UNL A   1      43.964  30.139  28.498  1.00  0.00     0.049 A 
ATOM     45  H   UNL A   1      43.827  28.087  28.160  1.00  0.00     0.167 HD
ATOM     46  C   UNL A   1      43.216  23.822  27.238  1.00  0.00     0.031 A 
ATOM     47  C   UNL A   1      45.219  30.511  28.196  1.00  0.00     0.031 A 
ATOM     48  C   UNL A   1      44.606  24.096  26.974  1.00  0.00     0.049 A 
ATOM     49  C   UNL A   1      46.181  29.452  27.756  1.00  0.00     0.074 A 
ATOM     50  C   UNL A   1      45.590  23.231  26.528  1.00  0.00     0.029 A 
ATOM     51  N   UNL A   1      45.205  25.339  27.123  1.00  0.00    -0.354 N 
ATOM     52  N   UNL A   1      45.952  28.182  27.521  1.00  0.00    -0.248 NA
ATOM     53  C   UNL A   1      47.573  29.869  27.563  1.00  0.00     0.031 C 
ATOM     54  C   UNL A   1      46.794  23.941  26.456  1.00  0.00     0.029 A 
ATOM     55  C   UNL A   1      46.550  25.260  26.802  1.00  0.00     0.049 A 
ATOM     56  H   UNL A   1      44.741  26.158  27.415  1.00  0.00     0.167 HD
ATOM     57  C   UNL A   1      47.173  27.644  27.151  1.00  0.00     0.074 A 
ATOM     58  C   UNL A   1      48.130  28.733  27.164  1.00  0.00     0.031 C 
ATOM     59  C   UNL A   1      47.479  26.361  26.838  1.00  0.00     0.031 A 
BRANCH  46  60
ATOM     60  C   UNL A   1      42.711  22.416  27.050  1.00  0.00    -0.014 A 
ATOM     61  C   UNL A   1      41.854  21.804  27.976  1.00  0.00     0.009 A 
ATOM     62  C   UNL A   1      43.083  21.700  25.899  1.00  0.00     0.009 A 
ATOM     63  C   UNL A   1      41.408  20.493  27.771  1.00  0.00     0.001 A 
ATOM     64  C   UNL A   1      42.616  20.401  25.684  1.00  0.00     0.001 A 
ATOM     65  C   UNL A   1      41.787  19.795  26.624  1.00  0.00     0.000 A 
ENDBRANCH  46  60
BRANCH  47  66
ATOM     66  C   UNL A   1      45.633  31.926  28.381  1.00  0.00    -0.014 A 
ATOM     67  C   UNL A   1      45.510  32.856  27.340  1.00  0.00     0.009 A 
ATOM     68  C   UNL A   1      46.115  32.363  29.628  1.00  0.00     0.009 A 
ATOM     69  C   UNL A   1      45.866  34.193  27.544  1.00  0.00     0.001 A 
ATOM     70  C   UNL A   1      46.436  33.704  29.839  1.00  0.00     0.001 A 
ATOM     71  C   UNL A   1      46.318  34.618  28.794  1.00  0.00     0.000 A 
ENDBRANCH  47  66
BRANCH  59  72
ATOM     72  C   UNL A   1      48.905  26.090  26.465  1.00  0.00    -0.014 A 
ATOM     73  C   UNL A   1      49.405  26.449  25.204  1.00  0.00     0.009 A 
ATOM     74  C   UNL A   1      49.761  25.479  27.394  1.00  0.00     0.009 A 
ATOM     75  C   UNL A   1      50.729  26.166  24.867  1.00  0.00     0.001 A 
ATOM     76  C   UNL A   1      51.092  25.223  27.064  1.00  0.00     0.001 A 
ATOM     77  C   UNL A   1      51.572  25.558  25.798  1.00  0.00     0.000 A 
ENDBRANCH  59  72
ENDBRANCH  33  34
ENDBRANCH  26  28
ENDBRANCH  25  26
ENDBRANCH  24  25
ENDBRANCH  23  24
ENDBRANCH  22  23
ENDBRANCH   1  22
TORSDOF 18
ENDMDL
MODEL 2
REMARK VINA RESULT:     -11.9      5.281      9.033
REMARK SMILES CC(C)(CC(=O)OCCOCCOC(=O)c1ccc(-c2c3nc(c(-c4ccccc4)c4ccc([nH]4)c(-c4ccccc4)c4nc(c(-c5ccccc5)c5ccc2[nH]5)C=C4)C=C3)cc1)Cc1nc([C@@]2(C)CCCO2)no1
REMARK SMILES IDX 9 1 8 2 7 3 5 4 6 5 4 6 2 7 1 8 3 9 64 10 65 11 66 12 75 13
REMARK SMILES IDX 67 14 74 15 68 16 69 17 70 18 73 19 71 20 72 21 10 22 11 23
REMARK SMILES IDX 12 24 13 25 14 26 15 27 16 28 17 29 63 30 18 31 62 32 19 33
REMARK SMILES IDX 20 34 21 35 56 36 22 37 61 38 55 39 57 40 23 41 60 42 54 43
REMARK SMILES IDX 53 44 24 46 46 47 31 48 45 49 32 50 35 51 44 52 58 53 33 54
REMARK SMILES IDX 34 55 43 57 59 58 36 59 25 60 26 61 30 62 27 63 29 64 28 65
REMARK SMILES IDX 47 66 48 67 52 68 49 69 51 70 50 71 37 72 38 73 42 74 39 75
REMARK SMILES IDX 41 76 40 77
REMARK H PARENT 57 45 35 56
REMARK Flexibility Score: inf
ROOT
ATOM      1  C   UNL A   1      34.548  30.679  27.692  1.00  0.00     0.202 C 
ENDROOT
BRANCH   1   2
ATOM      2  C   UNL A   1      33.157  30.237  27.198  1.00  0.00     0.261 C 
BRANCH   2   3
ATOM      3  O   UNL A   1      32.895  28.831  27.382  1.00  0.00    -0.463 OA
BRANCH   3   4
ATOM      4  C   UNL A   1      32.607  28.141  26.264  1.00  0.00     0.306 C 
ATOM      5  O   UNL A   1      32.820  28.549  25.126  1.00  0.00    -0.252 OA
BRANCH   4   6
ATOM      6  C   UNL A   1      32.095  26.731  26.491  1.00  0.00     0.129 C 
BRANCH   6   7
ATOM      7  C   UNL A   1      32.481  25.447  25.691  1.00  0.00    -0.016 C 
ATOM      8  C   UNL A   1      33.971  25.346  25.350  1.00  0.00     0.012 C 
ATOM      9  C   UNL A   1      32.185  24.293  26.715  1.00  0.00     0.012 C 
BRANCH   7  10
ATOM     10  C   UNL A   1      31.583  25.112  24.454  1.00  0.00     0.107 C 
BRANCH  10  11
ATOM     11  C   UNL A   1      30.915  26.183  23.646  1.00  0.00     0.227 A 
ATOM     12  N   UNL A   1      29.601  27.066  23.928  1.00  0.00    -0.193 NA
ATOM     13  O   UNL A   1      31.917  27.078  22.370  1.00  0.00    -0.339 OA
ATOM     14  C   UNL A   1      29.466  28.551  22.865  1.00  0.00     0.203 A 
ATOM     15  N   UNL A   1      30.892  28.735  21.916  1.00  0.00    -0.059 NA
BRANCH  14  16
ATOM     16  C   UNL A   1      28.262  29.458  22.695  1.00  0.00     0.128 C 
ATOM     17  C   UNL A   1      26.969  28.760  23.111  1.00  0.00     0.051 C 
ATOM     18  C   UNL A   1      28.462  30.773  23.471  1.00  0.00     0.046 C 
ATOM     19  O   UNL A   1      28.029  29.845  21.309  1.00  0.00    -0.367 OA
ATOM     20  C   UNL A   1      28.005  31.863  22.532  1.00  0.00     0.032 C 
ATOM     21  C   UNL A   1      28.206  31.260  21.168  1.00  0.00     0.161 C 
ENDBRANCH  14  16
ENDBRANCH  10  11
ENDBRANCH   7  10
ENDBRANCH   6   7
ENDBRANCH   4   6
ENDBRANCH   3   4
ENDBRANCH   2   3
ENDBRANCH   1   2
BRANCH   1  22
ATOM     22  O   UNL A   1      34.667  31.763  28.623  1.00  0.00    -0.374 OA
BRANCH  22  23
ATOM     23  C   UNL A   1      35.117  33.072  28.257  1.00  0.00     0.202 C 
BRANCH  23  24
ATOM     24  C   UNL A   1      34.255  34.572  28.509  1.00  0.00     0.261 C 
BRANCH  24  25
ATOM     25  O   UNL A   1      33.086  34.871  30.249  1.00  0.00    -0.460 OA
BRANCH  25  26
ATOM     26  C   UNL A   1      32.977  35.427  31.529  1.00  0.00     0.338 C 
ATOM     27  O   UNL A   1      32.058  36.128  31.954  1.00  0.00    -0.246 OA
BRANCH  26  28
ATOM     28  C   UNL A   1      33.865  34.946  32.580  1.00  0.00     0.060 A 
ATOM     29  C   UNL A   1      35.083  35.639  32.547  1.00  0.00     0.016 A 
ATOM     30  C   UNL A   1      33.771  33.674  33.140  1.00  0.00     0.016 A 
ATOM     31  C   UNL A   1      36.244  34.973  32.855  1.00  0.00     0.010 A 
ATOM     32  C   UNL A   1      34.948  33.061  33.598  1.00  0.00     0.010 A 
ATOM     33  C   UNL A   1      36.195  33.682  33.396  1.00  0.00    -0.014 A 
BRANCH  33  34
ATOM     34  C   UNL A   1      37.499  33.035  33.678  1.00  0.00     0.031 A 
ATOM     35  C   UNL A   1      38.169  33.186  35.016  1.00  0.00     0.074 A 
ATOM     36  C   UNL A   1      37.976  32.167  32.764  1.00  0.00     0.049 A 
ATOM     37  N   UNL A   1      39.292  32.658  35.432  1.00  0.00    -0.248 NA
ATOM     38  C   UNL A   1      37.497  34.030  36.017  1.00  0.00     0.031 C 
ATOM     39  C   UNL A   1      37.340  31.877  31.473  1.00  0.00     0.029 A 
ATOM     40  N   UNL A   1      39.048  31.318  32.800  1.00  0.00    -0.354 N 
ATOM     41  C   UNL A   1      39.486  33.139  36.722  1.00  0.00     0.074 A 
ATOM     42  C   UNL A   1      38.364  34.003  37.022  1.00  0.00     0.031 C 
ATOM     43  C   UNL A   1      37.979  30.856  30.887  1.00  0.00     0.029 A 
ATOM     44  C   UNL A   1      39.135  30.505  31.696  1.00  0.00     0.049 A 
ATOM     45  H   UNL A   1      39.694  31.293  33.543  1.00  0.00     0.167 HD
ATOM     46  C   UNL A   1      40.514  32.886  37.569  1.00  0.00     0.031 A 
ATOM     47  C   UNL A   1      40.065  29.600  31.350  1.00  0.00     0.031 A 
ATOM     48  C   UNL A   1      41.610  32.005  37.253  1.00  0.00     0.049 A 
ATOM     49  C   UNL A   1      41.228  29.397  32.270  1.00  0.00     0.074 A 
ATOM     50  C   UNL A   1      42.719  31.695  38.019  1.00  0.00     0.029 A 
ATOM     51  N   UNL A   1      41.725  31.284  36.073  1.00  0.00    -0.354 N 
ATOM     52  N   UNL A   1      41.438  29.921  33.454  1.00  0.00    -0.248 NA
ATOM     53  C   UNL A   1      42.289  28.502  31.800  1.00  0.00     0.031 C 
ATOM     54  C   UNL A   1      43.530  30.825  37.281  1.00  0.00     0.029 A 
ATOM     55  C   UNL A   1      42.898  30.549  36.079  1.00  0.00     0.049 A 
ATOM     56  H   UNL A   1      41.068  31.293  35.339  1.00  0.00     0.167 HD
ATOM     57  C   UNL A   1      42.658  29.418  33.875  1.00  0.00     0.074 A 
ATOM     58  C   UNL A   1      43.124  28.526  32.830  1.00  0.00     0.031 C 
ATOM     59  C   UNL A   1      43.339  29.679  35.017  1.00  0.00     0.031 A 
BRANCH  46  60
ATOM     60  C   UNL A   1      40.535  33.619  38.884  1.00  0.00    -0.014 A 
ATOM     61  C   UNL A   1      41.144  34.875  39.025  1.00  0.00     0.009 A 
ATOM     62  C   UNL A   1      39.902  33.047  40.000  1.00  0.00     0.009 A 
ATOM     63  C   UNL A   1      41.149  35.526  40.264  1.00  0.00     0.001 A 
ATOM     64  C   UNL A   1      39.885  33.711  41.230  1.00  0.00     0.001 A 
ATOM     65  C   UNL A   1      40.516  34.945  41.363  1.00  0.00     0.000 A 
ENDBRANCH  46  60
BRANCH  47  66
ATOM     66  C   UNL A   1      39.957  28.895  30.046  1.00  0.00    -0.014 A 
ATOM     67  C   UNL A   1      39.407  27.609  29.964  1.00  0.00     0.009 A 
ATOM     68  C   UNL A   1      40.370  29.533  28.863  1.00  0.00     0.009 A 
ATOM     69  C   UNL A   1      39.276  26.976  28.724  1.00  0.00     0.001 A 
ATOM     70  C   UNL A   1      40.205  28.913  27.624  1.00  0.00     0.001 A 
ATOM     71  C   UNL A   1      39.664  27.632  27.556  1.00  0.00     0.000 A 
ENDBRANCH  47  66
BRANCH  59  72
ATOM     72  C   UNL A   1      44.646  28.965  35.190  1.00  0.00    -0.014 A 
ATOM     73  C   UNL A   1      44.700  27.679  35.750  1.00  0.00     0.009 A 
ATOM     74  C   UNL A   1      45.835  29.583  34.775  1.00  0.00     0.009 A 
ATOM     75  C   UNL A   1      45.929  27.041  35.925  1.00  0.00     0.001 A 
ATOM     76  C   UNL A   1      47.058  28.931  34.926  1.00  0.00     0.001 A 
ATOM     77  C   UNL A   1      47.105  27.665  35.509  1.00  0.00     0.000 A 
ENDBRANCH  59  72
ENDBRANCH  33  34
ENDBRANCH  26  28
ENDBRANCH  25  26
ENDBRANCH  24  25
ENDBRANCH  23  24
ENDBRANCH  22  23
ENDBRANCH   1  22
TORSDOF 18
ENDMDL
MODEL 3
REMARK VINA RESULT:     -11.9      5.552     10.859
REMARK SMILES CC(C)(CC(=O)OCCOCCOC(=O)c1ccc(-c2c3nc(c(-c4ccccc4)c4ccc([nH]4)c(-c4ccccc4)c4nc(c(-c5ccccc5)c5ccc2[nH]5)C=C4)C=C3)cc1)Cc1nc([C@@]2(C)CCCO2)no1
REMARK SMILES IDX 9 1 8 2 7 3 5 4 6 5 4 6 2 7 1 8 3 9 64 10 65 11 66 12 75 13
REMARK SMILES IDX 67 14 74 15 68 16 69 17 70 18 73 19 71 20 72 21 10 22 11 23
REMARK SMILES IDX 12 24 13 25 14 26 15 27 16 28 17 29 63 30 18 31 62 32 19 33
REMARK SMILES IDX 20 34 21 35 56 36 22 37 61 38 55 39 57 40 23 41 60 42 54 43
REMARK SMILES IDX 53 44 24 46 46 47 31 48 45 49 32 50 35 51 44 52 58 53 33 54
REMARK SMILES IDX 34 55 43 57 59 58 36 59 25 60 26 61 30 62 27 63 29 64 28 65
REMARK SMILES IDX 47 66 48 67 52 68 49 69 51 70 50 71 37 72 38 73 42 74 39 75
REMARK SMILES IDX 41 76 40 77
REMARK H PARENT 57 45 35 56
REMARK Flexibility Score: inf
ROOT
ATOM      1  C   UNL A   1      38.057  20.867  25.289  1.00  0.00     0.202 C 
ENDROOT
BRANCH   1   2
ATOM      2  C   UNL A   1      37.782  22.318  25.731  1.00  0.00     0.261 C 
BRANCH   2   3
ATOM      3  O   UNL A   1      37.132  23.118  24.722  1.00  0.00    -0.463 OA
BRANCH   3   4
ATOM      4  C   UNL A   1      35.795  23.214  24.829  1.00  0.00     0.306 C 
ATOM      5  O   UNL A   1      35.140  22.751  25.758  1.00  0.00    -0.252 OA
BRANCH   4   6
ATOM      6  C   UNL A   1      35.123  24.057  23.761  1.00  0.00     0.129 C 
BRANCH   6   7
ATOM      7  C   UNL A   1      33.827  24.914  23.913  1.00  0.00    -0.016 C 
ATOM      8  C   UNL A   1      33.714  25.646  25.254  1.00  0.00     0.012 C 
ATOM      9  C   UNL A   1      34.009  26.025  22.819  1.00  0.00     0.012 C 
BRANCH   7  10
ATOM     10  C   UNL A   1      32.485  24.204  23.530  1.00  0.00     0.107 C 
BRANCH  10  11
ATOM     11  C   UNL A   1      32.224  22.767  23.866  1.00  0.00     0.227 A 
ATOM     12  N   UNL A   1      32.817  21.406  23.249  1.00  0.00    -0.193 NA
ATOM     13  O   UNL A   1      31.543  22.364  25.541  1.00  0.00    -0.339 OA
ATOM     14  C   UNL A   1      32.541  19.935  24.305  1.00  0.00     0.203 A 
ATOM     15  N   UNL A   1      31.847  20.405  25.811  1.00  0.00    -0.059 NA
BRANCH  14  16
ATOM     16  C   UNL A   1      32.749  18.480  23.932  1.00  0.00     0.128 C 
ATOM     17  C   UNL A   1      32.342  18.206  22.487  1.00  0.00     0.051 C 
ATOM     18  C   UNL A   1      34.206  18.056  24.193  1.00  0.00     0.046 C 
ATOM     19  O   UNL A   1      31.924  17.566  24.714  1.00  0.00    -0.367 OA
ATOM     20  C   UNL A   1      34.116  16.706  24.861  1.00  0.00     0.032 C 
ATOM     21  C   UNL A   1      32.762  16.728  25.518  1.00  0.00     0.161 C 
ENDBRANCH  14  16
ENDBRANCH  10  11
ENDBRANCH   7  10
ENDBRANCH   6   7
ENDBRANCH   4   6
ENDBRANCH   3   4
ENDBRANCH   2   3
ENDBRANCH   1   2
BRANCH   1  22
ATOM     22  O   UNL A   1      39.336  20.270  25.544  1.00  0.00    -0.374 OA
BRANCH  22  23
ATOM     23  C   UNL A   1      40.316  20.846  26.414  1.00  0.00     0.202 C 
BRANCH  23  24
ATOM     24  C   UNL A   1      41.479  22.082  25.992  1.00  0.00     0.261 C 
BRANCH  24  25
ATOM     25  O   UNL A   1      41.110  24.117  26.449  1.00  0.00    -0.460 OA
BRANCH  25  26
ATOM     26  C   UNL A   1      41.214  25.460  26.069  1.00  0.00     0.338 C 
ATOM     27  O   UNL A   1      41.769  25.902  25.063  1.00  0.00    -0.246 OA
BRANCH  26  28
ATOM     28  C   UNL A   1      40.377  26.445  26.742  1.00  0.00     0.060 A 
ATOM     29  C   UNL A   1      40.958  27.718  26.663  1.00  0.00     0.016 A 
ATOM     30  C   UNL A   1      39.477  26.122  27.754  1.00  0.00     0.016 A 
ATOM     31  C   UNL A   1      40.827  28.584  27.721  1.00  0.00     0.010 A 
ATOM     32  C   UNL A   1      39.227  27.077  28.752  1.00  0.00     0.010 A 
ATOM     33  C   UNL A   1      39.952  28.284  28.774  1.00  0.00    -0.014 A 
BRANCH  33  34
ATOM     34  C   UNL A   1      39.891  29.269  29.881  1.00  0.00     0.031 A 
ATOM     35  C   UNL A   1      38.805  30.307  29.940  1.00  0.00     0.074 A 
ATOM     36  C   UNL A   1      40.731  29.092  30.920  1.00  0.00     0.049 A 
ATOM     37  N   UNL A   1      38.592  31.217  30.857  1.00  0.00    -0.248 NA
ATOM     38  C   UNL A   1      37.830  30.329  28.838  1.00  0.00     0.031 C 
ATOM     39  C   UNL A   1      41.758  28.045  30.999  1.00  0.00     0.029 A 
ATOM     40  N   UNL A   1      40.813  29.724  32.130  1.00  0.00    -0.354 N 
ATOM     41  C   UNL A   1      37.492  31.947  30.423  1.00  0.00     0.074 A 
ATOM     42  C   UNL A   1      37.079  31.375  29.159  1.00  0.00     0.031 C 
ATOM     43  C   UNL A   1      42.298  28.050  32.224  1.00  0.00     0.029 A 
ATOM     44  C   UNL A   1      41.749  29.170  32.970  1.00  0.00     0.049 A 
ATOM     45  H   UNL A   1      40.259  30.501  32.375  1.00  0.00     0.167 HD
ATOM     46  C   UNL A   1      36.892  33.003  31.026  1.00  0.00     0.031 A 
ATOM     47  C   UNL A   1      42.152  29.545  34.196  1.00  0.00     0.031 A 
ATOM     48  C   UNL A   1      37.310  33.541  32.295  1.00  0.00     0.049 A 
ATOM     49  C   UNL A   1      41.523  30.759  34.804  1.00  0.00     0.074 A 
ATOM     50  C   UNL A   1      36.798  34.623  32.988  1.00  0.00     0.029 A 
ATOM     51  N   UNL A   1      38.341  33.024  33.068  1.00  0.00    -0.354 N 
ATOM     52  N   UNL A   1      40.535  31.489  34.344  1.00  0.00    -0.248 NA
ATOM     53  C   UNL A   1      42.079  31.217  36.081  1.00  0.00     0.031 C 
ATOM     54  C   UNL A   1      37.552  34.791  34.155  1.00  0.00     0.029 A 
ATOM     55  C   UNL A   1      38.497  33.779  34.218  1.00  0.00     0.049 A 
ATOM     56  H   UNL A   1      38.882  32.235  32.833  1.00  0.00     0.167 HD
ATOM     57  C   UNL A   1      40.347  32.495  35.277  1.00  0.00     0.074 A 
ATOM     58  C   UNL A   1      41.304  32.261  36.341  1.00  0.00     0.031 C 
ATOM     59  C   UNL A   1      39.468  33.527  35.252  1.00  0.00     0.031 A 
BRANCH  46  60
ATOM     60  C   UNL A   1      35.769  33.684  30.290  1.00  0.00    -0.014 A 
ATOM     61  C   UNL A   1      34.532  33.945  30.898  1.00  0.00     0.009 A 
ATOM     62  C   UNL A   1      35.969  34.099  28.962  1.00  0.00     0.009 A 
ATOM     63  C   UNL A   1      33.509  34.576  30.181  1.00  0.00     0.001 A 
ATOM     64  C   UNL A   1      34.954  34.751  28.257  1.00  0.00     0.001 A 
ATOM     65  C   UNL A   1      33.722  34.981  28.864  1.00  0.00     0.000 A 
ENDBRANCH  46  60
BRANCH  47  66
ATOM     66  C   UNL A   1      43.248  28.801  34.870  1.00  0.00    -0.014 A 
ATOM     67  C   UNL A   1      42.973  27.720  35.717  1.00  0.00     0.009 A 
ATOM     68  C   UNL A   1      44.588  29.150  34.628  1.00  0.00     0.009 A 
ATOM     69  C   UNL A   1      44.019  27.006  36.311  1.00  0.00     0.001 A 
ATOM     70  C   UNL A   1      45.630  28.414  35.194  1.00  0.00     0.001 A 
ATOM     71  C   UNL A   1      45.344  27.346  36.041  1.00  0.00     0.000 A 
ENDBRANCH  47  66
BRANCH  59  72
ATOM     72  C   UNL A   1      39.501  34.456  36.428  1.00  0.00    -0.014 A 
ATOM     73  C   UNL A   1      40.174  35.686  36.360  1.00  0.00     0.009 A 
ATOM     74  C   UNL A   1      38.839  34.101  37.613  1.00  0.00     0.009 A 
ATOM     75  C   UNL A   1      40.213  36.527  37.473  1.00  0.00     0.001 A 
ATOM     76  C   UNL A   1      38.857  34.956  38.714  1.00  0.00     0.001 A 
ATOM     77  C   UNL A   1      39.553  36.163  38.647  1.00  0.00     0.000 A 
ENDBRANCH  59  72
ENDBRANCH  33  34
ENDBRANCH  26  28
ENDBRANCH  25  26
ENDBRANCH  24  25
ENDBRANCH  23  24
ENDBRANCH  22  23
ENDBRANCH   1  22
TORSDOF 18
ENDMDL
