MODEL 1
REMARK VINA RESULT:     -11.4      0.000      0.000
REMARK SMILES CCOc1cc2c(cc1/C=C1/C(=O)N(c3cccc(C(=O)OCCOCCOC(=O)c4ccc(-c5c6nc(c(-c7ccccc7)c7ccc([nH]7)c(-c7ccccc7)c7nc(c(-c8ccccc8)c8ccc5[nH]8)C=C7)C=C6)cc4)c3)C(=S)N=C1O)OCO2
REMARK SMILES IDX 24 1 23 2 22 3 20 4 21 5 19 6 15 7 16 8 79 9 17 10 18 11
REMARK SMILES IDX 14 12 10 13 11 14 12 15 83 16 13 17 82 18 80 19 81 20 9 21
REMARK SMILES IDX 4 22 5 23 6 24 8 25 7 26 87 27 85 28 86 29 3 30 2 31 1 32
REMARK SMILES IDX 84 33 25 35 26 36 27 37 28 38 29 39 30 40 31 41 32 42 78 43
REMARK SMILES IDX 33 44 77 45 34 46 35 47 36 48 71 49 37 50 76 51 70 52 72 53
REMARK SMILES IDX 38 54 75 55 69 56 68 57 39 59 61 60 46 61 60 62 47 63 50 64
REMARK SMILES IDX 59 65 73 66 48 67 49 68 58 70 74 71 51 72 40 73 41 74 45 75
REMARK SMILES IDX 42 76 44 77 43 78 62 79 63 80 67 81 64 82 66 83 65 84 52 85
REMARK SMILES IDX 53 86 57 87 54 88 56 89 55 90
REMARK H PARENT 84 34 72 58 50 69
REMARK Flexibility Score: inf
ROOT
ATOM      1  C   UNL A   1      39.536  22.120  26.466  1.00  0.00     0.202 C 
ENDROOT
BRANCH   1   2
ATOM      2  C   UNL A   1      38.455  21.945  25.394  1.00  0.00     0.261 C 
BRANCH   2   3
ATOM      3  O   UNL A   1      37.316  21.233  25.902  1.00  0.00    -0.460 OA
BRANCH   3   4
ATOM      4  C   UNL A   1      36.823  20.278  25.076  1.00  0.00     0.338 C 
ATOM      5  O   UNL A   1      37.425  19.309  24.634  1.00  0.00    -0.246 OA
BRANCH   4   6
ATOM      6  C   UNL A   1      35.360  20.453  24.924  1.00  0.00     0.062 A 
ATOM      7  C   UNL A   1      33.311  21.743  25.144  1.00  0.00     0.052 A 
ATOM      8  C   UNL A   1      32.595  20.614  24.698  1.00  0.00     0.027 A 
ATOM      9  C   UNL A   1      34.708  21.656  25.234  1.00  0.00     0.042 A 
ATOM     10  C   UNL A   1      33.243  19.413  24.405  1.00  0.00     0.003 A 
ATOM     11  C   UNL A   1      34.625  19.331  24.523  1.00  0.00     0.016 A 
BRANCH   7  12
ATOM     12  N   UNL A   1      32.606  22.957  25.500  1.00  0.00    -0.251 N 
ATOM     13  C   UNL A   1      31.440  26.097  23.938  1.00  0.00     0.031 C 
ATOM     14  C   UNL A   1      31.537  25.099  24.859  1.00  0.00     0.103 C 
ATOM     15  C   UNL A   1      32.386  23.905  24.480  1.00  0.00     0.270 C 
ATOM     16  C   UNL A   1      30.918  24.953  26.176  1.00  0.00     0.226 C 
ATOM     17  O   UNL A   1      32.822  23.798  23.333  1.00  0.00    -0.268 OA
ATOM     18  N   UNL A   1      31.199  24.089  27.071  1.00  0.00    -0.184 NA
ATOM     19  C   UNL A   1      32.175  23.158  26.830  1.00  0.00     0.210 C 
ATOM     20  S   UNL A   1      32.813  22.359  28.193  1.00  0.00    -0.038 S 
BRANCH  13  21
ATOM     21  C   UNL A   1      30.703  27.399  23.854  1.00  0.00     0.021 A 
ATOM     22  C   UNL A   1      31.241  28.592  24.432  1.00  0.00     0.130 A 
ATOM     23  C   UNL A   1      30.673  29.854  24.190  1.00  0.00     0.097 A 
ATOM     24  C   UNL A   1      29.507  29.909  23.472  1.00  0.00     0.169 A 
ATOM     25  C   UNL A   1      29.451  27.516  23.231  1.00  0.00     0.062 A 
ATOM     26  C   UNL A   1      28.902  28.769  23.023  1.00  0.00     0.166 A 
ATOM     27  O   UNL A   1      28.819  31.035  23.152  1.00  0.00    -0.453 OA
ATOM     28  O   UNL A   1      27.749  29.029  22.349  1.00  0.00    -0.454 OA
ATOM     29  C   UNL A   1      27.715  30.472  22.415  1.00  0.00     0.468 C 
BRANCH  22  30
ATOM     30  O   UNL A   1      32.387  28.564  25.197  1.00  0.00    -0.493 OA
BRANCH  30  31
ATOM     31  C   UNL A   1      32.229  29.247  26.459  1.00  0.00     0.226 C 
ATOM     32  C   UNL A   1      31.673  28.368  27.577  1.00  0.00     0.049 C 
ENDBRANCH  30  31
ENDBRANCH  22  30
ENDBRANCH  13  21
BRANCH  16  33
ATOM     33  O   UNL A   1      29.916  25.765  26.495  1.00  0.00    -0.493 OA
ATOM     34  H   UNL A   1      30.081  26.673  26.651  1.00  0.00     0.295 HD
ENDBRANCH  16  33
ENDBRANCH   7  12
ENDBRANCH   4   6
ENDBRANCH   3   4
ENDBRANCH   2   3
ENDBRANCH   1   2
BRANCH   1  35
ATOM     35  O   UNL A   1      40.192  20.945  26.935  1.00  0.00    -0.374 OA
BRANCH  35  36
ATOM     36  C   UNL A   1      41.605  20.857  26.754  1.00  0.00     0.202 C 
BRANCH  36  37
ATOM     37  C   UNL A   1      42.173  19.539  26.210  1.00  0.00     0.261 C 
BRANCH  37  38
ATOM     38  O   UNL A   1      42.725  19.673  24.889  1.00  0.00    -0.460 OA
BRANCH  38  39
ATOM     39  C   UNL A   1      44.076  19.749  24.860  1.00  0.00     0.338 C 
ATOM     40  O   UNL A   1      44.863  18.869  24.549  1.00  0.00    -0.246 OA
BRANCH  39  41
ATOM     41  C   UNL A   1      44.514  21.137  25.093  1.00  0.00     0.060 A 
ATOM     42  C   UNL A   1      45.256  21.384  26.253  1.00  0.00     0.016 A 
ATOM     43  C   UNL A   1      44.131  22.187  24.256  1.00  0.00     0.016 A 
ATOM     44  C   UNL A   1      45.558  22.690  26.621  1.00  0.00     0.010 A 
ATOM     45  C   UNL A   1      44.438  23.501  24.626  1.00  0.00     0.010 A 
ATOM     46  C   UNL A   1      45.111  23.761  25.834  1.00  0.00    -0.014 A 
BRANCH  46  47
ATOM     47  C   UNL A   1      45.251  25.140  26.362  1.00  0.00     0.031 A 
ATOM     48  C   UNL A   1      46.584  25.834  26.283  1.00  0.00     0.074 A 
ATOM     49  C   UNL A   1      44.179  25.794  26.843  1.00  0.00     0.049 A 
ATOM     50  N   UNL A   1      46.898  27.063  26.610  1.00  0.00    -0.248 NA
ATOM     51  C   UNL A   1      47.712  25.042  25.769  1.00  0.00     0.031 C 
ATOM     52  C   UNL A   1      42.831  25.239  26.949  1.00  0.00     0.029 A 
ATOM     53  N   UNL A   1      44.057  27.075  27.317  1.00  0.00    -0.354 N 
ATOM     54  C   UNL A   1      48.258  27.187  26.350  1.00  0.00     0.074 A 
ATOM     55  C   UNL A   1      48.716  25.899  25.876  1.00  0.00     0.031 C 
ATOM     56  C   UNL A   1      42.011  26.181  27.445  1.00  0.00     0.029 A 
ATOM     57  C   UNL A   1      42.783  27.392  27.718  1.00  0.00     0.049 A 
ATOM     58  H   UNL A   1      44.811  27.707  27.366  1.00  0.00     0.167 HD
ATOM     59  C   UNL A   1      49.053  28.276  26.487  1.00  0.00     0.031 A 
ATOM     60  C   UNL A   1      42.291  28.527  28.250  1.00  0.00     0.031 A 
ATOM     61  C   UNL A   1      48.597  29.554  26.971  1.00  0.00     0.049 A 
ATOM     62  C   UNL A   1      43.203  29.710  28.434  1.00  0.00     0.074 A 
ATOM     63  C   UNL A   1      49.318  30.727  27.113  1.00  0.00     0.029 A 
ATOM     64  N   UNL A   1      47.308  29.822  27.402  1.00  0.00    -0.354 N 
ATOM     65  N   UNL A   1      44.476  29.829  28.140  1.00  0.00    -0.248 NA
ATOM     66  C   UNL A   1      42.601  30.924  29.006  1.00  0.00     0.031 C 
ATOM     67  C   UNL A   1      48.483  31.684  27.698  1.00  0.00     0.029 A 
ATOM     68  C   UNL A   1      47.220  31.132  27.844  1.00  0.00     0.049 A 
ATOM     69  H   UNL A   1      46.564  29.177  27.396  1.00  0.00     0.167 HD
ATOM     70  C   UNL A   1      44.819  31.136  28.460  1.00  0.00     0.074 A 
ATOM     71  C   UNL A   1      43.616  31.775  28.955  1.00  0.00     0.031 C 
ATOM     72  C   UNL A   1      46.021  31.755  28.346  1.00  0.00     0.031 A 
BRANCH  59  73
ATOM     73  C   UNL A   1      50.511  28.117  26.150  1.00  0.00    -0.014 A 
ATOM     74  C   UNL A   1      50.998  28.343  24.851  1.00  0.00     0.009 A 
ATOM     75  C   UNL A   1      51.421  27.762  27.158  1.00  0.00     0.009 A 
ATOM     76  C   UNL A   1      52.355  28.175  24.563  1.00  0.00     0.001 A 
ATOM     77  C   UNL A   1      52.781  27.629  26.876  1.00  0.00     0.001 A 
ATOM     78  C   UNL A   1      53.246  27.823  25.577  1.00  0.00     0.000 A 
ENDBRANCH  59  73
BRANCH  60  79
ATOM     79  C   UNL A   1      40.862  28.596  28.649  1.00  0.00    -0.014 A 
ATOM     80  C   UNL A   1      39.881  29.049  27.754  1.00  0.00     0.009 A 
ATOM     81  C   UNL A   1      40.469  28.199  29.938  1.00  0.00     0.009 A 
ATOM     82  C   UNL A   1      38.543  29.126  28.149  1.00  0.00     0.001 A 
ATOM     83  C   UNL A   1      39.128  28.245  30.319  1.00  0.00     0.001 A 
ATOM     84  C   UNL A   1      38.167  28.717  29.427  1.00  0.00     0.000 A 
ENDBRANCH  60  79
BRANCH  72  85
ATOM     85  C   UNL A   1      46.085  33.211  28.722  1.00  0.00    -0.014 A 
ATOM     86  C   UNL A   1      45.802  34.226  27.794  1.00  0.00     0.009 A 
ATOM     87  C   UNL A   1      46.409  33.571  30.040  1.00  0.00     0.009 A 
ATOM     88  C   UNL A   1      45.893  35.571  28.167  1.00  0.00     0.001 A 
ATOM     89  C   UNL A   1      46.463  34.914  30.420  1.00  0.00     0.001 A 
ATOM     90  C   UNL A   1      46.219  35.912  29.480  1.00  0.00     0.000 A 
ENDBRANCH  72  85
ENDBRANCH  46  47
ENDBRANCH  39  41
ENDBRANCH  38  39
ENDBRANCH  37  38
ENDBRANCH  36  37
ENDBRANCH  35  36
ENDBRANCH   1  35
TORSDOF 19
ENDMDL
MODEL 2
REMARK VINA RESULT:     -11.1      0.430      5.541
REMARK SMILES CCOc1cc2c(cc1/C=C1/C(=O)N(c3cccc(C(=O)OCCOCCOC(=O)c4ccc(-c5c6nc(c(-c7ccccc7)c7ccc([nH]7)c(-c7ccccc7)c7nc(c(-c8ccccc8)c8ccc5[nH]8)C=C7)C=C6)cc4)c3)C(=S)N=C1O)OCO2
REMARK SMILES IDX 24 1 23 2 22 3 20 4 21 5 19 6 15 7 16 8 79 9 17 10 18 11
REMARK SMILES IDX 14 12 10 13 11 14 12 15 83 16 13 17 82 18 80 19 81 20 9 21
REMARK SMILES IDX 4 22 5 23 6 24 8 25 7 26 87 27 85 28 86 29 3 30 2 31 1 32
REMARK SMILES IDX 84 33 25 35 26 36 27 37 28 38 29 39 30 40 31 41 32 42 78 43
REMARK SMILES IDX 33 44 77 45 34 46 35 47 36 48 71 49 37 50 76 51 70 52 72 53
REMARK SMILES IDX 38 54 75 55 69 56 68 57 39 59 61 60 46 61 60 62 47 63 50 64
REMARK SMILES IDX 59 65 73 66 48 67 49 68 58 70 74 71 51 72 40 73 41 74 45 75
REMARK SMILES IDX 42 76 44 77 43 78 62 79 63 80 67 81 64 82 66 83 65 84 52 85
REMARK SMILES IDX 53 86 57 87 54 88 56 89 55 90
REMARK H PARENT 84 34 72 58 50 69
REMARK Flexibility Score: inf
ROOT
ATOM      1  C   UNL A   1      39.403  22.037  26.301  1.00  0.00     0.202 C 
ENDROOT
BRANCH   1   2
ATOM      2  C   UNL A   1      38.450  21.536  25.209  1.00  0.00     0.261 C 
BRANCH   2   3
ATOM      3  O   UNL A   1      37.194  21.111  25.758  1.00  0.00    -0.460 OA
BRANCH   3   4
ATOM      4  C   UNL A   1      36.626  20.051  25.134  1.00  0.00     0.338 C 
ATOM      5  O   UNL A   1      37.156  18.976  24.887  1.00  0.00    -0.246 OA
BRANCH   4   6
ATOM      6  C   UNL A   1      35.176  20.292  24.954  1.00  0.00     0.062 A 
ATOM      7  C   UNL A   1      33.183  21.671  25.144  1.00  0.00     0.052 A 
ATOM      8  C   UNL A   1      32.426  20.579  24.672  1.00  0.00     0.027 A 
ATOM      9  C   UNL A   1      34.572  21.520  25.262  1.00  0.00     0.042 A 
ATOM     10  C   UNL A   1      33.026  19.352  24.380  1.00  0.00     0.003 A 
ATOM     11  C   UNL A   1      34.400  19.208  24.526  1.00  0.00     0.016 A 
BRANCH   7  12
ATOM     12  N   UNL A   1      32.525  22.911  25.498  1.00  0.00    -0.251 N 
ATOM     13  C   UNL A   1      31.351  26.031  23.900  1.00  0.00     0.031 C 
ATOM     14  C   UNL A   1      31.473  25.059  24.845  1.00  0.00     0.103 C 
ATOM     15  C   UNL A   1      32.273  23.834  24.461  1.00  0.00     0.270 C 
ATOM     16  C   UNL A   1      30.920  24.968  26.196  1.00  0.00     0.226 C 
ATOM     17  O   UNL A   1      32.647  23.682  23.297  1.00  0.00    -0.268 OA
ATOM     18  N   UNL A   1      31.228  24.124  27.103  1.00  0.00    -0.184 NA
ATOM     19  C   UNL A   1      32.168  23.163  26.841  1.00  0.00     0.210 C 
ATOM     20  S   UNL A   1      32.858  22.390  28.194  1.00  0.00    -0.038 S 
BRANCH  13  21
ATOM     21  C   UNL A   1      30.640  27.347  23.813  1.00  0.00     0.021 A 
ATOM     22  C   UNL A   1      31.214  28.535  24.367  1.00  0.00     0.130 A 
ATOM     23  C   UNL A   1      30.669  29.806  24.120  1.00  0.00     0.097 A 
ATOM     24  C   UNL A   1      29.492  29.878  23.423  1.00  0.00     0.169 A 
ATOM     25  C   UNL A   1      29.380  27.484  23.212  1.00  0.00     0.062 A 
ATOM     26  C   UNL A   1      28.854  28.746  22.998  1.00  0.00     0.166 A 
ATOM     27  O   UNL A   1      28.822  31.014  23.101  1.00  0.00    -0.453 OA
ATOM     28  O   UNL A   1      27.695  29.023  22.342  1.00  0.00    -0.454 OA
ATOM     29  C   UNL A   1      27.693  30.466  22.391  1.00  0.00     0.468 C 
BRANCH  22  30
ATOM     30  O   UNL A   1      32.373  28.492  25.112  1.00  0.00    -0.493 OA
BRANCH  30  31
ATOM     31  C   UNL A   1      32.289  29.282  26.317  1.00  0.00     0.226 C 
ATOM     32  C   UNL A   1      31.651  28.553  27.496  1.00  0.00     0.049 C 
ENDBRANCH  30  31
ENDBRANCH  22  30
ENDBRANCH  13  21
BRANCH  16  33
ATOM     33  O   UNL A   1      29.955  25.813  26.541  1.00  0.00    -0.493 OA
ATOM     34  H   UNL A   1      30.147  26.540  27.099  1.00  0.00     0.295 HD
ENDBRANCH  16  33
ENDBRANCH   7  12
ENDBRANCH   4   6
ENDBRANCH   3   4
ENDBRANCH   2   3
ENDBRANCH   1   2
BRANCH   1  35
ATOM     35  O   UNL A   1      40.115  21.055  27.051  1.00  0.00    -0.374 OA
BRANCH  35  36
ATOM     36  C   UNL A   1      41.527  20.969  26.861  1.00  0.00     0.202 C 
BRANCH  36  37
ATOM     37  C   UNL A   1      42.091  19.657  26.299  1.00  0.00     0.261 C 
BRANCH  37  38
ATOM     38  O   UNL A   1      42.673  19.814  24.994  1.00  0.00    -0.460 OA
BRANCH  38  39
ATOM     39  C   UNL A   1      44.027  19.784  24.985  1.00  0.00     0.338 C 
ATOM     40  O   UNL A   1      44.747  18.825  24.760  1.00  0.00    -0.246 OA
BRANCH  39  41
ATOM     41  C   UNL A   1      44.567  21.149  25.116  1.00  0.00     0.060 A 
ATOM     42  C   UNL A   1      45.247  21.453  26.300  1.00  0.00     0.016 A 
ATOM     43  C   UNL A   1      44.337  22.135  24.154  1.00  0.00     0.016 A 
ATOM     44  C   UNL A   1      45.637  22.762  26.562  1.00  0.00     0.010 A 
ATOM     45  C   UNL A   1      44.733  23.451  24.417  1.00  0.00     0.010 A 
ATOM     46  C   UNL A   1      45.342  23.778  25.643  1.00  0.00    -0.014 A 
BRANCH  46  47
ATOM     47  C   UNL A   1      45.566  25.189  26.044  1.00  0.00     0.031 A 
ATOM     48  C   UNL A   1      44.425  25.991  26.610  1.00  0.00     0.074 A 
ATOM     49  C   UNL A   1      46.796  25.727  25.973  1.00  0.00     0.049 A 
ATOM     50  N   UNL A   1      44.428  27.207  27.095  1.00  0.00    -0.248 NA
ATOM     51  C   UNL A   1      43.105  25.339  26.630  1.00  0.00     0.031 C 
ATOM     52  C   UNL A   1      47.987  25.045  25.467  1.00  0.00     0.029 A 
ATOM     53  N   UNL A   1      47.247  26.969  26.342  1.00  0.00    -0.354 N 
ATOM     54  C   UNL A   1      43.114  27.468  27.469  1.00  0.00     0.074 A 
ATOM     55  C   UNL A   1      42.336  26.299  27.119  1.00  0.00     0.031 C 
ATOM     56  C   UNL A   1      49.039  25.874  25.571  1.00  0.00     0.029 A 
ATOM     57  C   UNL A   1      48.589  27.151  26.121  1.00  0.00     0.049 A 
ATOM     58  H   UNL A   1      46.664  27.662  26.727  1.00  0.00     0.167 HD
ATOM     59  C   UNL A   1      42.604  28.576  28.057  1.00  0.00     0.031 A 
ATOM     60  C   UNL A   1      49.371  28.228  26.332  1.00  0.00     0.031 A 
ATOM     61  C   UNL A   1      43.378  29.743  28.394  1.00  0.00     0.049 A 
ATOM     62  C   UNL A   1      48.772  29.465  26.946  1.00  0.00     0.074 A 
ATOM     63  C   UNL A   1      42.958  30.903  29.023  1.00  0.00     0.029 A 
ATOM     64  N   UNL A   1      44.727  29.903  28.120  1.00  0.00    -0.354 N 
ATOM     65  N   UNL A   1      47.539  29.681  27.339  1.00  0.00    -0.248 NA
ATOM     66  C   UNL A   1      49.681  30.599  27.165  1.00  0.00     0.031 C 
ATOM     67  C   UNL A   1      44.037  31.792  29.063  1.00  0.00     0.029 A 
ATOM     68  C   UNL A   1      45.148  31.156  28.534  1.00  0.00     0.049 A 
ATOM     69  H   UNL A   1      45.301  29.227  27.692  1.00  0.00     0.167 HD
ATOM     70  C   UNL A   1      47.531  30.961  27.879  1.00  0.00     0.074 A 
ATOM     71  C   UNL A   1      48.886  31.465  27.778  1.00  0.00     0.031 C 
ATOM     72  C   UNL A   1      46.497  31.653  28.418  1.00  0.00     0.031 A 
BRANCH  59  73
ATOM     73  C   UNL A   1      41.124  28.596  28.333  1.00  0.00    -0.014 A 
ATOM     74  C   UNL A   1      40.600  28.220  29.582  1.00  0.00     0.009 A 
ATOM     75  C   UNL A   1      40.238  29.026  27.333  1.00  0.00     0.009 A 
ATOM     76  C   UNL A   1      39.221  28.234  29.805  1.00  0.00     0.001 A 
ATOM     77  C   UNL A   1      38.864  29.073  27.570  1.00  0.00     0.001 A 
ATOM     78  C   UNL A   1      38.354  28.666  28.801  1.00  0.00     0.000 A 
ENDBRANCH  59  73
BRANCH  60  79
ATOM     79  C   UNL A   1      50.807  28.182  25.955  1.00  0.00    -0.014 A 
ATOM     80  C   UNL A   1      51.732  27.454  26.718  1.00  0.00     0.009 A 
ATOM     81  C   UNL A   1      51.260  28.870  24.818  1.00  0.00     0.009 A 
ATOM     82  C   UNL A   1      53.083  27.434  26.362  1.00  0.00     0.001 A 
ATOM     83  C   UNL A   1      52.604  28.822  24.446  1.00  0.00     0.001 A 
ATOM     84  C   UNL A   1      53.517  28.111  25.223  1.00  0.00     0.000 A 
ENDBRANCH  60  79
BRANCH  72  85
ATOM     85  C   UNL A   1      46.799  33.016  28.982  1.00  0.00    -0.014 A 
ATOM     86  C   UNL A   1      47.557  33.179  30.153  1.00  0.00     0.009 A 
ATOM     87  C   UNL A   1      46.336  34.159  28.311  1.00  0.00     0.009 A 
ATOM     88  C   UNL A   1      47.801  34.456  30.665  1.00  0.00     0.001 A 
ATOM     89  C   UNL A   1      46.612  35.436  28.806  1.00  0.00     0.001 A 
ATOM     90  C   UNL A   1      47.333  35.582  29.989  1.00  0.00     0.000 A 
ENDBRANCH  72  85
ENDBRANCH  46  47
ENDBRANCH  39  41
ENDBRANCH  38  39
ENDBRANCH  37  38
ENDBRANCH  36  37
ENDBRANCH  35  36
ENDBRANCH   1  35
TORSDOF 19
ENDMDL
MODEL 3
REMARK VINA RESULT:     -10.9      5.793      9.312
REMARK SMILES CCOc1cc2c(cc1/C=C1/C(=O)N(c3cccc(C(=O)OCCOCCOC(=O)c4ccc(-c5c6nc(c(-c7ccccc7)c7ccc([nH]7)c(-c7ccccc7)c7nc(c(-c8ccccc8)c8ccc5[nH]8)C=C7)C=C6)cc4)c3)C(=S)N=C1O)OCO2
REMARK SMILES IDX 24 1 23 2 22 3 20 4 21 5 19 6 15 7 16 8 79 9 17 10 18 11
REMARK SMILES IDX 14 12 10 13 11 14 12 15 83 16 13 17 82 18 80 19 81 20 9 21
REMARK SMILES IDX 4 22 5 23 6 24 8 25 7 26 87 27 85 28 86 29 3 30 2 31 1 32
REMARK SMILES IDX 84 33 25 35 26 36 27 37 28 38 29 39 30 40 31 41 32 42 78 43
REMARK SMILES IDX 33 44 77 45 34 46 35 47 36 48 71 49 37 50 76 51 70 52 72 53
REMARK SMILES IDX 38 54 75 55 69 56 68 57 39 59 61 60 46 61 60 62 47 63 50 64
REMARK SMILES IDX 59 65 73 66 48 67 49 68 58 70 74 71 51 72 40 73 41 74 45 75
REMARK SMILES IDX 42 76 44 77 43 78 62 79 63 80 67 81 64 82 66 83 65 84 52 85
REMARK SMILES IDX 53 86 57 87 54 88 56 89 55 90
REMARK H PARENT 84 34 72 58 50 69
REMARK Flexibility Score: inf
ROOT
ATOM      1  C   UNL A   1      43.412  23.169  24.597  1.00  0.00     0.202 C 
ENDROOT
BRANCH   1   2
ATOM      2  C   UNL A   1      42.655  23.657  25.837  1.00  0.00     0.261 C 
BRANCH   2   3
ATOM      3  O   UNL A   1      42.724  22.704  26.908  1.00  0.00    -0.460 OA
BRANCH   3   4
ATOM      4  C   UNL A   1      42.298  23.163  28.110  1.00  0.00     0.338 C 
ATOM      5  O   UNL A   1      42.828  22.971  29.196  1.00  0.00    -0.246 OA
BRANCH   4   6
ATOM      6  C   UNL A   1      41.185  24.120  27.917  1.00  0.00     0.062 A 
ATOM      7  C   UNL A   1      40.050  26.222  28.367  1.00  0.00     0.052 A 
ATOM      8  C   UNL A   1      38.983  25.778  27.558  1.00  0.00     0.027 A 
ATOM      9  C   UNL A   1      41.163  25.385  28.524  1.00  0.00     0.042 A 
ATOM     10  C   UNL A   1      38.998  24.513  26.968  1.00  0.00     0.003 A 
ATOM     11  C   UNL A   1      40.096  23.682  27.152  1.00  0.00     0.016 A 
BRANCH   7  12
ATOM     12  N   UNL A   1      39.979  27.514  29.017  1.00  0.00    -0.251 N 
ATOM     13  C   UNL A   1      38.477  29.083  32.007  1.00  0.00     0.031 C 
ATOM     14  C   UNL A   1      39.299  28.932  30.933  1.00  0.00     0.103 C 
ATOM     15  C   UNL A   1      39.244  27.600  30.217  1.00  0.00     0.270 C 
ATOM     16  C   UNL A   1      40.283  29.843  30.349  1.00  0.00     0.226 C 
ATOM     17  O   UNL A   1      38.600  26.668  30.699  1.00  0.00    -0.268 OA
ATOM     18  N   UNL A   1      40.882  29.721  29.230  1.00  0.00    -0.184 NA
ATOM     19  C   UNL A   1      40.626  28.630  28.442  1.00  0.00     0.210 C 
ATOM     20  S   UNL A   1      41.080  28.756  26.803  1.00  0.00    -0.038 S 
BRANCH  13  21
ATOM     21  C   UNL A   1      38.231  30.165  33.014  1.00  0.00     0.021 A 
ATOM     22  C   UNL A   1      37.567  31.379  32.648  1.00  0.00     0.130 A 
ATOM     23  C   UNL A   1      37.145  32.312  33.610  1.00  0.00     0.097 A 
ATOM     24  C   UNL A   1      37.488  32.089  34.918  1.00  0.00     0.169 A 
ATOM     25  C   UNL A   1      38.649  30.060  34.349  1.00  0.00     0.062 A 
ATOM     26  C   UNL A   1      38.237  31.003  35.275  1.00  0.00     0.166 A 
ATOM     27  O   UNL A   1      37.173  32.884  35.973  1.00  0.00    -0.453 OA
ATOM     28  O   UNL A   1      38.489  30.967  36.611  1.00  0.00    -0.454 OA
ATOM     29  C   UNL A   1      37.790  32.152  37.051  1.00  0.00     0.468 C 
BRANCH  22  30
ATOM     30  O   UNL A   1      37.249  31.654  31.336  1.00  0.00    -0.493 OA
BRANCH  30  31
ATOM     31  C   UNL A   1      37.708  32.955  30.914  1.00  0.00     0.226 C 
ATOM     32  C   UNL A   1      37.717  33.150  29.399  1.00  0.00     0.049 C 
ENDBRANCH  30  31
ENDBRANCH  22  30
ENDBRANCH  13  21
BRANCH  16  33
ATOM     33  O   UNL A   1      40.654  30.906  31.055  1.00  0.00    -0.493 OA
ATOM     34  H   UNL A   1      41.538  31.212  31.010  1.00  0.00     0.295 HD
ENDBRANCH  16  33
ENDBRANCH   7  12
ENDBRANCH   4   6
ENDBRANCH   3   4
ENDBRANCH   2   3
ENDBRANCH   1   2
BRANCH   1  35
ATOM     35  O   UNL A   1      44.343  22.104  24.774  1.00  0.00    -0.374 OA
BRANCH  35  36
ATOM     36  C   UNL A   1      45.703  22.343  24.412  1.00  0.00     0.202 C 
BRANCH  36  37
ATOM     37  C   UNL A   1      46.403  23.556  25.039  1.00  0.00     0.261 C 
BRANCH  37  38
ATOM     38  O   UNL A   1      45.840  24.808  24.612  1.00  0.00    -0.460 OA
BRANCH  38  39
ATOM     39  C   UNL A   1      46.576  25.891  24.955  1.00  0.00     0.338 C 
ATOM     40  O   UNL A   1      47.464  26.421  24.307  1.00  0.00    -0.246 OA
BRANCH  39  41
ATOM     41  C   UNL A   1      46.045  26.498  26.189  1.00  0.00     0.060 A 
ATOM     42  C   UNL A   1      44.655  26.626  26.288  1.00  0.00     0.016 A 
ATOM     43  C   UNL A   1      46.880  27.016  27.181  1.00  0.00     0.016 A 
ATOM     44  C   UNL A   1      44.096  27.336  27.344  1.00  0.00     0.010 A 
ATOM     45  C   UNL A   1      46.316  27.728  28.245  1.00  0.00     0.010 A 
ATOM     46  C   UNL A   1      44.925  27.932  28.306  1.00  0.00    -0.014 A 
BRANCH  46  47
ATOM     47  C   UNL A   1      44.320  28.865  29.287  1.00  0.00     0.031 A 
ATOM     48  C   UNL A   1      43.948  28.364  30.657  1.00  0.00     0.074 A 
ATOM     49  C   UNL A   1      44.173  30.167  28.984  1.00  0.00     0.049 A 
ATOM     50  N   UNL A   1      43.485  29.031  31.685  1.00  0.00    -0.248 NA
ATOM     51  C   UNL A   1      44.115  26.923  30.901  1.00  0.00     0.031 C 
ATOM     52  C   UNL A   1      44.519  30.778  27.701  1.00  0.00     0.029 A 
ATOM     53  N   UNL A   1      43.706  31.211  29.742  1.00  0.00    -0.354 N 
ATOM     54  C   UNL A   1      43.299  28.091  32.692  1.00  0.00     0.074 A 
ATOM     55  C   UNL A   1      43.661  26.804  32.139  1.00  0.00     0.031 C 
ATOM     56  C   UNL A   1      44.265  32.096  27.766  1.00  0.00     0.029 A 
ATOM     57  C   UNL A   1      43.713  32.413  29.081  1.00  0.00     0.049 A 
ATOM     58  H   UNL A   1      43.396  31.107  30.671  1.00  0.00     0.167 HD
ATOM     59  C   UNL A   1      42.873  28.283  33.964  1.00  0.00     0.031 A 
ATOM     60  C   UNL A   1      43.313  33.634  29.485  1.00  0.00     0.031 A 
ATOM     61  C   UNL A   1      42.502  29.564  34.508  1.00  0.00     0.049 A 
ATOM     62  C   UNL A   1      42.801  33.815  30.889  1.00  0.00     0.074 A 
ATOM     63  C   UNL A   1      42.090  29.866  35.795  1.00  0.00     0.029 A 
ATOM     64  N   UNL A   1      42.487  30.751  33.795  1.00  0.00    -0.354 N 
ATOM     65  N   UNL A   1      42.675  32.927  31.845  1.00  0.00    -0.248 NA
ATOM     66  C   UNL A   1      42.395  35.175  31.273  1.00  0.00     0.031 C 
ATOM     67  C   UNL A   1      41.756  31.223  35.839  1.00  0.00     0.029 A 
ATOM     68  C   UNL A   1      42.039  31.783  34.604  1.00  0.00     0.049 A 
ATOM     69  H   UNL A   1      42.753  30.848  32.852  1.00  0.00     0.167 HD
ATOM     70  C   UNL A   1      42.208  33.625  32.952  1.00  0.00     0.074 A 
ATOM     71  C   UNL A   1      42.088  35.012  32.552  1.00  0.00     0.031 C 
ATOM     72  C   UNL A   1      41.911  33.159  34.192  1.00  0.00     0.031 A 
BRANCH  59  73
ATOM     73  C   UNL A   1      42.743  27.067  34.842  1.00  0.00    -0.014 A 
ATOM     74  C   UNL A   1      43.813  26.602  35.625  1.00  0.00     0.009 A 
ATOM     75  C   UNL A   1      41.515  26.390  34.909  1.00  0.00     0.009 A 
ATOM     76  C   UNL A   1      43.667  25.463  36.420  1.00  0.00     0.001 A 
ATOM     77  C   UNL A   1      41.361  25.273  35.732  1.00  0.00     0.001 A 
ATOM     78  C   UNL A   1      42.440  24.802  36.477  1.00  0.00     0.000 A 
ENDBRANCH  59  73
BRANCH  60  79
ATOM     79  C   UNL A   1      43.380  34.782  28.543  1.00  0.00    -0.014 A 
ATOM     80  C   UNL A   1      44.580  35.476  28.334  1.00  0.00     0.009 A 
ATOM     81  C   UNL A   1      42.233  35.186  27.841  1.00  0.00     0.009 A 
ATOM     82  C   UNL A   1      44.625  36.565  27.459  1.00  0.00     0.001 A 
ATOM     83  C   UNL A   1      42.287  36.252  26.943  1.00  0.00     0.001 A 
ATOM     84  C   UNL A   1      43.481  36.947  26.759  1.00  0.00     0.000 A 
ENDBRANCH  60  79
BRANCH  72  85
ATOM     85  C   UNL A   1      41.472  34.167  35.220  1.00  0.00    -0.014 A 
ATOM     86  C   UNL A   1      42.393  34.818  36.056  1.00  0.00     0.009 A 
ATOM     87  C   UNL A   1      40.110  34.488  35.334  1.00  0.00     0.009 A 
ATOM     88  C   UNL A   1      41.952  35.733  37.017  1.00  0.00     0.001 A 
ATOM     89  C   UNL A   1      39.676  35.429  36.270  1.00  0.00     0.001 A 
ATOM     90  C   UNL A   1      40.595  36.040  37.120  1.00  0.00     0.000 A 
ENDBRANCH  72  85
ENDBRANCH  46  47
ENDBRANCH  39  41
ENDBRANCH  38  39
ENDBRANCH  37  38
ENDBRANCH  36  37
ENDBRANCH  35  36
ENDBRANCH   1  35
TORSDOF 19
ENDMDL
