MODEL 1
REMARK VINA RESULT:     -10.1      0.000      0.000
REMARK SMILES COc1cc(OC)cc(-c2cc3nc(C)c(CCC(=O)OCCOCCOC(=O)c4ccc(-c5c6nc(c(-c7ccccc7)c7ccc([nH]7)c(-c7ccccc7)c7nc(c(-c8ccccc8)c8ccc5[nH]8)C=C7)C=C6)cc4)c(C)n3n2)c1
REMARK SMILES IDX 23 1 22 2 21 3 19 4 20 5 18 6 17 7 16 8 10 9 11 10 81 11
REMARK SMILES IDX 12 12 80 13 13 14 78 15 14 16 79 17 15 18 9 19 3 20 4 21
REMARK SMILES IDX 82 22 5 23 8 24 2 25 1 26 6 27 7 28 24 29 25 30 26 31 27 32
REMARK SMILES IDX 28 33 29 34 30 35 31 36 77 37 32 38 76 39 33 40 34 41 35 42
REMARK SMILES IDX 70 43 36 44 75 45 69 46 71 47 37 48 74 49 68 50 67 51 38 53
REMARK SMILES IDX 60 54 45 55 59 56 46 57 49 58 58 59 72 60 47 61 48 62 57 64
REMARK SMILES IDX 73 65 50 66 39 67 40 68 44 69 41 70 43 71 42 72 61 73 62 74
REMARK SMILES IDX 66 75 63 76 65 77 64 78 51 79 52 80 56 81 53 82 55 83 54 84
REMARK H PARENT 71 52 49 63
REMARK Flexibility Score: inf
ROOT
ATOM      1  C   UNL A   1      38.601  32.129  34.879  1.00  0.00     0.202 C 
ENDROOT
BRANCH   1   2
ATOM      2  C   UNL A   1      37.184  32.407  34.321  1.00  0.00     0.261 C 
BRANCH   2   3
ATOM      3  O   UNL A   1      36.637  31.363  33.468  1.00  0.00    -0.463 OA
BRANCH   3   4
ATOM      4  C   UNL A   1      37.115  31.156  32.222  1.00  0.00     0.306 C 
ATOM      5  O   UNL A   1      37.862  30.236  31.913  1.00  0.00    -0.252 OA
BRANCH   4   6
ATOM      6  C   UNL A   1      36.622  32.212  31.229  1.00  0.00     0.127 C 
BRANCH   6   7
ATOM      7  C   UNL A   1      36.923  32.020  29.719  1.00  0.00     0.051 C 
BRANCH   7   8
ATOM      8  C   UNL A   1      35.785  31.546  28.814  1.00  0.00    -0.005 A 
ATOM      9  C   UNL A   1      33.630  28.778  25.983  1.00  0.00     0.095 A 
ATOM     10  C   UNL A   1      32.869  29.942  26.273  1.00  0.00     0.080 A 
ATOM     11  N   UNL A   1      34.804  28.834  26.600  1.00  0.00    -0.166 NA
ATOM     12  C   UNL A   1      33.640  30.693  27.149  1.00  0.00     0.156 A 
ATOM     13  N   UNL A   1      34.812  29.988  27.279  1.00  0.00    -0.219 N 
ATOM     14  N   UNL A   1      33.484  31.888  27.797  1.00  0.00    -0.234 NA
ATOM     15  C   UNL A   1      35.874  30.444  28.041  1.00  0.00     0.046 A 
ATOM     16  C   UNL A   1      34.470  32.302  28.563  1.00  0.00     0.045 A 
ATOM     17  C   UNL A   1      37.074  29.603  27.852  1.00  0.00     0.067 C 
ATOM     18  C   UNL A   1      34.258  33.675  29.178  1.00  0.00     0.067 C 
BRANCH   9  19
ATOM     19  C   UNL A   1      33.396  27.586  25.175  1.00  0.00     0.009 A 
ATOM     20  C   UNL A   1      33.157  25.159  25.124  1.00  0.00     0.123 A 
ATOM     21  C   UNL A   1      33.341  25.181  23.749  1.00  0.00     0.092 A 
ATOM     22  C   UNL A   1      33.204  26.354  25.839  1.00  0.00     0.057 A 
ATOM     23  C   UNL A   1      33.574  26.387  23.091  1.00  0.00     0.123 A 
ATOM     24  C   UNL A   1      33.577  27.600  23.790  1.00  0.00     0.057 A 
BRANCH  20  25
ATOM     25  O   UNL A   1      33.039  23.921  25.692  1.00  0.00    -0.497 OA
ATOM     26  C   UNL A   1      32.190  23.882  26.833  1.00  0.00     0.278 C 
ENDBRANCH  20  25
BRANCH  23  27
ATOM     27  O   UNL A   1      33.782  26.288  21.743  1.00  0.00    -0.497 OA
ATOM     28  C   UNL A   1      32.697  25.674  21.052  1.00  0.00     0.278 C 
ENDBRANCH  23  27
ENDBRANCH   9  19
ENDBRANCH   7   8
ENDBRANCH   6   7
ENDBRANCH   4   6
ENDBRANCH   3   4
ENDBRANCH   2   3
ENDBRANCH   1   2
BRANCH   1  29
ATOM     29  O   UNL A   1      39.590  33.086  34.502  1.00  0.00    -0.374 OA
BRANCH  29  30
ATOM     30  C   UNL A   1      39.125  34.325  33.983  1.00  0.00     0.202 C 
BRANCH  30  31
ATOM     31  C   UNL A   1      39.511  34.587  32.533  1.00  0.00     0.261 C 
BRANCH  31  32
ATOM     32  O   UNL A   1      40.175  33.452  31.981  1.00  0.00    -0.460 OA
BRANCH  32  33
ATOM     33  C   UNL A   1      41.326  33.667  31.297  1.00  0.00     0.338 C 
ATOM     34  O   UNL A   1      42.002  34.666  31.284  1.00  0.00    -0.246 OA
BRANCH  33  35
ATOM     35  C   UNL A   1      41.529  32.480  30.435  1.00  0.00     0.060 A 
ATOM     36  C   UNL A   1      40.416  31.711  30.096  1.00  0.00     0.016 A 
ATOM     37  C   UNL A   1      42.832  32.057  30.111  1.00  0.00     0.016 A 
ATOM     38  C   UNL A   1      40.630  30.419  29.653  1.00  0.00     0.010 A 
ATOM     39  C   UNL A   1      43.043  30.806  29.602  1.00  0.00     0.010 A 
ATOM     40  C   UNL A   1      41.948  29.963  29.526  1.00  0.00    -0.014 A 
BRANCH  40  41
ATOM     41  C   UNL A   1      42.207  28.548  29.467  1.00  0.00     0.031 A 
ATOM     42  C   UNL A   1      42.797  27.946  30.668  1.00  0.00     0.074 A 
ATOM     43  C   UNL A   1      41.801  27.793  28.430  1.00  0.00     0.049 A 
ATOM     44  N   UNL A   1      44.008  27.533  30.804  1.00  0.00    -0.248 NA
ATOM     45  C   UNL A   1      41.984  27.887  31.884  1.00  0.00     0.031 C 
ATOM     46  C   UNL A   1      40.912  28.120  27.312  1.00  0.00     0.029 A 
ATOM     47  N   UNL A   1      42.059  26.479  28.239  1.00  0.00    -0.354 N 
ATOM     48  C   UNL A   1      44.096  27.023  32.088  1.00  0.00     0.074 A 
ATOM     49  C   UNL A   1      42.867  27.393  32.752  1.00  0.00     0.031 C 
ATOM     50  C   UNL A   1      40.524  26.970  26.707  1.00  0.00     0.029 A 
ATOM     51  C   UNL A   1      41.263  25.864  27.292  1.00  0.00     0.049 A 
ATOM     52  H   UNL A   1      42.760  25.999  28.736  1.00  0.00     0.167 HD
ATOM     53  C   UNL A   1      45.117  26.205  32.464  1.00  0.00     0.031 A 
ATOM     54  C   UNL A   1      41.192  24.526  27.083  1.00  0.00     0.031 A 
ATOM     55  C   UNL A   1      46.160  26.155  31.468  1.00  0.00     0.049 A 
ATOM     56  C   UNL A   1      42.439  23.927  27.630  1.00  0.00     0.074 A 
ATOM     57  C   UNL A   1      47.023  27.084  30.915  1.00  0.00     0.029 A 
ATOM     58  N   UNL A   1      46.139  25.103  30.579  1.00  0.00    -0.354 N 
ATOM     59  N   UNL A   1      43.617  24.163  27.122  1.00  0.00    -0.248 NA
ATOM     60  C   UNL A   1      42.439  23.491  29.021  1.00  0.00     0.031 C 
ATOM     61  C   UNL A   1      47.046  26.777  29.519  1.00  0.00     0.029 A 
ATOM     62  C   UNL A   1      46.250  25.647  29.322  1.00  0.00     0.049 A 
ATOM     63  H   UNL A   1      46.061  24.147  30.802  1.00  0.00     0.167 HD
ATOM     64  C   UNL A   1      44.454  24.330  28.218  1.00  0.00     0.074 A 
ATOM     65  C   UNL A   1      43.690  23.822  29.359  1.00  0.00     0.031 C 
ATOM     66  C   UNL A   1      45.566  25.126  28.160  1.00  0.00     0.031 A 
BRANCH  53  67
ATOM     67  C   UNL A   1      45.024  25.207  33.581  1.00  0.00    -0.014 A 
ATOM     68  C   UNL A   1      44.185  24.091  33.427  1.00  0.00     0.009 A 
ATOM     69  C   UNL A   1      45.544  25.437  34.869  1.00  0.00     0.009 A 
ATOM     70  C   UNL A   1      43.842  23.284  34.518  1.00  0.00     0.001 A 
ATOM     71  C   UNL A   1      45.241  24.609  35.950  1.00  0.00     0.001 A 
ATOM     72  C   UNL A   1      44.367  23.547  35.780  1.00  0.00     0.000 A 
ENDBRANCH  53  67
BRANCH  54  73
ATOM     73  C   UNL A   1      39.974  23.738  26.799  1.00  0.00    -0.014 A 
ATOM     74  C   UNL A   1      38.734  24.360  26.598  1.00  0.00     0.009 A 
ATOM     75  C   UNL A   1      40.086  22.374  26.464  1.00  0.00     0.009 A 
ATOM     76  C   UNL A   1      37.651  23.645  26.065  1.00  0.00     0.001 A 
ATOM     77  C   UNL A   1      39.007  21.662  25.931  1.00  0.00     0.001 A 
ATOM     78  C   UNL A   1      37.791  22.301  25.722  1.00  0.00     0.000 A 
ENDBRANCH  54  73
BRANCH  66  79
ATOM     79  C   UNL A   1      45.947  25.714  26.821  1.00  0.00    -0.014 A 
ATOM     80  C   UNL A   1      45.381  26.899  26.316  1.00  0.00     0.009 A 
ATOM     81  C   UNL A   1      47.011  25.139  26.114  1.00  0.00     0.009 A 
ATOM     82  C   UNL A   1      45.841  27.468  25.123  1.00  0.00     0.001 A 
ATOM     83  C   UNL A   1      47.482  25.715  24.930  1.00  0.00     0.001 A 
ATOM     84  C   UNL A   1      46.893  26.875  24.431  1.00  0.00     0.000 A 
ENDBRANCH  66  79
ENDBRANCH  40  41
ENDBRANCH  33  35
ENDBRANCH  32  33
ENDBRANCH  31  32
ENDBRANCH  30  31
ENDBRANCH  29  30
ENDBRANCH   1  29
TORSDOF 19
ENDMDL
MODEL 2
REMARK VINA RESULT:      -9.3      3.766      9.694
REMARK SMILES COc1cc(OC)cc(-c2cc3nc(C)c(CCC(=O)OCCOCCOC(=O)c4ccc(-c5c6nc(c(-c7ccccc7)c7ccc([nH]7)c(-c7ccccc7)c7nc(c(-c8ccccc8)c8ccc5[nH]8)C=C7)C=C6)cc4)c(C)n3n2)c1
REMARK SMILES IDX 23 1 22 2 21 3 19 4 20 5 18 6 17 7 16 8 10 9 11 10 81 11
REMARK SMILES IDX 12 12 80 13 13 14 78 15 14 16 79 17 15 18 9 19 3 20 4 21
REMARK SMILES IDX 82 22 5 23 8 24 2 25 1 26 6 27 7 28 24 29 25 30 26 31 27 32
REMARK SMILES IDX 28 33 29 34 30 35 31 36 77 37 32 38 76 39 33 40 34 41 35 42
REMARK SMILES IDX 70 43 36 44 75 45 69 46 71 47 37 48 74 49 68 50 67 51 38 53
REMARK SMILES IDX 60 54 45 55 59 56 46 57 49 58 58 59 72 60 47 61 48 62 57 64
REMARK SMILES IDX 73 65 50 66 39 67 40 68 44 69 41 70 43 71 42 72 61 73 62 74
REMARK SMILES IDX 66 75 63 76 65 77 64 78 51 79 52 80 56 81 53 82 55 83 54 84
REMARK H PARENT 71 52 49 63
REMARK Flexibility Score: inf
ROOT
ATOM      1  C   UNL A   1      46.064  22.412  24.588  1.00  0.00     0.202 C 
ENDROOT
BRANCH   1   2
ATOM      2  C   UNL A   1      44.701  21.681  24.520  1.00  0.00     0.261 C 
BRANCH   2   3
ATOM      3  O   UNL A   1      44.198  21.189  25.795  1.00  0.00    -0.463 OA
BRANCH   3   4
ATOM      4  C   UNL A   1      42.925  20.758  25.924  1.00  0.00     0.306 C 
ATOM      5  O   UNL A   1      42.607  19.592  26.117  1.00  0.00    -0.252 OA
BRANCH   4   6
ATOM      6  C   UNL A   1      41.912  21.899  25.796  1.00  0.00     0.127 C 
BRANCH   6   7
ATOM      7  C   UNL A   1      40.708  21.947  26.774  1.00  0.00     0.051 C 
BRANCH   7   8
ATOM      8  C   UNL A   1      39.298  21.935  26.180  1.00  0.00    -0.005 A 
ATOM      9  C   UNL A   1      35.303  23.640  24.977  1.00  0.00     0.095 A 
ATOM     10  C   UNL A   1      35.420  22.266  24.637  1.00  0.00     0.080 A 
ATOM     11  N   UNL A   1      36.400  24.052  25.601  1.00  0.00    -0.166 NA
ATOM     12  C   UNL A   1      36.686  21.876  25.055  1.00  0.00     0.156 A 
ATOM     13  N   UNL A   1      37.214  22.991  25.661  1.00  0.00    -0.219 N 
ATOM     14  N   UNL A   1      37.403  20.712  25.017  1.00  0.00    -0.234 NA
ATOM     15  C   UNL A   1      38.461  22.990  26.262  1.00  0.00     0.046 A 
ATOM     16  C   UNL A   1      38.609  20.719  25.541  1.00  0.00     0.045 A 
ATOM     17  C   UNL A   1      38.702  24.243  27.007  1.00  0.00     0.067 C 
ATOM     18  C   UNL A   1      39.307  19.370  25.538  1.00  0.00     0.067 C 
BRANCH   9  19
ATOM     19  C   UNL A   1      34.264  24.647  24.792  1.00  0.00     0.009 A 
ATOM     20  C   UNL A   1      32.188  25.625  25.619  1.00  0.00     0.123 A 
ATOM     21  C   UNL A   1      32.003  26.243  24.391  1.00  0.00     0.092 A 
ATOM     22  C   UNL A   1      33.303  24.813  25.814  1.00  0.00     0.057 A 
ATOM     23  C   UNL A   1      32.923  26.051  23.362  1.00  0.00     0.123 A 
ATOM     24  C   UNL A   1      34.072  25.276  23.560  1.00  0.00     0.057 A 
BRANCH  20  25
ATOM     25  O   UNL A   1      31.181  25.790  26.529  1.00  0.00    -0.497 OA
ATOM     26  C   UNL A   1      29.915  25.311  26.089  1.00  0.00     0.278 C 
ENDBRANCH  20  25
BRANCH  23  27
ATOM     27  O   UNL A   1      32.622  26.675  22.183  1.00  0.00    -0.497 OA
ATOM     28  C   UNL A   1      32.461  25.770  21.094  1.00  0.00     0.278 C 
ENDBRANCH  23  27
ENDBRANCH   9  19
ENDBRANCH   7   8
ENDBRANCH   6   7
ENDBRANCH   4   6
ENDBRANCH   3   4
ENDBRANCH   2   3
ENDBRANCH   1   2
BRANCH   1  29
ATOM     29  O   UNL A   1      46.137  23.452  25.562  1.00  0.00    -0.374 OA
BRANCH  29  30
ATOM     30  C   UNL A   1      45.314  24.593  25.351  1.00  0.00     0.202 C 
BRANCH  30  31
ATOM     31  C   UNL A   1      44.194  24.760  26.370  1.00  0.00     0.261 C 
BRANCH  31  32
ATOM     32  O   UNL A   1      43.727  26.108  26.378  1.00  0.00    -0.460 OA
BRANCH  32  33
ATOM     33  C   UNL A   1      42.589  26.385  25.694  1.00  0.00     0.338 C 
ATOM     34  O   UNL A   1      42.349  26.151  24.535  1.00  0.00    -0.246 OA
BRANCH  33  35
ATOM     35  C   UNL A   1      41.733  27.177  26.606  1.00  0.00     0.060 A 
ATOM     36  C   UNL A   1      41.760  28.567  26.498  1.00  0.00     0.016 A 
ATOM     37  C   UNL A   1      41.045  26.542  27.657  1.00  0.00     0.016 A 
ATOM     38  C   UNL A   1      41.304  29.312  27.570  1.00  0.00     0.010 A 
ATOM     39  C   UNL A   1      40.524  27.281  28.684  1.00  0.00     0.010 A 
ATOM     40  C   UNL A   1      40.799  28.637  28.688  1.00  0.00    -0.014 A 
BRANCH  40  41
ATOM     41  C   UNL A   1      40.698  29.327  29.948  1.00  0.00     0.031 A 
ATOM     42  C   UNL A   1      39.460  30.081  30.176  1.00  0.00     0.074 A 
ATOM     43  C   UNL A   1      41.616  29.176  30.919  1.00  0.00     0.049 A 
ATOM     44  N   UNL A   1      39.328  31.362  30.170  1.00  0.00    -0.248 NA
ATOM     45  C   UNL A   1      38.210  29.333  30.328  1.00  0.00     0.031 C 
ATOM     46  C   UNL A   1      42.725  28.225  31.032  1.00  0.00     0.029 A 
ATOM     47  N   UNL A   1      41.658  29.834  32.100  1.00  0.00    -0.354 N 
ATOM     48  C   UNL A   1      37.996  31.610  30.457  1.00  0.00     0.074 A 
ATOM     49  C   UNL A   1      37.329  30.330  30.405  1.00  0.00     0.031 C 
ATOM     50  C   UNL A   1      43.169  28.217  32.314  1.00  0.00     0.029 A 
ATOM     51  C   UNL A   1      42.487  29.269  33.050  1.00  0.00     0.049 A 
ATOM     52  H   UNL A   1      41.138  30.652  32.269  1.00  0.00     0.167 HD
ATOM     53  C   UNL A   1      37.570  32.838  30.859  1.00  0.00     0.031 A 
ATOM     54  C   UNL A   1      42.528  29.622  34.358  1.00  0.00     0.031 A 
ATOM     55  C   UNL A   1      38.597  33.841  30.710  1.00  0.00     0.049 A 
ATOM     56  C   UNL A   1      41.969  30.995  34.462  1.00  0.00     0.074 A 
ATOM     57  C   UNL A   1      39.296  34.365  29.637  1.00  0.00     0.029 A 
ATOM     58  N   UNL A   1      39.350  34.148  31.821  1.00  0.00    -0.354 N 
ATOM     59  N   UNL A   1      42.553  32.038  33.938  1.00  0.00    -0.248 NA
ATOM     60  C   UNL A   1      40.537  31.138  34.694  1.00  0.00     0.031 C 
ATOM     61  C   UNL A   1      40.644  34.478  30.099  1.00  0.00     0.029 A 
ATOM     62  C   UNL A   1      40.667  34.078  31.437  1.00  0.00     0.049 A 
ATOM     63  H   UNL A   1      39.010  34.376  32.717  1.00  0.00     0.167 HD
ATOM     64  C   UNL A   1      41.524  32.784  33.379  1.00  0.00     0.074 A 
ATOM     65  C   UNL A   1      40.297  32.223  33.948  1.00  0.00     0.031 C 
ATOM     66  C   UNL A   1      41.726  33.588  32.291  1.00  0.00     0.031 A 
BRANCH  53  67
ATOM     67  C   UNL A   1      36.337  33.068  31.684  1.00  0.00    -0.014 A 
ATOM     68  C   UNL A   1      35.318  33.886  31.168  1.00  0.00     0.009 A 
ATOM     69  C   UNL A   1      36.234  32.705  33.040  1.00  0.00     0.009 A 
ATOM     70  C   UNL A   1      34.284  34.360  31.985  1.00  0.00     0.001 A 
ATOM     71  C   UNL A   1      35.181  33.139  33.846  1.00  0.00     0.001 A 
ATOM     72  C   UNL A   1      34.219  33.990  33.325  1.00  0.00     0.000 A 
ENDBRANCH  53  67
BRANCH  54  73
ATOM     73  C   UNL A   1      42.661  28.713  35.516  1.00  0.00    -0.014 A 
ATOM     74  C   UNL A   1      41.627  27.839  35.879  1.00  0.00     0.009 A 
ATOM     75  C   UNL A   1      43.923  28.520  36.113  1.00  0.00     0.009 A 
ATOM     76  C   UNL A   1      41.854  26.799  36.794  1.00  0.00     0.001 A 
ATOM     77  C   UNL A   1      44.150  27.483  37.023  1.00  0.00     0.001 A 
ATOM     78  C   UNL A   1      43.116  26.616  37.356  1.00  0.00     0.000 A 
ENDBRANCH  54  73
BRANCH  66  79
ATOM     79  C   UNL A   1      43.142  33.760  31.791  1.00  0.00    -0.014 A 
ATOM     80  C   UNL A   1      43.653  33.059  30.683  1.00  0.00     0.009 A 
ATOM     81  C   UNL A   1      43.938  34.762  32.361  1.00  0.00     0.009 A 
ATOM     82  C   UNL A   1      44.934  33.329  30.186  1.00  0.00     0.001 A 
ATOM     83  C   UNL A   1      45.212  35.043  31.856  1.00  0.00     0.001 A 
ATOM     84  C   UNL A   1      45.712  34.323  30.773  1.00  0.00     0.000 A 
ENDBRANCH  66  79
ENDBRANCH  40  41
ENDBRANCH  33  35
ENDBRANCH  32  33
ENDBRANCH  31  32
ENDBRANCH  30  31
ENDBRANCH  29  30
ENDBRANCH   1  29
TORSDOF 19
ENDMDL
MODEL 3
REMARK VINA RESULT:      -8.9      4.484      9.918
REMARK SMILES COc1cc(OC)cc(-c2cc3nc(C)c(CCC(=O)OCCOCCOC(=O)c4ccc(-c5c6nc(c(-c7ccccc7)c7ccc([nH]7)c(-c7ccccc7)c7nc(c(-c8ccccc8)c8ccc5[nH]8)C=C7)C=C6)cc4)c(C)n3n2)c1
REMARK SMILES IDX 23 1 22 2 21 3 19 4 20 5 18 6 17 7 16 8 10 9 11 10 81 11
REMARK SMILES IDX 12 12 80 13 13 14 78 15 14 16 79 17 15 18 9 19 3 20 4 21
REMARK SMILES IDX 82 22 5 23 8 24 2 25 1 26 6 27 7 28 24 29 25 30 26 31 27 32
REMARK SMILES IDX 28 33 29 34 30 35 31 36 77 37 32 38 76 39 33 40 34 41 35 42
REMARK SMILES IDX 70 43 36 44 75 45 69 46 71 47 37 48 74 49 68 50 67 51 38 53
REMARK SMILES IDX 60 54 45 55 59 56 46 57 49 58 58 59 72 60 47 61 48 62 57 64
REMARK SMILES IDX 73 65 50 66 39 67 40 68 44 69 41 70 43 71 42 72 61 73 62 74
REMARK SMILES IDX 66 75 63 76 65 77 64 78 51 79 52 80 56 81 53 82 55 83 54 84
REMARK H PARENT 71 52 49 63
REMARK Flexibility Score: inf
ROOT
ATOM      1  C   UNL A   1      46.958  34.778  27.993  1.00  0.00     0.202 C 
ENDROOT
BRANCH   1   2
ATOM      2  C   UNL A   1      46.660  33.615  27.017  1.00  0.00     0.261 C 
BRANCH   2   3
ATOM      3  O   UNL A   1      46.660  32.288  27.615  1.00  0.00    -0.463 OA
BRANCH   3   4
ATOM      4  C   UNL A   1      47.152  31.221  26.950  1.00  0.00     0.306 C 
ATOM      5  O   UNL A   1      48.306  31.127  26.553  1.00  0.00    -0.252 OA
BRANCH   4   6
ATOM      6  C   UNL A   1      46.095  30.133  26.737  1.00  0.00     0.127 C 
BRANCH   6   7
ATOM      7  C   UNL A   1      46.039  28.939  27.726  1.00  0.00     0.051 C 
BRANCH   7   8
ATOM      8  C   UNL A   1      45.979  27.526  27.143  1.00  0.00    -0.005 A 
ATOM      9  C   UNL A   1      44.254  23.429  26.394  1.00  0.00     0.095 A 
ATOM     10  C   UNL A   1      45.490  23.619  25.719  1.00  0.00     0.080 A 
ATOM     11  N   UNL A   1      43.952  24.508  27.106  1.00  0.00    -0.166 NA
ATOM     12  C   UNL A   1      45.900  24.908  26.030  1.00  0.00     0.156 A 
ATOM     13  N   UNL A   1      44.947  25.380  26.899  1.00  0.00    -0.219 N 
ATOM     14  N   UNL A   1      46.975  25.689  25.702  1.00  0.00    -0.234 NA
ATOM     15  C   UNL A   1      45.029  26.632  27.486  1.00  0.00     0.046 A 
ATOM     16  C   UNL A   1      47.032  26.898  26.216  1.00  0.00     0.045 A 
ATOM     17  C   UNL A   1      43.992  26.811  28.523  1.00  0.00     0.067 C 
ATOM     18  C   UNL A   1      48.296  27.669  25.875  1.00  0.00     0.067 C 
BRANCH   9  19
ATOM     19  C   UNL A   1      43.293  22.334  26.465  1.00  0.00     0.009 A 
ATOM     20  C   UNL A   1      42.691  20.087  25.735  1.00  0.00     0.123 A 
ATOM     21  C   UNL A   1      41.394  20.301  26.180  1.00  0.00     0.092 A 
ATOM     22  C   UNL A   1      43.633  21.105  25.857  1.00  0.00     0.057 A 
ATOM     23  C   UNL A   1      41.039  21.526  26.742  1.00  0.00     0.123 A 
ATOM     24  C   UNL A   1      41.987  22.541  26.914  1.00  0.00     0.057 A 
BRANCH  20  25
ATOM     25  O   UNL A   1      42.917  18.894  25.105  1.00  0.00    -0.497 OA
ATOM     26  C   UNL A   1      44.228  18.758  24.570  1.00  0.00     0.278 C 
ENDBRANCH  20  25
BRANCH  23  27
ATOM     27  O   UNL A   1      39.727  21.642  27.109  1.00  0.00    -0.497 OA
ATOM     28  C   UNL A   1      38.856  21.893  26.010  1.00  0.00     0.278 C 
ENDBRANCH  23  27
ENDBRANCH   9  19
ENDBRANCH   7   8
ENDBRANCH   6   7
ENDBRANCH   4   6
ENDBRANCH   3   4
ENDBRANCH   2   3
ENDBRANCH   1   2
BRANCH   1  29
ATOM     29  O   UNL A   1      47.122  36.053  27.372  1.00  0.00    -0.374 OA
BRANCH  29  30
ATOM     30  C   UNL A   1      47.370  37.161  28.228  1.00  0.00     0.202 C 
BRANCH  30  31
ATOM     31  C   UNL A   1      46.284  38.228  28.212  1.00  0.00     0.261 C 
BRANCH  31  32
ATOM     32  O   UNL A   1      45.696  38.360  29.505  1.00  0.00    -0.460 OA
BRANCH  32  33
ATOM     33  C   UNL A   1      44.346  38.279  29.594  1.00  0.00     0.338 C 
ATOM     34  O   UNL A   1      43.558  39.185  29.713  1.00  0.00    -0.246 OA
BRANCH  33  35
ATOM     35  C   UNL A   1      44.017  36.837  29.670  1.00  0.00     0.060 A 
ATOM     36  C   UNL A   1      43.499  36.217  28.533  1.00  0.00     0.016 A 
ATOM     37  C   UNL A   1      44.072  36.165  30.905  1.00  0.00     0.016 A 
ATOM     38  C   UNL A   1      42.824  35.021  28.696  1.00  0.00     0.010 A 
ATOM     39  C   UNL A   1      43.470  34.945  31.052  1.00  0.00     0.010 A 
ATOM     40  C   UNL A   1      42.732  34.473  29.982  1.00  0.00    -0.014 A 
BRANCH  40  41
ATOM     41  C   UNL A   1      41.726  33.480  30.259  1.00  0.00     0.031 A 
ATOM     42  C   UNL A   1      40.397  33.988  30.617  1.00  0.00     0.074 A 
ATOM     43  C   UNL A   1      41.948  32.168  30.063  1.00  0.00     0.049 A 
ATOM     44  N   UNL A   1      39.855  33.966  31.785  1.00  0.00    -0.248 NA
ATOM     45  C   UNL A   1      39.621  34.686  29.590  1.00  0.00     0.031 C 
ATOM     46  C   UNL A   1      43.061  31.486  29.398  1.00  0.00     0.029 A 
ATOM     47  N   UNL A   1      41.105  31.154  30.364  1.00  0.00    -0.354 N 
ATOM     48  C   UNL A   1      38.598  34.525  31.633  1.00  0.00     0.074 A 
ATOM     49  C   UNL A   1      38.562  35.076  30.298  1.00  0.00     0.031 C 
ATOM     50  C   UNL A   1      42.701  30.203  29.141  1.00  0.00     0.029 A 
ATOM     51  C   UNL A   1      41.414  29.947  29.766  1.00  0.00     0.049 A 
ATOM     52  H   UNL A   1      40.332  31.267  30.963  1.00  0.00     0.167 HD
ATOM     53  C   UNL A   1      37.626  34.363  32.572  1.00  0.00     0.031 A 
ATOM     54  C   UNL A   1      40.607  28.857  29.748  1.00  0.00     0.031 A 
ATOM     55  C   UNL A   1      38.143  33.776  33.785  1.00  0.00     0.049 A 
ATOM     56  C   UNL A   1      39.647  29.000  30.874  1.00  0.00     0.074 A 
ATOM     57  C   UNL A   1      39.080  34.157  34.729  1.00  0.00     0.029 A 
ATOM     58  N   UNL A   1      38.002  32.415  33.941  1.00  0.00    -0.354 N 
ATOM     59  N   UNL A   1      40.017  28.974  32.125  1.00  0.00    -0.248 NA
ATOM     60  C   UNL A   1      38.379  29.673  30.616  1.00  0.00     0.031 C 
ATOM     61  C   UNL A   1      39.815  32.966  35.017  1.00  0.00     0.029 A 
ATOM     62  C   UNL A   1      39.240  31.926  34.282  1.00  0.00     0.049 A 
ATOM     63  H   UNL A   1      37.174  31.894  33.830  1.00  0.00     0.167 HD
ATOM     64  C   UNL A   1      39.279  29.978  32.739  1.00  0.00     0.074 A 
ATOM     65  C   UNL A   1      38.229  30.318  31.778  1.00  0.00     0.031 C 
ATOM     66  C   UNL A   1      39.750  30.650  33.834  1.00  0.00     0.031 A 
BRANCH  53  67
ATOM     67  C   UNL A   1      36.156  34.439  32.279  1.00  0.00    -0.014 A 
ATOM     68  C   UNL A   1      35.659  33.800  31.131  1.00  0.00     0.009 A 
ATOM     69  C   UNL A   1      35.276  35.305  32.955  1.00  0.00     0.009 A 
ATOM     70  C   UNL A   1      34.368  34.062  30.656  1.00  0.00     0.001 A 
ATOM     71  C   UNL A   1      33.974  35.534  32.511  1.00  0.00     0.001 A 
ATOM     72  C   UNL A   1      33.528  34.932  31.344  1.00  0.00     0.000 A 
ENDBRANCH  53  67
BRANCH  54  73
ATOM     73  C   UNL A   1      40.390  27.936  28.613  1.00  0.00    -0.014 A 
ATOM     74  C   UNL A   1      40.939  28.195  27.349  1.00  0.00     0.009 A 
ATOM     75  C   UNL A   1      39.853  26.655  28.845  1.00  0.00     0.009 A 
ATOM     76  C   UNL A   1      40.964  27.199  26.360  1.00  0.00     0.001 A 
ATOM     77  C   UNL A   1      39.880  25.662  27.860  1.00  0.00     0.001 A 
ATOM     78  C   UNL A   1      40.445  25.932  26.619  1.00  0.00     0.000 A 
ENDBRANCH  54  73
BRANCH  66  79
ATOM     79  C   UNL A   1      41.042  30.174  34.456  1.00  0.00    -0.014 A 
ATOM     80  C   UNL A   1      41.085  29.263  35.528  1.00  0.00     0.009 A 
ATOM     81  C   UNL A   1      42.253  30.538  33.852  1.00  0.00     0.009 A 
ATOM     82  C   UNL A   1      42.304  28.763  36.002  1.00  0.00     0.001 A 
ATOM     83  C   UNL A   1      43.469  30.027  34.314  1.00  0.00     0.001 A 
ATOM     84  C   UNL A   1      43.496  29.145  35.393  1.00  0.00     0.000 A 
ENDBRANCH  66  79
ENDBRANCH  40  41
ENDBRANCH  33  35
ENDBRANCH  32  33
ENDBRANCH  31  32
ENDBRANCH  30  31
ENDBRANCH  29  30
ENDBRANCH   1  29
TORSDOF 19
ENDMDL
