MODEL 1
REMARK VINA RESULT:      -9.2      0.000      0.000
REMARK SMILES Cc1cc2c(c(C)c1Cl)C=C(C(=O)OCCOCCOC(=O)c1ccc(-c3c4nc(c(-c5ccccc5)c5ccc([nH]5)c(-c5ccccc5)c5nc(c(-c6ccccc6)c6ccc3[nH]6)C=C5)C=C4)cc1)[C@@H](C(F)(F)F)O2
REMARK SMILES IDX 18 1 17 2 16 3 15 4 14 5 12 6 13 7 11 8 1 9 2 10 3 11 8 12
REMARK SMILES IDX 4 13 6 14 9 15 5 16 76 17 7 18 10 19 71 20 72 21 73 22 74 23
REMARK SMILES IDX 75 24 19 25 20 26 21 27 22 28 23 29 24 30 70 31 25 32 69 33
REMARK SMILES IDX 26 34 27 35 28 36 63 37 29 38 68 39 62 40 64 41 30 42 67 43
REMARK SMILES IDX 61 44 60 45 31 47 53 48 38 49 52 50 39 51 42 52 51 53 65 54
REMARK SMILES IDX 40 55 41 56 50 58 66 59 43 60 32 61 33 62 37 63 34 64 36 65
REMARK SMILES IDX 35 66 54 67 55 68 59 69 56 70 58 71 57 72 44 73 45 74 49 75
REMARK SMILES IDX 46 76 48 77 47 78
REMARK H PARENT 64 46 42 57
REMARK Flexibility Score: inf
ROOT
ATOM      1  C   UNL A   1      42.391  19.711  26.780  1.00  0.00     0.202 C 
ENDROOT
BRANCH   1   2
ATOM      2  O   UNL A   1      42.655  19.694  25.377  1.00  0.00    -0.374 OA
BRANCH   2   3
ATOM      3  C   UNL A   1      43.962  19.300  24.958  1.00  0.00     0.202 C 
BRANCH   3   4
ATOM      4  C   UNL A   1      45.095  20.266  25.315  1.00  0.00     0.261 C 
BRANCH   4   5
ATOM      5  O   UNL A   1      45.133  21.370  24.395  1.00  0.00    -0.460 OA
BRANCH   5   6
ATOM      6  C   UNL A   1      44.469  22.473  24.807  1.00  0.00     0.338 C 
ATOM      7  O   UNL A   1      43.412  22.900  24.369  1.00  0.00    -0.246 OA
BRANCH   6   8
ATOM      8  C   UNL A   1      45.145  23.051  25.984  1.00  0.00     0.087 C 
ATOM      9  C   UNL A   1      46.632  26.308  31.364  1.00  0.00     0.046 C 
ATOM     10  C   UNL A   1      46.020  25.371  30.355  1.00  0.00    -0.028 A 
ATOM     11  C   UNL A   1      46.778  25.079  29.211  1.00  0.00     0.052 A 
ATOM     12  C   UNL A   1      44.724  24.831  30.467  1.00  0.00     0.047 A 
ATOM     13  C   UNL A   1      46.250  24.312  28.175  1.00  0.00     0.128 A 
ATOM     14  C   UNL A   1      44.185  24.020  29.440  1.00  0.00    -0.021 A 
ATOM     15  Cl  UNL A   1      43.773  25.200  31.874  1.00  0.00    -0.084 Cl
ATOM     16  C   UNL A   1      44.950  23.807  28.265  1.00  0.00     0.022 A 
ATOM     17  O   UNL A   1      47.088  24.112  27.113  1.00  0.00    -0.475 OA
ATOM     18  C   UNL A   1      42.815  23.389  29.557  1.00  0.00     0.047 C 
ATOM     19  C   UNL A   1      44.399  23.134  27.093  1.00  0.00     0.027 C 
ATOM     20  C   UNL A   1      46.564  23.524  25.892  1.00  0.00     0.316 C 
BRANCH  20  21
ATOM     21  C   UNL A   1      46.787  24.519  24.743  1.00  0.00     0.430 C 
ATOM     22  F   UNL A   1      47.006  23.871  23.572  1.00  0.00    -0.167 F 
ATOM     23  F   UNL A   1      45.707  25.311  24.547  1.00  0.00    -0.167 F 
ATOM     24  F   UNL A   1      47.847  25.325  24.966  1.00  0.00    -0.167 F 
ENDBRANCH  20  21
ENDBRANCH   6   8
ENDBRANCH   5   6
ENDBRANCH   4   5
ENDBRANCH   3   4
ENDBRANCH   2   3
ENDBRANCH   1   2
BRANCH   1  25
ATOM     25  C   UNL A   1      41.248  20.619  27.249  1.00  0.00     0.261 C 
BRANCH  25  26
ATOM     26  O   UNL A   1      41.141  21.810  26.448  1.00  0.00    -0.460 OA
BRANCH  26  27
ATOM     27  C   UNL A   1      39.903  22.356  26.407  1.00  0.00     0.338 C 
ATOM     28  O   UNL A   1      38.845  21.781  26.192  1.00  0.00    -0.246 OA
BRANCH  27  29
ATOM     29  C   UNL A   1      39.955  23.765  26.834  1.00  0.00     0.060 A 
ATOM     30  C   UNL A   1      40.502  24.693  25.938  1.00  0.00     0.016 A 
ATOM     31  C   UNL A   1      39.559  24.161  28.113  1.00  0.00     0.016 A 
ATOM     32  C   UNL A   1      40.702  26.013  26.336  1.00  0.00     0.010 A 
ATOM     33  C   UNL A   1      39.771  25.483  28.515  1.00  0.00     0.010 A 
ATOM     34  C   UNL A   1      40.376  26.405  27.641  1.00  0.00    -0.014 A 
BRANCH  34  35
ATOM     35  C   UNL A   1      40.796  27.737  28.132  1.00  0.00     0.031 A 
ATOM     36  C   UNL A   1      42.262  28.072  28.168  1.00  0.00     0.074 A 
ATOM     37  C   UNL A   1      39.885  28.648  28.511  1.00  0.00     0.049 A 
ATOM     38  N   UNL A   1      42.850  29.162  28.592  1.00  0.00    -0.248 NA
ATOM     39  C   UNL A   1      43.184  27.049  27.651  1.00  0.00     0.031 C 
ATOM     40  C   UNL A   1      38.435  28.466  28.462  1.00  0.00     0.029 A 
ATOM     41  N   UNL A   1      40.050  29.915  29.010  1.00  0.00    -0.354 N 
ATOM     42  C   UNL A   1      44.209  28.956  28.392  1.00  0.00     0.074 A 
ATOM     43  C   UNL A   1      44.362  27.630  27.834  1.00  0.00     0.031 C 
ATOM     44  C   UNL A   1      37.841  29.585  28.913  1.00  0.00     0.029 A 
ATOM     45  C   UNL A   1      38.868  30.544  29.315  1.00  0.00     0.049 A 
ATOM     46  H   UNL A   1      40.932  30.334  29.138  1.00  0.00     0.167 HD
ATOM     47  C   UNL A   1      45.238  29.799  28.644  1.00  0.00     0.031 A 
ATOM     48  C   UNL A   1      38.642  31.750  29.869  1.00  0.00     0.031 A 
ATOM     49  C   UNL A   1      45.091  31.108  29.218  1.00  0.00     0.049 A 
ATOM     50  C   UNL A   1      39.807  32.630  30.231  1.00  0.00     0.074 A 
ATOM     51  C   UNL A   1      46.078  32.028  29.532  1.00  0.00     0.029 A 
ATOM     52  N   UNL A   1      43.880  31.685  29.567  1.00  0.00    -0.354 N 
ATOM     53  N   UNL A   1      41.088  32.417  30.054  1.00  0.00    -0.248 NA
ATOM     54  C   UNL A   1      39.493  33.919  30.865  1.00  0.00     0.031 C 
ATOM     55  C   UNL A   1      45.466  33.143  30.112  1.00  0.00     0.029 A 
ATOM     56  C   UNL A   1      44.095  32.940  30.107  1.00  0.00     0.049 A 
ATOM     57  H   UNL A   1      42.998  31.263  29.448  1.00  0.00     0.167 HD
ATOM     58  C   UNL A   1      41.731  33.555  30.526  1.00  0.00     0.074 A 
ATOM     59  C   UNL A   1      40.698  34.457  30.992  1.00  0.00     0.031 C 
ATOM     60  C   UNL A   1      43.058  33.828  30.565  1.00  0.00     0.031 A 
BRANCH  47  61
ATOM     61  C   UNL A   1      46.624  29.317  28.322  1.00  0.00    -0.014 A 
ATOM     62  C   UNL A   1      47.118  29.358  27.009  1.00  0.00     0.009 A 
ATOM     63  C   UNL A   1      47.463  28.863  29.352  1.00  0.00     0.009 A 
ATOM     64  C   UNL A   1      48.421  28.936  26.732  1.00  0.00     0.001 A 
ATOM     65  C   UNL A   1      48.771  28.463  29.075  1.00  0.00     0.001 A 
ATOM     66  C   UNL A   1      49.247  28.494  27.765  1.00  0.00     0.000 A 
ENDBRANCH  47  61
BRANCH  48  67
ATOM     67  C   UNL A   1      37.248  32.196  30.120  1.00  0.00    -0.014 A 
ATOM     68  C   UNL A   1      36.608  31.887  31.329  1.00  0.00     0.009 A 
ATOM     69  C   UNL A   1      36.552  32.940  29.153  1.00  0.00     0.009 A 
ATOM     70  C   UNL A   1      35.294  32.304  31.562  1.00  0.00     0.001 A 
ATOM     71  C   UNL A   1      35.248  33.375  29.398  1.00  0.00     0.001 A 
ATOM     72  C   UNL A   1      34.619  33.053  30.599  1.00  0.00     0.000 A 
ENDBRANCH  48  67
BRANCH  60  73
ATOM     73  C   UNL A   1      43.474  35.172  31.091  1.00  0.00    -0.014 A 
ATOM     74  C   UNL A   1      43.660  36.266  30.233  1.00  0.00     0.009 A 
ATOM     75  C   UNL A   1      43.621  35.358  32.475  1.00  0.00     0.009 A 
ATOM     76  C   UNL A   1      44.011  37.515  30.750  1.00  0.00     0.001 A 
ATOM     77  C   UNL A   1      43.945  36.613  32.991  1.00  0.00     0.001 A 
ATOM     78  C   UNL A   1      44.146  37.689  32.128  1.00  0.00     0.000 A 
ENDBRANCH  60  73
ENDBRANCH  34  35
ENDBRANCH  27  29
ENDBRANCH  26  27
ENDBRANCH  25  26
ENDBRANCH   1  25
TORSDOF 15
ENDMDL
MODEL 2
REMARK VINA RESULT:      -9.1      5.069      8.125
REMARK SMILES Cc1cc2c(c(C)c1Cl)C=C(C(=O)OCCOCCOC(=O)c1ccc(-c3c4nc(c(-c5ccccc5)c5ccc([nH]5)c(-c5ccccc5)c5nc(c(-c6ccccc6)c6ccc3[nH]6)C=C5)C=C4)cc1)[C@@H](C(F)(F)F)O2
REMARK SMILES IDX 18 1 17 2 16 3 15 4 14 5 12 6 13 7 11 8 1 9 2 10 3 11 8 12
REMARK SMILES IDX 4 13 6 14 9 15 5 16 76 17 7 18 10 19 71 20 72 21 73 22 74 23
REMARK SMILES IDX 75 24 19 25 20 26 21 27 22 28 23 29 24 30 70 31 25 32 69 33
REMARK SMILES IDX 26 34 27 35 28 36 63 37 29 38 68 39 62 40 64 41 30 42 67 43
REMARK SMILES IDX 61 44 60 45 31 47 53 48 38 49 52 50 39 51 42 52 51 53 65 54
REMARK SMILES IDX 40 55 41 56 50 58 66 59 43 60 32 61 33 62 37 63 34 64 36 65
REMARK SMILES IDX 35 66 54 67 55 68 59 69 56 70 58 71 57 72 44 73 45 74 49 75
REMARK SMILES IDX 46 76 48 77 47 78
REMARK H PARENT 64 46 42 57
REMARK Flexibility Score: inf
ROOT
ATOM      1  C   UNL A   1      38.491  21.455  25.532  1.00  0.00     0.202 C 
ENDROOT
BRANCH   1   2
ATOM      2  O   UNL A   1      37.327  21.725  24.751  1.00  0.00    -0.374 OA
BRANCH   2   3
ATOM      3  C   UNL A   1      36.126  21.036  25.099  1.00  0.00     0.202 C 
BRANCH   3   4
ATOM      4  C   UNL A   1      34.824  21.690  24.627  1.00  0.00     0.261 C 
BRANCH   4   5
ATOM      5  O   UNL A   1      34.842  23.105  24.884  1.00  0.00    -0.460 OA
BRANCH   5   6
ATOM      6  C   UNL A   1      33.839  23.550  25.673  1.00  0.00     0.338 C 
ATOM      7  O   UNL A   1      33.572  23.171  26.803  1.00  0.00    -0.246 OA
BRANCH   6   8
ATOM      8  C   UNL A   1      33.157  24.683  25.021  1.00  0.00     0.087 C 
ATOM      9  C   UNL A   1      29.856  30.087  23.731  1.00  0.00     0.046 C 
ATOM     10  C   UNL A   1      30.876  29.087  24.211  1.00  0.00    -0.028 A 
ATOM     11  C   UNL A   1      30.915  27.847  23.554  1.00  0.00     0.052 A 
ATOM     12  C   UNL A   1      31.734  29.302  25.308  1.00  0.00     0.047 A 
ATOM     13  C   UNL A   1      31.748  26.824  23.999  1.00  0.00     0.128 A 
ATOM     14  C   UNL A   1      32.613  28.285  25.751  1.00  0.00    -0.021 A 
ATOM     15  Cl  UNL A   1      31.681  30.828  26.137  1.00  0.00    -0.084 Cl
ATOM     16  C   UNL A   1      32.572  27.020  25.111  1.00  0.00     0.022 A 
ATOM     17  O   UNL A   1      31.681  25.664  23.279  1.00  0.00    -0.475 OA
ATOM     18  C   UNL A   1      33.578  28.507  26.894  1.00  0.00     0.047 C 
ATOM     19  C   UNL A   1      33.315  25.870  25.618  1.00  0.00     0.027 C 
ATOM     20  C   UNL A   1      32.332  24.469  23.788  1.00  0.00     0.316 C 
BRANCH  20  21
ATOM     21  C   UNL A   1      31.266  23.378  23.966  1.00  0.00     0.430 C 
ATOM     22  F   UNL A   1      30.255  23.533  23.077  1.00  0.00    -0.167 F 
ATOM     23  F   UNL A   1      31.774  22.140  23.756  1.00  0.00    -0.167 F 
ATOM     24  F   UNL A   1      30.725  23.391  25.203  1.00  0.00    -0.167 F 
ENDBRANCH  20  21
ENDBRANCH   6   8
ENDBRANCH   5   6
ENDBRANCH   4   5
ENDBRANCH   3   4
ENDBRANCH   2   3
ENDBRANCH   1   2
BRANCH   1  25
ATOM     25  C   UNL A   1      39.115  20.064  25.368  1.00  0.00     0.261 C 
BRANCH  25  26
ATOM     26  O   UNL A   1      39.959  19.717  26.482  1.00  0.00    -0.460 OA
BRANCH  26  27
ATOM     27  C   UNL A   1      41.285  19.707  26.206  1.00  0.00     0.338 C 
ATOM     28  O   UNL A   1      41.905  18.860  25.578  1.00  0.00    -0.246 OA
BRANCH  27  29
ATOM     29  C   UNL A   1      41.900  20.977  26.627  1.00  0.00     0.060 A 
ATOM     30  C   UNL A   1      41.900  21.273  27.997  1.00  0.00     0.016 A 
ATOM     31  C   UNL A   1      42.391  21.899  25.700  1.00  0.00     0.016 A 
ATOM     32  C   UNL A   1      42.345  22.516  28.441  1.00  0.00     0.010 A 
ATOM     33  C   UNL A   1      42.826  23.151  26.147  1.00  0.00     0.010 A 
ATOM     34  C   UNL A   1      42.771  23.477  27.514  1.00  0.00    -0.014 A 
BRANCH  34  35
ATOM     35  C   UNL A   1      43.026  24.865  27.963  1.00  0.00     0.031 A 
ATOM     36  C   UNL A   1      44.444  25.310  28.191  1.00  0.00     0.074 A 
ATOM     37  C   UNL A   1      42.011  25.728  28.134  1.00  0.00     0.049 A 
ATOM     38  N   UNL A   1      44.890  26.465  28.616  1.00  0.00    -0.248 NA
ATOM     39  C   UNL A   1      45.498  24.327  27.893  1.00  0.00     0.031 C 
ATOM     40  C   UNL A   1      40.600  25.436  27.883  1.00  0.00     0.029 A 
ATOM     41  N   UNL A   1      42.016  27.033  28.557  1.00  0.00    -0.354 N 
ATOM     42  C   UNL A   1      46.273  26.349  28.635  1.00  0.00     0.074 A 
ATOM     43  C   UNL A   1      46.594  25.004  28.206  1.00  0.00     0.031 C 
ATOM     44  C   UNL A   1      39.874  26.534  28.157  1.00  0.00     0.029 A 
ATOM     45  C   UNL A   1      40.764  27.590  28.635  1.00  0.00     0.049 A 
ATOM     46  H   UNL A   1      42.839  27.524  28.783  1.00  0.00     0.167 HD
ATOM     47  C   UNL A   1      47.196  27.280  28.975  1.00  0.00     0.031 A 
ATOM     48  C   UNL A   1      40.379  28.809  29.059  1.00  0.00     0.031 A 
ATOM     49  C   UNL A   1      46.879  28.609  29.423  1.00  0.00     0.049 A 
ATOM     50  C   UNL A   1      41.416  29.794  29.524  1.00  0.00     0.074 A 
ATOM     51  C   UNL A   1      47.745  29.617  29.811  1.00  0.00     0.029 A 
ATOM     52  N   UNL A   1      45.594  29.114  29.545  1.00  0.00    -0.354 N 
ATOM     53  N   UNL A   1      42.720  29.666  29.556  1.00  0.00    -0.248 NA
ATOM     54  C   UNL A   1      40.927  31.093  30.008  1.00  0.00     0.031 C 
ATOM     55  C   UNL A   1      46.981  30.718  30.210  1.00  0.00     0.029 A 
ATOM     56  C   UNL A   1      45.643  30.414  30.016  1.00  0.00     0.049 A 
ATOM     57  H   UNL A   1      44.770  28.621  29.327  1.00  0.00     0.167 HD
ATOM     58  C   UNL A   1      43.208  30.876  30.033  1.00  0.00     0.074 A 
ATOM     59  C   UNL A   1      42.061  31.727  30.272  1.00  0.00     0.031 C 
ATOM     60  C   UNL A   1      44.494  31.249  30.248  1.00  0.00     0.031 A 
BRANCH  47  61
ATOM     61  C   UNL A   1      48.643  26.882  28.898  1.00  0.00    -0.014 A 
ATOM     62  C   UNL A   1      49.299  26.318  30.003  1.00  0.00     0.009 A 
ATOM     63  C   UNL A   1      49.343  27.028  27.690  1.00  0.00     0.009 A 
ATOM     64  C   UNL A   1      50.636  25.925  29.905  1.00  0.00     0.001 A 
ATOM     65  C   UNL A   1      50.672  26.613  27.589  1.00  0.00     0.001 A 
ATOM     66  C   UNL A   1      51.319  26.068  28.697  1.00  0.00     0.000 A 
ENDBRANCH  47  61
BRANCH  48  67
ATOM     67  C   UNL A   1      38.937  29.165  29.067  1.00  0.00    -0.014 A 
ATOM     68  C   UNL A   1      38.162  28.973  30.220  1.00  0.00     0.009 A 
ATOM     69  C   UNL A   1      38.329  29.705  27.922  1.00  0.00     0.009 A 
ATOM     70  C   UNL A   1      36.804  29.305  30.224  1.00  0.00     0.001 A 
ATOM     71  C   UNL A   1      36.979  30.058  27.937  1.00  0.00     0.001 A 
ATOM     72  C   UNL A   1      36.216  29.853  29.085  1.00  0.00     0.000 A 
ENDBRANCH  48  67
BRANCH  60  73
ATOM     73  C   UNL A   1      44.738  32.651  30.729  1.00  0.00    -0.014 A 
ATOM     74  C   UNL A   1      44.826  32.948  32.098  1.00  0.00     0.009 A 
ATOM     75  C   UNL A   1      44.946  33.678  29.794  1.00  0.00     0.009 A 
ATOM     76  C   UNL A   1      45.091  34.252  32.520  1.00  0.00     0.001 A 
ATOM     77  C   UNL A   1      45.236  34.975  30.219  1.00  0.00     0.001 A 
ATOM     78  C   UNL A   1      45.303  35.262  31.581  1.00  0.00     0.000 A 
ENDBRANCH  60  73
ENDBRANCH  34  35
ENDBRANCH  27  29
ENDBRANCH  26  27
ENDBRANCH  25  26
ENDBRANCH   1  25
TORSDOF 15
ENDMDL
MODEL 3
REMARK VINA RESULT:      -9.0      5.209      8.021
REMARK SMILES Cc1cc2c(c(C)c1Cl)C=C(C(=O)OCCOCCOC(=O)c1ccc(-c3c4nc(c(-c5ccccc5)c5ccc([nH]5)c(-c5ccccc5)c5nc(c(-c6ccccc6)c6ccc3[nH]6)C=C5)C=C4)cc1)[C@@H](C(F)(F)F)O2
REMARK SMILES IDX 18 1 17 2 16 3 15 4 14 5 12 6 13 7 11 8 1 9 2 10 3 11 8 12
REMARK SMILES IDX 4 13 6 14 9 15 5 16 76 17 7 18 10 19 71 20 72 21 73 22 74 23
REMARK SMILES IDX 75 24 19 25 20 26 21 27 22 28 23 29 24 30 70 31 25 32 69 33
REMARK SMILES IDX 26 34 27 35 28 36 63 37 29 38 68 39 62 40 64 41 30 42 67 43
REMARK SMILES IDX 61 44 60 45 31 47 53 48 38 49 52 50 39 51 42 52 51 53 65 54
REMARK SMILES IDX 40 55 41 56 50 58 66 59 43 60 32 61 33 62 37 63 34 64 36 65
REMARK SMILES IDX 35 66 54 67 55 68 59 69 56 70 58 71 57 72 44 73 45 74 49 75
REMARK SMILES IDX 46 76 48 77 47 78
REMARK H PARENT 64 46 42 57
REMARK Flexibility Score: inf
ROOT
ATOM      1  C   UNL A   1      39.852  21.217  26.288  1.00  0.00     0.202 C 
ENDROOT
BRANCH   1   2
ATOM      2  O   UNL A   1      39.036  22.084  25.501  1.00  0.00    -0.374 OA
BRANCH   2   3
ATOM      3  C   UNL A   1      37.637  22.110  25.785  1.00  0.00     0.202 C 
BRANCH   3   4
ATOM      4  C   UNL A   1      36.946  23.464  25.599  1.00  0.00     0.261 C 
BRANCH   4   5
ATOM      5  O   UNL A   1      35.639  23.294  25.027  1.00  0.00    -0.460 OA
BRANCH   5   6
ATOM      6  C   UNL A   1      34.617  23.675  25.826  1.00  0.00     0.338 C 
ATOM      7  O   UNL A   1      34.400  23.300  26.968  1.00  0.00    -0.246 OA
BRANCH   6   8
ATOM      8  C   UNL A   1      33.838  24.739  25.166  1.00  0.00     0.087 C 
ATOM      9  C   UNL A   1      30.063  29.813  23.836  1.00  0.00     0.046 C 
ATOM     10  C   UNL A   1      31.168  28.913  24.325  1.00  0.00    -0.028 A 
ATOM     11  C   UNL A   1      31.324  27.679  23.674  1.00  0.00     0.052 A 
ATOM     12  C   UNL A   1      31.997  29.210  25.425  1.00  0.00     0.047 A 
ATOM     13  C   UNL A   1      32.244  26.738  24.128  1.00  0.00     0.128 A 
ATOM     14  C   UNL A   1      32.963  28.278  25.877  1.00  0.00    -0.021 A 
ATOM     15  Cl  UNL A   1      31.800  30.728  26.247  1.00  0.00    -0.084 Cl
ATOM     16  C   UNL A   1      33.041  27.013  25.242  1.00  0.00     0.022 A 
ATOM     17  O   UNL A   1      32.287  25.574  23.412  1.00  0.00    -0.475 OA
ATOM     18  C   UNL A   1      33.898  28.593  27.024  1.00  0.00     0.047 C 
ATOM     19  C   UNL A   1      33.883  25.938  25.759  1.00  0.00     0.027 C 
ATOM     20  C   UNL A   1      33.042  24.446  23.930  1.00  0.00     0.316 C 
BRANCH  20  21
ATOM     21  C   UNL A   1      32.080  23.262  24.108  1.00  0.00     0.430 C 
ATOM     22  F   UNL A   1      31.553  23.245  25.357  1.00  0.00    -0.167 F 
ATOM     23  F   UNL A   1      31.033  23.331  23.251  1.00  0.00    -0.167 F 
ATOM     24  F   UNL A   1      32.691  22.074  23.908  1.00  0.00    -0.167 F 
ENDBRANCH  20  21
ENDBRANCH   6   8
ENDBRANCH   5   6
ENDBRANCH   4   5
ENDBRANCH   3   4
ENDBRANCH   2   3
ENDBRANCH   1   2
BRANCH   1  25
ATOM     25  C   UNL A   1      41.359  21.257  26.008  1.00  0.00     0.261 C 
BRANCH  25  26
ATOM     26  O   UNL A   1      42.031  22.249  26.805  1.00  0.00    -0.460 OA
BRANCH  26  27
ATOM     27  C   UNL A   1      42.391  23.368  26.133  1.00  0.00     0.338 C 
ATOM     28  O   UNL A   1      42.903  23.435  25.024  1.00  0.00    -0.246 OA
BRANCH  27  29
ATOM     29  C   UNL A   1      41.922  24.565  26.852  1.00  0.00     0.060 A 
ATOM     30  C   UNL A   1      42.678  25.737  26.721  1.00  0.00     0.016 A 
ATOM     31  C   UNL A   1      40.816  24.524  27.705  1.00  0.00     0.016 A 
ATOM     32  C   UNL A   1      42.362  26.860  27.481  1.00  0.00     0.010 A 
ATOM     33  C   UNL A   1      40.507  25.649  28.477  1.00  0.00     0.010 A 
ATOM     34  C   UNL A   1      41.300  26.808  28.394  1.00  0.00    -0.014 A 
BRANCH  34  35
ATOM     35  C   UNL A   1      41.108  27.915  29.359  1.00  0.00     0.031 A 
ATOM     36  C   UNL A   1      42.075  28.063  30.501  1.00  0.00     0.074 A 
ATOM     37  C   UNL A   1      40.107  28.797  29.203  1.00  0.00     0.049 A 
ATOM     38  N   UNL A   1      42.075  28.936  31.476  1.00  0.00    -0.248 NA
ATOM     39  C   UNL A   1      43.194  27.108  30.544  1.00  0.00     0.031 C 
ATOM     40  C   UNL A   1      39.144  28.798  28.102  1.00  0.00     0.029 A 
ATOM     41  N   UNL A   1      39.738  29.868  29.976  1.00  0.00    -0.354 N 
ATOM     42  C   UNL A   1      43.190  28.636  32.248  1.00  0.00     0.074 A 
ATOM     43  C   UNL A   1      43.830  27.487  31.645  1.00  0.00     0.031 C 
ATOM     44  C   UNL A   1      38.293  29.824  28.271  1.00  0.00     0.029 A 
ATOM     45  C   UNL A   1      38.629  30.527  29.507  1.00  0.00     0.049 A 
ATOM     46  H   UNL A   1      40.222  30.139  30.789  1.00  0.00     0.167 HD
ATOM     47  C   UNL A   1      43.645  29.265  33.357  1.00  0.00     0.031 A 
ATOM     48  C   UNL A   1      37.952  31.570  30.026  1.00  0.00     0.031 A 
ATOM     49  C   UNL A   1      43.000  30.393  33.971  1.00  0.00     0.049 A 
ATOM     50  C   UNL A   1      38.422  32.192  31.312  1.00  0.00     0.074 A 
ATOM     51  C   UNL A   1      43.374  31.086  35.110  1.00  0.00     0.029 A 
ATOM     52  N   UNL A   1      41.844  30.994  33.498  1.00  0.00    -0.354 N 
ATOM     53  N   UNL A   1      39.467  31.888  32.043  1.00  0.00    -0.248 NA
ATOM     54  C   UNL A   1      37.620  33.304  31.843  1.00  0.00     0.031 C 
ATOM     55  C   UNL A   1      42.419  32.078  35.351  1.00  0.00     0.029 A 
ATOM     56  C   UNL A   1      41.483  32.039  34.330  1.00  0.00     0.049 A 
ATOM     57  H   UNL A   1      41.355  30.719  32.689  1.00  0.00     0.167 HD
ATOM     58  C   UNL A   1      39.465  32.789  33.101  1.00  0.00     0.074 A 
ATOM     59  C   UNL A   1      38.319  33.653  32.915  1.00  0.00     0.031 C 
ATOM     60  C   UNL A   1      40.340  32.891  34.131  1.00  0.00     0.031 A 
BRANCH  47  61
ATOM     61  C   UNL A   1      44.895  28.728  33.995  1.00  0.00    -0.014 A 
ATOM     62  C   UNL A   1      44.836  27.716  34.966  1.00  0.00     0.009 A 
ATOM     63  C   UNL A   1      46.149  29.206  33.583  1.00  0.00     0.009 A 
ATOM     64  C   UNL A   1      46.010  27.206  35.526  1.00  0.00     0.001 A 
ATOM     65  C   UNL A   1      47.320  28.678  34.129  1.00  0.00     0.001 A 
ATOM     66  C   UNL A   1      47.250  27.683  35.103  1.00  0.00     0.000 A 
ENDBRANCH  47  61
BRANCH  48  67
ATOM     67  C   UNL A   1      36.751  32.091  29.325  1.00  0.00    -0.014 A 
ATOM     68  C   UNL A   1      35.522  31.424  29.426  1.00  0.00     0.009 A 
ATOM     69  C   UNL A   1      36.827  33.265  28.557  1.00  0.00     0.009 A 
ATOM     70  C   UNL A   1      34.394  31.914  28.762  1.00  0.00     0.001 A 
ATOM     71  C   UNL A   1      35.692  33.764  27.915  1.00  0.00     0.001 A 
ATOM     72  C   UNL A   1      34.479  33.087  28.013  1.00  0.00     0.000 A 
ENDBRANCH  48  67
BRANCH  60  73
ATOM     73  C   UNL A   1      40.120  34.001  35.119  1.00  0.00    -0.014 A 
ATOM     74  C   UNL A   1      39.415  33.787  36.313  1.00  0.00     0.009 A 
ATOM     75  C   UNL A   1      40.683  35.266  34.877  1.00  0.00     0.009 A 
ATOM     76  C   UNL A   1      39.256  34.826  37.234  1.00  0.00     0.001 A 
ATOM     77  C   UNL A   1      40.544  36.293  35.811  1.00  0.00     0.001 A 
ATOM     78  C   UNL A   1      39.826  36.074  36.985  1.00  0.00     0.000 A 
ENDBRANCH  60  73
ENDBRANCH  34  35
ENDBRANCH  27  29
ENDBRANCH  26  27
ENDBRANCH  25  26
ENDBRANCH   1  25
TORSDOF 15
ENDMDL
