MODEL 1
REMARK VINA RESULT:     -10.1      0.000      0.000
REMARK SMILES CC(C)(C)C(=O)Nc1ccc(C(=O)OCCOCCOC(=O)c2ccc(-c3c4nc(c(-c5ccccc5)c5ccc([nH]5)c(-c5ccccc5)c5nc(c(-c6ccccc6)c6ccc3[nH]6)C=C5)C=C4)cc2)cc1Br
REMARK SMILES IDX 17 1 16 2 15 3 14 4 12 5 13 6 11 7 8 8 9 9 72 10 10 11 71 12
REMARK SMILES IDX 73 13 7 14 5 15 6 16 2 18 1 19 3 20 4 21 18 22 19 23 20 24
REMARK SMILES IDX 21 25 22 26 23 27 24 28 70 29 25 30 69 31 26 32 27 33 28 34
REMARK SMILES IDX 63 35 29 36 68 37 62 38 64 39 30 40 67 41 61 42 60 43 31 45
REMARK SMILES IDX 53 46 38 47 52 48 39 49 42 50 51 51 65 52 40 53 41 54 50 56
REMARK SMILES IDX 66 57 43 58 32 59 33 60 37 61 34 62 36 63 35 64 54 65 55 66
REMARK SMILES IDX 59 67 56 68 58 69 57 70 44 71 45 72 49 73 46 74 48 75 47 76
REMARK H PARENT 7 17 64 44 42 55
REMARK Flexibility Score: inf
ROOT
ATOM      1  O   UNL A   1      37.037  22.365  25.020  1.00  0.00    -0.374 OA
ENDROOT
BRANCH   1   2
ATOM      2  C   UNL A   1      35.761  22.318  24.383  1.00  0.00     0.202 C 
BRANCH   2   3
ATOM      3  C   UNL A   1      35.054  23.657  24.158  1.00  0.00     0.261 C 
BRANCH   3   4
ATOM      4  O   UNL A   1      34.792  23.852  22.761  1.00  0.00    -0.460 OA
BRANCH   4   5
ATOM      5  C   UNL A   1      33.498  23.713  22.397  1.00  0.00     0.338 C 
ATOM      6  O   UNL A   1      32.943  22.679  22.048  1.00  0.00    -0.246 OA
BRANCH   5   7
ATOM      7  C   UNL A   1      32.769  24.991  22.574  1.00  0.00     0.061 A 
ATOM      8  C   UNL A   1      31.670  27.466  23.176  1.00  0.00     0.055 A 
ATOM      9  C   UNL A   1      32.868  27.406  22.464  1.00  0.00     0.028 A 
ATOM     10  C   UNL A   1      30.908  26.306  23.361  1.00  0.00     0.042 A 
ATOM     11  C   UNL A   1      33.424  26.164  22.175  1.00  0.00     0.018 A 
ATOM     12  C   UNL A   1      31.470  25.059  23.095  1.00  0.00     0.033 A 
ATOM     13  Br  UNL A   1      29.087  26.382  23.901  1.00  0.00    -0.049 Br
BRANCH   8  14
ATOM     14  N   UNL A   1      31.333  28.687  23.759  1.00  0.00    -0.325 N 
ATOM     15  C   UNL A   1      31.629  29.114  25.030  1.00  0.00     0.229 C 
ATOM     16  O   UNL A   1      31.376  30.304  25.257  1.00  0.00    -0.274 OA
ATOM     17  H   UNL A   1      30.825  29.314  23.195  1.00  0.00     0.169 HD
BRANCH  15  18
ATOM     18  C   UNL A   1      32.293  28.218  26.127  1.00  0.00     0.041 C 
ATOM     19  C   UNL A   1      32.639  29.134  27.328  1.00  0.00     0.021 C 
ATOM     20  C   UNL A   1      33.618  27.594  25.664  1.00  0.00     0.021 C 
ATOM     21  C   UNL A   1      31.361  27.130  26.672  1.00  0.00     0.021 C 
ENDBRANCH  15  18
ENDBRANCH   8  14
ENDBRANCH   5   7
ENDBRANCH   4   5
ENDBRANCH   3   4
ENDBRANCH   2   3
ENDBRANCH   1   2
BRANCH   1  22
ATOM     22  C   UNL A   1      37.851  21.192  24.984  1.00  0.00     0.202 C 
BRANCH  22  23
ATOM     23  C   UNL A   1      39.144  21.200  25.808  1.00  0.00     0.261 C 
BRANCH  23  24
ATOM     24  O   UNL A   1      39.648  19.880  26.070  1.00  0.00    -0.460 OA
BRANCH  24  25
ATOM     25  C   UNL A   1      40.998  19.782  26.042  1.00  0.00     0.338 C 
ATOM     26  O   UNL A   1      41.667  18.887  25.546  1.00  0.00    -0.246 OA
BRANCH  25  27
ATOM     27  C   UNL A   1      41.606  21.021  26.557  1.00  0.00     0.060 A 
ATOM     28  C   UNL A   1      41.456  21.294  27.923  1.00  0.00     0.016 A 
ATOM     29  C   UNL A   1      42.233  21.938  25.712  1.00  0.00     0.016 A 
ATOM     30  C   UNL A   1      41.892  22.510  28.443  1.00  0.00     0.010 A 
ATOM     31  C   UNL A   1      42.662  23.162  26.235  1.00  0.00     0.010 A 
ATOM     32  C   UNL A   1      42.462  23.468  27.594  1.00  0.00    -0.014 A 
BRANCH  32  33
ATOM     33  C   UNL A   1      42.725  24.832  28.107  1.00  0.00     0.031 A 
ATOM     34  C   UNL A   1      44.124  25.203  28.519  1.00  0.00     0.074 A 
ATOM     35  C   UNL A   1      41.735  25.739  28.184  1.00  0.00     0.049 A 
ATOM     36  N   UNL A   1      44.569  26.329  29.019  1.00  0.00    -0.248 NA
ATOM     37  C   UNL A   1      45.158  24.171  28.348  1.00  0.00     0.031 C 
ATOM     38  C   UNL A   1      40.348  25.513  27.783  1.00  0.00     0.029 A 
ATOM     39  N   UNL A   1      41.750  27.035  28.638  1.00  0.00    -0.354 N 
ATOM     40  C   UNL A   1      45.927  26.134  29.235  1.00  0.00     0.074 A 
ATOM     41  C   UNL A   1      46.231  24.778  28.833  1.00  0.00     0.031 C 
ATOM     42  C   UNL A   1      39.639  26.630  28.021  1.00  0.00     0.029 A 
ATOM     43  C   UNL A   1      40.515  27.635  28.618  1.00  0.00     0.049 A 
ATOM     44  H   UNL A   1      42.567  27.489  28.947  1.00  0.00     0.167 HD
ATOM     45  C   UNL A   1      46.840  27.007  29.723  1.00  0.00     0.031 A 
ATOM     46  C   UNL A   1      40.132  28.850  29.058  1.00  0.00     0.031 A 
ATOM     47  C   UNL A   1      46.538  28.355  30.124  1.00  0.00     0.049 A 
ATOM     48  C   UNL A   1      41.155  29.780  29.650  1.00  0.00     0.074 A 
ATOM     49  C   UNL A   1      47.404  29.327  30.596  1.00  0.00     0.029 A 
ATOM     50  N   UNL A   1      45.273  28.919  30.110  1.00  0.00    -0.354 N 
ATOM     51  N   UNL A   1      42.445  29.600  29.807  1.00  0.00    -0.248 NA
ATOM     52  C   UNL A   1      40.672  31.087  30.116  1.00  0.00     0.031 C 
ATOM     53  C   UNL A   1      46.653  30.459  30.925  1.00  0.00     0.029 A 
ATOM     54  C   UNL A   1      45.328  30.214  30.598  1.00  0.00     0.049 A 
ATOM     55  H   UNL A   1      44.455  28.466  29.800  1.00  0.00     0.167 HD
ATOM     56  C   UNL A   1      42.929  30.778  30.364  1.00  0.00     0.074 A 
ATOM     57  C   UNL A   1      41.797  31.672  30.501  1.00  0.00     0.031 C 
ATOM     58  C   UNL A   1      44.195  31.092  30.729  1.00  0.00     0.031 A 
BRANCH  45  59
ATOM     59  C   UNL A   1      48.253  26.521  29.886  1.00  0.00    -0.014 A 
ATOM     60  C   UNL A   1      49.222  26.741  28.896  1.00  0.00     0.009 A 
ATOM     61  C   UNL A   1      48.629  25.877  31.075  1.00  0.00     0.009 A 
ATOM     62  C   UNL A   1      50.535  26.303  29.084  1.00  0.00     0.001 A 
ATOM     63  C   UNL A   1      49.947  25.463  31.272  1.00  0.00     0.001 A 
ATOM     64  C   UNL A   1      50.897  25.670  30.273  1.00  0.00     0.000 A 
ENDBRANCH  45  59
BRANCH  46  65
ATOM     65  C   UNL A   1      38.701  29.250  28.986  1.00  0.00    -0.014 A 
ATOM     66  C   UNL A   1      37.858  29.116  30.099  1.00  0.00     0.009 A 
ATOM     67  C   UNL A   1      38.166  29.743  27.785  1.00  0.00     0.009 A 
ATOM     68  C   UNL A   1      36.502  29.439  30.002  1.00  0.00     0.001 A 
ATOM     69  C   UNL A   1      36.818  30.094  27.700  1.00  0.00     0.001 A 
ATOM     70  C   UNL A   1      35.984  29.931  28.804  1.00  0.00     0.000 A 
ENDBRANCH  46  65
BRANCH  58  71
ATOM     71  C   UNL A   1      44.435  32.472  31.276  1.00  0.00    -0.014 A 
ATOM     72  C   UNL A   1      44.374  32.732  32.654  1.00  0.00     0.009 A 
ATOM     73  C   UNL A   1      44.770  33.517  30.400  1.00  0.00     0.009 A 
ATOM     74  C   UNL A   1      44.612  34.020  33.140  1.00  0.00     0.001 A 
ATOM     75  C   UNL A   1      45.037  34.795  30.891  1.00  0.00     0.001 A 
ATOM     76  C   UNL A   1      44.947  35.048  32.259  1.00  0.00     0.000 A 
ENDBRANCH  58  71
ENDBRANCH  32  33
ENDBRANCH  25  27
ENDBRANCH  24  25
ENDBRANCH  23  24
ENDBRANCH  22  23
ENDBRANCH   1  22
TORSDOF 16
ENDMDL
MODEL 2
REMARK VINA RESULT:      -9.9      4.993     10.144
REMARK SMILES CC(C)(C)C(=O)Nc1ccc(C(=O)OCCOCCOC(=O)c2ccc(-c3c4nc(c(-c5ccccc5)c5ccc([nH]5)c(-c5ccccc5)c5nc(c(-c6ccccc6)c6ccc3[nH]6)C=C5)C=C4)cc2)cc1Br
REMARK SMILES IDX 17 1 16 2 15 3 14 4 12 5 13 6 11 7 8 8 9 9 72 10 10 11 71 12
REMARK SMILES IDX 73 13 7 14 5 15 6 16 2 18 1 19 3 20 4 21 18 22 19 23 20 24
REMARK SMILES IDX 21 25 22 26 23 27 24 28 70 29 25 30 69 31 26 32 27 33 28 34
REMARK SMILES IDX 63 35 29 36 68 37 62 38 64 39 30 40 67 41 61 42 60 43 31 45
REMARK SMILES IDX 53 46 38 47 52 48 39 49 42 50 51 51 65 52 40 53 41 54 50 56
REMARK SMILES IDX 66 57 43 58 32 59 33 60 37 61 34 62 36 63 35 64 54 65 55 66
REMARK SMILES IDX 59 67 56 68 58 69 57 70 44 71 45 72 49 73 46 74 48 75 47 76
REMARK H PARENT 7 17 64 44 42 55
REMARK Flexibility Score: inf
ROOT
ATOM      1  O   UNL A   1      34.806  34.591  29.253  1.00  0.00    -0.374 OA
ENDROOT
BRANCH   1   2
ATOM      2  C   UNL A   1      34.965  33.699  28.150  1.00  0.00     0.202 C 
BRANCH   2   3
ATOM      3  C   UNL A   1      34.243  32.352  28.243  1.00  0.00     0.261 C 
BRANCH   3   4
ATOM      4  O   UNL A   1      35.000  31.439  29.048  1.00  0.00    -0.460 OA
BRANCH   4   5
ATOM      5  C   UNL A   1      35.730  30.535  28.357  1.00  0.00     0.338 C 
ATOM      6  O   UNL A   1      35.491  30.106  27.236  1.00  0.00    -0.246 OA
BRANCH   5   7
ATOM      7  C   UNL A   1      36.961  30.184  29.102  1.00  0.00     0.061 A 
ATOM      8  C   UNL A   1      39.401  29.391  30.158  1.00  0.00     0.055 A 
ATOM      9  C   UNL A   1      39.349  30.511  29.328  1.00  0.00     0.028 A 
ATOM     10  C   UNL A   1      38.218  28.831  30.653  1.00  0.00     0.042 A 
ATOM     11  C   UNL A   1      38.126  30.899  28.789  1.00  0.00     0.018 A 
ATOM     12  C   UNL A   1      36.993  29.200  30.099  1.00  0.00     0.033 A 
ATOM     13  Br  UNL A   1      38.220  27.625  32.122  1.00  0.00    -0.049 Br
BRANCH   8  14
ATOM     14  N   UNL A   1      40.653  28.819  30.382  1.00  0.00    -0.325 N 
ATOM     15  C   UNL A   1      41.310  27.914  29.585  1.00  0.00     0.229 C 
ATOM     16  O   UNL A   1      42.484  27.687  29.904  1.00  0.00    -0.274 OA
ATOM     17  H   UNL A   1      41.119  29.096  31.203  1.00  0.00     0.169 HD
BRANCH  15  18
ATOM     18  C   UNL A   1      40.684  27.237  28.321  1.00  0.00     0.041 C 
ATOM     19  C   UNL A   1      41.670  26.141  27.844  1.00  0.00     0.021 C 
ATOM     20  C   UNL A   1      40.518  28.211  27.145  1.00  0.00     0.021 C 
ATOM     21  C   UNL A   1      39.357  26.524  28.606  1.00  0.00     0.021 C 
ENDBRANCH  15  18
ENDBRANCH   8  14
ENDBRANCH   5   7
ENDBRANCH   4   5
ENDBRANCH   3   4
ENDBRANCH   2   3
ENDBRANCH   1   2
BRANCH   1  22
ATOM     22  C   UNL A   1      33.523  35.177  29.466  1.00  0.00     0.202 C 
BRANCH  22  23
ATOM     23  C   UNL A   1      33.104  35.463  30.913  1.00  0.00     0.261 C 
BRANCH  23  24
ATOM     24  O   UNL A   1      33.567  34.464  31.837  1.00  0.00    -0.460 OA
BRANCH  24  25
ATOM     25  C   UNL A   1      34.392  34.936  32.802  1.00  0.00     0.338 C 
ATOM     26  O   UNL A   1      34.133  35.774  33.654  1.00  0.00    -0.246 OA
BRANCH  25  27
ATOM     27  C   UNL A   1      35.648  34.167  32.817  1.00  0.00     0.060 A 
ATOM     28  C   UNL A   1      36.711  34.681  33.571  1.00  0.00     0.016 A 
ATOM     29  C   UNL A   1      35.815  33.017  32.044  1.00  0.00     0.016 A 
ATOM     30  C   UNL A   1      37.961  34.073  33.519  1.00  0.00     0.010 A 
ATOM     31  C   UNL A   1      37.075  32.412  31.986  1.00  0.00     0.010 A 
ATOM     32  C   UNL A   1      38.161  32.957  32.695  1.00  0.00    -0.014 A 
BRANCH  32  33
ATOM     33  C   UNL A   1      39.535  32.447  32.478  1.00  0.00     0.031 A 
ATOM     34  C   UNL A   1      40.421  33.131  31.472  1.00  0.00     0.074 A 
ATOM     35  C   UNL A   1      39.997  31.399  33.184  1.00  0.00     0.049 A 
ATOM     36  N   UNL A   1      41.642  32.833  31.107  1.00  0.00    -0.248 NA
ATOM     37  C   UNL A   1      39.857  34.304  30.787  1.00  0.00     0.031 C 
ATOM     38  C   UNL A   1      39.250  30.675  34.210  1.00  0.00     0.029 A 
ATOM     39  N   UNL A   1      41.211  30.760  33.133  1.00  0.00    -0.354 N 
ATOM     40  C   UNL A   1      41.985  33.769  30.140  1.00  0.00     0.074 A 
ATOM     41  C   UNL A   1      40.838  34.633  29.960  1.00  0.00     0.031 C 
ATOM     42  C   UNL A   1      40.018  29.679  34.685  1.00  0.00     0.029 A 
ATOM     43  C   UNL A   1      41.295  29.678  33.975  1.00  0.00     0.049 A 
ATOM     44  H   UNL A   1      41.949  31.049  32.550  1.00  0.00     0.167 HD
ATOM     45  C   UNL A   1      43.151  33.901  29.465  1.00  0.00     0.031 A 
ATOM     46  C   UNL A   1      42.281  28.774  34.134  1.00  0.00     0.031 A 
ATOM     47  C   UNL A   1      44.292  33.042  29.643  1.00  0.00     0.049 A 
ATOM     48  C   UNL A   1      43.545  28.908  33.329  1.00  0.00     0.074 A 
ATOM     49  C   UNL A   1      45.531  33.119  29.031  1.00  0.00     0.029 A 
ATOM     50  N   UNL A   1      44.330  31.945  30.488  1.00  0.00    -0.354 N 
ATOM     51  N   UNL A   1      43.873  29.825  32.450  1.00  0.00    -0.248 NA
ATOM     52  C   UNL A   1      44.580  27.886  33.544  1.00  0.00     0.031 C 
ATOM     53  C   UNL A   1      46.299  32.032  29.460  1.00  0.00     0.029 A 
ATOM     54  C   UNL A   1      45.559  31.315  30.387  1.00  0.00     0.049 A 
ATOM     55  H   UNL A   1      43.592  31.656  31.073  1.00  0.00     0.167 HD
ATOM     56  C   UNL A   1      45.160  29.506  32.031  1.00  0.00     0.074 A 
ATOM     57  C   UNL A   1      45.558  28.322  32.763  1.00  0.00     0.031 C 
ATOM     58  C   UNL A   1      45.942  30.138  31.122  1.00  0.00     0.031 A 
BRANCH  45  59
ATOM     59  C   UNL A   1      43.244  34.995  28.439  1.00  0.00    -0.014 A 
ATOM     60  C   UNL A   1      42.950  34.759  27.088  1.00  0.00     0.009 A 
ATOM     61  C   UNL A   1      43.582  36.296  28.845  1.00  0.00     0.009 A 
ATOM     62  C   UNL A   1      43.017  35.800  26.159  1.00  0.00     0.001 A 
ATOM     63  C   UNL A   1      43.624  37.340  27.920  1.00  0.00     0.001 A 
ATOM     64  C   UNL A   1      43.348  37.089  26.576  1.00  0.00     0.000 A 
ENDBRANCH  45  59
BRANCH  46  65
ATOM     65  C   UNL A   1      42.104  27.637  35.076  1.00  0.00    -0.014 A 
ATOM     66  C   UNL A   1      41.488  26.447  34.661  1.00  0.00     0.009 A 
ATOM     67  C   UNL A   1      42.528  27.752  36.409  1.00  0.00     0.009 A 
ATOM     68  C   UNL A   1      41.273  25.408  35.570  1.00  0.00     0.001 A 
ATOM     69  C   UNL A   1      42.339  26.701  37.308  1.00  0.00     0.001 A 
ATOM     70  C   UNL A   1      41.701  25.535  36.891  1.00  0.00     0.000 A 
ENDBRANCH  46  65
BRANCH  58  71
ATOM     71  C   UNL A   1      47.321  29.584  30.894  1.00  0.00    -0.014 A 
ATOM     72  C   UNL A   1      48.413  30.000  31.671  1.00  0.00     0.009 A 
ATOM     73  C   UNL A   1      47.520  28.599  29.914  1.00  0.00     0.009 A 
ATOM     74  C   UNL A   1      49.683  29.463  31.448  1.00  0.00     0.001 A 
ATOM     75  C   UNL A   1      48.783  28.042  29.713  1.00  0.00     0.001 A 
ATOM     76  C   UNL A   1      49.865  28.482  30.474  1.00  0.00     0.000 A 
ENDBRANCH  58  71
ENDBRANCH  32  33
ENDBRANCH  25  27
ENDBRANCH  24  25
ENDBRANCH  23  24
ENDBRANCH  22  23
ENDBRANCH   1  22
TORSDOF 16
ENDMDL
MODEL 3
REMARK VINA RESULT:      -9.9      0.714      6.015
REMARK SMILES CC(C)(C)C(=O)Nc1ccc(C(=O)OCCOCCOC(=O)c2ccc(-c3c4nc(c(-c5ccccc5)c5ccc([nH]5)c(-c5ccccc5)c5nc(c(-c6ccccc6)c6ccc3[nH]6)C=C5)C=C4)cc2)cc1Br
REMARK SMILES IDX 17 1 16 2 15 3 14 4 12 5 13 6 11 7 8 8 9 9 72 10 10 11 71 12
REMARK SMILES IDX 73 13 7 14 5 15 6 16 2 18 1 19 3 20 4 21 18 22 19 23 20 24
REMARK SMILES IDX 21 25 22 26 23 27 24 28 70 29 25 30 69 31 26 32 27 33 28 34
REMARK SMILES IDX 63 35 29 36 68 37 62 38 64 39 30 40 67 41 61 42 60 43 31 45
REMARK SMILES IDX 53 46 38 47 52 48 39 49 42 50 51 51 65 52 40 53 41 54 50 56
REMARK SMILES IDX 66 57 43 58 32 59 33 60 37 61 34 62 36 63 35 64 54 65 55 66
REMARK SMILES IDX 59 67 56 68 58 69 57 70 44 71 45 72 49 73 46 74 48 75 47 76
REMARK H PARENT 7 17 64 44 42 55
REMARK Flexibility Score: inf
ROOT
ATOM      1  O   UNL A   1      36.560  21.633  25.365  1.00  0.00    -0.374 OA
ENDROOT
BRANCH   1   2
ATOM      2  C   UNL A   1      35.280  21.092  25.039  1.00  0.00     0.202 C 
BRANCH   2   3
ATOM      3  C   UNL A   1      34.102  22.068  25.030  1.00  0.00     0.261 C 
BRANCH   3   4
ATOM      4  O   UNL A   1      34.554  23.389  24.703  1.00  0.00    -0.460 OA
BRANCH   4   5
ATOM      5  C   UNL A   1      34.301  23.784  23.436  1.00  0.00     0.338 C 
ATOM      6  O   UNL A   1      34.696  23.246  22.410  1.00  0.00    -0.246 OA
BRANCH   5   7
ATOM      7  C   UNL A   1      33.364  24.931  23.426  1.00  0.00     0.061 A 
ATOM      8  C   UNL A   1      31.874  27.263  23.627  1.00  0.00     0.055 A 
ATOM      9  C   UNL A   1      33.011  27.247  22.820  1.00  0.00     0.028 A 
ATOM     10  C   UNL A   1      31.352  26.062  24.123  1.00  0.00     0.042 A 
ATOM     11  C   UNL A   1      33.764  26.081  22.731  1.00  0.00     0.018 A 
ATOM     12  C   UNL A   1      32.113  24.897  24.057  1.00  0.00     0.033 A 
ATOM     13  Br  UNL A   1      29.588  25.953  24.825  1.00  0.00    -0.049 Br
BRANCH   8  14
ATOM     14  N   UNL A   1      31.359  28.509  23.983  1.00  0.00    -0.325 N 
ATOM     15  C   UNL A   1      31.672  29.254  25.093  1.00  0.00     0.229 C 
ATOM     16  O   UNL A   1      31.216  30.405  25.100  1.00  0.00    -0.274 OA
ATOM     17  H   UNL A   1      30.696  28.899  23.370  1.00  0.00     0.169 HD
BRANCH  15  18
ATOM     18  C   UNL A   1      32.584  28.753  26.261  1.00  0.00     0.041 C 
ATOM     19  C   UNL A   1      32.734  29.921  27.268  1.00  0.00     0.021 C 
ATOM     20  C   UNL A   1      34.005  28.398  25.797  1.00  0.00     0.021 C 
ATOM     21  C   UNL A   1      31.980  27.584  27.047  1.00  0.00     0.021 C 
ENDBRANCH  15  18
ENDBRANCH   8  14
ENDBRANCH   5   7
ENDBRANCH   4   5
ENDBRANCH   3   4
ENDBRANCH   2   3
ENDBRANCH   1   2
BRANCH   1  22
ATOM     22  C   UNL A   1      37.712  20.819  25.142  1.00  0.00     0.202 C 
BRANCH  22  23
ATOM     23  C   UNL A   1      39.037  21.277  25.764  1.00  0.00     0.261 C 
BRANCH  23  24
ATOM     24  O   UNL A   1      39.743  20.213  26.422  1.00  0.00    -0.460 OA
BRANCH  24  25
ATOM     25  C   UNL A   1      41.065  20.158  26.132  1.00  0.00     0.338 C 
ATOM     26  O   UNL A   1      41.639  19.327  25.442  1.00  0.00    -0.246 OA
BRANCH  25  27
ATOM     27  C   UNL A   1      41.744  21.367  26.627  1.00  0.00     0.060 A 
ATOM     28  C   UNL A   1      41.716  21.602  28.008  1.00  0.00     0.016 A 
ATOM     29  C   UNL A   1      42.319  22.296  25.759  1.00  0.00     0.016 A 
ATOM     30  C   UNL A   1      42.222  22.792  28.524  1.00  0.00     0.010 A 
ATOM     31  C   UNL A   1      42.819  23.495  26.278  1.00  0.00     0.010 A 
ATOM     32  C   UNL A   1      42.742  23.763  27.657  1.00  0.00    -0.014 A 
BRANCH  32  33
ATOM     33  C   UNL A   1      43.080  25.106  28.184  1.00  0.00     0.031 A 
ATOM     34  C   UNL A   1      41.979  26.110  28.392  1.00  0.00     0.074 A 
ATOM     35  C   UNL A   1      44.350  25.421  28.495  1.00  0.00     0.049 A 
ATOM     36  N   UNL A   1      42.056  27.347  28.814  1.00  0.00    -0.248 NA
ATOM     37  C   UNL A   1      40.612  25.664  28.081  1.00  0.00     0.031 C 
ATOM     38  C   UNL A   1      45.498  24.525  28.372  1.00  0.00     0.029 A 
ATOM     39  N   UNL A   1      44.883  26.592  28.972  1.00  0.00    -0.354 N 
ATOM     40  C   UNL A   1      40.753  27.829  28.805  1.00  0.00     0.074 A 
ATOM     41  C   UNL A   1      39.908  26.762  28.316  1.00  0.00     0.031 C 
ATOM     42  C   UNL A   1      46.606  25.184  28.752  1.00  0.00     0.029 A 
ATOM     43  C   UNL A   1      46.249  26.554  29.113  1.00  0.00     0.049 A 
ATOM     44  H   UNL A   1      44.339  27.383  29.191  1.00  0.00     0.167 HD
ATOM     45  C   UNL A   1      40.301  29.051  29.173  1.00  0.00     0.031 A 
ATOM     46  C   UNL A   1      47.114  27.523  29.469  1.00  0.00     0.031 A 
ATOM     47  C   UNL A   1      41.140  30.114  29.658  1.00  0.00     0.049 A 
ATOM     48  C   UNL A   1      46.591  28.891  29.818  1.00  0.00     0.074 A 
ATOM     49  C   UNL A   1      40.769  31.376  30.091  1.00  0.00     0.029 A 
ATOM     50  N   UNL A   1      42.520  30.044  29.766  1.00  0.00    -0.354 N 
ATOM     51  N   UNL A   1      45.352  29.320  29.848  1.00  0.00    -0.248 NA
ATOM     52  C   UNL A   1      47.587  29.906  30.191  1.00  0.00     0.031 C 
ATOM     53  C   UNL A   1      41.929  32.090  30.404  1.00  0.00     0.029 A 
ATOM     54  C   UNL A   1      43.018  31.251  30.225  1.00  0.00     0.049 A 
ATOM     55  H   UNL A   1      43.064  29.253  29.549  1.00  0.00     0.167 HD
ATOM     56  C   UNL A   1      45.419  30.644  30.268  1.00  0.00     0.074 A 
ATOM     57  C   UNL A   1      46.818  30.940  30.498  1.00  0.00     0.031 C 
ATOM     58  C   UNL A   1      44.412  31.533  30.450  1.00  0.00     0.031 A 
BRANCH  45  59
ATOM     59  C   UNL A   1      38.829  29.322  29.032  1.00  0.00    -0.014 A 
ATOM     60  C   UNL A   1      38.269  29.705  27.803  1.00  0.00     0.009 A 
ATOM     61  C   UNL A   1      37.983  29.139  30.137  1.00  0.00     0.009 A 
ATOM     62  C   UNL A   1      36.895  29.924  27.692  1.00  0.00     0.001 A 
ATOM     63  C   UNL A   1      36.607  29.334  30.017  1.00  0.00     0.001 A 
ATOM     64  C   UNL A   1      36.064  29.733  28.796  1.00  0.00     0.000 A 
ENDBRANCH  45  59
BRANCH  46  65
ATOM     65  C   UNL A   1      48.575  27.248  29.485  1.00  0.00    -0.014 A 
ATOM     66  C   UNL A   1      49.208  26.780  30.646  1.00  0.00     0.009 A 
ATOM     67  C   UNL A   1      49.350  27.485  28.338  1.00  0.00     0.009 A 
ATOM     68  C   UNL A   1      50.591  26.582  30.667  1.00  0.00     0.001 A 
ATOM     69  C   UNL A   1      50.727  27.258  28.353  1.00  0.00     0.001 A 
ATOM     70  C   UNL A   1      51.349  26.818  29.519  1.00  0.00     0.000 A 
ENDBRANCH  46  65
BRANCH  58  71
ATOM     71  C   UNL A   1      44.781  32.900  30.955  1.00  0.00    -0.014 A 
ATOM     72  C   UNL A   1      45.044  33.958  30.072  1.00  0.00     0.009 A 
ATOM     73  C   UNL A   1      44.821  33.141  32.337  1.00  0.00     0.009 A 
ATOM     74  C   UNL A   1      45.373  35.223  30.565  1.00  0.00     0.001 A 
ATOM     75  C   UNL A   1      45.121  34.413  32.827  1.00  0.00     0.001 A 
ATOM     76  C   UNL A   1      45.407  35.450  31.941  1.00  0.00     0.000 A 
ENDBRANCH  58  71
ENDBRANCH  32  33
ENDBRANCH  25  27
ENDBRANCH  24  25
ENDBRANCH  23  24
ENDBRANCH  22  23
ENDBRANCH   1  22
TORSDOF 16
ENDMDL
