MODEL 1
REMARK VINA RESULT:     -10.3      0.000      0.000
REMARK SMILES O=C(CN(Cc1ccccc1Cl)S(=O)(=O)c1ccc(Cl)cc1)OCCOCCOC(=O)c1ccc(-c2c3nc(c(-c4ccccc4)c4ccc([nH]4)c(-c4ccccc4)c4nc(c(-c5ccccc5)c5ccc2[nH]5)C=C4)C=C3)cc1
REMARK SMILES IDX 25 1 24 2 23 3 2 4 1 5 3 6 4 7 5 8 6 9 7 10 11 11 8 12 10 13
REMARK SMILES IDX 12 14 9 15 13 16 14 17 15 18 16 19 17 20 22 21 18 22 21 23
REMARK SMILES IDX 19 24 20 25 26 26 27 27 28 28 29 29 30 30 31 31 32 32 33 33
REMARK SMILES IDX 79 34 34 35 78 36 35 37 36 38 37 39 72 40 38 41 77 42 71 43
REMARK SMILES IDX 73 44 39 45 76 46 70 47 69 48 40 50 62 51 47 52 61 53 48 54
REMARK SMILES IDX 51 55 60 56 74 57 49 58 50 59 59 61 75 62 52 63 41 64 42 65
REMARK SMILES IDX 46 66 43 67 45 68 44 69 63 70 64 71 68 72 65 73 67 74 66 75
REMARK SMILES IDX 53 76 54 77 58 78 55 79 57 80 56 81
REMARK H PARENT 73 49 51 60
REMARK Flexibility Score: inf
ROOT
ATOM      1  C   UNL A   1      35.472  22.073  26.146  1.00  0.00     0.202 C 
ENDROOT
BRANCH   1   2
ATOM      2  C   UNL A   1      34.351  23.015  25.716  1.00  0.00     0.261 C 
BRANCH   2   3
ATOM      3  O   UNL A   1      33.953  22.772  24.353  1.00  0.00    -0.462 OA
BRANCH   3   4
ATOM      4  C   UNL A   1      32.701  22.439  23.968  1.00  0.00     0.321 C 
ATOM      5  O   UNL A   1      32.534  21.803  22.927  1.00  0.00    -0.251 OA
BRANCH   4   6
ATOM      6  C   UNL A   1      31.523  22.964  24.748  1.00  0.00     0.225 C 
BRANCH   6   7
ATOM      7  N   UNL A   1      31.304  24.424  24.778  1.00  0.00    -0.182 NA
BRANCH   7   8
ATOM      8  C   UNL A   1      30.576  24.973  23.599  1.00  0.00     0.140 C 
BRANCH   8   9
ATOM      9  C   UNL A   1      30.590  26.467  23.335  1.00  0.00    -0.014 A 
ATOM     10  C   UNL A   1      29.429  27.250  23.472  1.00  0.00     0.006 A 
ATOM     11  C   UNL A   1      31.739  27.116  22.841  1.00  0.00     0.045 A 
ATOM     12  C   UNL A   1      29.430  28.624  23.228  1.00  0.00     0.000 A 
ATOM     13  C   UNL A   1      31.738  28.494  22.585  1.00  0.00     0.021 A 
ATOM     14  Cl  UNL A   1      33.204  26.265  22.489  1.00  0.00    -0.084 Cl
ATOM     15  C   UNL A   1      30.589  29.251  22.797  1.00  0.00     0.002 A 
ENDBRANCH   8   9
ENDBRANCH   7   8
BRANCH   7  16
ATOM     16  S   UNL A   1      30.959  25.003  26.326  1.00  0.00     0.243 S 
ATOM     17  O   UNL A   1      29.545  25.261  26.407  1.00  0.00    -0.207 OA
ATOM     18  O   UNL A   1      31.603  24.104  27.266  1.00  0.00    -0.207 OA
BRANCH  16  19
ATOM     19  C   UNL A   1      31.830  26.543  26.425  1.00  0.00     0.082 A 
ATOM     20  C   UNL A   1      31.175  27.668  26.932  1.00  0.00     0.023 A 
ATOM     21  C   UNL A   1      33.199  26.581  26.131  1.00  0.00     0.023 A 
ATOM     22  C   UNL A   1      31.896  28.841  27.151  1.00  0.00     0.022 A 
ATOM     23  C   UNL A   1      33.916  27.759  26.354  1.00  0.00     0.022 A 
ATOM     24  C   UNL A   1      33.263  28.880  26.870  1.00  0.00     0.041 A 
ATOM     25  Cl  UNL A   1      34.157  30.313  27.190  1.00  0.00    -0.084 Cl
ENDBRANCH  16  19
ENDBRANCH   7  16
ENDBRANCH   6   7
ENDBRANCH   4   6
ENDBRANCH   3   4
ENDBRANCH   2   3
ENDBRANCH   1   2
BRANCH   1  26
ATOM     26  O   UNL A   1      35.961  21.213  25.115  1.00  0.00    -0.374 OA
BRANCH  26  27
ATOM     27  C   UNL A   1      37.381  21.203  24.910  1.00  0.00     0.202 C 
BRANCH  27  28
ATOM     28  C   UNL A   1      38.161  22.438  25.365  1.00  0.00     0.261 C 
BRANCH  28  29
ATOM     29  O   UNL A   1      39.021  22.117  26.465  1.00  0.00    -0.460 OA
BRANCH  29  30
ATOM     30  C   UNL A   1      40.235  22.709  26.430  1.00  0.00     0.338 C 
ATOM     31  O   UNL A   1      41.249  22.291  25.900  1.00  0.00    -0.246 OA
BRANCH  30  32
ATOM     32  C   UNL A   1      40.098  24.087  26.939  1.00  0.00     0.060 A 
ATOM     33  C   UNL A   1      40.668  25.117  26.178  1.00  0.00     0.016 A 
ATOM     34  C   UNL A   1      39.427  24.365  28.132  1.00  0.00     0.016 A 
ATOM     35  C   UNL A   1      40.642  26.425  26.648  1.00  0.00     0.010 A 
ATOM     36  C   UNL A   1      39.408  25.673  28.608  1.00  0.00     0.010 A 
ATOM     37  C   UNL A   1      40.065  26.691  27.893  1.00  0.00    -0.014 A 
BRANCH  37  38
ATOM     38  C   UNL A   1      40.362  27.964  28.577  1.00  0.00     0.031 A 
ATOM     39  C   UNL A   1      41.701  28.095  29.248  1.00  0.00     0.074 A 
ATOM     40  C   UNL A   1      39.468  28.962  28.611  1.00  0.00     0.049 A 
ATOM     41  N   UNL A   1      42.157  29.051  30.013  1.00  0.00    -0.248 NA
ATOM     42  C   UNL A   1      42.649  26.987  29.035  1.00  0.00     0.031 C 
ATOM     43  C   UNL A   1      38.165  28.956  27.949  1.00  0.00     0.029 A 
ATOM     44  N   UNL A   1      39.520  30.171  29.252  1.00  0.00    -0.354 N 
ATOM     45  C   UNL A   1      43.431  28.646  30.393  1.00  0.00     0.074 A 
ATOM     46  C   UNL A   1      43.665  27.350  29.799  1.00  0.00     0.031 C 
ATOM     47  C   UNL A   1      37.529  30.106  28.235  1.00  0.00     0.029 A 
ATOM     48  C   UNL A   1      38.365  30.900  29.133  1.00  0.00     0.049 A 
ATOM     49  H   UNL A   1      40.310  30.486  29.748  1.00  0.00     0.167 HD
ATOM     50  C   UNL A   1      44.324  29.298  31.171  1.00  0.00     0.031 A 
ATOM     51  C   UNL A   1      38.015  32.062  29.716  1.00  0.00     0.031 A 
ATOM     52  C   UNL A   1      44.068  30.581  31.769  1.00  0.00     0.049 A 
ATOM     53  C   UNL A   1      38.994  32.737  30.641  1.00  0.00     0.074 A 
ATOM     54  C   UNL A   1      44.901  31.344  32.564  1.00  0.00     0.029 A 
ATOM     55  N   UNL A   1      42.878  31.281  31.640  1.00  0.00    -0.354 N 
ATOM     56  N   UNL A   1      40.203  32.358  30.985  1.00  0.00    -0.248 NA
ATOM     57  C   UNL A   1      38.563  34.002  31.249  1.00  0.00     0.031 C 
ATOM     58  C   UNL A   1      44.193  32.480  32.968  1.00  0.00     0.029 A 
ATOM     59  C   UNL A   1      42.944  32.458  32.362  1.00  0.00     0.049 A 
ATOM     60  H   UNL A   1      42.101  30.985  31.113  1.00  0.00     0.167 HD
ATOM     61  C   UNL A   1      40.690  33.356  31.821  1.00  0.00     0.074 A 
ATOM     62  C   UNL A   1      39.648  34.358  31.924  1.00  0.00     0.031 C 
ATOM     63  C   UNL A   1      41.893  33.441  32.444  1.00  0.00     0.031 A 
BRANCH  50  64
ATOM     64  C   UNL A   1      45.629  28.608  31.454  1.00  0.00    -0.014 A 
ATOM     65  C   UNL A   1      46.753  28.790  30.630  1.00  0.00     0.009 A 
ATOM     66  C   UNL A   1      45.735  27.757  32.566  1.00  0.00     0.009 A 
ATOM     67  C   UNL A   1      47.940  28.103  30.891  1.00  0.00     0.001 A 
ATOM     68  C   UNL A   1      46.934  27.098  32.842  1.00  0.00     0.001 A 
ATOM     69  C   UNL A   1      48.032  27.261  31.999  1.00  0.00     0.000 A 
ENDBRANCH  50  64
BRANCH  51  70
ATOM     70  C   UNL A   1      36.675  32.647  29.458  1.00  0.00    -0.014 A 
ATOM     71  C   UNL A   1      36.435  33.401  28.300  1.00  0.00     0.009 A 
ATOM     72  C   UNL A   1      35.621  32.449  30.366  1.00  0.00     0.009 A 
ATOM     73  C   UNL A   1      35.177  33.961  28.066  1.00  0.00     0.001 A 
ATOM     74  C   UNL A   1      34.357  32.983  30.115  1.00  0.00     0.001 A 
ATOM     75  C   UNL A   1      34.137  33.747  28.970  1.00  0.00     0.000 A 
ENDBRANCH  51  70
BRANCH  63  76
ATOM     76  C   UNL A   1      42.169  34.684  33.244  1.00  0.00    -0.014 A 
ATOM     77  C   UNL A   1      41.749  34.809  34.577  1.00  0.00     0.009 A 
ATOM     78  C   UNL A   1      42.916  35.722  32.664  1.00  0.00     0.009 A 
ATOM     79  C   UNL A   1      42.045  35.965  35.301  1.00  0.00     0.001 A 
ATOM     80  C   UNL A   1      43.238  36.861  33.401  1.00  0.00     0.001 A 
ATOM     81  C   UNL A   1      42.794  36.986  34.716  1.00  0.00     0.000 A 
ENDBRANCH  63  76
ENDBRANCH  37  38
ENDBRANCH  30  32
ENDBRANCH  29  30
ENDBRANCH  28  29
ENDBRANCH  27  28
ENDBRANCH  26  27
ENDBRANCH   1  26
TORSDOF 19
ENDMDL
MODEL 2
REMARK VINA RESULT:     -10.1      2.771      6.852
REMARK SMILES O=C(CN(Cc1ccccc1Cl)S(=O)(=O)c1ccc(Cl)cc1)OCCOCCOC(=O)c1ccc(-c2c3nc(c(-c4ccccc4)c4ccc([nH]4)c(-c4ccccc4)c4nc(c(-c5ccccc5)c5ccc2[nH]5)C=C4)C=C3)cc1
REMARK SMILES IDX 25 1 24 2 23 3 2 4 1 5 3 6 4 7 5 8 6 9 7 10 11 11 8 12 10 13
REMARK SMILES IDX 12 14 9 15 13 16 14 17 15 18 16 19 17 20 22 21 18 22 21 23
REMARK SMILES IDX 19 24 20 25 26 26 27 27 28 28 29 29 30 30 31 31 32 32 33 33
REMARK SMILES IDX 79 34 34 35 78 36 35 37 36 38 37 39 72 40 38 41 77 42 71 43
REMARK SMILES IDX 73 44 39 45 76 46 70 47 69 48 40 50 62 51 47 52 61 53 48 54
REMARK SMILES IDX 51 55 60 56 74 57 49 58 50 59 59 61 75 62 52 63 41 64 42 65
REMARK SMILES IDX 46 66 43 67 45 68 44 69 63 70 64 71 68 72 65 73 67 74 66 75
REMARK SMILES IDX 53 76 54 77 58 78 55 79 57 80 56 81
REMARK H PARENT 73 49 51 60
REMARK Flexibility Score: inf
ROOT
ATOM      1  C   UNL A   1      35.512  21.500  25.850  1.00  0.00     0.202 C 
ENDROOT
BRANCH   1   2
ATOM      2  C   UNL A   1      34.882  22.614  25.019  1.00  0.00     0.261 C 
BRANCH   2   3
ATOM      3  O   UNL A   1      33.971  22.085  24.035  1.00  0.00    -0.462 OA
BRANCH   3   4
ATOM      4  C   UNL A   1      32.908  21.301  24.319  1.00  0.00     0.321 C 
ATOM      5  O   UNL A   1      32.811  20.194  23.790  1.00  0.00    -0.251 OA
BRANCH   4   6
ATOM      6  C   UNL A   1      31.794  21.847  25.175  1.00  0.00     0.225 C 
BRANCH   6   7
ATOM      7  N   UNL A   1      31.502  23.292  25.098  1.00  0.00    -0.182 NA
BRANCH   7   8
ATOM      8  C   UNL A   1      30.658  23.701  23.939  1.00  0.00     0.140 C 
BRANCH   8   9
ATOM      9  C   UNL A   1      30.619  25.155  23.512  1.00  0.00    -0.014 A 
ATOM     10  C   UNL A   1      29.515  25.978  23.804  1.00  0.00     0.006 A 
ATOM     11  C   UNL A   1      31.637  25.717  22.717  1.00  0.00     0.045 A 
ATOM     12  C   UNL A   1      29.466  27.318  23.413  1.00  0.00     0.000 A 
ATOM     13  C   UNL A   1      31.584  27.059  22.315  1.00  0.00     0.021 A 
ATOM     14  Cl  UNL A   1      32.991  24.795  22.160  1.00  0.00    -0.084 Cl
ATOM     15  C   UNL A   1      30.508  27.864  22.679  1.00  0.00     0.002 A 
ENDBRANCH   8   9
ENDBRANCH   7   8
BRANCH   7  16
ATOM     16  S   UNL A   1      31.246  23.991  26.613  1.00  0.00     0.243 S 
ATOM     17  O   UNL A   1      29.827  24.100  26.827  1.00  0.00    -0.207 OA
ATOM     18  O   UNL A   1      32.084  23.273  27.556  1.00  0.00    -0.207 OA
BRANCH  16  19
ATOM     19  C   UNL A   1      31.931  25.619  26.469  1.00  0.00     0.082 A 
ATOM     20  C   UNL A   1      33.206  25.778  25.921  1.00  0.00     0.023 A 
ATOM     21  C   UNL A   1      31.136  26.731  26.772  1.00  0.00     0.023 A 
ATOM     22  C   UNL A   1      33.689  27.062  25.670  1.00  0.00     0.022 A 
ATOM     23  C   UNL A   1      31.625  28.014  26.516  1.00  0.00     0.022 A 
ATOM     24  C   UNL A   1      32.895  28.173  25.960  1.00  0.00     0.041 A 
ATOM     25  Cl  UNL A   1      33.475  29.751  25.599  1.00  0.00    -0.084 Cl
ENDBRANCH  16  19
ENDBRANCH   7  16
ENDBRANCH   6   7
ENDBRANCH   4   6
ENDBRANCH   3   4
ENDBRANCH   2   3
ENDBRANCH   1   2
BRANCH   1  26
ATOM     26  O   UNL A   1      36.111  20.450  25.089  1.00  0.00    -0.374 OA
BRANCH  26  27
ATOM     27  C   UNL A   1      37.418  20.711  24.558  1.00  0.00     0.202 C 
BRANCH  27  28
ATOM     28  C   UNL A   1      38.398  21.470  25.455  1.00  0.00     0.261 C 
BRANCH  28  29
ATOM     29  O   UNL A   1      38.964  20.597  26.439  1.00  0.00    -0.460 OA
BRANCH  29  30
ATOM     30  C   UNL A   1      40.223  20.181  26.176  1.00  0.00     0.338 C 
ATOM     31  O   UNL A   1      40.560  19.201  25.537  1.00  0.00    -0.246 OA
BRANCH  30  32
ATOM     32  C   UNL A   1      41.161  21.244  26.585  1.00  0.00     0.060 A 
ATOM     33  C   UNL A   1      41.300  21.490  27.958  1.00  0.00     0.016 A 
ATOM     34  C   UNL A   1      41.886  21.983  25.648  1.00  0.00     0.016 A 
ATOM     35  C   UNL A   1      42.105  22.532  28.400  1.00  0.00     0.010 A 
ATOM     36  C   UNL A   1      42.686  23.034  26.089  1.00  0.00     0.010 A 
ATOM     37  C   UNL A   1      42.750  23.342  27.459  1.00  0.00    -0.014 A 
BRANCH  37  38
ATOM     38  C   UNL A   1      43.278  24.657  27.870  1.00  0.00     0.031 A 
ATOM     39  C   UNL A   1      42.283  25.717  28.249  1.00  0.00     0.074 A 
ATOM     40  C   UNL A   1      44.596  24.901  27.892  1.00  0.00     0.049 A 
ATOM     41  N   UNL A   1      42.478  26.979  28.525  1.00  0.00    -0.248 NA
ATOM     42  C   UNL A   1      40.872  25.296  28.311  1.00  0.00     0.031 C 
ATOM     43  C   UNL A   1      45.645  23.928  27.596  1.00  0.00     0.029 A 
ATOM     44  N   UNL A   1      45.273  26.062  28.161  1.00  0.00    -0.354 N 
ATOM     45  C   UNL A   1      41.215  27.507  28.765  1.00  0.00     0.074 A 
ATOM     46  C   UNL A   1      40.260  26.438  28.577  1.00  0.00     0.031 C 
ATOM     47  C   UNL A   1      46.839  24.539  27.681  1.00  0.00     0.029 A 
ATOM     48  C   UNL A   1      46.629  25.951  27.994  1.00  0.00     0.049 A 
ATOM     49  H   UNL A   1      44.829  26.892  28.449  1.00  0.00     0.167 HD
ATOM     50  C   UNL A   1      40.882  28.771  29.110  1.00  0.00     0.031 A 
ATOM     51  C   UNL A   1      47.585  26.898  28.053  1.00  0.00     0.031 A 
ATOM     52  C   UNL A   1      41.843  29.827  29.276  1.00  0.00     0.049 A 
ATOM     53  C   UNL A   1      47.186  28.316  28.364  1.00  0.00     0.074 A 
ATOM     54  C   UNL A   1      41.625  31.143  29.637  1.00  0.00     0.029 A 
ATOM     55  N   UNL A   1      43.208  29.681  29.080  1.00  0.00    -0.354 N 
ATOM     56  N   UNL A   1      45.993  28.807  28.605  1.00  0.00    -0.248 NA
ATOM     57  C   UNL A   1      48.268  29.309  28.418  1.00  0.00     0.031 C 
ATOM     58  C   UNL A   1      42.854  31.810  29.600  1.00  0.00     0.029 A 
ATOM     59  C   UNL A   1      43.845  30.891  29.288  1.00  0.00     0.049 A 
ATOM     60  H   UNL A   1      43.658  28.841  28.830  1.00  0.00     0.167 HD
ATOM     61  C   UNL A   1      46.184  30.156  28.876  1.00  0.00     0.074 A 
ATOM     62  C   UNL A   1      47.609  30.403  28.775  1.00  0.00     0.031 C 
ATOM     63  C   UNL A   1      45.266  31.107  29.185  1.00  0.00     0.031 A 
BRANCH  50  64
ATOM     64  C   UNL A   1      39.420  29.081  29.276  1.00  0.00    -0.014 A 
ATOM     65  C   UNL A   1      38.637  29.538  28.203  1.00  0.00     0.009 A 
ATOM     66  C   UNL A   1      38.816  28.914  30.532  1.00  0.00     0.009 A 
ATOM     67  C   UNL A   1      37.292  29.860  28.395  1.00  0.00     0.001 A 
ATOM     68  C   UNL A   1      37.463  29.204  30.713  1.00  0.00     0.001 A 
ATOM     69  C   UNL A   1      36.704  29.689  29.648  1.00  0.00     0.000 A 
ENDBRANCH  50  64
BRANCH  51  70
ATOM     70  C   UNL A   1      49.002  26.538  27.795  1.00  0.00    -0.014 A 
ATOM     71  C   UNL A   1      49.510  26.525  26.488  1.00  0.00     0.009 A 
ATOM     72  C   UNL A   1      49.862  26.212  28.858  1.00  0.00     0.009 A 
ATOM     73  C   UNL A   1      50.840  26.173  26.247  1.00  0.00     0.001 A 
ATOM     74  C   UNL A   1      51.199  25.892  28.618  1.00  0.00     0.001 A 
ATOM     75  C   UNL A   1      51.685  25.863  27.312  1.00  0.00     0.000 A 
ENDBRANCH  51  70
BRANCH  63  76
ATOM     76  C   UNL A   1      45.779  32.487  29.494  1.00  0.00    -0.014 A 
ATOM     77  C   UNL A   1      46.350  32.798  30.737  1.00  0.00     0.009 A 
ATOM     78  C   UNL A   1      45.738  33.474  28.496  1.00  0.00     0.009 A 
ATOM     79  C   UNL A   1      46.842  34.081  30.984  1.00  0.00     0.001 A 
ATOM     80  C   UNL A   1      46.260  34.745  28.734  1.00  0.00     0.001 A 
ATOM     81  C   UNL A   1      46.802  35.051  29.982  1.00  0.00     0.000 A 
ENDBRANCH  63  76
ENDBRANCH  37  38
ENDBRANCH  30  32
ENDBRANCH  29  30
ENDBRANCH  28  29
ENDBRANCH  27  28
ENDBRANCH  26  27
ENDBRANCH   1  26
TORSDOF 19
ENDMDL
MODEL 3
REMARK VINA RESULT:      -9.7      3.951      8.707
REMARK SMILES O=C(CN(Cc1ccccc1Cl)S(=O)(=O)c1ccc(Cl)cc1)OCCOCCOC(=O)c1ccc(-c2c3nc(c(-c4ccccc4)c4ccc([nH]4)c(-c4ccccc4)c4nc(c(-c5ccccc5)c5ccc2[nH]5)C=C4)C=C3)cc1
REMARK SMILES IDX 25 1 24 2 23 3 2 4 1 5 3 6 4 7 5 8 6 9 7 10 11 11 8 12 10 13
REMARK SMILES IDX 12 14 9 15 13 16 14 17 15 18 16 19 17 20 22 21 18 22 21 23
REMARK SMILES IDX 19 24 20 25 26 26 27 27 28 28 29 29 30 30 31 31 32 32 33 33
REMARK SMILES IDX 79 34 34 35 78 36 35 37 36 38 37 39 72 40 38 41 77 42 71 43
REMARK SMILES IDX 73 44 39 45 76 46 70 47 69 48 40 50 62 51 47 52 61 53 48 54
REMARK SMILES IDX 51 55 60 56 74 57 49 58 50 59 59 61 75 62 52 63 41 64 42 65
REMARK SMILES IDX 46 66 43 67 45 68 44 69 63 70 64 71 68 72 65 73 67 74 66 75
REMARK SMILES IDX 53 76 54 77 58 78 55 79 57 80 56 81
REMARK H PARENT 73 49 51 60
REMARK Flexibility Score: inf
ROOT
ATOM      1  C   UNL A   1      33.244  29.290  26.866  1.00  0.00     0.202 C 
ENDROOT
BRANCH   1   2
ATOM      2  C   UNL A   1      31.827  28.871  26.482  1.00  0.00     0.261 C 
BRANCH   2   3
ATOM      3  O   UNL A   1      31.834  27.947  25.376  1.00  0.00    -0.462 OA
BRANCH   3   4
ATOM      4  C   UNL A   1      31.240  26.734  25.387  1.00  0.00     0.321 C 
ATOM      5  O   UNL A   1      30.796  26.283  26.443  1.00  0.00    -0.251 OA
BRANCH   4   6
ATOM      6  C   UNL A   1      31.246  25.896  24.133  1.00  0.00     0.225 C 
BRANCH   6   7
ATOM      7  N   UNL A   1      32.118  24.705  24.097  1.00  0.00    -0.182 NA
BRANCH   7   8
ATOM      8  C   UNL A   1      31.400  23.400  24.134  1.00  0.00     0.140 C 
BRANCH   8   9
ATOM      9  C   UNL A   1      32.148  22.140  24.525  1.00  0.00    -0.014 A 
ATOM     10  C   UNL A   1      32.335  21.084  23.614  1.00  0.00     0.006 A 
ATOM     11  C   UNL A   1      32.597  21.929  25.843  1.00  0.00     0.045 A 
ATOM     12  C   UNL A   1      33.019  19.917  23.963  1.00  0.00     0.000 A 
ATOM     13  C   UNL A   1      33.274  20.754  26.198  1.00  0.00     0.021 A 
ATOM     14  Cl  UNL A   1      32.320  23.075  27.110  1.00  0.00    -0.084 Cl
ATOM     15  C   UNL A   1      33.501  19.757  25.253  1.00  0.00     0.002 A 
ENDBRANCH   8   9
ENDBRANCH   7   8
BRANCH   7  16
ATOM     16  S   UNL A   1      33.454  24.902  23.085  1.00  0.00     0.243 S 
ATOM     17  O   UNL A   1      33.182  24.230  21.841  1.00  0.00    -0.207 OA
ATOM     18  O   UNL A   1      33.795  26.313  23.104  1.00  0.00    -0.207 OA
BRANCH  16  19
ATOM     19  C   UNL A   1      34.769  24.056  23.919  1.00  0.00     0.082 A 
ATOM     20  C   UNL A   1      35.523  23.109  23.222  1.00  0.00     0.023 A 
ATOM     21  C   UNL A   1      35.128  24.448  25.215  1.00  0.00     0.023 A 
ATOM     22  C   UNL A   1      36.649  22.550  23.826  1.00  0.00     0.022 A 
ATOM     23  C   UNL A   1      36.257  23.885  25.813  1.00  0.00     0.022 A 
ATOM     24  C   UNL A   1      37.016  22.946  25.114  1.00  0.00     0.041 A 
ATOM     25  Cl  UNL A   1      38.435  22.291  25.832  1.00  0.00    -0.084 Cl
ENDBRANCH  16  19
ENDBRANCH   7  16
ENDBRANCH   6   7
ENDBRANCH   4   6
ENDBRANCH   3   4
ENDBRANCH   2   3
ENDBRANCH   1   2
BRANCH   1  26
ATOM     26  O   UNL A   1      33.340  30.563  27.507  1.00  0.00    -0.374 OA
BRANCH  26  27
ATOM     27  C   UNL A   1      34.654  31.127  27.615  1.00  0.00     0.202 C 
BRANCH  27  28
ATOM     28  C   UNL A   1      35.358  31.005  28.969  1.00  0.00     0.261 C 
BRANCH  28  29
ATOM     29  O   UNL A   1      35.926  29.699  29.127  1.00  0.00    -0.460 OA
BRANCH  29  30
ATOM     30  C   UNL A   1      36.734  29.556  30.201  1.00  0.00     0.338 C 
ATOM     31  O   UNL A   1      36.414  29.228  31.329  1.00  0.00    -0.246 OA
BRANCH  30  32
ATOM     32  C   UNL A   1      38.135  29.627  29.744  1.00  0.00     0.060 A 
ATOM     33  C   UNL A   1      38.364  29.657  28.362  1.00  0.00     0.016 A 
ATOM     34  C   UNL A   1      39.200  29.662  30.647  1.00  0.00     0.016 A 
ATOM     35  C   UNL A   1      39.663  29.640  27.871  1.00  0.00     0.010 A 
ATOM     36  C   UNL A   1      40.503  29.636  30.157  1.00  0.00     0.010 A 
ATOM     37  C   UNL A   1      40.731  29.568  28.771  1.00  0.00    -0.014 A 
BRANCH  37  38
ATOM     38  C   UNL A   1      42.065  29.163  28.288  1.00  0.00     0.031 A 
ATOM     39  C   UNL A   1      42.269  27.715  27.944  1.00  0.00     0.074 A 
ATOM     40  C   UNL A   1      43.063  30.052  28.172  1.00  0.00     0.049 A 
ATOM     41  N   UNL A   1      43.366  27.084  27.619  1.00  0.00    -0.248 NA
ATOM     42  C   UNL A   1      41.070  26.859  27.986  1.00  0.00     0.031 C 
ATOM     43  C   UNL A   1      42.955  31.487  28.428  1.00  0.00     0.029 A 
ATOM     44  N   UNL A   1      44.375  29.864  27.825  1.00  0.00    -0.354 N 
ATOM     45  C   UNL A   1      42.994  25.756  27.446  1.00  0.00     0.074 A 
ATOM     46  C   UNL A   1      41.579  25.666  27.728  1.00  0.00     0.031 C 
ATOM     47  C   UNL A   1      44.162  32.050  28.247  1.00  0.00     0.029 A 
ATOM     48  C   UNL A   1      45.128  31.007  27.907  1.00  0.00     0.049 A 
ATOM     49  H   UNL A   1      44.740  28.994  27.543  1.00  0.00     0.167 HD
ATOM     50  C   UNL A   1      43.765  24.706  27.087  1.00  0.00     0.031 A 
ATOM     51  C   UNL A   1      46.455  31.177  27.757  1.00  0.00     0.031 A 
ATOM     52  C   UNL A   1      45.175  24.810  26.827  1.00  0.00     0.049 A 
ATOM     53  C   UNL A   1      47.310  29.981  27.431  1.00  0.00     0.074 A 
ATOM     54  C   UNL A   1      46.058  23.817  26.442  1.00  0.00     0.029 A 
ATOM     55  N   UNL A   1      45.908  25.982  26.937  1.00  0.00    -0.354 N 
ATOM     56  N   UNL A   1      46.952  28.730  27.254  1.00  0.00    -0.248 NA
ATOM     57  C   UNL A   1      48.751  30.222  27.277  1.00  0.00     0.031 C 
ATOM     58  C   UNL A   1      47.337  24.378  26.379  1.00  0.00     0.029 A 
ATOM     59  C   UNL A   1      47.238  25.734  26.652  1.00  0.00     0.049 A 
ATOM     60  H   UNL A   1      45.537  26.861  27.182  1.00  0.00     0.167 HD
ATOM     61  C   UNL A   1      48.116  28.043  26.932  1.00  0.00     0.074 A 
ATOM     62  C   UNL A   1      49.188  29.018  26.932  1.00  0.00     0.031 C 
ATOM     63  C   UNL A   1      48.284  26.726  26.655  1.00  0.00     0.031 A 
BRANCH  50  64
ATOM     64  C   UNL A   1      43.105  23.357  27.007  1.00  0.00    -0.014 A 
ATOM     65  C   UNL A   1      42.672  22.820  25.783  1.00  0.00     0.009 A 
ATOM     66  C   UNL A   1      42.911  22.612  28.180  1.00  0.00     0.009 A 
ATOM     67  C   UNL A   1      42.022  21.584  25.743  1.00  0.00     0.001 A 
ATOM     68  C   UNL A   1      42.291  21.362  28.132  1.00  0.00     0.001 A 
ATOM     69  C   UNL A   1      41.836  20.854  26.916  1.00  0.00     0.000 A 
ENDBRANCH  50  64
BRANCH  51  70
ATOM     70  C   UNL A   1      47.054  32.524  27.932  1.00  0.00    -0.014 A 
ATOM     71  C   UNL A   1      47.481  32.958  29.196  1.00  0.00     0.009 A 
ATOM     72  C   UNL A   1      47.212  33.384  26.833  1.00  0.00     0.009 A 
ATOM     73  C   UNL A   1      48.032  34.231  29.360  1.00  0.00     0.001 A 
ATOM     74  C   UNL A   1      47.792  34.644  26.993  1.00  0.00     0.001 A 
ATOM     75  C   UNL A   1      48.193  35.070  28.258  1.00  0.00     0.000 A 
ENDBRANCH  51  70
BRANCH  63  76
ATOM     76  C   UNL A   1      49.667  26.272  26.273  1.00  0.00    -0.014 A 
ATOM     77  C   UNL A   1      50.176  26.475  24.982  1.00  0.00     0.009 A 
ATOM     78  C   UNL A   1      50.490  25.682  27.246  1.00  0.00     0.009 A 
ATOM     79  C   UNL A   1      51.474  26.067  24.665  1.00  0.00     0.001 A 
ATOM     80  C   UNL A   1      51.796  25.305  26.936  1.00  0.00     0.001 A 
ATOM     81  C   UNL A   1      52.284  25.489  25.643  1.00  0.00     0.000 A 
ENDBRANCH  63  76
ENDBRANCH  37  38
ENDBRANCH  30  32
ENDBRANCH  29  30
ENDBRANCH  28  29
ENDBRANCH  27  28
ENDBRANCH  26  27
ENDBRANCH   1  26
TORSDOF 19
ENDMDL
