MODEL 1
REMARK VINA RESULT:     -11.4      0.000      0.000
REMARK SMILES C[C@@]12CCC[C@](C)(C(=O)OCCOCCOC(=O)c3ccc(-c4c5nc(c(-c6ccccc6)c6ccc([nH]6)c(-c6ccccc6)c6nc(c(-c7ccccc7)c7ccc4[nH]7)C=C6)C=C5)cc3)[C@H]1CC[C@@]13C=C(CO)[C@@H](CC[C@@H]12)C3
REMARK SMILES IDX 13 1 12 2 11 3 10 4 8 5 9 6 6 7 1 8 2 9 3 10 67 11 78 12
REMARK SMILES IDX 4 13 68 14 70 15 77 16 5 17 7 18 69 19 71 20 79 21 76 22
REMARK SMILES IDX 72 23 75 24 73 25 74 26 14 28 15 29 16 30 17 31 18 32 19 33
REMARK SMILES IDX 20 34 66 35 21 36 65 37 22 38 23 39 24 40 59 41 25 42 64 43
REMARK SMILES IDX 58 44 60 45 26 46 63 47 57 48 56 49 27 51 49 52 34 53 48 54
REMARK SMILES IDX 35 55 38 56 47 57 61 58 36 59 37 60 46 62 62 63 39 64 28 65
REMARK SMILES IDX 29 66 33 67 30 68 32 69 31 70 50 71 51 72 55 73 52 74 54 75
REMARK SMILES IDX 53 76 40 77 41 78 45 79 42 80 44 81 43 82
REMARK H PARENT 74 27 60 50 38 61
REMARK Flexibility Score: inf
ROOT
ATOM      1  O   UNL A   1      39.936  21.454  26.841  1.00  0.00    -0.374 OA
ENDROOT
BRANCH   1   2
ATOM      2  C   UNL A   1      38.957  22.104  26.034  1.00  0.00     0.202 C 
BRANCH   2   3
ATOM      3  C   UNL A   1      37.824  21.259  25.453  1.00  0.00     0.261 C 
BRANCH   3   4
ATOM      4  O   UNL A   1      36.915  22.065  24.696  1.00  0.00    -0.463 OA
BRANCH   4   5
ATOM      5  C   UNL A   1      35.678  22.109  25.250  1.00  0.00     0.312 C 
ATOM      6  O   UNL A   1      35.379  21.556  26.304  1.00  0.00    -0.252 OA
BRANCH   5   7
ATOM      7  C   UNL A   1      34.651  22.778  24.343  1.00  0.00     0.069 C 
ATOM      8  C   UNL A   1      33.673  25.102  22.661  1.00  0.00     0.012 C 
ATOM      9  C   UNL A   1      32.789  24.525  23.825  1.00  0.00    -0.025 C 
ATOM     10  C   UNL A   1      31.897  23.368  23.313  1.00  0.00     0.007 C 
ATOM     11  C   UNL A   1      33.737  23.989  24.943  1.00  0.00     0.012 C 
ATOM     12  C   UNL A   1      31.854  25.699  24.225  1.00  0.00     0.005 C 
ATOM     13  C   UNL A   1      32.616  22.089  22.929  1.00  0.00     0.002 C 
ATOM     14  C   UNL A   1      34.372  25.171  25.737  1.00  0.00     0.006 C 
ATOM     15  C   UNL A   1      32.480  26.847  25.109  1.00  0.00    -0.008 C 
ATOM     16  C   UNL A   1      30.357  25.616  24.518  1.00  0.00     0.006 C 
ATOM     17  C   UNL A   1      33.624  21.659  23.982  1.00  0.00     0.019 C 
ATOM     18  C   UNL A   1      35.563  23.011  23.109  1.00  0.00     0.024 C 
ATOM     19  C   UNL A   1      33.349  26.254  26.215  1.00  0.00     0.012 C 
ATOM     20  C   UNL A   1      33.109  27.790  24.126  1.00  0.00    -0.018 C 
ATOM     21  C   UNL A   1      31.391  27.869  25.575  1.00  0.00     0.019 C 
ATOM     22  C   UNL A   1      29.794  26.969  23.941  1.00  0.00     0.008 C 
ATOM     23  C   UNL A   1      32.101  28.384  23.445  1.00  0.00    -0.045 C 
ATOM     24  C   UNL A   1      30.757  28.196  24.207  1.00  0.00     0.018 C 
BRANCH  23  25
ATOM     25  C   UNL A   1      32.282  29.082  22.139  1.00  0.00     0.187 C 
BRANCH  25  26
ATOM     26  O   UNL A   1      31.119  29.851  21.831  1.00  0.00    -0.392 OA
ATOM     27  H   UNL A   1      30.328  29.367  22.112  1.00  0.00     0.211 HD
ENDBRANCH  25  26
ENDBRANCH  23  25
ENDBRANCH   5   7
ENDBRANCH   4   5
ENDBRANCH   3   4
ENDBRANCH   2   3
ENDBRANCH   1   2
BRANCH   1  28
ATOM     28  C   UNL A   1      40.927  20.661  26.183  1.00  0.00     0.202 C 
BRANCH  28  29
ATOM     29  C   UNL A   1      42.338  21.243  26.114  1.00  0.00     0.261 C 
BRANCH  29  30
ATOM     30  O   UNL A   1      42.303  22.596  25.620  1.00  0.00    -0.460 OA
BRANCH  30  31
ATOM     31  C   UNL A   1      43.205  23.426  26.190  1.00  0.00     0.338 C 
ATOM     32  O   UNL A   1      44.421  23.395  26.066  1.00  0.00    -0.246 OA
BRANCH  31  33
ATOM     33  C   UNL A   1      42.508  24.559  26.830  1.00  0.00     0.060 A 
ATOM     34  C   UNL A   1      43.023  25.846  26.607  1.00  0.00     0.016 A 
ATOM     35  C   UNL A   1      41.419  24.367  27.681  1.00  0.00     0.016 A 
ATOM     36  C   UNL A   1      42.510  26.936  27.299  1.00  0.00     0.010 A 
ATOM     37  C   UNL A   1      40.917  25.462  28.391  1.00  0.00     0.010 A 
ATOM     38  C   UNL A   1      41.500  26.735  28.244  1.00  0.00    -0.014 A 
BRANCH  38  39
ATOM     39  C   UNL A   1      41.219  27.784  29.250  1.00  0.00     0.031 A 
ATOM     40  C   UNL A   1      42.078  27.822  30.486  1.00  0.00     0.074 A 
ATOM     41  C   UNL A   1      40.245  28.691  29.073  1.00  0.00     0.049 A 
ATOM     42  N   UNL A   1      41.951  28.552  31.564  1.00  0.00    -0.248 NA
ATOM     43  C   UNL A   1      43.232  26.907  30.510  1.00  0.00     0.031 C 
ATOM     44  C   UNL A   1      39.403  28.814  27.885  1.00  0.00     0.029 A 
ATOM     45  N   UNL A   1      39.792  29.677  29.915  1.00  0.00    -0.354 N 
ATOM     46  C   UNL A   1      42.989  28.163  32.403  1.00  0.00     0.074 A 
ATOM     47  C   UNL A   1      43.724  27.123  31.721  1.00  0.00     0.031 C 
ATOM     48  C   UNL A   1      38.519  29.807  28.082  1.00  0.00     0.029 A 
ATOM     49  C   UNL A   1      38.703  30.353  29.426  1.00  0.00     0.049 A 
ATOM     50  H   UNL A   1      40.208  29.878  30.784  1.00  0.00     0.167 HD
ATOM     51  C   UNL A   1      43.300  28.632  33.633  1.00  0.00     0.031 A 
ATOM     52  C   UNL A   1      37.921  31.280  30.014  1.00  0.00     0.031 A 
ATOM     53  C   UNL A   1      42.563  29.664  34.309  1.00  0.00     0.049 A 
ATOM     54  C   UNL A   1      38.225  31.716  31.425  1.00  0.00     0.074 A 
ATOM     55  C   UNL A   1      42.799  30.213  35.557  1.00  0.00     0.029 A 
ATOM     56  N   UNL A   1      41.445  30.298  33.794  1.00  0.00    -0.354 N 
ATOM     57  N   UNL A   1      39.203  31.339  32.215  1.00  0.00    -0.248 NA
ATOM     58  C   UNL A   1      37.318  32.706  32.026  1.00  0.00     0.031 C 
ATOM     59  C   UNL A   1      41.785  31.137  35.822  1.00  0.00     0.029 A 
ATOM     60  C   UNL A   1      40.962  31.217  34.709  1.00  0.00     0.049 A 
ATOM     61  H   UNL A   1      41.052  30.121  32.908  1.00  0.00     0.167 HD
ATOM     62  C   UNL A   1      39.054  32.079  33.383  1.00  0.00     0.074 A 
ATOM     63  C   UNL A   1      37.892  32.923  33.201  1.00  0.00     0.031 C 
ATOM     64  C   UNL A   1      39.819  32.067  34.502  1.00  0.00     0.031 A 
BRANCH  51  65
ATOM     65  C   UNL A   1      44.460  27.996  34.347  1.00  0.00    -0.014 A 
ATOM     66  C   UNL A   1      45.760  28.514  34.246  1.00  0.00     0.009 A 
ATOM     67  C   UNL A   1      44.238  26.875  35.164  1.00  0.00     0.009 A 
ATOM     68  C   UNL A   1      46.819  27.902  34.922  1.00  0.00     0.001 A 
ATOM     69  C   UNL A   1      45.291  26.286  35.863  1.00  0.00     0.001 A 
ATOM     70  C   UNL A   1      46.582  26.793  35.733  1.00  0.00     0.000 A 
ENDBRANCH  51  65
BRANCH  52  71
ATOM     71  C   UNL A   1      36.749  31.836  29.288  1.00  0.00    -0.014 A 
ATOM     72  C   UNL A   1      35.572  31.086  29.147  1.00  0.00     0.009 A 
ATOM     73  C   UNL A   1      36.810  33.115  28.710  1.00  0.00     0.009 A 
ATOM     74  C   UNL A   1      34.492  31.593  28.420  1.00  0.00     0.001 A 
ATOM     75  C   UNL A   1      35.718  33.631  28.011  1.00  0.00     0.001 A 
ATOM     76  C   UNL A   1      34.563  32.867  27.857  1.00  0.00     0.000 A 
ENDBRANCH  52  71
BRANCH  64  77
ATOM     77  C   UNL A   1      39.482  33.041  35.596  1.00  0.00    -0.014 A 
ATOM     78  C   UNL A   1      38.644  32.690  36.664  1.00  0.00     0.009 A 
ATOM     79  C   UNL A   1      40.099  34.303  35.601  1.00  0.00     0.009 A 
ATOM     80  C   UNL A   1      38.418  33.592  37.706  1.00  0.00     0.001 A 
ATOM     81  C   UNL A   1      39.897  35.190  36.658  1.00  0.00     0.001 A 
ATOM     82  C   UNL A   1      39.051  34.836  37.708  1.00  0.00     0.000 A 
ENDBRANCH  64  77
ENDBRANCH  38  39
ENDBRANCH  31  33
ENDBRANCH  30  31
ENDBRANCH  29  30
ENDBRANCH  28  29
ENDBRANCH   1  28
TORSDOF 16
ENDMDL
MODEL 2
REMARK VINA RESULT:     -11.4      1.663      7.881
REMARK SMILES C[C@@]12CCC[C@](C)(C(=O)OCCOCCOC(=O)c3ccc(-c4c5nc(c(-c6ccccc6)c6ccc([nH]6)c(-c6ccccc6)c6nc(c(-c7ccccc7)c7ccc4[nH]7)C=C6)C=C5)cc3)[C@H]1CC[C@@]13C=C(CO)[C@@H](CC[C@@H]12)C3
REMARK SMILES IDX 13 1 12 2 11 3 10 4 8 5 9 6 6 7 1 8 2 9 3 10 67 11 78 12
REMARK SMILES IDX 4 13 68 14 70 15 77 16 5 17 7 18 69 19 71 20 79 21 76 22
REMARK SMILES IDX 72 23 75 24 73 25 74 26 14 28 15 29 16 30 17 31 18 32 19 33
REMARK SMILES IDX 20 34 66 35 21 36 65 37 22 38 23 39 24 40 59 41 25 42 64 43
REMARK SMILES IDX 58 44 60 45 26 46 63 47 57 48 56 49 27 51 49 52 34 53 48 54
REMARK SMILES IDX 35 55 38 56 47 57 61 58 36 59 37 60 46 62 62 63 39 64 28 65
REMARK SMILES IDX 29 66 33 67 30 68 32 69 31 70 50 71 51 72 55 73 52 74 54 75
REMARK SMILES IDX 53 76 40 77 41 78 45 79 42 80 44 81 43 82
REMARK H PARENT 74 27 60 50 38 61
REMARK Flexibility Score: inf
ROOT
ATOM      1  O   UNL A   1      30.863  30.083  23.965  1.00  0.00    -0.374 OA
ENDROOT
BRANCH   1   2
ATOM      2  C   UNL A   1      29.521  29.930  23.509  1.00  0.00     0.202 C 
BRANCH   2   3
ATOM      3  C   UNL A   1      29.184  28.706  22.659  1.00  0.00     0.261 C 
BRANCH   3   4
ATOM      4  O   UNL A   1      29.606  27.498  23.303  1.00  0.00    -0.463 OA
BRANCH   4   5
ATOM      5  C   UNL A   1      30.783  27.035  22.814  1.00  0.00     0.312 C 
ATOM      6  O   UNL A   1      31.027  26.913  21.618  1.00  0.00    -0.252 OA
BRANCH   5   7
ATOM      7  C   UNL A   1      31.712  26.522  23.908  1.00  0.00     0.069 C 
ATOM      8  C   UNL A   1      34.328  25.320  24.856  1.00  0.00     0.012 C 
ATOM      9  C   UNL A   1      32.957  24.644  25.215  1.00  0.00    -0.025 C 
ATOM     10  C   UNL A   1      32.386  25.228  26.529  1.00  0.00     0.007 C 
ATOM     11  C   UNL A   1      31.954  24.915  24.050  1.00  0.00     0.012 C 
ATOM     12  C   UNL A   1      33.313  23.154  25.479  1.00  0.00     0.005 C 
ATOM     13  C   UNL A   1      31.910  26.668  26.468  1.00  0.00     0.002 C 
ATOM     14  C   UNL A   1      32.298  24.031  22.812  1.00  0.00     0.006 C 
ATOM     15  C   UNL A   1      33.568  22.242  24.216  1.00  0.00    -0.008 C 
ATOM     16  C   UNL A   1      32.795  22.279  26.618  1.00  0.00     0.006 C 
ATOM     17  C   UNL A   1      31.036  26.933  25.254  1.00  0.00     0.019 C 
ATOM     18  C   UNL A   1      32.905  27.482  23.656  1.00  0.00     0.024 C 
ATOM     19  C   UNL A   1      32.522  22.518  23.139  1.00  0.00     0.012 C 
ATOM     20  C   UNL A   1      35.017  22.445  23.882  1.00  0.00    -0.018 C 
ATOM     21  C   UNL A   1      33.748  20.741  24.621  1.00  0.00     0.019 C 
ATOM     22  C   UNL A   1      34.033  21.372  26.977  1.00  0.00     0.008 C 
ATOM     23  C   UNL A   1      35.737  21.874  24.875  1.00  0.00    -0.045 C 
ATOM     24  C   UNL A   1      34.840  20.905  25.699  1.00  0.00     0.018 C 
BRANCH  23  25
ATOM     25  C   UNL A   1      37.174  22.178  25.137  1.00  0.00     0.187 C 
BRANCH  25  26
ATOM     26  O   UNL A   1      37.328  22.726  26.446  1.00  0.00    -0.392 OA
ATOM     27  H   UNL A   1      37.207  23.687  26.410  1.00  0.00     0.211 HD
ENDBRANCH  25  26
ENDBRANCH  23  25
ENDBRANCH   5   7
ENDBRANCH   4   5
ENDBRANCH   3   4
ENDBRANCH   2   3
ENDBRANCH   1   2
BRANCH   1  28
ATOM     28  C   UNL A   1      31.069  30.529  25.308  1.00  0.00     0.202 C 
BRANCH  28  29
ATOM     29  C   UNL A   1      32.486  30.408  25.863  1.00  0.00     0.261 C 
BRANCH  29  30
ATOM     30  O   UNL A   1      32.524  30.808  27.246  1.00  0.00    -0.460 OA
BRANCH  30  31
ATOM     31  C   UNL A   1      33.276  31.903  27.495  1.00  0.00     0.338 C 
ATOM     32  O   UNL A   1      32.886  33.056  27.621  1.00  0.00    -0.246 OA
BRANCH  31  33
ATOM     33  C   UNL A   1      34.655  31.498  27.830  1.00  0.00     0.060 A 
ATOM     34  C   UNL A   1      34.892  30.133  28.054  1.00  0.00     0.016 A 
ATOM     35  C   UNL A   1      35.679  32.432  27.987  1.00  0.00     0.016 A 
ATOM     36  C   UNL A   1      36.129  29.703  28.521  1.00  0.00     0.010 A 
ATOM     37  C   UNL A   1      36.916  32.002  28.475  1.00  0.00     0.010 A 
ATOM     38  C   UNL A   1      37.123  30.647  28.797  1.00  0.00    -0.014 A 
BRANCH  38  39
ATOM     39  C   UNL A   1      38.277  30.268  29.645  1.00  0.00     0.031 A 
ATOM     40  C   UNL A   1      39.318  29.358  29.050  1.00  0.00     0.074 A 
ATOM     41  C   UNL A   1      38.412  30.726  30.899  1.00  0.00     0.049 A 
ATOM     42  N   UNL A   1      40.342  28.782  29.623  1.00  0.00    -0.248 NA
ATOM     43  C   UNL A   1      39.180  29.054  27.615  1.00  0.00     0.031 C 
ATOM     44  C   UNL A   1      37.521  31.677  31.559  1.00  0.00     0.029 A 
ATOM     45  N   UNL A   1      39.358  30.431  31.850  1.00  0.00    -0.354 N 
ATOM     46  C   UNL A   1      40.951  28.025  28.628  1.00  0.00     0.074 A 
ATOM     47  C   UNL A   1      40.173  28.200  27.423  1.00  0.00     0.031 C 
ATOM     48  C   UNL A   1      37.951  31.873  32.817  1.00  0.00     0.029 A 
ATOM     49  C   UNL A   1      39.116  31.024  33.063  1.00  0.00     0.049 A 
ATOM     50  H   UNL A   1      40.134  29.850  31.678  1.00  0.00     0.167 HD
ATOM     51  C   UNL A   1      42.059  27.254  28.713  1.00  0.00     0.031 A 
ATOM     52  C   UNL A   1      39.741  30.866  34.247  1.00  0.00     0.031 A 
ATOM     53  C   UNL A   1      42.826  27.081  29.915  1.00  0.00     0.049 A 
ATOM     54  C   UNL A   1      40.913  29.923  34.344  1.00  0.00     0.074 A 
ATOM     55  C   UNL A   1      43.968  26.324  30.106  1.00  0.00     0.029 A 
ATOM     56  N   UNL A   1      42.526  27.672  31.132  1.00  0.00    -0.354 N 
ATOM     57  N   UNL A   1      41.478  29.206  33.402  1.00  0.00    -0.248 NA
ATOM     58  C   UNL A   1      41.535  29.768  35.668  1.00  0.00     0.031 C 
ATOM     59  C   UNL A   1      44.324  26.406  31.455  1.00  0.00     0.029 A 
ATOM     60  C   UNL A   1      43.447  27.275  32.086  1.00  0.00     0.049 A 
ATOM     61  H   UNL A   1      41.770  28.282  31.293  1.00  0.00     0.167 HD
ATOM     62  C   UNL A   1      42.547  28.554  34.009  1.00  0.00     0.074 A 
ATOM     63  C   UNL A   1      42.549  28.957  35.399  1.00  0.00     0.031 C 
ATOM     64  C   UNL A   1      43.449  27.706  33.460  1.00  0.00     0.031 A 
BRANCH  51  65
ATOM     65  C   UNL A   1      42.477  26.500  27.482  1.00  0.00    -0.014 A 
ATOM     66  C   UNL A   1      43.322  27.072  26.519  1.00  0.00     0.009 A 
ATOM     67  C   UNL A   1      42.043  25.176  27.302  1.00  0.00     0.009 A 
ATOM     68  C   UNL A   1      43.695  26.347  25.385  1.00  0.00     0.001 A 
ATOM     69  C   UNL A   1      42.442  24.443  26.184  1.00  0.00     0.001 A 
ATOM     70  C   UNL A   1      43.260  25.032  25.222  1.00  0.00     0.000 A 
ENDBRANCH  51  65
BRANCH  52  71
ATOM     71  C   UNL A   1      39.252  31.590  35.450  1.00  0.00    -0.014 A 
ATOM     72  C   UNL A   1      38.271  31.023  36.277  1.00  0.00     0.009 A 
ATOM     73  C   UNL A   1      39.749  32.865  35.766  1.00  0.00     0.009 A 
ATOM     74  C   UNL A   1      37.778  31.729  37.378  1.00  0.00     0.001 A 
ATOM     75  C   UNL A   1      39.278  33.555  36.884  1.00  0.00     0.001 A 
ATOM     76  C   UNL A   1      38.286  32.991  37.684  1.00  0.00     0.000 A 
ENDBRANCH  52  71
BRANCH  64  77
ATOM     77  C   UNL A   1      44.567  27.206  34.332  1.00  0.00    -0.014 A 
ATOM     78  C   UNL A   1      45.757  27.930  34.493  1.00  0.00     0.009 A 
ATOM     79  C   UNL A   1      44.378  26.032  35.080  1.00  0.00     0.009 A 
ATOM     80  C   UNL A   1      46.742  27.477  35.374  1.00  0.00     0.001 A 
ATOM     81  C   UNL A   1      45.349  25.599  35.982  1.00  0.00     0.001 A 
ATOM     82  C   UNL A   1      46.534  26.319  36.124  1.00  0.00     0.000 A 
ENDBRANCH  64  77
ENDBRANCH  38  39
ENDBRANCH  31  33
ENDBRANCH  30  31
ENDBRANCH  29  30
ENDBRANCH  28  29
ENDBRANCH   1  28
TORSDOF 16
ENDMDL
MODEL 3
REMARK VINA RESULT:     -11.2      1.455      2.308
REMARK SMILES C[C@@]12CCC[C@](C)(C(=O)OCCOCCOC(=O)c3ccc(-c4c5nc(c(-c6ccccc6)c6ccc([nH]6)c(-c6ccccc6)c6nc(c(-c7ccccc7)c7ccc4[nH]7)C=C6)C=C5)cc3)[C@H]1CC[C@@]13C=C(CO)[C@@H](CC[C@@H]12)C3
REMARK SMILES IDX 13 1 12 2 11 3 10 4 8 5 9 6 6 7 1 8 2 9 3 10 67 11 78 12
REMARK SMILES IDX 4 13 68 14 70 15 77 16 5 17 7 18 69 19 71 20 79 21 76 22
REMARK SMILES IDX 72 23 75 24 73 25 74 26 14 28 15 29 16 30 17 31 18 32 19 33
REMARK SMILES IDX 20 34 66 35 21 36 65 37 22 38 23 39 24 40 59 41 25 42 64 43
REMARK SMILES IDX 58 44 60 45 26 46 63 47 57 48 56 49 27 51 49 52 34 53 48 54
REMARK SMILES IDX 35 55 38 56 47 57 61 58 36 59 37 60 46 62 62 63 39 64 28 65
REMARK SMILES IDX 29 66 33 67 30 68 32 69 31 70 50 71 51 72 55 73 52 74 54 75
REMARK SMILES IDX 53 76 40 77 41 78 45 79 42 80 44 81 43 82
REMARK H PARENT 74 27 60 50 38 61
REMARK Flexibility Score: inf
ROOT
ATOM      1  O   UNL A   1      37.480  22.713  25.718  1.00  0.00    -0.374 OA
ENDROOT
BRANCH   1   2
ATOM      2  C   UNL A   1      36.465  23.203  24.845  1.00  0.00     0.202 C 
BRANCH   2   3
ATOM      3  C   UNL A   1      35.539  22.189  24.176  1.00  0.00     0.261 C 
BRANCH   3   4
ATOM      4  O   UNL A   1      34.237  22.208  24.772  1.00  0.00    -0.463 OA
BRANCH   4   5
ATOM      5  C   UNL A   1      33.269  22.566  23.891  1.00  0.00     0.312 C 
ATOM      6  O   UNL A   1      33.262  22.236  22.710  1.00  0.00    -0.252 OA
BRANCH   5   7
ATOM      7  C   UNL A   1      32.278  23.562  24.480  1.00  0.00     0.069 C 
ATOM      8  C   UNL A   1      30.512  26.019  24.289  1.00  0.00     0.012 C 
ATOM      9  C   UNL A   1      31.600  25.898  25.415  1.00  0.00    -0.025 C 
ATOM     10  C   UNL A   1      31.019  25.190  26.663  1.00  0.00     0.007 C 
ATOM     11  C   UNL A   1      32.795  25.064  24.857  1.00  0.00     0.012 C 
ATOM     12  C   UNL A   1      31.916  27.366  25.812  1.00  0.00     0.005 C 
ATOM     13  C   UNL A   1      30.701  23.715  26.507  1.00  0.00     0.002 C 
ATOM     14  C   UNL A   1      33.636  25.911  23.854  1.00  0.00     0.006 C 
ATOM     15  C   UNL A   1      32.846  28.189  24.837  1.00  0.00    -0.008 C 
ATOM     16  C   UNL A   1      32.084  27.915  27.228  1.00  0.00     0.006 C 
ATOM     17  C   UNL A   1      31.836  22.950  25.847  1.00  0.00     0.019 C 
ATOM     18  C   UNL A   1      31.123  23.356  23.464  1.00  0.00     0.024 C 
ATOM     19  C   UNL A   1      34.022  27.334  24.373  1.00  0.00     0.012 C 
ATOM     20  C   UNL A   1      31.915  28.755  23.804  1.00  0.00    -0.018 C 
ATOM     21  C   UNL A   1      33.216  29.585  25.441  1.00  0.00     0.019 C 
ATOM     22  C   UNL A   1      31.458  29.357  27.140  1.00  0.00     0.008 C 
ATOM     23  C   UNL A   1      31.151  29.683  24.425  1.00  0.00    -0.045 C 
ATOM     24  C   UNL A   1      31.798  30.091  25.780  1.00  0.00     0.018 C 
BRANCH  23  25
ATOM     25  C   UNL A   1      29.862  30.197  23.876  1.00  0.00     0.187 C 
BRANCH  25  26
ATOM     26  O   UNL A   1      29.747  31.597  24.127  1.00  0.00    -0.392 OA
ATOM     27  H   UNL A   1      30.572  31.924  24.518  1.00  0.00     0.211 HD
ENDBRANCH  25  26
ENDBRANCH  23  25
ENDBRANCH   5   7
ENDBRANCH   4   5
ENDBRANCH   3   4
ENDBRANCH   2   3
ENDBRANCH   1   2
BRANCH   1  28
ATOM     28  C   UNL A   1      38.140  21.496  25.360  1.00  0.00     0.202 C 
BRANCH  28  29
ATOM     29  C   UNL A   1      39.549  21.291  25.914  1.00  0.00     0.261 C 
BRANCH  29  30
ATOM     30  O   UNL A   1      39.842  22.272  26.928  1.00  0.00    -0.460 OA
BRANCH  30  31
ATOM     31  C   UNL A   1      40.780  23.179  26.578  1.00  0.00     0.338 C 
ATOM     32  O   UNL A   1      41.706  23.022  25.795  1.00  0.00    -0.246 OA
BRANCH  31  33
ATOM     33  C   UNL A   1      40.412  24.508  27.105  1.00  0.00     0.060 A 
ATOM     34  C   UNL A   1      41.181  25.606  26.685  1.00  0.00     0.016 A 
ATOM     35  C   UNL A   1      39.386  24.673  28.035  1.00  0.00     0.016 A 
ATOM     36  C   UNL A   1      40.987  26.858  27.259  1.00  0.00     0.010 A 
ATOM     37  C   UNL A   1      39.205  25.928  28.625  1.00  0.00     0.010 A 
ATOM     38  C   UNL A   1      40.043  27.005  28.279  1.00  0.00    -0.014 A 
BRANCH  38  39
ATOM     39  C   UNL A   1      40.093  28.199  29.154  1.00  0.00     0.031 A 
ATOM     40  C   UNL A   1      41.186  28.270  30.186  1.00  0.00     0.074 A 
ATOM     41  C   UNL A   1      39.208  29.201  29.033  1.00  0.00     0.049 A 
ATOM     42  N   UNL A   1      41.364  29.136  31.149  1.00  0.00    -0.248 NA
ATOM     43  C   UNL A   1      42.213  27.216  30.126  1.00  0.00     0.031 C 
ATOM     44  C   UNL A   1      38.159  29.292  28.020  1.00  0.00     0.029 A 
ATOM     45  N   UNL A   1      39.049  30.335  29.790  1.00  0.00    -0.354 N 
ATOM     46  C   UNL A   1      42.504  28.715  31.825  1.00  0.00     0.074 A 
ATOM     47  C   UNL A   1      42.964  27.509  31.177  1.00  0.00     0.031 C 
ATOM     48  C   UNL A   1      37.448  30.414  28.232  1.00  0.00     0.029 A 
ATOM     49  C   UNL A   1      37.964  31.090  29.422  1.00  0.00     0.049 A 
ATOM     50  H   UNL A   1      39.655  30.583  30.526  1.00  0.00     0.167 HD
ATOM     51  C   UNL A   1      43.111  29.284  32.891  1.00  0.00     0.031 A 
ATOM     52  C   UNL A   1      37.426  32.180  30.004  1.00  0.00     0.031 A 
ATOM     53  C   UNL A   1      42.647  30.482  33.534  1.00  0.00     0.049 A 
ATOM     54  C   UNL A   1      38.060  32.740  31.252  1.00  0.00     0.074 A 
ATOM     55  C   UNL A   1      43.194  31.143  34.621  1.00  0.00     0.029 A 
ATOM     56  N   UNL A   1      41.523  31.196  33.152  1.00  0.00    -0.354 N 
ATOM     57  N   UNL A   1      39.132  32.332  31.890  1.00  0.00    -0.248 NA
ATOM     58  C   UNL A   1      37.411  33.911  31.861  1.00  0.00     0.031 C 
ATOM     59  C   UNL A   1      42.364  32.223  34.934  1.00  0.00     0.029 A 
ATOM     60  C   UNL A   1      41.344  32.277  33.996  1.00  0.00     0.049 A 
ATOM     61  H   UNL A   1      40.940  30.967  32.392  1.00  0.00     0.167 HD
ATOM     62  C   UNL A   1      39.310  33.223  32.943  1.00  0.00     0.074 A 
ATOM     63  C   UNL A   1      38.235  34.190  32.862  1.00  0.00     0.031 C 
ATOM     64  C   UNL A   1      40.282  33.243  33.886  1.00  0.00     0.031 A 
BRANCH  51  65
ATOM     65  C   UNL A   1      44.316  28.588  33.459  1.00  0.00    -0.014 A 
ATOM     66  C   UNL A   1      44.196  27.585  34.433  1.00  0.00     0.009 A 
ATOM     67  C   UNL A   1      45.595  28.921  32.983  1.00  0.00     0.009 A 
ATOM     68  C   UNL A   1      45.334  26.954  34.943  1.00  0.00     0.001 A 
ATOM     69  C   UNL A   1      46.727  28.268  33.470  1.00  0.00     0.001 A 
ATOM     70  C   UNL A   1      46.597  27.293  34.457  1.00  0.00     0.000 A 
ENDBRANCH  51  65
BRANCH  52  71
ATOM     71  C   UNL A   1      36.198  32.798  29.438  1.00  0.00    -0.014 A 
ATOM     72  C   UNL A   1      36.287  33.836  28.499  1.00  0.00     0.009 A 
ATOM     73  C   UNL A   1      34.927  32.367  29.853  1.00  0.00     0.009 A 
ATOM     74  C   UNL A   1      35.130  34.447  28.007  1.00  0.00     0.001 A 
ATOM     75  C   UNL A   1      33.773  32.957  29.337  1.00  0.00     0.001 A 
ATOM     76  C   UNL A   1      33.874  34.004  28.423  1.00  0.00     0.000 A 
ENDBRANCH  52  71
BRANCH  64  77
ATOM     77  C   UNL A   1      40.287  34.381  34.869  1.00  0.00    -0.014 A 
ATOM     78  C   UNL A   1      39.591  34.310  36.083  1.00  0.00     0.009 A 
ATOM     79  C   UNL A   1      41.088  35.506  34.608  1.00  0.00     0.009 A 
ATOM     80  C   UNL A   1      39.683  35.352  37.010  1.00  0.00     0.001 A 
ATOM     81  C   UNL A   1      41.203  36.530  35.547  1.00  0.00     0.001 A 
ATOM     82  C   UNL A   1      40.496  36.455  36.745  1.00  0.00     0.000 A 
ENDBRANCH  64  77
ENDBRANCH  38  39
ENDBRANCH  31  33
ENDBRANCH  30  31
ENDBRANCH  29  30
ENDBRANCH  28  29
ENDBRANCH   1  28
TORSDOF 16
ENDMDL
