MODEL 1
REMARK VINA RESULT:     -10.8      0.000      0.000
REMARK SMILES CCc1cccc2c3c([nH]c12)[C@](CC)(CC(=O)OCCOCCOC(=O)c1ccc(-c2c4nc(c(-c5ccccc5)c5ccc([nH]5)c(-c5ccccc5)c5nc(c(-c6ccccc6)c6ccc2[nH]6)C=C5)C=C4)cc1)OCC3
REMARK SMILES IDX 21 1 20 2 19 3 18 4 16 5 17 6 15 7 12 8 3 9 4 10 11 11 5 12
REMARK SMILES IDX 7 13 10 14 6 15 8 16 9 17 77 19 76 20 75 21 2 22 1 23 13 24
REMARK SMILES IDX 14 25 22 26 23 27 24 28 25 29 26 30 27 31 28 32 74 33 29 34
REMARK SMILES IDX 73 35 30 36 31 37 32 38 67 39 33 40 72 41 66 42 68 43 34 44
REMARK SMILES IDX 71 45 65 46 64 47 35 49 57 50 42 51 56 52 43 53 46 54 55 55
REMARK SMILES IDX 69 56 44 57 45 58 54 60 70 61 47 62 36 63 37 64 41 65 38 66
REMARK SMILES IDX 40 67 39 68 58 69 59 70 63 71 60 72 62 73 61 74 48 75 49 76
REMARK SMILES IDX 53 77 50 78 52 79 51 80
REMARK H PARENT 10 18 68 48 46 59
REMARK Flexibility Score: inf
ROOT
ATOM      1  O   UNL A   1      34.871  32.263  27.524  1.00  0.00    -0.374 OA
ENDROOT
BRANCH   1   2
ATOM      2  C   UNL A   1      34.051  31.174  27.925  1.00  0.00     0.202 C 
BRANCH   2   3
ATOM      3  C   UNL A   1      32.950  30.702  26.967  1.00  0.00     0.261 C 
BRANCH   3   4
ATOM      4  O   UNL A   1      32.512  29.340  27.151  1.00  0.00    -0.463 OA
BRANCH   4   5
ATOM      5  C   UNL A   1      33.068  28.459  26.293  1.00  0.00     0.309 C 
ATOM      6  O   UNL A   1      34.211  28.019  26.419  1.00  0.00    -0.252 OA
BRANCH   5   7
ATOM      7  C   UNL A   1      32.281  28.095  25.059  1.00  0.00     0.164 C 
BRANCH   7   8
ATOM      8  C   UNL A   1      31.703  26.730  24.647  1.00  0.00     0.118 C 
ATOM      9  C   UNL A   1      35.269  23.260  25.619  1.00  0.00    -0.024 A 
ATOM     10  C   UNL A   1      35.292  22.163  26.505  1.00  0.00     0.006 A 
ATOM     11  C   UNL A   1      34.051  23.977  25.570  1.00  0.00     0.049 A 
ATOM     12  C   UNL A   1      34.156  21.738  27.191  1.00  0.00     0.001 A 
ATOM     13  C   UNL A   1      32.885  23.542  26.208  1.00  0.00     0.003 A 
ATOM     14  N   UNL A   1      33.737  25.168  24.934  1.00  0.00    -0.356 N 
ATOM     15  C   UNL A   1      32.935  22.386  27.009  1.00  0.00     0.010 A 
ATOM     16  C   UNL A   1      31.861  24.461  25.860  1.00  0.00    -0.014 A 
ATOM     17  C   UNL A   1      32.429  25.512  25.174  1.00  0.00     0.052 A 
ATOM     18  H   UNL A   1      34.364  25.694  24.388  1.00  0.00     0.166 HD
ATOM     19  C   UNL A   1      30.407  24.447  26.131  1.00  0.00     0.066 C 
ATOM     20  C   UNL A   1      29.903  25.893  26.111  1.00  0.00     0.166 C 
ATOM     21  O   UNL A   1      30.288  26.622  24.940  1.00  0.00    -0.368 OA
BRANCH   9  22
ATOM     22  C   UNL A   1      36.471  23.650  24.790  1.00  0.00     0.034 C 
ATOM     23  C   UNL A   1      36.916  22.637  23.739  1.00  0.00     0.009 C 
ENDBRANCH   9  22
BRANCH   8  24
ATOM     24  C   UNL A   1      31.760  26.657  23.081  1.00  0.00     0.039 C 
ATOM     25  C   UNL A   1      32.783  27.585  22.424  1.00  0.00     0.007 C 
ENDBRANCH   8  24
ENDBRANCH   7   8
ENDBRANCH   5   7
ENDBRANCH   4   5
ENDBRANCH   3   4
ENDBRANCH   2   3
ENDBRANCH   1   2
BRANCH   1  26
ATOM     26  C   UNL A   1      34.585  33.550  28.080  1.00  0.00     0.202 C 
BRANCH  26  27
ATOM     27  C   UNL A   1      34.984  33.772  29.542  1.00  0.00     0.261 C 
BRANCH  27  28
ATOM     28  O   UNL A   1      36.190  33.051  29.840  1.00  0.00    -0.460 OA
BRANCH  28  29
ATOM     29  C   UNL A   1      36.042  32.082  30.777  1.00  0.00     0.338 C 
ATOM     30  O   UNL A   1      35.114  31.916  31.549  1.00  0.00    -0.246 OA
BRANCH  29  31
ATOM     31  C   UNL A   1      36.963  31.026  30.333  1.00  0.00     0.060 A 
ATOM     32  C   UNL A   1      36.737  29.682  30.633  1.00  0.00     0.016 A 
ATOM     33  C   UNL A   1      38.216  31.481  29.909  1.00  0.00     0.016 A 
ATOM     34  C   UNL A   1      37.813  28.805  30.625  1.00  0.00     0.010 A 
ATOM     35  C   UNL A   1      39.289  30.608  29.914  1.00  0.00     0.010 A 
ATOM     36  C   UNL A   1      39.096  29.284  30.323  1.00  0.00    -0.014 A 
BRANCH  36  37
ATOM     37  C   UNL A   1      40.201  28.328  30.293  1.00  0.00     0.031 A 
ATOM     38  C   UNL A   1      40.974  28.252  31.559  1.00  0.00     0.074 A 
ATOM     39  C   UNL A   1      40.401  27.425  29.310  1.00  0.00     0.049 A 
ATOM     40  N   UNL A   1      42.253  28.313  31.729  1.00  0.00    -0.248 NA
ATOM     41  C   UNL A   1      40.196  28.144  32.806  1.00  0.00     0.031 C 
ATOM     42  C   UNL A   1      39.490  27.144  28.199  1.00  0.00     0.029 A 
ATOM     43  N   UNL A   1      41.377  26.473  29.168  1.00  0.00    -0.354 N 
ATOM     44  C   UNL A   1      42.453  28.078  33.086  1.00  0.00     0.074 A 
ATOM     45  C   UNL A   1      41.162  28.125  33.720  1.00  0.00     0.031 C 
ATOM     46  C   UNL A   1      39.826  25.966  27.635  1.00  0.00     0.029 A 
ATOM     47  C   UNL A   1      41.042  25.474  28.263  1.00  0.00     0.049 A 
ATOM     48  H   UNL A   1      42.230  26.494  29.659  1.00  0.00     0.167 HD
ATOM     49  C   UNL A   1      43.628  27.594  33.566  1.00  0.00     0.031 A 
ATOM     50  C   UNL A   1      41.653  24.282  28.075  1.00  0.00     0.031 A 
ATOM     51  C   UNL A   1      44.716  27.755  32.645  1.00  0.00     0.049 A 
ATOM     52  C   UNL A   1      43.029  24.332  28.610  1.00  0.00     0.074 A 
ATOM     53  C   UNL A   1      45.604  28.747  32.302  1.00  0.00     0.029 A 
ATOM     54  N   UNL A   1      44.809  26.773  31.700  1.00  0.00    -0.354 N 
ATOM     55  N   UNL A   1      43.971  25.086  28.121  1.00  0.00    -0.248 NA
ATOM     56  C   UNL A   1      43.335  23.698  29.888  1.00  0.00     0.031 C 
ATOM     57  C   UNL A   1      46.144  28.385  31.034  1.00  0.00     0.029 A 
ATOM     58  C   UNL A   1      45.568  27.183  30.633  1.00  0.00     0.049 A 
ATOM     59  H   UNL A   1      44.387  25.886  31.774  1.00  0.00     0.167 HD
ATOM     60  C   UNL A   1      44.796  25.342  29.197  1.00  0.00     0.074 A 
ATOM     61  C   UNL A   1      44.468  24.334  30.193  1.00  0.00     0.031 C 
ATOM     62  C   UNL A   1      45.412  26.547  29.342  1.00  0.00     0.031 A 
BRANCH  49  63
ATOM     63  C   UNL A   1      43.697  26.579  34.681  1.00  0.00    -0.014 A 
ATOM     64  C   UNL A   1      42.935  25.394  34.694  1.00  0.00     0.009 A 
ATOM     65  C   UNL A   1      44.755  26.657  35.603  1.00  0.00     0.009 A 
ATOM     66  C   UNL A   1      43.197  24.350  35.585  1.00  0.00     0.001 A 
ATOM     67  C   UNL A   1      45.047  25.597  36.469  1.00  0.00     0.001 A 
ATOM     68  C   UNL A   1      44.267  24.445  36.461  1.00  0.00     0.000 A 
ENDBRANCH  49  63
BRANCH  50  69
ATOM     69  C   UNL A   1      41.026  23.009  27.660  1.00  0.00    -0.014 A 
ATOM     70  C   UNL A   1      41.638  21.783  27.983  1.00  0.00     0.009 A 
ATOM     71  C   UNL A   1      39.968  22.991  26.739  1.00  0.00     0.009 A 
ATOM     72  C   UNL A   1      41.227  20.586  27.391  1.00  0.00     0.001 A 
ATOM     73  C   UNL A   1      39.561  21.792  26.139  1.00  0.00     0.001 A 
ATOM     74  C   UNL A   1      40.199  20.593  26.456  1.00  0.00     0.000 A 
ENDBRANCH  50  69
BRANCH  62  75
ATOM     75  C   UNL A   1      45.693  27.361  28.115  1.00  0.00    -0.014 A 
ATOM     76  C   UNL A   1      46.916  27.159  27.455  1.00  0.00     0.009 A 
ATOM     77  C   UNL A   1      44.843  28.378  27.655  1.00  0.00     0.009 A 
ATOM     78  C   UNL A   1      47.288  27.960  26.375  1.00  0.00     0.001 A 
ATOM     79  C   UNL A   1      45.205  29.165  26.557  1.00  0.00     0.001 A 
ATOM     80  C   UNL A   1      46.431  28.962  25.925  1.00  0.00     0.000 A 
ENDBRANCH  62  75
ENDBRANCH  36  37
ENDBRANCH  29  31
ENDBRANCH  28  29
ENDBRANCH  27  28
ENDBRANCH  26  27
ENDBRANCH   1  26
TORSDOF 17
ENDMDL
MODEL 2
REMARK VINA RESULT:     -10.8      1.361      2.122
REMARK SMILES CCc1cccc2c3c([nH]c12)[C@](CC)(CC(=O)OCCOCCOC(=O)c1ccc(-c2c4nc(c(-c5ccccc5)c5ccc([nH]5)c(-c5ccccc5)c5nc(c(-c6ccccc6)c6ccc2[nH]6)C=C5)C=C4)cc1)OCC3
REMARK SMILES IDX 21 1 20 2 19 3 18 4 16 5 17 6 15 7 12 8 3 9 4 10 11 11 5 12
REMARK SMILES IDX 7 13 10 14 6 15 8 16 9 17 77 19 76 20 75 21 2 22 1 23 13 24
REMARK SMILES IDX 14 25 22 26 23 27 24 28 25 29 26 30 27 31 28 32 74 33 29 34
REMARK SMILES IDX 73 35 30 36 31 37 32 38 67 39 33 40 72 41 66 42 68 43 34 44
REMARK SMILES IDX 71 45 65 46 64 47 35 49 57 50 42 51 56 52 43 53 46 54 55 55
REMARK SMILES IDX 69 56 44 57 45 58 54 60 70 61 47 62 36 63 37 64 41 65 38 66
REMARK SMILES IDX 40 67 39 68 58 69 59 70 63 71 60 72 62 73 61 74 48 75 49 76
REMARK SMILES IDX 53 77 50 78 52 79 51 80
REMARK H PARENT 10 18 68 48 46 59
REMARK Flexibility Score: inf
ROOT
ATOM      1  O   UNL A   1      33.161  28.979  27.462  1.00  0.00    -0.374 OA
ENDROOT
BRANCH   1   2
ATOM      2  C   UNL A   1      32.723  28.020  26.509  1.00  0.00     0.202 C 
BRANCH   2   3
ATOM      3  C   UNL A   1      31.977  28.518  25.266  1.00  0.00     0.261 C 
BRANCH   3   4
ATOM      4  O   UNL A   1      32.810  29.044  24.213  1.00  0.00    -0.463 OA
BRANCH   4   5
ATOM      5  C   UNL A   1      32.468  28.629  22.975  1.00  0.00     0.309 C 
ATOM      6  O   UNL A   1      31.620  29.192  22.282  1.00  0.00    -0.252 OA
BRANCH   5   7
ATOM      7  C   UNL A   1      33.076  27.342  22.478  1.00  0.00     0.164 C 
BRANCH   7   8
ATOM      8  C   UNL A   1      32.523  25.910  22.574  1.00  0.00     0.118 C 
ATOM      9  C   UNL A   1      35.439  23.416  25.887  1.00  0.00    -0.024 A 
ATOM     10  C   UNL A   1      35.147  22.831  27.137  1.00  0.00     0.006 A 
ATOM     11  C   UNL A   1      34.334  23.975  25.204  1.00  0.00     0.049 A 
ATOM     12  C   UNL A   1      33.843  22.700  27.609  1.00  0.00     0.001 A 
ATOM     13  C   UNL A   1      33.013  23.813  25.632  1.00  0.00     0.003 A 
ATOM     14  N   UNL A   1      34.287  24.741  24.050  1.00  0.00    -0.356 N 
ATOM     15  C   UNL A   1      32.764  23.138  26.843  1.00  0.00     0.010 A 
ATOM     16  C   UNL A   1      32.187  24.429  24.657  1.00  0.00    -0.014 A 
ATOM     17  C   UNL A   1      32.992  25.091  23.756  1.00  0.00     0.052 A 
ATOM     18  H   UNL A   1      35.073  24.999  23.516  1.00  0.00     0.166 HD
ATOM     19  C   UNL A   1      30.716  24.465  24.508  1.00  0.00     0.066 C 
ATOM     20  C   UNL A   1      30.346  25.725  23.719  1.00  0.00     0.166 C 
ATOM     21  O   UNL A   1      31.076  25.874  22.496  1.00  0.00    -0.368 OA
BRANCH   9  22
ATOM     22  C   UNL A   1      36.841  23.455  25.324  1.00  0.00     0.034 C 
ATOM     23  C   UNL A   1      37.504  22.101  25.085  1.00  0.00     0.009 C 
ENDBRANCH   9  22
BRANCH   8  24
ATOM     24  C   UNL A   1      32.979  25.150  21.278  1.00  0.00     0.039 C 
ATOM     25  C   UNL A   1      32.396  25.687  19.971  1.00  0.00     0.007 C 
ENDBRANCH   8  24
ENDBRANCH   7   8
ENDBRANCH   5   7
ENDBRANCH   4   5
ENDBRANCH   3   4
ENDBRANCH   2   3
ENDBRANCH   1   2
BRANCH   1  26
ATOM     26  C   UNL A   1      32.733  30.334  27.286  1.00  0.00     0.202 C 
BRANCH  26  27
ATOM     27  C   UNL A   1      33.740  31.427  27.657  1.00  0.00     0.261 C 
BRANCH  27  28
ATOM     28  O   UNL A   1      35.046  30.856  27.835  1.00  0.00    -0.460 OA
BRANCH  28  29
ATOM     29  C   UNL A   1      36.015  31.760  28.123  1.00  0.00     0.338 C 
ATOM     30  O   UNL A   1      35.925  32.975  28.154  1.00  0.00    -0.246 OA
BRANCH  29  31
ATOM     31  C   UNL A   1      37.018  30.974  28.852  1.00  0.00     0.060 A 
ATOM     32  C   UNL A   1      38.257  31.511  29.204  1.00  0.00     0.016 A 
ATOM     33  C   UNL A   1      36.791  29.594  28.858  1.00  0.00     0.016 A 
ATOM     34  C   UNL A   1      39.317  30.648  29.447  1.00  0.00     0.010 A 
ATOM     35  C   UNL A   1      37.852  28.735  29.089  1.00  0.00     0.010 A 
ATOM     36  C   UNL A   1      39.124  29.264  29.330  1.00  0.00    -0.014 A 
BRANCH  36  37
ATOM     37  C   UNL A   1      40.252  28.382  29.622  1.00  0.00     0.031 A 
ATOM     38  C   UNL A   1      40.632  28.335  31.058  1.00  0.00     0.074 A 
ATOM     39  C   UNL A   1      40.785  27.509  28.742  1.00  0.00     0.049 A 
ATOM     40  N   UNL A   1      41.801  28.476  31.589  1.00  0.00    -0.248 NA
ATOM     41  C   UNL A   1      39.538  28.158  32.029  1.00  0.00     0.031 C 
ATOM     42  C   UNL A   1      40.253  27.188  27.417  1.00  0.00     0.029 A 
ATOM     43  N   UNL A   1      41.821  26.624  28.890  1.00  0.00    -0.354 N 
ATOM     44  C   UNL A   1      41.618  28.233  32.947  1.00  0.00     0.074 A 
ATOM     45  C   UNL A   1      40.199  28.187  33.182  1.00  0.00     0.031 C 
ATOM     46  C   UNL A   1      40.814  26.043  26.977  1.00  0.00     0.029 A 
ATOM     47  C   UNL A   1      41.827  25.620  27.930  1.00  0.00     0.049 A 
ATOM     48  H   UNL A   1      42.495  26.693  29.605  1.00  0.00     0.167 HD
ATOM     49  C   UNL A   1      42.635  27.818  33.745  1.00  0.00     0.031 A 
ATOM     50  C   UNL A   1      42.545  24.473  27.930  1.00  0.00     0.031 A 
ATOM     51  C   UNL A   1      43.928  28.063  33.176  1.00  0.00     0.049 A 
ATOM     52  C   UNL A   1      43.702  24.603  28.838  1.00  0.00     0.074 A 
ATOM     53  C   UNL A   1      44.810  29.115  33.101  1.00  0.00     0.029 A 
ATOM     54  N   UNL A   1      44.354  27.104  32.301  1.00  0.00    -0.354 N 
ATOM     55  N   UNL A   1      44.692  25.424  28.638  1.00  0.00    -0.248 NA
ATOM     56  C   UNL A   1      43.670  23.970  30.152  1.00  0.00     0.031 C 
ATOM     57  C   UNL A   1      45.714  28.809  32.042  1.00  0.00     0.029 A 
ATOM     58  C   UNL A   1      45.358  27.579  31.496  1.00  0.00     0.049 A 
ATOM     59  H   UNL A   1      43.988  26.191  32.253  1.00  0.00     0.167 HD
ATOM     60  C   UNL A   1      45.155  25.715  29.905  1.00  0.00     0.074 A 
ATOM     61  C   UNL A   1      44.623  24.672  30.768  1.00  0.00     0.031 C 
ATOM     62  C   UNL A   1      45.623  26.955  30.217  1.00  0.00     0.031 A 
BRANCH  49  63
ATOM     63  C   UNL A   1      42.448  26.792  34.837  1.00  0.00    -0.014 A 
ATOM     64  C   UNL A   1      41.954  27.109  36.118  1.00  0.00     0.009 A 
ATOM     65  C   UNL A   1      42.492  25.429  34.499  1.00  0.00     0.009 A 
ATOM     66  C   UNL A   1      41.542  26.126  37.022  1.00  0.00     0.001 A 
ATOM     67  C   UNL A   1      42.041  24.443  35.386  1.00  0.00     0.001 A 
ATOM     68  C   UNL A   1      41.567  24.792  36.647  1.00  0.00     0.000 A 
ENDBRANCH  49  63
BRANCH  50  69
ATOM     69  C   UNL A   1      42.149  23.169  27.356  1.00  0.00    -0.014 A 
ATOM     70  C   UNL A   1      40.879  22.631  27.636  1.00  0.00     0.009 A 
ATOM     71  C   UNL A   1      43.093  22.334  26.740  1.00  0.00     0.009 A 
ATOM     72  C   UNL A   1      40.569  21.301  27.338  1.00  0.00     0.001 A 
ATOM     73  C   UNL A   1      42.786  20.999  26.447  1.00  0.00     0.001 A 
ATOM     74  C   UNL A   1      41.529  20.481  26.757  1.00  0.00     0.000 A 
ENDBRANCH  50  69
BRANCH  62  75
ATOM     75  C   UNL A   1      46.189  27.805  29.120  1.00  0.00    -0.014 A 
ATOM     76  C   UNL A   1      45.372  28.806  28.572  1.00  0.00     0.009 A 
ATOM     77  C   UNL A   1      47.452  27.585  28.550  1.00  0.00     0.009 A 
ATOM     78  C   UNL A   1      45.795  29.557  27.476  1.00  0.00     0.001 A 
ATOM     79  C   UNL A   1      47.887  28.354  27.467  1.00  0.00     0.001 A 
ATOM     80  C   UNL A   1      47.055  29.332  26.924  1.00  0.00     0.000 A 
ENDBRANCH  62  75
ENDBRANCH  36  37
ENDBRANCH  29  31
ENDBRANCH  28  29
ENDBRANCH  27  28
ENDBRANCH  26  27
ENDBRANCH   1  26
TORSDOF 17
ENDMDL
MODEL 3
REMARK VINA RESULT:     -10.8      3.841      8.618
REMARK SMILES CCc1cccc2c3c([nH]c12)[C@](CC)(CC(=O)OCCOCCOC(=O)c1ccc(-c2c4nc(c(-c5ccccc5)c5ccc([nH]5)c(-c5ccccc5)c5nc(c(-c6ccccc6)c6ccc2[nH]6)C=C5)C=C4)cc1)OCC3
REMARK SMILES IDX 21 1 20 2 19 3 18 4 16 5 17 6 15 7 12 8 3 9 4 10 11 11 5 12
REMARK SMILES IDX 7 13 10 14 6 15 8 16 9 17 77 19 76 20 75 21 2 22 1 23 13 24
REMARK SMILES IDX 14 25 22 26 23 27 24 28 25 29 26 30 27 31 28 32 74 33 29 34
REMARK SMILES IDX 73 35 30 36 31 37 32 38 67 39 33 40 72 41 66 42 68 43 34 44
REMARK SMILES IDX 71 45 65 46 64 47 35 49 57 50 42 51 56 52 43 53 46 54 55 55
REMARK SMILES IDX 69 56 44 57 45 58 54 60 70 61 47 62 36 63 37 64 41 65 38 66
REMARK SMILES IDX 40 67 39 68 58 69 59 70 63 71 60 72 62 73 61 74 48 75 49 76
REMARK SMILES IDX 53 77 50 78 52 79 51 80
REMARK H PARENT 10 18 68 48 46 59
REMARK Flexibility Score: inf
ROOT
ATOM      1  O   UNL A   1      37.538  22.630  25.944  1.00  0.00    -0.374 OA
ENDROOT
BRANCH   1   2
ATOM      2  C   UNL A   1      37.205  23.605  24.966  1.00  0.00     0.202 C 
BRANCH   2   3
ATOM      3  C   UNL A   1      35.858  23.478  24.242  1.00  0.00     0.261 C 
BRANCH   3   4
ATOM      4  O   UNL A   1      35.327  22.141  24.155  1.00  0.00    -0.463 OA
BRANCH   4   5
ATOM      5  C   UNL A   1      34.328  21.883  25.026  1.00  0.00     0.309 C 
ATOM      6  O   UNL A   1      33.915  20.748  25.269  1.00  0.00    -0.252 OA
BRANCH   5   7
ATOM      7  C   UNL A   1      33.613  23.063  25.635  1.00  0.00     0.164 C 
BRANCH   7   8
ATOM      8  C   UNL A   1      32.125  23.442  25.550  1.00  0.00     0.118 C 
ATOM      9  C   UNL A   1      31.858  28.489  25.928  1.00  0.00    -0.024 A 
ATOM     10  C   UNL A   1      31.409  29.474  25.024  1.00  0.00     0.006 A 
ATOM     11  C   UNL A   1      31.714  27.152  25.492  1.00  0.00     0.049 A 
ATOM     12  C   UNL A   1      30.754  29.150  23.838  1.00  0.00     0.001 A 
ATOM     13  C   UNL A   1      31.017  26.800  24.332  1.00  0.00     0.003 A 
ATOM     14  N   UNL A   1      32.176  25.971  26.053  1.00  0.00    -0.356 N 
ATOM     15  C   UNL A   1      30.504  27.819  23.507  1.00  0.00     0.010 A 
ATOM     16  C   UNL A   1      31.008  25.383  24.273  1.00  0.00    -0.014 A 
ATOM     17  C   UNL A   1      31.822  24.897  25.274  1.00  0.00     0.052 A 
ATOM     18  H   UNL A   1      32.687  25.912  26.892  1.00  0.00     0.166 HD
ATOM     19  C   UNL A   1      30.321  24.450  23.353  1.00  0.00     0.066 C 
ATOM     20  C   UNL A   1      31.116  23.141  23.319  1.00  0.00     0.166 C 
ATOM     21  O   UNL A   1      31.398  22.604  24.616  1.00  0.00    -0.368 OA
BRANCH   9  22
ATOM     22  C   UNL A   1      32.465  28.842  27.266  1.00  0.00     0.034 C 
ATOM     23  C   UNL A   1      33.985  28.746  27.358  1.00  0.00     0.009 C 
ENDBRANCH   9  22
BRANCH   8  24
ATOM     24  C   UNL A   1      31.478  23.092  26.936  1.00  0.00     0.039 C 
ATOM     25  C   UNL A   1      29.957  22.939  26.924  1.00  0.00     0.007 C 
ENDBRANCH   8  24
ENDBRANCH   7   8
ENDBRANCH   5   7
ENDBRANCH   4   5
ENDBRANCH   3   4
ENDBRANCH   2   3
ENDBRANCH   1   2
BRANCH   1  26
ATOM     26  C   UNL A   1      38.520  21.648  25.596  1.00  0.00     0.202 C 
BRANCH  26  27
ATOM     27  C   UNL A   1      39.851  21.709  26.353  1.00  0.00     0.261 C 
BRANCH  27  28
ATOM     28  O   UNL A   1      40.239  23.076  26.563  1.00  0.00    -0.460 OA
BRANCH  28  29
ATOM     29  C   UNL A   1      40.815  23.312  27.767  1.00  0.00     0.338 C 
ATOM     30  O   UNL A   1      41.408  22.527  28.485  1.00  0.00    -0.246 OA
BRANCH  29  31
ATOM     31  C   UNL A   1      41.002  24.769  27.782  1.00  0.00     0.060 A 
ATOM     32  C   UNL A   1      42.018  25.371  28.526  1.00  0.00     0.016 A 
ATOM     33  C   UNL A   1      39.915  25.505  27.300  1.00  0.00     0.016 A 
ATOM     34  C   UNL A   1      41.881  26.702  28.895  1.00  0.00     0.010 A 
ATOM     35  C   UNL A   1      39.773  26.829  27.678  1.00  0.00     0.010 A 
ATOM     36  C   UNL A   1      40.730  27.409  28.518  1.00  0.00    -0.014 A 
BRANCH  36  37
ATOM     37  C   UNL A   1      40.630  28.818  28.895  1.00  0.00     0.031 A 
ATOM     38  C   UNL A   1      41.859  29.608  28.628  1.00  0.00     0.074 A 
ATOM     39  C   UNL A   1      39.483  29.433  29.250  1.00  0.00     0.049 A 
ATOM     40  N   UNL A   1      42.500  30.398  29.423  1.00  0.00    -0.248 NA
ATOM     41  C   UNL A   1      42.479  29.443  27.301  1.00  0.00     0.031 C 
ATOM     42  C   UNL A   1      38.139  28.855  29.182  1.00  0.00     0.029 A 
ATOM     43  N   UNL A   1      39.249  30.735  29.608  1.00  0.00    -0.354 N 
ATOM     44  C   UNL A   1      43.505  30.966  28.645  1.00  0.00     0.074 A 
ATOM     45  C   UNL A   1      43.538  30.242  27.401  1.00  0.00     0.031 C 
ATOM     46  C   UNL A   1      37.225  29.845  29.264  1.00  0.00     0.029 A 
ATOM     47  C   UNL A   1      37.914  31.101  29.511  1.00  0.00     0.049 A 
ATOM     48  H   UNL A   1      39.959  31.351  29.903  1.00  0.00     0.167 HD
ATOM     49  C   UNL A   1      44.067  32.161  28.957  1.00  0.00     0.031 A 
ATOM     50  C   UNL A   1      37.386  32.347  29.549  1.00  0.00     0.031 A 
ATOM     51  C   UNL A   1      43.843  32.545  30.321  1.00  0.00     0.049 A 
ATOM     52  C   UNL A   1      38.339  33.277  30.186  1.00  0.00     0.074 A 
ATOM     53  C   UNL A   1      44.417  32.290  31.544  1.00  0.00     0.029 A 
ATOM     54  N   UNL A   1      42.644  33.159  30.548  1.00  0.00    -0.354 N 
ATOM     55  N   UNL A   1      38.698  33.206  31.435  1.00  0.00    -0.248 NA
ATOM     56  C   UNL A   1      39.119  34.196  29.362  1.00  0.00     0.031 C 
ATOM     57  C   UNL A   1      43.451  32.654  32.527  1.00  0.00     0.029 A 
ATOM     58  C   UNL A   1      42.311  33.119  31.879  1.00  0.00     0.049 A 
ATOM     59  H   UNL A   1      42.090  33.576  29.849  1.00  0.00     0.167 HD
ATOM     60  C   UNL A   1      39.970  33.741  31.456  1.00  0.00     0.074 A 
ATOM     61  C   UNL A   1      40.103  34.489  30.215  1.00  0.00     0.031 C 
ATOM     62  C   UNL A   1      40.929  33.249  32.288  1.00  0.00     0.031 A 
BRANCH  49  63
ATOM     63  C   UNL A   1      44.437  33.187  27.913  1.00  0.00    -0.014 A 
ATOM     64  C   UNL A   1      45.624  33.124  27.156  1.00  0.00     0.009 A 
ATOM     65  C   UNL A   1      43.451  34.082  27.464  1.00  0.00     0.009 A 
ATOM     66  C   UNL A   1      45.829  33.918  26.025  1.00  0.00     0.001 A 
ATOM     67  C   UNL A   1      43.635  34.850  26.308  1.00  0.00     0.001 A 
ATOM     68  C   UNL A   1      44.824  34.768  25.589  1.00  0.00     0.000 A 
ENDBRANCH  49  63
BRANCH  50  69
ATOM     69  C   UNL A   1      36.179  32.830  28.845  1.00  0.00    -0.014 A 
ATOM     70  C   UNL A   1      35.838  34.196  28.886  1.00  0.00     0.009 A 
ATOM     71  C   UNL A   1      35.227  31.932  28.342  1.00  0.00     0.009 A 
ATOM     72  C   UNL A   1      34.584  34.646  28.466  1.00  0.00     0.001 A 
ATOM     73  C   UNL A   1      33.966  32.382  27.927  1.00  0.00     0.001 A 
ATOM     74  C   UNL A   1      33.642  33.736  28.001  1.00  0.00     0.000 A 
ENDBRANCH  50  69
BRANCH  62  75
ATOM     75  C   UNL A   1      40.501  32.573  33.555  1.00  0.00    -0.014 A 
ATOM     76  C   UNL A   1      40.271  33.375  34.685  1.00  0.00     0.009 A 
ATOM     77  C   UNL A   1      40.415  31.180  33.694  1.00  0.00     0.009 A 
ATOM     78  C   UNL A   1      39.980  32.802  35.923  1.00  0.00     0.001 A 
ATOM     79  C   UNL A   1      40.099  30.607  34.930  1.00  0.00     0.001 A 
ATOM     80  C   UNL A   1      39.892  31.417  36.045  1.00  0.00     0.000 A 
ENDBRANCH  62  75
ENDBRANCH  36  37
ENDBRANCH  29  31
ENDBRANCH  28  29
ENDBRANCH  27  28
ENDBRANCH  26  27
ENDBRANCH   1  26
TORSDOF 17
ENDMDL
