MODEL 1
REMARK VINA RESULT:     -10.2      0.000      0.000
REMARK SMILES CCCC[C@H](C(=O)OCCOCCOC(=O)c1ccc(-c2c3nc(c(-c4ccccc4)c4ccc([nH]4)c(-c4ccccc4)c4nc(c(-c5ccccc5)c5ccc2[nH]5)C=C4)C=C3)cc1)N1C(=O)[C@H]2[C@@H]3C=C[C@@H]([C@@H]4C[C@H]34)[C@@H]2C1=O
REMARK SMILES IDX 10 1 9 2 8 3 6 4 7 5 5 6 4 7 3 8 2 9 1 10 65 11 66 12 77 13
REMARK SMILES IDX 67 14 68 15 76 16 78 17 69 18 72 19 70 20 75 21 71 22 73 23
REMARK SMILES IDX 74 24 11 25 12 26 13 27 14 28 15 29 16 30 17 31 18 32 64 33
REMARK SMILES IDX 19 34 63 35 20 36 21 37 22 38 57 39 23 40 62 41 56 42 58 43
REMARK SMILES IDX 24 44 61 45 55 46 54 47 25 49 47 50 32 51 46 52 33 53 36 54
REMARK SMILES IDX 45 55 59 56 34 57 35 58 44 60 60 61 37 62 26 63 27 64 31 65
REMARK SMILES IDX 28 66 30 67 29 68 48 69 49 70 53 71 50 72 52 73 51 74 38 75
REMARK SMILES IDX 39 76 43 77 40 78 42 79 41 80
REMARK H PARENT 58 48 36 59
REMARK Flexibility Score: inf
ROOT
ATOM      1  C   UNL A   1      34.480  29.725  27.375  1.00  0.00     0.202 C 
ENDROOT
BRANCH   1   2
ATOM      2  C   UNL A   1      33.624  29.031  26.320  1.00  0.00     0.261 C 
BRANCH   2   3
ATOM      3  O   UNL A   1      33.220  27.720  26.745  1.00  0.00    -0.462 OA
BRANCH   3   4
ATOM      4  C   UNL A   1      31.886  27.553  26.957  1.00  0.00     0.329 C 
ATOM      5  O   UNL A   1      31.301  27.927  27.967  1.00  0.00    -0.250 OA
BRANCH   4   6
ATOM      6  C   UNL A   1      31.252  26.666  25.870  1.00  0.00     0.203 C 
BRANCH   6   7
ATOM      7  C   UNL A   1      30.988  27.551  24.629  1.00  0.00     0.038 C 
BRANCH   7   8
ATOM      8  C   UNL A   1      29.805  27.152  23.742  1.00  0.00     0.002 C 
BRANCH   8   9
ATOM      9  C   UNL A   1      29.054  28.311  23.086  1.00  0.00    -0.003 C 
ATOM     10  C   UNL A   1      29.956  29.249  22.300  1.00  0.00     0.004 C 
ENDBRANCH   8   9
ENDBRANCH   7   8
ENDBRANCH   6   7
BRANCH   6  11
ATOM     11  N   UNL A   1      31.964  25.404  25.607  1.00  0.00    -0.268 N 
ATOM     12  C   UNL A   1      32.880  25.225  24.558  1.00  0.00     0.234 C 
ATOM     13  C   UNL A   1      31.988  24.288  26.457  1.00  0.00     0.234 C 
ATOM     14  O   UNL A   1      33.282  26.032  23.743  1.00  0.00    -0.274 OA
ATOM     15  C   UNL A   1      33.246  23.772  24.651  1.00  0.00     0.099 C 
ATOM     16  C   UNL A   1      33.341  23.720  26.180  1.00  0.00     0.099 C 
ATOM     17  O   UNL A   1      31.184  23.911  27.284  1.00  0.00    -0.274 OA
ATOM     18  C   UNL A   1      34.367  22.931  24.024  1.00  0.00     0.028 C 
ATOM     19  C   UNL A   1      34.131  22.489  26.599  1.00  0.00     0.028 C 
ATOM     20  C   UNL A   1      33.896  21.498  24.400  1.00  0.00    -0.026 C 
ATOM     21  C   UNL A   1      35.732  23.075  24.698  1.00  0.00     0.001 C 
ATOM     22  C   UNL A   1      33.732  21.298  25.727  1.00  0.00    -0.026 C 
ATOM     23  C   UNL A   1      35.621  22.825  26.208  1.00  0.00     0.001 C 
ATOM     24  C   UNL A   1      36.158  24.147  25.652  1.00  0.00     0.009 C 
ENDBRANCH   6  11
ENDBRANCH   4   6
ENDBRANCH   3   4
ENDBRANCH   2   3
ENDBRANCH   1   2
BRANCH   1  25
ATOM     25  O   UNL A   1      34.037  31.019  27.771  1.00  0.00    -0.374 OA
BRANCH  25  26
ATOM     26  C   UNL A   1      32.755  31.443  27.296  1.00  0.00     0.202 C 
BRANCH  26  27
ATOM     27  C   UNL A   1      32.566  32.960  27.203  1.00  0.00     0.261 C 
BRANCH  27  28
ATOM     28  O   UNL A   1      32.360  33.525  28.513  1.00  0.00    -0.460 OA
BRANCH  28  29
ATOM     29  C   UNL A   1      33.132  34.604  28.786  1.00  0.00     0.338 C 
ATOM     30  O   UNL A   1      32.817  35.779  28.702  1.00  0.00    -0.246 OA
BRANCH  29  31
ATOM     31  C   UNL A   1      34.396  34.174  29.414  1.00  0.00     0.060 A 
ATOM     32  C   UNL A   1      35.565  34.287  28.651  1.00  0.00     0.016 A 
ATOM     33  C   UNL A   1      34.429  33.589  30.681  1.00  0.00     0.016 A 
ATOM     34  C   UNL A   1      36.767  33.775  29.134  1.00  0.00     0.010 A 
ATOM     35  C   UNL A   1      35.635  33.061  31.158  1.00  0.00     0.010 A 
ATOM     36  C   UNL A   1      36.802  33.122  30.374  1.00  0.00    -0.014 A 
BRANCH  36  37
ATOM     37  C   UNL A   1      38.029  32.396  30.783  1.00  0.00     0.031 A 
ATOM     38  C   UNL A   1      38.885  32.959  31.884  1.00  0.00     0.074 A 
ATOM     39  C   UNL A   1      38.358  31.223  30.214  1.00  0.00     0.049 A 
ATOM     40  N   UNL A   1      39.999  32.492  32.388  1.00  0.00    -0.248 NA
ATOM     41  C   UNL A   1      38.416  34.208  32.505  1.00  0.00     0.031 C 
ATOM     42  C   UNL A   1      37.582  30.534  29.185  1.00  0.00     0.029 A 
ATOM     43  N   UNL A   1      39.439  30.404  30.428  1.00  0.00    -0.354 N 
ATOM     44  C   UNL A   1      40.365  33.387  33.385  1.00  0.00     0.074 A 
ATOM     45  C   UNL A   1      39.369  34.437  33.398  1.00  0.00     0.031 C 
ATOM     46  C   UNL A   1      38.213  29.394  28.857  1.00  0.00     0.029 A 
ATOM     47  C   UNL A   1      39.454  29.294  29.622  1.00  0.00     0.049 A 
ATOM     48  H   UNL A   1      40.135  30.595  31.098  1.00  0.00     0.167 HD
ATOM     49  C   UNL A   1      41.430  33.338  34.220  1.00  0.00     0.031 A 
ATOM     50  C   UNL A   1      40.378  28.322  29.495  1.00  0.00     0.031 A 
ATOM     51  C   UNL A   1      42.439  32.312  34.195  1.00  0.00     0.049 A 
ATOM     52  C   UNL A   1      41.625  28.364  30.338  1.00  0.00     0.074 A 
ATOM     53  C   UNL A   1      43.547  32.171  35.012  1.00  0.00     0.029 A 
ATOM     54  N   UNL A   1      42.468  31.259  33.294  1.00  0.00    -0.354 N 
ATOM     55  N   UNL A   1      41.951  29.204  31.289  1.00  0.00    -0.248 NA
ATOM     56  C   UNL A   1      42.636  27.329  30.077  1.00  0.00     0.031 C 
ATOM     57  C   UNL A   1      44.282  31.068  34.564  1.00  0.00     0.029 A 
ATOM     58  C   UNL A   1      43.601  30.492  33.504  1.00  0.00     0.049 A 
ATOM     59  H   UNL A   1      41.786  31.084  32.607  1.00  0.00     0.167 HD
ATOM     60  C   UNL A   1      43.194  28.791  31.752  1.00  0.00     0.074 A 
ATOM     61  C   UNL A   1      43.558  27.617  30.986  1.00  0.00     0.031 C 
ATOM     62  C   UNL A   1      43.963  29.336  32.725  1.00  0.00     0.031 A 
BRANCH  49  63
ATOM     63  C   UNL A   1      41.581  34.459  35.208  1.00  0.00    -0.014 A 
ATOM     64  C   UNL A   1      41.020  34.379  36.492  1.00  0.00     0.009 A 
ATOM     65  C   UNL A   1      42.316  35.601  34.856  1.00  0.00     0.009 A 
ATOM     66  C   UNL A   1      41.163  35.437  37.392  1.00  0.00     0.001 A 
ATOM     67  C   UNL A   1      42.479  36.647  35.767  1.00  0.00     0.001 A 
ATOM     68  C   UNL A   1      41.894  36.568  37.030  1.00  0.00     0.000 A 
ENDBRANCH  49  63
BRANCH  50  69
ATOM     69  C   UNL A   1      40.181  27.238  28.497  1.00  0.00    -0.014 A 
ATOM     70  C   UNL A   1      39.430  26.099  28.820  1.00  0.00     0.009 A 
ATOM     71  C   UNL A   1      40.754  27.338  27.219  1.00  0.00     0.009 A 
ATOM     72  C   UNL A   1      39.269  25.073  27.884  1.00  0.00     0.001 A 
ATOM     73  C   UNL A   1      40.569  26.323  26.280  1.00  0.00     0.001 A 
ATOM     74  C   UNL A   1      39.833  25.188  26.615  1.00  0.00     0.000 A 
ENDBRANCH  50  69
BRANCH  62  75
ATOM     75  C   UNL A   1      45.275  28.668  33.025  1.00  0.00    -0.014 A 
ATOM     76  C   UNL A   1      46.458  29.086  32.398  1.00  0.00     0.009 A 
ATOM     77  C   UNL A   1      45.337  27.647  33.986  1.00  0.00     0.009 A 
ATOM     78  C   UNL A   1      47.677  28.480  32.712  1.00  0.00     0.001 A 
ATOM     79  C   UNL A   1      46.560  27.059  34.315  1.00  0.00     0.001 A 
ATOM     80  C   UNL A   1      47.726  27.471  33.673  1.00  0.00     0.000 A 
ENDBRANCH  62  75
ENDBRANCH  36  37
ENDBRANCH  29  31
ENDBRANCH  28  29
ENDBRANCH  27  28
ENDBRANCH  26  27
ENDBRANCH  25  26
ENDBRANCH   1  25
TORSDOF 18
ENDMDL
MODEL 2
REMARK VINA RESULT:     -10.2      0.947      5.930
REMARK SMILES CCCC[C@H](C(=O)OCCOCCOC(=O)c1ccc(-c2c3nc(c(-c4ccccc4)c4ccc([nH]4)c(-c4ccccc4)c4nc(c(-c5ccccc5)c5ccc2[nH]5)C=C4)C=C3)cc1)N1C(=O)[C@H]2[C@@H]3C=C[C@@H]([C@@H]4C[C@H]34)[C@@H]2C1=O
REMARK SMILES IDX 10 1 9 2 8 3 6 4 7 5 5 6 4 7 3 8 2 9 1 10 65 11 66 12 77 13
REMARK SMILES IDX 67 14 68 15 76 16 78 17 69 18 72 19 70 20 75 21 71 22 73 23
REMARK SMILES IDX 74 24 11 25 12 26 13 27 14 28 15 29 16 30 17 31 18 32 64 33
REMARK SMILES IDX 19 34 63 35 20 36 21 37 22 38 57 39 23 40 62 41 56 42 58 43
REMARK SMILES IDX 24 44 61 45 55 46 54 47 25 49 47 50 32 51 46 52 33 53 36 54
REMARK SMILES IDX 45 55 59 56 34 57 35 58 44 60 60 61 37 62 26 63 27 64 31 65
REMARK SMILES IDX 28 66 30 67 29 68 48 69 49 70 53 71 50 72 52 73 51 74 38 75
REMARK SMILES IDX 39 76 43 77 40 78 42 79 41 80
REMARK H PARENT 58 48 36 59
REMARK Flexibility Score: inf
ROOT
ATOM      1  C   UNL A   1      34.056  29.567  26.789  1.00  0.00     0.202 C 
ENDROOT
BRANCH   1   2
ATOM      2  C   UNL A   1      33.322  29.112  25.531  1.00  0.00     0.261 C 
BRANCH   2   3
ATOM      3  O   UNL A   1      34.195  28.406  24.635  1.00  0.00    -0.462 OA
BRANCH   3   4
ATOM      4  C   UNL A   1      33.637  28.005  23.460  1.00  0.00     0.329 C 
ATOM      5  O   UNL A   1      33.898  28.505  22.372  1.00  0.00    -0.250 OA
BRANCH   4   6
ATOM      6  C   UNL A   1      32.501  26.992  23.696  1.00  0.00     0.203 C 
BRANCH   6   7
ATOM      7  C   UNL A   1      31.586  27.004  22.450  1.00  0.00     0.038 C 
BRANCH   7   8
ATOM      8  C   UNL A   1      30.509  28.092  22.401  1.00  0.00     0.002 C 
BRANCH   8   9
ATOM      9  C   UNL A   1      29.288  27.849  23.287  1.00  0.00    -0.003 C 
ATOM     10  C   UNL A   1      28.107  28.746  22.951  1.00  0.00     0.004 C 
ENDBRANCH   8   9
ENDBRANCH   7   8
ENDBRANCH   6   7
BRANCH   6  11
ATOM     11  N   UNL A   1      32.942  25.660  24.145  1.00  0.00    -0.268 N 
ATOM     12  C   UNL A   1      33.656  24.760  23.339  1.00  0.00     0.234 C 
ATOM     13  C   UNL A   1      32.893  25.187  25.464  1.00  0.00     0.234 C 
ATOM     14  O   UNL A   1      34.073  24.905  22.207  1.00  0.00    -0.274 OA
ATOM     15  C   UNL A   1      33.778  23.535  24.199  1.00  0.00     0.099 C 
ATOM     16  C   UNL A   1      34.076  24.276  25.507  1.00  0.00     0.099 C 
ATOM     17  O   UNL A   1      32.161  25.489  26.383  1.00  0.00    -0.274 OA
ATOM     18  C   UNL A   1      34.638  22.267  24.102  1.00  0.00     0.028 C 
ATOM     19  C   UNL A   1      34.694  23.311  26.508  1.00  0.00     0.028 C 
ATOM     20  C   UNL A   1      33.986  21.392  25.209  1.00  0.00    -0.026 C 
ATOM     21  C   UNL A   1      36.088  22.439  24.555  1.00  0.00     0.001 C 
ATOM     22  C   UNL A   1      33.979  21.962  26.436  1.00  0.00    -0.026 C 
ATOM     23  C   UNL A   1      36.150  23.054  25.960  1.00  0.00     0.001 C 
ATOM     24  C   UNL A   1      36.822  23.728  24.761  1.00  0.00     0.009 C 
ENDBRANCH   6  11
ENDBRANCH   4   6
ENDBRANCH   3   4
ENDBRANCH   2   3
ENDBRANCH   1   2
BRANCH   1  25
ATOM     25  O   UNL A   1      33.553  30.752  27.399  1.00  0.00    -0.374 OA
BRANCH  25  26
ATOM     26  C   UNL A   1      32.249  31.187  26.999  1.00  0.00     0.202 C 
BRANCH  26  27
ATOM     27  C   UNL A   1      32.013  32.698  27.090  1.00  0.00     0.261 C 
BRANCH  27  28
ATOM     28  O   UNL A   1      33.265  33.399  27.218  1.00  0.00    -0.460 OA
BRANCH  28  29
ATOM     29  C   UNL A   1      33.361  34.179  28.322  1.00  0.00     0.338 C 
ATOM     30  O   UNL A   1      32.526  34.955  28.753  1.00  0.00    -0.246 OA
BRANCH  29  31
ATOM     31  C   UNL A   1      34.570  33.821  29.089  1.00  0.00     0.060 A 
ATOM     32  C   UNL A   1      35.804  34.243  28.578  1.00  0.00     0.016 A 
ATOM     33  C   UNL A   1      34.510  33.016  30.227  1.00  0.00     0.016 A 
ATOM     34  C   UNL A   1      36.989  33.825  29.180  1.00  0.00     0.010 A 
ATOM     35  C   UNL A   1      35.703  32.584  30.821  1.00  0.00     0.010 A 
ATOM     36  C   UNL A   1      36.947  32.959  30.281  1.00  0.00    -0.014 A 
BRANCH  36  37
ATOM     37  C   UNL A   1      38.204  32.351  30.781  1.00  0.00     0.031 A 
ATOM     38  C   UNL A   1      38.693  31.066  30.172  1.00  0.00     0.074 A 
ATOM     39  C   UNL A   1      38.931  32.957  31.736  1.00  0.00     0.049 A 
ATOM     40  N   UNL A   1      39.757  30.362  30.465  1.00  0.00    -0.248 NA
ATOM     41  C   UNL A   1      37.879  30.506  29.081  1.00  0.00     0.031 C 
ATOM     42  C   UNL A   1      38.608  34.237  32.362  1.00  0.00     0.029 A 
ATOM     43  N   UNL A   1      40.099  32.568  32.344  1.00  0.00    -0.354 N 
ATOM     44  C   UNL A   1      39.743  29.279  29.597  1.00  0.00     0.074 A 
ATOM     45  C   UNL A   1      38.552  29.403  28.783  1.00  0.00     0.031 C 
ATOM     46  C   UNL A   1      39.556  34.528  33.268  1.00  0.00     0.029 A 
ATOM     47  C   UNL A   1      40.529  33.439  33.314  1.00  0.00     0.049 A 
ATOM     48  H   UNL A   1      40.582  31.743  32.106  1.00  0.00     0.167 HD
ATOM     49  C   UNL A   1      40.641  28.272  29.480  1.00  0.00     0.031 A 
ATOM     50  C   UNL A   1      41.573  33.353  34.160  1.00  0.00     0.031 A 
ATOM     51  C   UNL A   1      41.813  28.127  30.302  1.00  0.00     0.049 A 
ATOM     52  C   UNL A   1      42.481  32.154  34.106  1.00  0.00     0.074 A 
ATOM     53  C   UNL A   1      42.789  27.148  30.248  1.00  0.00     0.029 A 
ATOM     54  N   UNL A   1      42.157  28.979  31.340  1.00  0.00    -0.354 N 
ATOM     55  N   UNL A   1      42.468  31.145  33.269  1.00  0.00    -0.248 NA
ATOM     56  C   UNL A   1      43.540  32.078  35.124  1.00  0.00     0.031 C 
ATOM     57  C   UNL A   1      43.692  27.372  31.295  1.00  0.00     0.029 A 
ATOM     58  C   UNL A   1      43.305  28.521  31.965  1.00  0.00     0.049 A 
ATOM     59  H   UNL A   1      41.659  29.788  31.595  1.00  0.00     0.167 HD
ATOM     60  C   UNL A   1      43.523  30.324  33.647  1.00  0.00     0.074 A 
ATOM     61  C   UNL A   1      44.164  30.959  34.781  1.00  0.00     0.031 C 
ATOM     62  C   UNL A   1      43.924  29.150  33.102  1.00  0.00     0.031 A 
BRANCH  49  63
ATOM     63  C   UNL A   1      40.364  27.218  28.446  1.00  0.00    -0.014 A 
ATOM     64  C   UNL A   1      40.924  27.294  27.161  1.00  0.00     0.009 A 
ATOM     65  C   UNL A   1      39.550  26.123  28.771  1.00  0.00     0.009 A 
ATOM     66  C   UNL A   1      40.644  26.309  26.211  1.00  0.00     0.001 A 
ATOM     67  C   UNL A   1      39.293  25.127  27.827  1.00  0.00     0.001 A 
ATOM     68  C   UNL A   1      39.833  25.226  26.545  1.00  0.00     0.000 A 
ENDBRANCH  49  63
BRANCH  50  69
ATOM     69  C   UNL A   1      41.799  34.422  35.168  1.00  0.00    -0.014 A 
ATOM     70  C   UNL A   1      41.174  34.366  36.422  1.00  0.00     0.009 A 
ATOM     71  C   UNL A   1      42.634  35.511  34.871  1.00  0.00     0.009 A 
ATOM     72  C   UNL A   1      41.373  35.388  37.355  1.00  0.00     0.001 A 
ATOM     73  C   UNL A   1      42.849  36.516  35.814  1.00  0.00     0.001 A 
ATOM     74  C   UNL A   1      42.213  36.458  37.053  1.00  0.00     0.000 A 
ENDBRANCH  50  69
BRANCH  62  75
ATOM     75  C   UNL A   1      45.115  28.473  33.718  1.00  0.00    -0.014 A 
ATOM     76  C   UNL A   1      44.961  27.542  34.756  1.00  0.00     0.009 A 
ATOM     77  C   UNL A   1      46.402  28.728  33.218  1.00  0.00     0.009 A 
ATOM     78  C   UNL A   1      46.074  26.894  35.296  1.00  0.00     0.001 A 
ATOM     79  C   UNL A   1      47.511  28.061  33.743  1.00  0.00     0.001 A 
ATOM     80  C   UNL A   1      47.346  27.151  34.785  1.00  0.00     0.000 A 
ENDBRANCH  62  75
ENDBRANCH  36  37
ENDBRANCH  29  31
ENDBRANCH  28  29
ENDBRANCH  27  28
ENDBRANCH  26  27
ENDBRANCH  25  26
ENDBRANCH   1  25
TORSDOF 18
ENDMDL
MODEL 3
REMARK VINA RESULT:     -10.1      1.476      2.229
REMARK SMILES CCCC[C@H](C(=O)OCCOCCOC(=O)c1ccc(-c2c3nc(c(-c4ccccc4)c4ccc([nH]4)c(-c4ccccc4)c4nc(c(-c5ccccc5)c5ccc2[nH]5)C=C4)C=C3)cc1)N1C(=O)[C@H]2[C@@H]3C=C[C@@H]([C@@H]4C[C@H]34)[C@@H]2C1=O
REMARK SMILES IDX 10 1 9 2 8 3 6 4 7 5 5 6 4 7 3 8 2 9 1 10 65 11 66 12 77 13
REMARK SMILES IDX 67 14 68 15 76 16 78 17 69 18 72 19 70 20 75 21 71 22 73 23
REMARK SMILES IDX 74 24 11 25 12 26 13 27 14 28 15 29 16 30 17 31 18 32 64 33
REMARK SMILES IDX 19 34 63 35 20 36 21 37 22 38 57 39 23 40 62 41 56 42 58 43
REMARK SMILES IDX 24 44 61 45 55 46 54 47 25 49 47 50 32 51 46 52 33 53 36 54
REMARK SMILES IDX 45 55 59 56 34 57 35 58 44 60 60 61 37 62 26 63 27 64 31 65
REMARK SMILES IDX 28 66 30 67 29 68 48 69 49 70 53 71 50 72 52 73 51 74 38 75
REMARK SMILES IDX 39 76 43 77 40 78 42 79 41 80
REMARK H PARENT 58 48 36 59
REMARK Flexibility Score: inf
ROOT
ATOM      1  C   UNL A   1      33.219  30.141  26.526  1.00  0.00     0.202 C 
ENDROOT
BRANCH   1   2
ATOM      2  C   UNL A   1      33.525  28.806  27.197  1.00  0.00     0.261 C 
BRANCH   2   3
ATOM      3  O   UNL A   1      33.069  27.699  26.404  1.00  0.00    -0.462 OA
BRANCH   3   4
ATOM      4  C   UNL A   1      31.834  27.217  26.716  1.00  0.00     0.329 C 
ATOM      5  O   UNL A   1      31.191  27.568  27.699  1.00  0.00    -0.250 OA
BRANCH   4   6
ATOM      6  C   UNL A   1      31.442  26.045  25.799  1.00  0.00     0.203 C 
BRANCH   6   7
ATOM      7  C   UNL A   1      31.098  26.624  24.407  1.00  0.00     0.038 C 
BRANCH   7   8
ATOM      8  C   UNL A   1      30.806  28.126  24.342  1.00  0.00     0.002 C 
BRANCH   8   9
ATOM      9  C   UNL A   1      31.416  28.863  23.150  1.00  0.00    -0.003 C 
ATOM     10  C   UNL A   1      32.928  28.730  23.065  1.00  0.00     0.004 C 
ENDBRANCH   8   9
ENDBRANCH   7   8
ENDBRANCH   6   7
BRANCH   6  11
ATOM     11  N   UNL A   1      32.387  24.915  25.799  1.00  0.00    -0.268 N 
ATOM     12  C   UNL A   1      32.289  23.812  26.662  1.00  0.00     0.234 C 
ATOM     13  C   UNL A   1      33.378  24.681  24.834  1.00  0.00     0.234 C 
ATOM     14  O   UNL A   1      31.436  23.557  27.489  1.00  0.00    -0.274 OA
ATOM     15  C   UNL A   1      33.515  23.005  26.345  1.00  0.00     0.099 C 
ATOM     16  C   UNL A   1      33.451  23.189  24.825  1.00  0.00     0.099 C 
ATOM     17  O   UNL A   1      33.968  25.454  24.108  1.00  0.00    -0.274 OA
ATOM     18  C   UNL A   1      33.942  21.571  26.686  1.00  0.00     0.028 C 
ATOM     19  C   UNL A   1      34.304  22.127  24.148  1.00  0.00     0.028 C 
ATOM     20  C   UNL A   1      35.428  21.597  26.228  1.00  0.00    -0.026 C 
ATOM     21  C   UNL A   1      33.295  20.486  25.824  1.00  0.00     0.001 C 
ATOM     22  C   UNL A   1      35.603  21.931  24.929  1.00  0.00    -0.026 C 
ATOM     23  C   UNL A   1      33.488  20.790  24.331  1.00  0.00     0.001 C 
ATOM     24  C   UNL A   1      32.093  20.632  24.942  1.00  0.00     0.009 C 
ENDBRANCH   6  11
ENDBRANCH   4   6
ENDBRANCH   3   4
ENDBRANCH   2   3
ENDBRANCH   1   2
BRANCH   1  25
ATOM     25  O   UNL A   1      32.645  31.136  27.369  1.00  0.00    -0.374 OA
BRANCH  25  26
ATOM     26  C   UNL A   1      31.704  32.033  26.771  1.00  0.00     0.202 C 
BRANCH  26  27
ATOM     27  C   UNL A   1      32.021  33.520  26.950  1.00  0.00     0.261 C 
BRANCH  27  28
ATOM     28  O   UNL A   1      32.261  33.823  28.339  1.00  0.00    -0.460 OA
BRANCH  28  29
ATOM     29  C   UNL A   1      33.351  34.595  28.565  1.00  0.00     0.338 C 
ATOM     30  O   UNL A   1      33.385  35.807  28.697  1.00  0.00    -0.246 OA
BRANCH  29  31
ATOM     31  C   UNL A   1      34.523  33.744  28.841  1.00  0.00     0.060 A 
ATOM     32  C   UNL A   1      34.297  32.535  29.512  1.00  0.00     0.016 A 
ATOM     33  C   UNL A   1      35.822  34.154  28.537  1.00  0.00     0.016 A 
ATOM     34  C   UNL A   1      35.373  31.751  29.922  1.00  0.00     0.010 A 
ATOM     35  C   UNL A   1      36.903  33.372  28.963  1.00  0.00     0.010 A 
ATOM     36  C   UNL A   1      36.685  32.184  29.685  1.00  0.00    -0.014 A 
BRANCH  36  37
ATOM     37  C   UNL A   1      37.818  31.457  30.308  1.00  0.00     0.031 A 
ATOM     38  C   UNL A   1      38.178  31.741  31.740  1.00  0.00     0.074 A 
ATOM     39  C   UNL A   1      38.495  30.518  29.622  1.00  0.00     0.049 A 
ATOM     40  N   UNL A   1      39.134  31.228  32.472  1.00  0.00    -0.248 NA
ATOM     41  C   UNL A   1      37.342  32.728  32.442  1.00  0.00     0.031 C 
ATOM     42  C   UNL A   1      38.207  30.098  28.252  1.00  0.00     0.029 A 
ATOM     43  N   UNL A   1      39.568  29.747  29.995  1.00  0.00    -0.354 N 
ATOM     44  C   UNL A   1      39.016  31.825  33.719  1.00  0.00     0.074 A 
ATOM     45  C   UNL A   1      37.912  32.759  33.639  1.00  0.00     0.031 C 
ATOM     46  C   UNL A   1      39.084  29.143  27.899  1.00  0.00     0.029 A 
ATOM     47  C   UNL A   1      40.017  28.915  29.000  1.00  0.00     0.049 A 
ATOM     48  H   UNL A   1      39.975  29.787  30.891  1.00  0.00     0.167 HD
ATOM     49  C   UNL A   1      39.754  31.615  34.835  1.00  0.00     0.031 A 
ATOM     50  C   UNL A   1      41.077  28.084  28.972  1.00  0.00     0.031 A 
ATOM     51  C   UNL A   1      40.868  30.709  34.915  1.00  0.00     0.049 A 
ATOM     52  C   UNL A   1      41.967  27.970  30.180  1.00  0.00     0.074 A 
ATOM     53  C   UNL A   1      41.667  30.418  36.007  1.00  0.00     0.029 A 
ATOM     54  N   UNL A   1      41.351  29.959  33.855  1.00  0.00    -0.354 N 
ATOM     55  N   UNL A   1      41.834  28.526  31.360  1.00  0.00    -0.248 NA
ATOM     56  C   UNL A   1      43.161  27.122  30.046  1.00  0.00     0.031 C 
ATOM     57  C   UNL A   1      42.674  29.539  35.591  1.00  0.00     0.029 A 
ATOM     58  C   UNL A   1      42.467  29.242  34.253  1.00  0.00     0.049 A 
ATOM     59  H   UNL A   1      40.960  29.940  32.952  1.00  0.00     0.167 HD
ATOM     60  C   UNL A   1      42.916  28.084  32.112  1.00  0.00     0.074 A 
ATOM     61  C   UNL A   1      43.688  27.203  31.260  1.00  0.00     0.031 C 
ATOM     62  C   UNL A   1      43.238  28.382  33.394  1.00  0.00     0.031 A 
BRANCH  49  63
ATOM     63  C   UNL A   1      39.401  32.417  36.055  1.00  0.00    -0.014 A 
ATOM     64  C   UNL A   1      38.452  31.956  36.981  1.00  0.00     0.009 A 
ATOM     65  C   UNL A   1      40.045  33.641  36.292  1.00  0.00     0.009 A 
ATOM     66  C   UNL A   1      38.131  32.724  38.103  1.00  0.00     0.001 A 
ATOM     67  C   UNL A   1      39.741  34.393  37.428  1.00  0.00     0.001 A 
ATOM     68  C   UNL A   1      38.777  33.938  38.327  1.00  0.00     0.000 A 
ENDBRANCH  49  63
BRANCH  50  69
ATOM     69  C   UNL A   1      41.383  27.316  27.737  1.00  0.00    -0.014 A 
ATOM     70  C   UNL A   1      40.874  26.023  27.555  1.00  0.00     0.009 A 
ATOM     71  C   UNL A   1      42.196  27.875  26.738  1.00  0.00     0.009 A 
ATOM     72  C   UNL A   1      41.186  25.298  26.401  1.00  0.00     0.001 A 
ATOM     73  C   UNL A   1      42.485  27.159  25.577  1.00  0.00     0.001 A 
ATOM     74  C   UNL A   1      41.985  25.868  25.412  1.00  0.00     0.000 A 
ENDBRANCH  50  69
BRANCH  62  75
ATOM     75  C   UNL A   1      44.476  27.747  33.961  1.00  0.00    -0.014 A 
ATOM     76  C   UNL A   1      45.714  28.405  33.908  1.00  0.00     0.009 A 
ATOM     77  C   UNL A   1      44.392  26.502  34.605  1.00  0.00     0.009 A 
ATOM     78  C   UNL A   1      46.850  27.818  34.470  1.00  0.00     0.001 A 
ATOM     79  C   UNL A   1      45.525  25.930  35.187  1.00  0.00     0.001 A 
ATOM     80  C   UNL A   1      46.752  26.585  35.113  1.00  0.00     0.000 A 
ENDBRANCH  62  75
ENDBRANCH  36  37
ENDBRANCH  29  31
ENDBRANCH  28  29
ENDBRANCH  27  28
ENDBRANCH  26  27
ENDBRANCH  25  26
ENDBRANCH   1  25
TORSDOF 18
ENDMDL
