MODEL 1
REMARK VINA RESULT:     -11.4      0.000      0.000
REMARK SMILES Cc1cc(C)cc(-c2ccc([C@@H](C)C(=O)OCCOCCOC(=O)c3ccc(-c4c5nc(c(-c6ccccc6)c6ccc([nH]6)c(-c6ccccc6)c6nc(c(-c7ccccc7)c7ccc4[nH]7)C=C6)C=C5)cc3)cc2F)c1
REMARK SMILES IDX 19 1 18 2 17 3 16 4 14 5 15 6 12 7 13 8 11 9 8 10 9 11 74 12
REMARK SMILES IDX 10 13 73 14 75 15 7 16 1 17 2 18 3 19 76 20 4 21 5 22 6 23
REMARK SMILES IDX 20 24 21 25 22 26 23 27 24 28 25 29 26 30 72 31 27 32 71 33
REMARK SMILES IDX 28 34 29 35 30 36 65 37 31 38 70 39 64 40 66 41 32 42 69 43
REMARK SMILES IDX 63 44 62 45 33 47 55 48 40 49 54 50 41 51 44 52 53 53 67 54
REMARK SMILES IDX 42 55 43 56 52 58 68 59 45 60 34 61 35 62 39 63 36 64 38 65
REMARK SMILES IDX 37 66 56 67 57 68 61 69 58 70 60 71 59 72 46 73 47 74 51 75
REMARK SMILES IDX 48 76 50 77 49 78
REMARK H PARENT 66 46 44 57
REMARK Flexibility Score: inf
ROOT
ATOM      1  O   UNL A   1      44.656  19.792  24.050  1.00  0.00    -0.374 OA
ENDROOT
BRANCH   1   2
ATOM      2  C   UNL A   1      44.502  18.830  25.092  1.00  0.00     0.202 C 
BRANCH   2   3
ATOM      3  C   UNL A   1      43.122  18.777  25.752  1.00  0.00     0.261 C 
BRANCH   3   4
ATOM      4  O   UNL A   1      42.327  19.922  25.390  1.00  0.00    -0.463 OA
BRANCH   4   5
ATOM      5  C   UNL A   1      41.128  20.033  26.019  1.00  0.00     0.313 C 
ATOM      6  O   UNL A   1      40.332  19.110  26.160  1.00  0.00    -0.252 OA
BRANCH   5   7
ATOM      7  C   UNL A   1      40.814  21.439  26.503  1.00  0.00     0.126 C 
ATOM      8  C   UNL A   1      41.153  21.540  27.989  1.00  0.00     0.025 C 
BRANCH   7   9
ATOM      9  C   UNL A   1      39.434  22.012  26.195  1.00  0.00    -0.031 A 
ATOM     10  C   UNL A   1      36.937  23.107  25.340  1.00  0.00     0.017 A 
ATOM     11  C   UNL A   1      37.833  23.852  26.126  1.00  0.00     0.012 A 
ATOM     12  C   UNL A   1      37.298  21.788  25.041  1.00  0.00     0.131 A 
ATOM     13  C   UNL A   1      39.058  23.316  26.548  1.00  0.00     0.005 A 
ATOM     14  C   UNL A   1      38.518  21.246  25.455  1.00  0.00     0.044 A 
ATOM     15  F   UNL A   1      36.488  21.015  24.300  1.00  0.00    -0.206 F 
BRANCH  10  16
ATOM     16  C   UNL A   1      35.707  23.716  24.805  1.00  0.00    -0.015 A 
ATOM     17  C   UNL A   1      33.278  23.320  21.875  1.00  0.00     0.044 C 
ATOM     18  C   UNL A   1      33.930  23.835  23.126  1.00  0.00    -0.050 A 
ATOM     19  C   UNL A   1      33.378  24.935  23.789  1.00  0.00     0.006 A 
ATOM     20  C   UNL A   1      35.092  23.236  23.636  1.00  0.00     0.012 A 
ATOM     21  C   UNL A   1      33.972  25.443  24.950  1.00  0.00    -0.050 A 
ATOM     22  C   UNL A   1      33.374  26.636  25.635  1.00  0.00     0.044 C 
ATOM     23  C   UNL A   1      35.127  24.825  25.449  1.00  0.00     0.012 A 
ENDBRANCH  10  16
ENDBRANCH   7   9
ENDBRANCH   5   7
ENDBRANCH   4   5
ENDBRANCH   3   4
ENDBRANCH   2   3
ENDBRANCH   1   2
BRANCH   1  24
ATOM     24  C   UNL A   1      45.245  21.046  24.398  1.00  0.00     0.202 C 
BRANCH  24  25
ATOM     25  C   UNL A   1      44.537  22.297  23.865  1.00  0.00     0.261 C 
BRANCH  25  26
ATOM     26  O   UNL A   1      43.990  23.103  24.926  1.00  0.00    -0.460 OA
BRANCH  26  27
ATOM     27  C   UNL A   1      44.615  24.286  25.126  1.00  0.00     0.338 C 
ATOM     28  O   UNL A   1      45.606  24.712  24.550  1.00  0.00    -0.246 OA
BRANCH  27  29
ATOM     29  C   UNL A   1      43.823  25.123  26.046  1.00  0.00     0.060 A 
ATOM     30  C   UNL A   1      44.245  26.443  26.246  1.00  0.00     0.016 A 
ATOM     31  C   UNL A   1      42.735  24.611  26.756  1.00  0.00     0.016 A 
ATOM     32  C   UNL A   1      43.605  27.248  27.186  1.00  0.00     0.010 A 
ATOM     33  C   UNL A   1      42.101  25.416  27.709  1.00  0.00     0.010 A 
ATOM     34  C   UNL A   1      42.552  26.728  27.950  1.00  0.00    -0.014 A 
BRANCH  34  35
ATOM     35  C   UNL A   1      42.008  27.515  29.082  1.00  0.00     0.031 A 
ATOM     36  C   UNL A   1      42.691  27.446  30.419  1.00  0.00     0.074 A 
ATOM     37  C   UNL A   1      40.929  28.300  28.918  1.00  0.00     0.049 A 
ATOM     38  N   UNL A   1      42.363  28.024  31.548  1.00  0.00    -0.248 NA
ATOM     39  C   UNL A   1      43.905  26.617  30.496  1.00  0.00     0.031 C 
ATOM     40  C   UNL A   1      40.205  28.492  27.662  1.00  0.00     0.029 A 
ATOM     41  N   UNL A   1      40.252  29.080  29.821  1.00  0.00    -0.354 N 
ATOM     42  C   UNL A   1      43.323  27.624  32.469  1.00  0.00     0.074 A 
ATOM     43  C   UNL A   1      44.233  26.738  31.775  1.00  0.00     0.031 C 
ATOM     44  C   UNL A   1      39.174  29.328  27.878  1.00  0.00     0.029 A 
ATOM     45  C   UNL A   1      39.149  29.702  29.291  1.00  0.00     0.049 A 
ATOM     46  H   UNL A   1      40.530  29.184  30.759  1.00  0.00     0.167 HD
ATOM     47  C   UNL A   1      43.437  27.965  33.773  1.00  0.00     0.031 A 
ATOM     48  C   UNL A   1      38.210  30.465  29.883  1.00  0.00     0.031 A 
ATOM     49  C   UNL A   1      42.529  28.835  34.470  1.00  0.00     0.049 A 
ATOM     50  C   UNL A   1      38.312  30.760  31.355  1.00  0.00     0.074 A 
ATOM     51  C   UNL A   1      42.580  29.257  35.788  1.00  0.00     0.029 A 
ATOM     52  N   UNL A   1      41.399  29.407  33.909  1.00  0.00    -0.354 N 
ATOM     53  N   UNL A   1      39.241  30.400  32.207  1.00  0.00    -0.248 NA
ATOM     54  C   UNL A   1      37.234  31.567  31.946  1.00  0.00     0.031 C 
ATOM     55  C   UNL A   1      41.448  30.041  36.038  1.00  0.00     0.029 A 
ATOM     56  C   UNL A   1      40.724  30.149  34.862  1.00  0.00     0.049 A 
ATOM     57  H   UNL A   1      41.118  29.299  32.971  1.00  0.00     0.167 HD
ATOM     58  C   UNL A   1      38.872  30.955  33.427  1.00  0.00     0.074 A 
ATOM     59  C   UNL A   1      37.643  31.685  33.203  1.00  0.00     0.031 C 
ATOM     60  C   UNL A   1      39.498  30.866  34.627  1.00  0.00     0.031 A 
BRANCH  47  61
ATOM     61  C   UNL A   1      44.574  27.360  34.548  1.00  0.00    -0.014 A 
ATOM     62  C   UNL A   1      45.836  27.973  34.588  1.00  0.00     0.009 A 
ATOM     63  C   UNL A   1      44.366  26.181  35.280  1.00  0.00     0.009 A 
ATOM     64  C   UNL A   1      46.876  27.399  35.323  1.00  0.00     0.001 A 
ATOM     65  C   UNL A   1      45.400  25.623  36.033  1.00  0.00     0.001 A 
ATOM     66  C   UNL A   1      46.655  26.228  36.047  1.00  0.00     0.000 A 
ENDBRANCH  47  61
BRANCH  48  67
ATOM     67  C   UNL A   1      37.064  30.981  29.090  1.00  0.00    -0.014 A 
ATOM     68  C   UNL A   1      37.003  32.330  28.710  1.00  0.00     0.009 A 
ATOM     69  C   UNL A   1      36.012  30.124  28.728  1.00  0.00     0.009 A 
ATOM     70  C   UNL A   1      35.901  32.814  28.001  1.00  0.00     0.001 A 
ATOM     71  C   UNL A   1      34.926  30.605  27.997  1.00  0.00     0.001 A 
ATOM     72  C   UNL A   1      34.866  31.951  27.642  1.00  0.00     0.000 A 
ENDBRANCH  48  67
BRANCH  60  73
ATOM     73  C   UNL A   1      38.879  31.597  35.784  1.00  0.00    -0.014 A 
ATOM     74  C   UNL A   1      39.094  32.971  35.972  1.00  0.00     0.009 A 
ATOM     75  C   UNL A   1      38.029  30.912  36.667  1.00  0.00     0.009 A 
ATOM     76  C   UNL A   1      38.488  33.639  37.039  1.00  0.00     0.001 A 
ATOM     77  C   UNL A   1      37.407  31.588  37.716  1.00  0.00     0.001 A 
ATOM     78  C   UNL A   1      37.642  32.948  37.906  1.00  0.00     0.000 A 
ENDBRANCH  60  73
ENDBRANCH  34  35
ENDBRANCH  27  29
ENDBRANCH  26  27
ENDBRANCH  25  26
ENDBRANCH  24  25
ENDBRANCH   1  24
TORSDOF 16
ENDMDL
MODEL 2
REMARK VINA RESULT:     -11.2      1.109      6.033
REMARK SMILES Cc1cc(C)cc(-c2ccc([C@@H](C)C(=O)OCCOCCOC(=O)c3ccc(-c4c5nc(c(-c6ccccc6)c6ccc([nH]6)c(-c6ccccc6)c6nc(c(-c7ccccc7)c7ccc4[nH]7)C=C6)C=C5)cc3)cc2F)c1
REMARK SMILES IDX 19 1 18 2 17 3 16 4 14 5 15 6 12 7 13 8 11 9 8 10 9 11 74 12
REMARK SMILES IDX 10 13 73 14 75 15 7 16 1 17 2 18 3 19 76 20 4 21 5 22 6 23
REMARK SMILES IDX 20 24 21 25 22 26 23 27 24 28 25 29 26 30 72 31 27 32 71 33
REMARK SMILES IDX 28 34 29 35 30 36 65 37 31 38 70 39 64 40 66 41 32 42 69 43
REMARK SMILES IDX 63 44 62 45 33 47 55 48 40 49 54 50 41 51 44 52 53 53 67 54
REMARK SMILES IDX 42 55 43 56 52 58 68 59 45 60 34 61 35 62 39 63 36 64 38 65
REMARK SMILES IDX 37 66 56 67 57 68 61 69 58 70 60 71 59 72 46 73 47 74 51 75
REMARK SMILES IDX 48 76 50 77 49 78
REMARK H PARENT 66 46 44 57
REMARK Flexibility Score: inf
ROOT
ATOM      1  O   UNL A   1      45.632  20.496  25.211  1.00  0.00    -0.374 OA
ENDROOT
BRANCH   1   2
ATOM      2  C   UNL A   1      44.709  19.668  24.506  1.00  0.00     0.202 C 
BRANCH   2   3
ATOM      3  C   UNL A   1      43.682  18.929  25.368  1.00  0.00     0.261 C 
BRANCH   3   4
ATOM      4  O   UNL A   1      42.422  19.626  25.389  1.00  0.00    -0.463 OA
BRANCH   4   5
ATOM      5  C   UNL A   1      41.933  19.928  26.619  1.00  0.00     0.313 C 
ATOM      6  O   UNL A   1      42.037  19.201  27.603  1.00  0.00    -0.252 OA
BRANCH   5   7
ATOM      7  C   UNL A   1      41.180  21.247  26.678  1.00  0.00     0.126 C 
ATOM      8  C   UNL A   1      41.148  21.737  28.125  1.00  0.00     0.025 C 
BRANCH   7   9
ATOM      9  C   UNL A   1      39.803  21.316  26.024  1.00  0.00    -0.031 A 
ATOM     10  C   UNL A   1      37.113  21.438  25.069  1.00  0.00     0.017 A 
ATOM     11  C   UNL A   1      37.896  20.283  24.905  1.00  0.00     0.012 A 
ATOM     12  C   UNL A   1      37.727  22.543  25.671  1.00  0.00     0.131 A 
ATOM     13  C   UNL A   1      39.217  20.222  25.373  1.00  0.00     0.005 A 
ATOM     14  C   UNL A   1      39.041  22.490  26.141  1.00  0.00     0.044 A 
ATOM     15  F   UNL A   1      37.041  23.683  25.853  1.00  0.00    -0.206 F 
BRANCH  10  16
ATOM     16  C   UNL A   1      35.692  21.455  24.680  1.00  0.00    -0.015 A 
ATOM     17  C   UNL A   1      32.531  19.330  25.042  1.00  0.00     0.044 C 
ATOM     18  C   UNL A   1      33.465  20.439  24.653  1.00  0.00    -0.050 A 
ATOM     19  C   UNL A   1      32.990  21.503  23.880  1.00  0.00     0.006 A 
ATOM     20  C   UNL A   1      34.813  20.420  25.044  1.00  0.00     0.012 A 
ATOM     21  C   UNL A   1      33.842  22.544  23.494  1.00  0.00    -0.050 A 
ATOM     22  C   UNL A   1      33.316  23.666  22.650  1.00  0.00     0.044 C 
ATOM     23  C   UNL A   1      35.182  22.512  23.902  1.00  0.00     0.012 A 
ENDBRANCH  10  16
ENDBRANCH   7   9
ENDBRANCH   5   7
ENDBRANCH   4   5
ENDBRANCH   3   4
ENDBRANCH   2   3
ENDBRANCH   1   2
BRANCH   1  24
ATOM     24  C   UNL A   1      45.946  21.765  24.634  1.00  0.00     0.202 C 
BRANCH  24  25
ATOM     25  C   UNL A   1      44.767  22.552  24.049  1.00  0.00     0.261 C 
BRANCH  25  26
ATOM     26  O   UNL A   1      44.094  23.341  25.048  1.00  0.00    -0.460 OA
BRANCH  26  27
ATOM     27  C   UNL A   1      44.613  24.574  25.248  1.00  0.00     0.338 C 
ATOM     28  O   UNL A   1      45.514  25.114  24.621  1.00  0.00    -0.246 OA
BRANCH  27  29
ATOM     29  C   UNL A   1      43.813  25.299  26.253  1.00  0.00     0.060 A 
ATOM     30  C   UNL A   1      44.132  26.643  26.487  1.00  0.00     0.016 A 
ATOM     31  C   UNL A   1      42.822  24.664  27.003  1.00  0.00     0.016 A 
ATOM     32  C   UNL A   1      43.488  27.348  27.501  1.00  0.00     0.010 A 
ATOM     33  C   UNL A   1      42.185  25.371  28.029  1.00  0.00     0.010 A 
ATOM     34  C   UNL A   1      42.536  26.706  28.302  1.00  0.00    -0.014 A 
BRANCH  34  35
ATOM     35  C   UNL A   1      42.000  27.395  29.501  1.00  0.00     0.031 A 
ATOM     36  C   UNL A   1      40.723  28.180  29.388  1.00  0.00     0.074 A 
ATOM     37  C   UNL A   1      42.632  27.305  30.685  1.00  0.00     0.049 A 
ATOM     38  N   UNL A   1      40.101  28.884  30.300  1.00  0.00    -0.248 NA
ATOM     39  C   UNL A   1      40.060  28.171  28.075  1.00  0.00     0.031 C 
ATOM     40  C   UNL A   1      43.850  26.537  30.939  1.00  0.00     0.029 A 
ATOM     41  N   UNL A   1      42.333  27.875  31.897  1.00  0.00    -0.354 N 
ATOM     42  C   UNL A   1      38.978  29.407  29.670  1.00  0.00     0.074 A 
ATOM     43  C   UNL A   1      39.016  28.958  28.295  1.00  0.00     0.031 C 
ATOM     44  C   UNL A   1      44.202  26.693  32.227  1.00  0.00     0.029 A 
ATOM     45  C   UNL A   1      43.254  27.597  32.876  1.00  0.00     0.049 A 
ATOM     46  H   UNL A   1      41.535  28.429  32.050  1.00  0.00     0.167 HD
ATOM     47  C   UNL A   1      38.003  30.188  30.190  1.00  0.00     0.031 A 
ATOM     48  C   UNL A   1      43.338  28.041  34.145  1.00  0.00     0.031 A 
ATOM     49  C   UNL A   1      37.968  30.647  31.553  1.00  0.00     0.049 A 
ATOM     50  C   UNL A   1      42.287  28.979  34.675  1.00  0.00     0.074 A 
ATOM     51  C   UNL A   1      37.005  31.423  32.176  1.00  0.00     0.029 A 
ATOM     52  N   UNL A   1      38.944  30.381  32.499  1.00  0.00    -0.354 N 
ATOM     53  N   UNL A   1      41.215  29.441  34.078  1.00  0.00    -0.248 NA
ATOM     54  C   UNL A   1      42.460  29.456  36.055  1.00  0.00     0.031 C 
ATOM     55  C   UNL A   1      37.428  31.673  33.486  1.00  0.00     0.029 A 
ATOM     56  C   UNL A   1      38.626  31.007  33.692  1.00  0.00     0.049 A 
ATOM     57  H   UNL A   1      39.745  29.830  32.345  1.00  0.00     0.167 HD
ATOM     58  C   UNL A   1      40.576  30.243  35.015  1.00  0.00     0.074 A 
ATOM     59  C   UNL A   1      41.371  30.195  36.223  1.00  0.00     0.031 C 
ATOM     60  C   UNL A   1      39.429  30.956  34.885  1.00  0.00     0.031 A 
BRANCH  47  61
ATOM     61  C   UNL A   1      36.906  30.631  29.264  1.00  0.00    -0.014 A 
ATOM     62  C   UNL A   1      35.900  29.744  28.849  1.00  0.00     0.009 A 
ATOM     63  C   UNL A   1      36.856  31.966  28.834  1.00  0.00     0.009 A 
ATOM     64  C   UNL A   1      34.883  30.181  27.997  1.00  0.00     0.001 A 
ATOM     65  C   UNL A   1      35.826  32.404  28.002  1.00  0.00     0.001 A 
ATOM     66  C   UNL A   1      34.845  31.510  27.578  1.00  0.00     0.000 A 
ENDBRANCH  47  61
BRANCH  48  67
ATOM     67  C   UNL A   1      44.482  27.633  35.000  1.00  0.00    -0.014 A 
ATOM     68  C   UNL A   1      45.672  28.376  35.010  1.00  0.00     0.009 A 
ATOM     69  C   UNL A   1      44.394  26.480  35.796  1.00  0.00     0.009 A 
ATOM     70  C   UNL A   1      46.757  27.960  35.785  1.00  0.00     0.001 A 
ATOM     71  C   UNL A   1      45.471  26.082  36.590  1.00  0.00     0.001 A 
ATOM     72  C   UNL A   1      46.654  26.817  36.577  1.00  0.00     0.000 A 
ENDBRANCH  48  67
BRANCH  60  73
ATOM     73  C   UNL A   1      38.952  31.721  36.086  1.00  0.00    -0.014 A 
ATOM     74  C   UNL A   1      39.424  33.015  36.356  1.00  0.00     0.009 A 
ATOM     75  C   UNL A   1      37.981  31.160  36.930  1.00  0.00     0.009 A 
ATOM     76  C   UNL A   1      38.949  33.722  37.463  1.00  0.00     0.001 A 
ATOM     77  C   UNL A   1      37.490  31.879  38.020  1.00  0.00     0.001 A 
ATOM     78  C   UNL A   1      37.979  33.155  38.290  1.00  0.00     0.000 A 
ENDBRANCH  60  73
ENDBRANCH  34  35
ENDBRANCH  27  29
ENDBRANCH  26  27
ENDBRANCH  25  26
ENDBRANCH  24  25
ENDBRANCH   1  24
TORSDOF 16
ENDMDL
MODEL 3
REMARK VINA RESULT:     -11.2      3.422      6.535
REMARK SMILES Cc1cc(C)cc(-c2ccc([C@@H](C)C(=O)OCCOCCOC(=O)c3ccc(-c4c5nc(c(-c6ccccc6)c6ccc([nH]6)c(-c6ccccc6)c6nc(c(-c7ccccc7)c7ccc4[nH]7)C=C6)C=C5)cc3)cc2F)c1
REMARK SMILES IDX 19 1 18 2 17 3 16 4 14 5 15 6 12 7 13 8 11 9 8 10 9 11 74 12
REMARK SMILES IDX 10 13 73 14 75 15 7 16 1 17 2 18 3 19 76 20 4 21 5 22 6 23
REMARK SMILES IDX 20 24 21 25 22 26 23 27 24 28 25 29 26 30 72 31 27 32 71 33
REMARK SMILES IDX 28 34 29 35 30 36 65 37 31 38 70 39 64 40 66 41 32 42 69 43
REMARK SMILES IDX 63 44 62 45 33 47 55 48 40 49 54 50 41 51 44 52 53 53 67 54
REMARK SMILES IDX 42 55 43 56 52 58 68 59 45 60 34 61 35 62 39 63 36 64 38 65
REMARK SMILES IDX 37 66 56 67 57 68 61 69 58 70 60 71 59 72 46 73 47 74 51 75
REMARK SMILES IDX 48 76 50 77 49 78
REMARK H PARENT 66 46 44 57
REMARK Flexibility Score: inf
ROOT
ATOM      1  O   UNL A   1      42.642  19.117  27.016  1.00  0.00    -0.374 OA
ENDROOT
BRANCH   1   2
ATOM      2  C   UNL A   1      42.905  19.029  25.616  1.00  0.00     0.202 C 
BRANCH   2   3
ATOM      3  C   UNL A   1      44.315  19.427  25.176  1.00  0.00     0.261 C 
BRANCH   3   4
ATOM      4  O   UNL A   1      44.306  20.686  24.475  1.00  0.00    -0.463 OA
BRANCH   4   5
ATOM      5  C   UNL A   1      45.124  21.648  24.975  1.00  0.00     0.313 C 
ATOM      6  O   UNL A   1      46.347  21.557  25.028  1.00  0.00    -0.252 OA
BRANCH   5   7
ATOM      7  C   UNL A   1      44.389  22.858  25.526  1.00  0.00     0.126 C 
ATOM      8  C   UNL A   1      44.796  24.094  24.725  1.00  0.00     0.025 C 
BRANCH   7   9
ATOM      9  C   UNL A   1      44.450  23.110  27.030  1.00  0.00    -0.031 A 
ATOM     10  C   UNL A   1      44.376  23.802  29.801  1.00  0.00     0.017 A 
ATOM     11  C   UNL A   1      45.513  24.054  29.014  1.00  0.00     0.012 A 
ATOM     12  C   UNL A   1      43.304  23.148  29.181  1.00  0.00     0.131 A 
ATOM     13  C   UNL A   1      45.551  23.714  27.653  1.00  0.00     0.005 A 
ATOM     14  C   UNL A   1      43.333  22.809  27.826  1.00  0.00     0.044 A 
ATOM     15  F   UNL A   1      42.189  22.869  29.874  1.00  0.00    -0.206 F 
BRANCH  10  16
ATOM     16  C   UNL A   1      44.300  24.266  31.197  1.00  0.00    -0.015 A 
ATOM     17  C   UNL A   1      43.961  22.857  34.738  1.00  0.00     0.044 C 
ATOM     18  C   UNL A   1      44.091  23.821  33.595  1.00  0.00    -0.050 A 
ATOM     19  C   UNL A   1      44.113  25.197  33.851  1.00  0.00     0.006 A 
ATOM     20  C   UNL A   1      44.181  23.367  32.270  1.00  0.00     0.012 A 
ATOM     21  C   UNL A   1      44.222  26.118  32.804  1.00  0.00    -0.050 A 
ATOM     22  C   UNL A   1      44.225  27.588  33.099  1.00  0.00     0.044 C 
ATOM     23  C   UNL A   1      44.319  25.644  31.488  1.00  0.00     0.012 A 
ENDBRANCH  10  16
ENDBRANCH   7   9
ENDBRANCH   5   7
ENDBRANCH   4   5
ENDBRANCH   3   4
ENDBRANCH   2   3
ENDBRANCH   1   2
BRANCH   1  24
ATOM     24  C   UNL A   1      41.495  19.866  27.421  1.00  0.00     0.202 C 
BRANCH  24  25
ATOM     25  C   UNL A   1      40.625  20.433  26.292  1.00  0.00     0.261 C 
BRANCH  25  26
ATOM     26  O   UNL A   1      40.658  21.872  26.254  1.00  0.00    -0.460 OA
BRANCH  26  27
ATOM     27  C   UNL A   1      39.447  22.474  26.273  1.00  0.00     0.338 C 
ATOM     28  O   UNL A   1      38.357  21.961  26.060  1.00  0.00    -0.246 OA
BRANCH  27  29
ATOM     29  C   UNL A   1      39.580  23.854  26.775  1.00  0.00     0.060 A 
ATOM     30  C   UNL A   1      40.224  24.784  25.949  1.00  0.00     0.016 A 
ATOM     31  C   UNL A   1      39.152  24.218  28.053  1.00  0.00     0.016 A 
ATOM     32  C   UNL A   1      40.478  26.073  26.412  1.00  0.00     0.010 A 
ATOM     33  C   UNL A   1      39.419  25.509  28.521  1.00  0.00     0.010 A 
ATOM     34  C   UNL A   1      40.110  26.433  27.714  1.00  0.00    -0.014 A 
BRANCH  34  35
ATOM     35  C   UNL A   1      40.557  27.731  28.272  1.00  0.00     0.031 A 
ATOM     36  C   UNL A   1      42.019  27.950  28.542  1.00  0.00     0.074 A 
ATOM     37  C   UNL A   1      39.674  28.716  28.516  1.00  0.00     0.049 A 
ATOM     38  N   UNL A   1      42.619  28.993  29.058  1.00  0.00    -0.248 NA
ATOM     39  C   UNL A   1      42.926  26.848  28.183  1.00  0.00     0.031 C 
ATOM     40  C   UNL A   1      38.237  28.648  28.253  1.00  0.00     0.029 A 
ATOM     41  N   UNL A   1      39.862  29.967  29.048  1.00  0.00    -0.354 N 
ATOM     42  C   UNL A   1      43.970  28.671  29.093  1.00  0.00     0.074 A 
ATOM     43  C   UNL A   1      44.100  27.330  28.566  1.00  0.00     0.031 C 
ATOM     44  C   UNL A   1      37.670  29.805  28.637  1.00  0.00     0.029 A 
ATOM     45  C   UNL A   1      38.698  30.678  29.201  1.00  0.00     0.049 A 
ATOM     46  H   UNL A   1      40.746  30.320  29.295  1.00  0.00     0.167 HD
ATOM     47  C   UNL A   1      45.009  29.426  29.522  1.00  0.00     0.031 A 
ATOM     48  C   UNL A   1      38.482  31.887  29.756  1.00  0.00     0.031 A 
ATOM     49  C   UNL A   1      44.884  30.755  30.056  1.00  0.00     0.049 A 
ATOM     50  C   UNL A   1      39.644  32.670  30.305  1.00  0.00     0.074 A 
ATOM     51  C   UNL A   1      45.885  31.606  30.493  1.00  0.00     0.029 A 
ATOM     52  N   UNL A   1      43.683  31.421  30.237  1.00  0.00    -0.354 N 
ATOM     53  N   UNL A   1      40.919  32.367  30.304  1.00  0.00    -0.248 NA
ATOM     54  C   UNL A   1      39.333  33.964  30.932  1.00  0.00     0.031 C 
ATOM     55  C   UNL A   1      45.283  32.767  30.991  1.00  0.00     0.029 A 
ATOM     56  C   UNL A   1      43.913  32.659  30.813  1.00  0.00     0.049 A 
ATOM     57  H   UNL A   1      42.798  31.066  29.993  1.00  0.00     0.167 HD
ATOM     58  C   UNL A   1      41.564  33.440  30.907  1.00  0.00     0.074 A 
ATOM     59  C   UNL A   1      40.543  34.406  31.251  1.00  0.00     0.031 C 
ATOM     60  C   UNL A   1      42.887  33.608  31.154  1.00  0.00     0.031 A 
BRANCH  47  61
ATOM     61  C   UNL A   1      46.379  28.811  29.464  1.00  0.00    -0.014 A 
ATOM     62  C   UNL A   1      47.211  28.986  28.347  1.00  0.00     0.009 A 
ATOM     63  C   UNL A   1      46.858  28.079  30.561  1.00  0.00     0.009 A 
ATOM     64  C   UNL A   1      48.485  28.415  28.320  1.00  0.00     0.001 A 
ATOM     65  C   UNL A   1      48.141  27.530  30.541  1.00  0.00     0.001 A 
ATOM     66  C   UNL A   1      48.949  27.691  29.418  1.00  0.00     0.000 A 
ENDBRANCH  47  61
BRANCH  48  67
ATOM     67  C   UNL A   1      37.100  32.421  29.856  1.00  0.00    -0.014 A 
ATOM     68  C   UNL A   1      36.282  32.099  30.950  1.00  0.00     0.009 A 
ATOM     69  C   UNL A   1      36.584  33.242  28.841  1.00  0.00     0.009 A 
ATOM     70  C   UNL A   1      34.970  32.573  31.014  1.00  0.00     0.001 A 
ATOM     71  C   UNL A   1      35.281  33.735  28.920  1.00  0.00     0.001 A 
ATOM     72  C   UNL A   1      34.472  33.393  30.001  1.00  0.00     0.000 A 
ENDBRANCH  48  67
BRANCH  60  73
ATOM     73  C   UNL A   1      43.309  34.895  31.804  1.00  0.00    -0.014 A 
ATOM     74  C   UNL A   1      43.257  35.055  33.198  1.00  0.00     0.009 A 
ATOM     75  C   UNL A   1      43.814  35.941  31.017  1.00  0.00     0.009 A 
ATOM     76  C   UNL A   1      43.679  36.249  33.787  1.00  0.00     0.001 A 
ATOM     77  C   UNL A   1      44.258  37.123  31.610  1.00  0.00     0.001 A 
ATOM     78  C   UNL A   1      44.183  37.279  32.993  1.00  0.00     0.000 A 
ENDBRANCH  60  73
ENDBRANCH  34  35
ENDBRANCH  27  29
ENDBRANCH  26  27
ENDBRANCH  25  26
ENDBRANCH  24  25
ENDBRANCH   1  24
TORSDOF 16
ENDMDL
