MODEL 1
REMARK VINA RESULT:     -10.8      0.000      0.000
REMARK SMILES C[C@@H](C(=O)OCCOCCOC(=O)c1ccc(-c2c3nc(c(-c4ccccc4)c4ccc([nH]4)c(-c4ccccc4)c4nc(c(-c5ccccc5)c5ccc2[nH]5)C=C4)C=C3)cc1)c1ccc(C[C@H]2CCCC2=O)c(-c2ccccc2)c1
REMARK SMILES IDX 7 1 6 2 5 3 3 4 4 5 2 6 1 7 62 8 63 9 80 10 64 11 73 12
REMARK SMILES IDX 65 13 74 14 75 15 79 16 76 17 78 18 77 19 66 20 67 21 68 22
REMARK SMILES IDX 71 23 69 24 70 25 72 26 8 27 9 28 10 29 11 30 12 31 13 32
REMARK SMILES IDX 14 33 15 34 61 35 16 36 60 37 17 38 18 39 19 40 54 41 20 42
REMARK SMILES IDX 59 43 53 44 55 45 21 46 58 47 52 48 51 49 22 51 44 52 29 53
REMARK SMILES IDX 43 54 30 55 33 56 42 57 56 58 31 59 32 60 41 62 57 63 34 64
REMARK SMILES IDX 23 65 24 66 28 67 25 68 27 69 26 70 45 71 46 72 50 73 47 74
REMARK SMILES IDX 49 75 48 76 35 77 36 78 40 79 37 80 39 81 38 82
REMARK H PARENT 55 50 33 61
REMARK Flexibility Score: inf
ROOT
ATOM      1  C   UNL A   1      33.939  33.907  28.000  1.00  0.00     0.202 C 
ENDROOT
BRANCH   1   2
ATOM      2  C   UNL A   1      34.332  32.500  28.454  1.00  0.00     0.261 C 
BRANCH   2   3
ATOM      3  O   UNL A   1      34.410  31.632  27.309  1.00  0.00    -0.463 OA
BRANCH   3   4
ATOM      4  C   UNL A   1      33.500  30.625  27.267  1.00  0.00     0.313 C 
ATOM      5  O   UNL A   1      32.289  30.796  27.182  1.00  0.00    -0.252 OA
BRANCH   4   6
ATOM      6  C   UNL A   1      34.159  29.241  27.266  1.00  0.00     0.126 C 
ATOM      7  C   UNL A   1      35.644  29.211  27.642  1.00  0.00     0.025 C 
BRANCH   6   8
ATOM      8  C   UNL A   1      33.927  28.508  25.952  1.00  0.00    -0.033 A 
ATOM      9  C   UNL A   1      33.509  29.167  24.795  1.00  0.00     0.005 A 
ATOM     10  C   UNL A   1      34.123  27.125  25.882  1.00  0.00     0.013 A 
ATOM     11  C   UNL A   1      33.258  28.464  23.620  1.00  0.00     0.004 A 
ATOM     12  C   UNL A   1      33.812  26.375  24.724  1.00  0.00    -0.015 A 
ATOM     13  C   UNL A   1      33.339  27.062  23.581  1.00  0.00    -0.039 A 
BRANCH  12  14
ATOM     14  C   UNL A   1      33.948  24.908  24.805  1.00  0.00    -0.018 A 
ATOM     15  C   UNL A   1      33.350  24.163  25.832  1.00  0.00     0.009 A 
ATOM     16  C   UNL A   1      34.666  24.214  23.816  1.00  0.00     0.009 A 
ATOM     17  C   UNL A   1      33.502  22.775  25.891  1.00  0.00     0.001 A 
ATOM     18  C   UNL A   1      34.803  22.826  23.862  1.00  0.00     0.001 A 
ATOM     19  C   UNL A   1      34.228  22.108  24.907  1.00  0.00     0.000 A 
ENDBRANCH  12  14
BRANCH  13  20
ATOM     20  C   UNL A   1      32.829  26.372  22.329  1.00  0.00     0.047 C 
BRANCH  20  21
ATOM     21  C   UNL A   1      31.329  26.034  22.294  1.00  0.00     0.060 C 
ATOM     22  C   UNL A   1      30.829  24.992  23.299  1.00  0.00     0.012 C 
ATOM     23  C   UNL A   1      30.449  27.223  22.612  1.00  0.00     0.136 C 
ATOM     24  C   UNL A   1      30.239  25.774  24.468  1.00  0.00     0.009 C 
ATOM     25  C   UNL A   1      29.612  27.014  23.846  1.00  0.00     0.076 C 
ATOM     26  O   UNL A   1      30.409  28.242  21.932  1.00  0.00    -0.299 OA
ENDBRANCH  20  21
ENDBRANCH  13  20
ENDBRANCH   6   8
ENDBRANCH   4   6
ENDBRANCH   3   4
ENDBRANCH   2   3
ENDBRANCH   1   2
BRANCH   1  27
ATOM     27  O   UNL A   1      34.613  34.977  28.672  1.00  0.00    -0.374 OA
BRANCH  27  28
ATOM     28  C   UNL A   1      33.896  36.203  28.811  1.00  0.00     0.202 C 
BRANCH  28  29
ATOM     29  C   UNL A   1      32.744  36.212  29.816  1.00  0.00     0.261 C 
BRANCH  29  30
ATOM     30  O   UNL A   1      33.212  36.499  31.143  1.00  0.00    -0.460 OA
BRANCH  30  31
ATOM     31  C   UNL A   1      32.811  35.610  32.077  1.00  0.00     0.338 C 
ATOM     32  O   UNL A   1      31.665  35.276  32.345  1.00  0.00    -0.246 OA
BRANCH  31  33
ATOM     33  C   UNL A   1      33.985  34.925  32.645  1.00  0.00     0.060 A 
ATOM     34  C   UNL A   1      35.225  35.559  32.495  1.00  0.00     0.016 A 
ATOM     35  C   UNL A   1      33.892  33.674  33.261  1.00  0.00     0.016 A 
ATOM     36  C   UNL A   1      36.388  34.916  32.902  1.00  0.00     0.010 A 
ATOM     37  C   UNL A   1      35.062  33.024  33.661  1.00  0.00     0.010 A 
ATOM     38  C   UNL A   1      36.315  33.626  33.442  1.00  0.00    -0.014 A 
BRANCH  38  39
ATOM     39  C   UNL A   1      37.562  32.846  33.603  1.00  0.00     0.031 A 
ATOM     40  C   UNL A   1      38.372  33.035  34.855  1.00  0.00     0.074 A 
ATOM     41  C   UNL A   1      37.936  31.946  32.677  1.00  0.00     0.049 A 
ATOM     42  N   UNL A   1      39.486  32.452  35.217  1.00  0.00    -0.248 NA
ATOM     43  C   UNL A   1      37.856  34.010  35.831  1.00  0.00     0.031 C 
ATOM     44  C   UNL A   1      37.204  31.639  31.449  1.00  0.00     0.029 A 
ATOM     45  N   UNL A   1      39.030  31.121  32.635  1.00  0.00    -0.354 N 
ATOM     46  C   UNL A   1      39.806  32.993  36.456  1.00  0.00     0.074 A 
ATOM     47  C   UNL A   1      38.787  33.969  36.773  1.00  0.00     0.031 C 
ATOM     48  C   UNL A   1      37.872  30.689  30.773  1.00  0.00     0.029 A 
ATOM     49  C   UNL A   1      39.089  30.345  31.505  1.00  0.00     0.049 A 
ATOM     50  H   UNL A   1      39.709  31.089  33.348  1.00  0.00     0.167 HD
ATOM     51  C   UNL A   1      40.853  32.699  37.262  1.00  0.00     0.031 A 
ATOM     52  C   UNL A   1      40.027  29.467  31.104  1.00  0.00     0.031 A 
ATOM     53  C   UNL A   1      41.872  31.737  36.942  1.00  0.00     0.049 A 
ATOM     54  C   UNL A   1      41.223  29.216  31.983  1.00  0.00     0.074 A 
ATOM     55  C   UNL A   1      42.966  31.356  37.698  1.00  0.00     0.029 A 
ATOM     56  N   UNL A   1      41.923  31.010  35.763  1.00  0.00    -0.354 N 
ATOM     57  N   UNL A   1      41.502  29.715  33.162  1.00  0.00    -0.248 NA
ATOM     58  C   UNL A   1      42.232  28.276  31.473  1.00  0.00     0.031 C 
ATOM     59  C   UNL A   1      43.708  30.434  36.953  1.00  0.00     0.029 A 
ATOM     60  C   UNL A   1      43.047  30.202  35.758  1.00  0.00     0.049 A 
ATOM     61  H   UNL A   1      41.258  31.059  35.039  1.00  0.00     0.167 HD
ATOM     62  C   UNL A   1      42.701  29.129  33.550  1.00  0.00     0.074 A 
ATOM     63  C   UNL A   1      43.091  28.229  32.483  1.00  0.00     0.031 C 
ATOM     64  C   UNL A   1      43.415  29.315  34.686  1.00  0.00     0.031 A 
BRANCH  51  65
ATOM     65  C   UNL A   1      40.966  33.461  38.551  1.00  0.00    -0.014 A 
ATOM     66  C   UNL A   1      40.178  33.131  39.665  1.00  0.00     0.009 A 
ATOM     67  C   UNL A   1      41.895  34.508  38.660  1.00  0.00     0.009 A 
ATOM     68  C   UNL A   1      40.297  33.856  40.854  1.00  0.00     0.001 A 
ATOM     69  C   UNL A   1      42.029  35.214  39.857  1.00  0.00     0.001 A 
ATOM     70  C   UNL A   1      41.225  34.894  40.949  1.00  0.00     0.000 A 
ENDBRANCH  51  65
BRANCH  52  71
ATOM     71  C   UNL A   1      39.888  28.769  29.801  1.00  0.00    -0.014 A 
ATOM     72  C   UNL A   1      39.386  27.461  29.739  1.00  0.00     0.009 A 
ATOM     73  C   UNL A   1      40.276  29.404  28.610  1.00  0.00     0.009 A 
ATOM     74  C   UNL A   1      39.298  26.795  28.513  1.00  0.00     0.001 A 
ATOM     75  C   UNL A   1      40.161  28.746  27.384  1.00  0.00     0.001 A 
ATOM     76  C   UNL A   1      39.681  27.439  27.338  1.00  0.00     0.000 A 
ENDBRANCH  52  71
BRANCH  64  77
ATOM     77  C   UNL A   1      44.671  28.505  34.849  1.00  0.00    -0.014 A 
ATOM     78  C   UNL A   1      44.644  27.227  35.428  1.00  0.00     0.009 A 
ATOM     79  C   UNL A   1      45.891  29.015  34.378  1.00  0.00     0.009 A 
ATOM     80  C   UNL A   1      45.821  26.488  35.557  1.00  0.00     0.001 A 
ATOM     81  C   UNL A   1      47.061  28.262  34.485  1.00  0.00     0.001 A 
ATOM     82  C   UNL A   1      47.026  27.003  35.082  1.00  0.00     0.000 A 
ENDBRANCH  64  77
ENDBRANCH  38  39
ENDBRANCH  31  33
ENDBRANCH  30  31
ENDBRANCH  29  30
ENDBRANCH  28  29
ENDBRANCH  27  28
ENDBRANCH   1  27
TORSDOF 18
ENDMDL
MODEL 2
REMARK VINA RESULT:     -10.8      6.531     11.377
REMARK SMILES C[C@@H](C(=O)OCCOCCOC(=O)c1ccc(-c2c3nc(c(-c4ccccc4)c4ccc([nH]4)c(-c4ccccc4)c4nc(c(-c5ccccc5)c5ccc2[nH]5)C=C4)C=C3)cc1)c1ccc(C[C@H]2CCCC2=O)c(-c2ccccc2)c1
REMARK SMILES IDX 7 1 6 2 5 3 3 4 4 5 2 6 1 7 62 8 63 9 80 10 64 11 73 12
REMARK SMILES IDX 65 13 74 14 75 15 79 16 76 17 78 18 77 19 66 20 67 21 68 22
REMARK SMILES IDX 71 23 69 24 70 25 72 26 8 27 9 28 10 29 11 30 12 31 13 32
REMARK SMILES IDX 14 33 15 34 61 35 16 36 60 37 17 38 18 39 19 40 54 41 20 42
REMARK SMILES IDX 59 43 53 44 55 45 21 46 58 47 52 48 51 49 22 51 44 52 29 53
REMARK SMILES IDX 43 54 30 55 33 56 42 57 56 58 31 59 32 60 41 62 57 63 34 64
REMARK SMILES IDX 23 65 24 66 28 67 25 68 27 69 26 70 45 71 46 72 50 73 47 74
REMARK SMILES IDX 49 75 48 76 35 77 36 78 40 79 37 80 39 81 38 82
REMARK H PARENT 55 50 33 61
REMARK Flexibility Score: inf
ROOT
ATOM      1  C   UNL A   1      40.472  22.277  26.972  1.00  0.00     0.202 C 
ENDROOT
BRANCH   1   2
ATOM      2  C   UNL A   1      39.287  21.821  26.117  1.00  0.00     0.261 C 
BRANCH   2   3
ATOM      3  O   UNL A   1      38.298  22.865  26.076  1.00  0.00    -0.463 OA
BRANCH   3   4
ATOM      4  C   UNL A   1      37.218  22.625  25.289  1.00  0.00     0.313 C 
ATOM      5  O   UNL A   1      37.282  22.161  24.156  1.00  0.00    -0.252 OA
BRANCH   4   6
ATOM      6  C   UNL A   1      35.896  22.936  26.000  1.00  0.00     0.126 C 
ATOM      7  C   UNL A   1      35.105  21.722  26.495  1.00  0.00     0.025 C 
BRANCH   6   8
ATOM      8  C   UNL A   1      35.007  23.844  25.162  1.00  0.00    -0.033 A 
ATOM      9  C   UNL A   1      34.790  23.626  23.800  1.00  0.00     0.005 A 
ATOM     10  C   UNL A   1      34.385  24.949  25.753  1.00  0.00     0.013 A 
ATOM     11  C   UNL A   1      34.011  24.501  23.049  1.00  0.00     0.004 A 
ATOM     12  C   UNL A   1      33.644  25.892  25.003  1.00  0.00    -0.015 A 
ATOM     13  C   UNL A   1      33.484  25.674  23.614  1.00  0.00    -0.039 A 
BRANCH  12  14
ATOM     14  C   UNL A   1      33.132  27.078  25.715  1.00  0.00    -0.018 A 
ATOM     15  C   UNL A   1      33.644  28.363  25.480  1.00  0.00     0.009 A 
ATOM     16  C   UNL A   1      32.078  26.945  26.634  1.00  0.00     0.009 A 
ATOM     17  C   UNL A   1      33.148  29.470  26.174  1.00  0.00     0.001 A 
ATOM     18  C   UNL A   1      31.567  28.051  27.315  1.00  0.00     0.001 A 
ATOM     19  C   UNL A   1      32.110  29.313  27.090  1.00  0.00     0.000 A 
ENDBRANCH  12  14
BRANCH  13  20
ATOM     20  C   UNL A   1      32.846  26.675  22.668  1.00  0.00     0.047 C 
BRANCH  20  21
ATOM     21  C   UNL A   1      31.371  26.434  22.307  1.00  0.00     0.060 C 
ATOM     22  C   UNL A   1      30.642  25.324  23.070  1.00  0.00     0.012 C 
ATOM     23  C   UNL A   1      30.492  27.634  22.585  1.00  0.00     0.136 C 
ATOM     24  C   UNL A   1      29.864  26.012  24.186  1.00  0.00     0.009 C 
ATOM     25  C   UNL A   1      29.420  27.346  23.603  1.00  0.00     0.076 C 
ATOM     26  O   UNL A   1      30.625  28.719  22.032  1.00  0.00    -0.299 OA
ENDBRANCH  20  21
ENDBRANCH  13  20
ENDBRANCH   6   8
ENDBRANCH   4   6
ENDBRANCH   3   4
ENDBRANCH   2   3
ENDBRANCH   1   2
BRANCH   1  27
ATOM     27  O   UNL A   1      41.723  21.651  26.667  1.00  0.00    -0.374 OA
BRANCH  27  28
ATOM     28  C   UNL A   1      41.809  20.243  26.883  1.00  0.00     0.202 C 
BRANCH  28  29
ATOM     29  C   UNL A   1      42.329  19.403  25.716  1.00  0.00     0.261 C 
BRANCH  29  30
ATOM     30  O   UNL A   1      43.764  19.353  25.707  1.00  0.00    -0.460 OA
BRANCH  30  31
ATOM     31  C   UNL A   1      44.331  19.897  24.608  1.00  0.00     0.338 C 
ATOM     32  O   UNL A   1      44.380  19.421  23.482  1.00  0.00    -0.246 OA
BRANCH  31  33
ATOM     33  C   UNL A   1      44.750  21.278  24.898  1.00  0.00     0.060 A 
ATOM     34  C   UNL A   1      45.327  21.518  26.152  1.00  0.00     0.016 A 
ATOM     35  C   UNL A   1      44.542  22.326  23.997  1.00  0.00     0.016 A 
ATOM     36  C   UNL A   1      45.638  22.816  26.538  1.00  0.00     0.010 A 
ATOM     37  C   UNL A   1      44.846  23.631  24.388  1.00  0.00     0.010 A 
ATOM     38  C   UNL A   1      45.354  23.883  25.677  1.00  0.00    -0.014 A 
BRANCH  38  39
ATOM     39  C   UNL A   1      45.420  25.264  26.202  1.00  0.00     0.031 A 
ATOM     40  C   UNL A   1      46.742  25.980  26.179  1.00  0.00     0.074 A 
ATOM     41  C   UNL A   1      44.314  25.888  26.641  1.00  0.00     0.049 A 
ATOM     42  N   UNL A   1      47.034  27.193  26.571  1.00  0.00    -0.248 NA
ATOM     43  C   UNL A   1      47.887  25.229  25.637  1.00  0.00     0.031 C 
ATOM     44  C   UNL A   1      42.969  25.314  26.663  1.00  0.00     0.029 A 
ATOM     45  N   UNL A   1      44.152  27.151  27.149  1.00  0.00    -0.354 N 
ATOM     46  C   UNL A   1      48.394  27.347  26.330  1.00  0.00     0.074 A 
ATOM     47  C   UNL A   1      48.875  26.098  25.783  1.00  0.00     0.031 C 
ATOM     48  C   UNL A   1      42.117  26.227  27.161  1.00  0.00     0.029 A 
ATOM     49  C   UNL A   1      42.860  27.433  27.517  1.00  0.00     0.049 A 
ATOM     50  H   UNL A   1      44.891  27.795  27.241  1.00  0.00     0.167 HD
ATOM     51  C   UNL A   1      49.172  28.435  26.540  1.00  0.00     0.031 A 
ATOM     52  C   UNL A   1      42.343  28.536  28.089  1.00  0.00     0.031 A 
ATOM     53  C   UNL A   1      48.695  29.673  27.093  1.00  0.00     0.049 A 
ATOM     54  C   UNL A   1      43.246  29.704  28.385  1.00  0.00     0.074 A 
ATOM     55  C   UNL A   1      49.400  30.839  27.332  1.00  0.00     0.029 A 
ATOM     56  N   UNL A   1      47.390  29.900  27.501  1.00  0.00    -0.354 N 
ATOM     57  N   UNL A   1      44.523  29.847  28.130  1.00  0.00    -0.248 NA
ATOM     58  C   UNL A   1      42.630  30.865  29.045  1.00  0.00     0.031 C 
ATOM     59  C   UNL A   1      48.532  31.756  27.933  1.00  0.00     0.029 A 
ATOM     60  C   UNL A   1      47.275  31.179  28.018  1.00  0.00     0.049 A 
ATOM     61  H   UNL A   1      46.655  29.249  27.433  1.00  0.00     0.167 HD
ATOM     62  C   UNL A   1      44.859  31.122  28.571  1.00  0.00     0.074 A 
ATOM     63  C   UNL A   1      43.647  31.714  29.099  1.00  0.00     0.031 C 
ATOM     64  C   UNL A   1      46.060  31.748  28.539  1.00  0.00     0.031 A 
BRANCH  51  65
ATOM     65  C   UNL A   1      50.631  28.315  26.204  1.00  0.00    -0.014 A 
ATOM     66  C   UNL A   1      51.122  28.685  24.942  1.00  0.00     0.009 A 
ATOM     67  C   UNL A   1      51.530  27.847  27.175  1.00  0.00     0.009 A 
ATOM     68  C   UNL A   1      52.483  28.561  24.651  1.00  0.00     0.001 A 
ATOM     69  C   UNL A   1      52.893  27.747  26.889  1.00  0.00     0.001 A 
ATOM     70  C   UNL A   1      53.367  28.096  25.625  1.00  0.00     0.000 A 
ENDBRANCH  51  65
BRANCH  52  71
ATOM     71  C   UNL A   1      40.900  28.589  28.438  1.00  0.00    -0.014 A 
ATOM     72  C   UNL A   1      40.438  28.073  29.657  1.00  0.00     0.009 A 
ATOM     73  C   UNL A   1      39.973  29.142  27.540  1.00  0.00     0.009 A 
ATOM     74  C   UNL A   1      39.074  28.087  29.959  1.00  0.00     0.001 A 
ATOM     75  C   UNL A   1      38.614  29.179  27.856  1.00  0.00     0.001 A 
ATOM     76  C   UNL A   1      38.164  28.643  29.062  1.00  0.00     0.000 A 
ENDBRANCH  52  71
BRANCH  64  77
ATOM     77  C   UNL A   1      46.115  33.157  29.058  1.00  0.00    -0.014 A 
ATOM     78  C   UNL A   1      46.446  33.428  30.394  1.00  0.00     0.009 A 
ATOM     79  C   UNL A   1      45.874  34.228  28.183  1.00  0.00     0.009 A 
ATOM     80  C   UNL A   1      46.505  34.746  30.852  1.00  0.00     0.001 A 
ATOM     81  C   UNL A   1      45.960  35.545  28.638  1.00  0.00     0.001 A 
ATOM     82  C   UNL A   1      46.266  35.802  29.973  1.00  0.00     0.000 A 
ENDBRANCH  64  77
ENDBRANCH  38  39
ENDBRANCH  31  33
ENDBRANCH  30  31
ENDBRANCH  29  30
ENDBRANCH  28  29
ENDBRANCH  27  28
ENDBRANCH   1  27
TORSDOF 18
ENDMDL
MODEL 3
REMARK VINA RESULT:     -10.0      3.447      5.549
REMARK SMILES C[C@@H](C(=O)OCCOCCOC(=O)c1ccc(-c2c3nc(c(-c4ccccc4)c4ccc([nH]4)c(-c4ccccc4)c4nc(c(-c5ccccc5)c5ccc2[nH]5)C=C4)C=C3)cc1)c1ccc(C[C@H]2CCCC2=O)c(-c2ccccc2)c1
REMARK SMILES IDX 7 1 6 2 5 3 3 4 4 5 2 6 1 7 62 8 63 9 80 10 64 11 73 12
REMARK SMILES IDX 65 13 74 14 75 15 79 16 76 17 78 18 77 19 66 20 67 21 68 22
REMARK SMILES IDX 71 23 69 24 70 25 72 26 8 27 9 28 10 29 11 30 12 31 13 32
REMARK SMILES IDX 14 33 15 34 61 35 16 36 60 37 17 38 18 39 19 40 54 41 20 42
REMARK SMILES IDX 59 43 53 44 55 45 21 46 58 47 52 48 51 49 22 51 44 52 29 53
REMARK SMILES IDX 43 54 30 55 33 56 42 57 56 58 31 59 32 60 41 62 57 63 34 64
REMARK SMILES IDX 23 65 24 66 28 67 25 68 27 69 26 70 45 71 46 72 50 73 47 74
REMARK SMILES IDX 49 75 48 76 35 77 36 78 40 79 37 80 39 81 38 82
REMARK H PARENT 55 50 33 61
REMARK Flexibility Score: inf
ROOT
ATOM      1  C   UNL A   1      32.881  34.917  29.104  1.00  0.00     0.202 C 
ENDROOT
BRANCH   1   2
ATOM      2  C   UNL A   1      34.190  34.217  28.733  1.00  0.00     0.261 C 
BRANCH   2   3
ATOM      3  O   UNL A   1      33.953  32.805  28.586  1.00  0.00    -0.463 OA
BRANCH   3   4
ATOM      4  C   UNL A   1      34.975  32.085  28.057  1.00  0.00     0.313 C 
ATOM      5  O   UNL A   1      35.949  32.580  27.501  1.00  0.00    -0.252 OA
BRANCH   4   6
ATOM      6  C   UNL A   1      34.812  30.579  28.294  1.00  0.00     0.126 C 
ATOM      7  C   UNL A   1      36.114  29.780  28.411  1.00  0.00     0.025 C 
BRANCH   6   8
ATOM      8  C   UNL A   1      33.889  29.945  27.263  1.00  0.00    -0.033 A 
ATOM      9  C   UNL A   1      32.912  30.677  26.587  1.00  0.00     0.005 A 
ATOM     10  C   UNL A   1      33.998  28.580  26.976  1.00  0.00     0.013 A 
ATOM     11  C   UNL A   1      32.049  30.060  25.685  1.00  0.00     0.004 A 
ATOM     12  C   UNL A   1      33.095  27.913  26.117  1.00  0.00    -0.015 A 
ATOM     13  C   UNL A   1      32.080  28.670  25.485  1.00  0.00    -0.039 A 
BRANCH  12  14
ATOM     14  C   UNL A   1      33.237  26.451  25.980  1.00  0.00    -0.018 A 
ATOM     15  C   UNL A   1      34.381  25.866  25.416  1.00  0.00     0.009 A 
ATOM     16  C   UNL A   1      32.224  25.600  26.453  1.00  0.00     0.009 A 
ATOM     17  C   UNL A   1      34.487  24.478  25.291  1.00  0.00     0.001 A 
ATOM     18  C   UNL A   1      32.336  24.213  26.347  1.00  0.00     0.001 A 
ATOM     19  C   UNL A   1      33.466  23.653  25.756  1.00  0.00     0.000 A 
ENDBRANCH  12  14
BRANCH  13  20
ATOM     20  C   UNL A   1      30.958  28.062  24.661  1.00  0.00     0.047 C 
BRANCH  20  21
ATOM     21  C   UNL A   1      31.219  27.911  23.154  1.00  0.00     0.060 C 
ATOM     22  C   UNL A   1      32.308  28.798  22.545  1.00  0.00     0.012 C 
ATOM     23  C   UNL A   1      31.694  26.526  22.773  1.00  0.00     0.136 C 
ATOM     24  C   UNL A   1      33.564  27.938  22.463  1.00  0.00     0.009 C 
ATOM     25  C   UNL A   1      33.069  26.532  22.158  1.00  0.00     0.076 C 
ATOM     26  O   UNL A   1      31.030  25.509  22.932  1.00  0.00    -0.299 OA
ENDBRANCH  20  21
ENDBRANCH  13  20
ENDBRANCH   6   8
ENDBRANCH   4   6
ENDBRANCH   3   4
ENDBRANCH   2   3
ENDBRANCH   1   2
BRANCH   1  27
ATOM     27  O   UNL A   1      32.943  36.347  29.146  1.00  0.00    -0.374 OA
BRANCH  27  28
ATOM     28  C   UNL A   1      33.326  36.939  30.387  1.00  0.00     0.202 C 
BRANCH  28  29
ATOM     29  C   UNL A   1      33.032  36.130  31.650  1.00  0.00     0.261 C 
BRANCH  29  30
ATOM     30  O   UNL A   1      34.236  35.584  32.211  1.00  0.00    -0.460 OA
BRANCH  30  31
ATOM     31  C   UNL A   1      34.102  34.330  32.697  1.00  0.00     0.338 C 
ATOM     32  O   UNL A   1      33.064  33.745  32.974  1.00  0.00    -0.246 OA
BRANCH  31  33
ATOM     33  C   UNL A   1      35.410  33.653  32.688  1.00  0.00     0.060 A 
ATOM     34  C   UNL A   1      36.366  34.105  33.607  1.00  0.00     0.016 A 
ATOM     35  C   UNL A   1      35.719  32.640  31.776  1.00  0.00     0.016 A 
ATOM     36  C   UNL A   1      37.657  33.592  33.576  1.00  0.00     0.010 A 
ATOM     37  C   UNL A   1      37.019  32.132  31.738  1.00  0.00     0.010 A 
ATOM     38  C   UNL A   1      38.002  32.639  32.609  1.00  0.00    -0.014 A 
BRANCH  38  39
ATOM     39  C   UNL A   1      39.430  32.316  32.401  1.00  0.00     0.031 A 
ATOM     40  C   UNL A   1      40.235  33.182  31.472  1.00  0.00     0.074 A 
ATOM     41  C   UNL A   1      40.013  31.306  33.068  1.00  0.00     0.049 A 
ATOM     42  N   UNL A   1      41.500  33.099  31.149  1.00  0.00    -0.248 NA
ATOM     43  C   UNL A   1      39.519  34.293  30.822  1.00  0.00     0.031 C 
ATOM     44  C   UNL A   1      39.347  30.432  34.033  1.00  0.00     0.029 A 
ATOM     45  N   UNL A   1      41.306  30.851  33.035  1.00  0.00    -0.354 N 
ATOM     46  C   UNL A   1      41.728  34.138  30.256  1.00  0.00     0.074 A 
ATOM     47  C   UNL A   1      40.469  34.823  30.066  1.00  0.00     0.031 C 
ATOM     48  C   UNL A   1      40.241  29.544  34.501  1.00  0.00     0.029 A 
ATOM     49  C   UNL A   1      41.528  29.769  33.849  1.00  0.00     0.049 A 
ATOM     50  H   UNL A   1      42.008  31.261  32.479  1.00  0.00     0.167 HD
ATOM     51  C   UNL A   1      42.886  34.495  29.652  1.00  0.00     0.031 A 
ATOM     52  C   UNL A   1      42.643  29.038  34.033  1.00  0.00     0.031 A 
ATOM     53  C   UNL A   1      44.135  33.808  29.832  1.00  0.00     0.049 A 
ATOM     54  C   UNL A   1      43.898  29.407  33.289  1.00  0.00     0.074 A 
ATOM     55  C   UNL A   1      45.368  34.100  29.277  1.00  0.00     0.029 A 
ATOM     56  N   UNL A   1      44.306  32.685  30.626  1.00  0.00    -0.354 N 
ATOM     57  N   UNL A   1      44.107  30.407  32.467  1.00  0.00    -0.248 NA
ATOM     58  C   UNL A   1      45.071  28.548  33.503  1.00  0.00     0.031 C 
ATOM     59  C   UNL A   1      46.275  33.121  29.695  1.00  0.00     0.029 A 
ATOM     60  C   UNL A   1      45.619  32.252  30.552  1.00  0.00     0.049 A 
ATOM     61  H   UNL A   1      43.600  32.258  31.162  1.00  0.00     0.167 HD
ATOM     62  C   UNL A   1      45.442  30.315  32.089  1.00  0.00     0.074 A 
ATOM     63  C   UNL A   1      45.994  29.167  32.780  1.00  0.00     0.031 C 
ATOM     64  C   UNL A   1      46.147  31.108  31.248  1.00  0.00     0.031 A 
BRANCH  51  65
ATOM     65  C   UNL A   1      42.840  35.661  28.707  1.00  0.00    -0.014 A 
ATOM     66  C   UNL A   1      43.046  36.975  29.157  1.00  0.00     0.009 A 
ATOM     67  C   UNL A   1      42.611  35.439  27.340  1.00  0.00     0.009 A 
ATOM     68  C   UNL A   1      42.994  38.045  28.261  1.00  0.00     0.001 A 
ATOM     69  C   UNL A   1      42.584  36.508  26.443  1.00  0.00     0.001 A 
ATOM     70  C   UNL A   1      42.767  37.810  26.904  1.00  0.00     0.000 A 
ENDBRANCH  51  65
BRANCH  52  71
ATOM     71  C   UNL A   1      42.625  27.869  34.950  1.00  0.00    -0.014 A 
ATOM     72  C   UNL A   1      43.003  28.006  36.294  1.00  0.00     0.009 A 
ATOM     73  C   UNL A   1      42.247  26.602  34.478  1.00  0.00     0.009 A 
ATOM     74  C   UNL A   1      43.025  26.894  37.139  1.00  0.00     0.001 A 
ATOM     75  C   UNL A   1      42.245  25.497  35.332  1.00  0.00     0.001 A 
ATOM     76  C   UNL A   1      42.643  25.642  36.659  1.00  0.00     0.000 A 
ENDBRANCH  52  71
BRANCH  64  77
ATOM     77  C   UNL A   1      47.602  30.785  31.055  1.00  0.00    -0.014 A 
ATOM     78  C   UNL A   1      48.593  31.387  31.846  1.00  0.00     0.009 A 
ATOM     79  C   UNL A   1      47.980  29.831  30.097  1.00  0.00     0.009 A 
ATOM     80  C   UNL A   1      49.938  31.061  31.659  1.00  0.00     0.001 A 
ATOM     81  C   UNL A   1      49.322  29.488  29.931  1.00  0.00     0.001 A 
ATOM     82  C   UNL A   1      50.300  30.109  30.706  1.00  0.00     0.000 A 
ENDBRANCH  64  77
ENDBRANCH  38  39
ENDBRANCH  31  33
ENDBRANCH  30  31
ENDBRANCH  29  30
ENDBRANCH  28  29
ENDBRANCH  27  28
ENDBRANCH   1  27
TORSDOF 18
ENDMDL
