MODEL 1
REMARK VINA RESULT:     -10.9      0.000      0.000
REMARK SMILES CCc1cc(C(=O)c2[nH]c3cc(Cl)ccc3c2CC(=O)OCCOCCOC(=O)c2ccc(-c3c4nc(c(-c5ccccc5)c5ccc([nH]5)c(-c5ccccc5)c5nc(c(-c6ccccc6)c6ccc3[nH]6)C=C5)C=C4)cc2)ncc1Cl
REMARK SMILES IDX 23 1 22 2 21 3 19 4 20 5 18 6 17 7 8 8 9 9 10 10 16 12 11 13
REMARK SMILES IDX 15 14 12 15 14 16 13 17 6 18 7 19 5 20 3 21 4 22 80 23 79 24
REMARK SMILES IDX 81 25 78 26 2 27 1 28 24 29 25 30 26 31 27 32 28 33 29 34
REMARK SMILES IDX 30 35 31 36 77 37 32 38 76 39 33 40 34 41 35 42 70 43 36 44
REMARK SMILES IDX 75 45 69 46 71 47 37 48 74 49 68 50 67 51 38 53 60 54 45 55
REMARK SMILES IDX 59 56 46 57 49 58 58 59 72 60 47 61 48 62 57 64 73 65 50 66
REMARK SMILES IDX 39 67 40 68 44 69 41 70 43 71 42 72 61 73 62 74 66 75 63 76
REMARK SMILES IDX 65 77 64 78 51 79 52 80 56 81 53 82 55 83 54 84
REMARK H PARENT 9 11 71 52 49 63
REMARK Flexibility Score: inf
ROOT
ATOM      1  C   UNL A   1      38.521  23.448  26.081  1.00  0.00     0.202 C 
ENDROOT
BRANCH   1   2
ATOM      2  C   UNL A   1      37.046  23.807  26.285  1.00  0.00     0.261 C 
BRANCH   2   3
ATOM      3  O   UNL A   1      36.385  24.148  25.044  1.00  0.00    -0.463 OA
BRANCH   3   4
ATOM      4  C   UNL A   1      35.050  24.379  25.151  1.00  0.00     0.310 C 
ATOM      5  O   UNL A   1      34.451  25.238  24.504  1.00  0.00    -0.252 OA
BRANCH   4   6
ATOM      6  C   UNL A   1      34.318  23.545  26.181  1.00  0.00     0.161 C 
BRANCH   6   7
ATOM      7  C   UNL A   1      33.361  22.477  25.719  1.00  0.00     0.000 A 
ATOM      8  C   UNL A   1      31.972  22.449  25.887  1.00  0.00     0.093 A 
ATOM      9  N   UNL A   1      31.528  21.285  25.295  1.00  0.00    -0.351 N 
ATOM     10  C   UNL A   1      32.581  20.448  25.026  1.00  0.00     0.048 A 
ATOM     11  H   UNL A   1      30.585  21.085  25.094  1.00  0.00     0.167 HD
ATOM     12  C   UNL A   1      33.746  21.179  25.240  1.00  0.00     0.004 A 
ATOM     13  C   UNL A   1      32.588  19.104  24.626  1.00  0.00     0.047 A 
ATOM     14  C   UNL A   1      34.987  20.540  25.036  1.00  0.00     0.012 A 
ATOM     15  C   UNL A   1      33.833  18.487  24.474  1.00  0.00     0.043 A 
ATOM     16  C   UNL A   1      35.018  19.188  24.669  1.00  0.00     0.021 A 
ATOM     17  Cl  UNL A   1      33.897  16.816  24.059  1.00  0.00    -0.084 Cl
BRANCH   8  18
ATOM     18  C   UNL A   1      31.127  23.442  26.546  1.00  0.00     0.227 C 
ATOM     19  O   UNL A   1      30.480  23.183  27.557  1.00  0.00    -0.285 OA
BRANCH  18  20
ATOM     20  C   UNL A   1      30.989  24.819  25.973  1.00  0.00     0.113 A 
ATOM     21  C   UNL A   1      31.549  27.177  25.954  1.00  0.00    -0.026 A 
ATOM     22  C   UNL A   1      31.615  25.914  26.573  1.00  0.00     0.037 A 
ATOM     23  C   UNL A   1      30.890  27.255  24.715  1.00  0.00     0.062 A 
ATOM     24  C   UNL A   1      30.289  26.112  24.199  1.00  0.00     0.132 A 
ATOM     25  Cl  UNL A   1      30.823  28.706  23.786  1.00  0.00    -0.082 Cl
ATOM     26  N   UNL A   1      30.306  24.903  24.806  1.00  0.00    -0.251 NA
BRANCH  21  27
ATOM     27  C   UNL A   1      32.237  28.389  26.548  1.00  0.00     0.034 C 
ATOM     28  C   UNL A   1      33.746  28.282  26.747  1.00  0.00     0.009 C 
ENDBRANCH  21  27
ENDBRANCH  18  20
ENDBRANCH   8  18
ENDBRANCH   6   7
ENDBRANCH   4   6
ENDBRANCH   3   4
ENDBRANCH   2   3
ENDBRANCH   1   2
BRANCH   1  29
ATOM     29  O   UNL A   1      38.899  22.101  26.374  1.00  0.00    -0.374 OA
BRANCH  29  30
ATOM     30  C   UNL A   1      38.519  21.110  25.420  1.00  0.00     0.202 C 
BRANCH  30  31
ATOM     31  C   UNL A   1      39.308  19.797  25.479  1.00  0.00     0.261 C 
BRANCH  31  32
ATOM     32  O   UNL A   1      40.301  19.797  26.519  1.00  0.00    -0.460 OA
BRANCH  32  33
ATOM     33  C   UNL A   1      41.571  19.924  26.072  1.00  0.00     0.338 C 
ATOM     34  O   UNL A   1      42.158  19.207  25.274  1.00  0.00    -0.246 OA
BRANCH  33  35
ATOM     35  C   UNL A   1      42.165  21.176  26.568  1.00  0.00     0.060 A 
ATOM     36  C   UNL A   1      42.182  21.369  27.956  1.00  0.00     0.016 A 
ATOM     37  C   UNL A   1      42.614  22.178  25.703  1.00  0.00     0.016 A 
ATOM     38  C   UNL A   1      42.589  22.591  28.482  1.00  0.00     0.010 A 
ATOM     39  C   UNL A   1      43.017  23.407  26.235  1.00  0.00     0.010 A 
ATOM     40  C   UNL A   1      42.965  23.631  27.623  1.00  0.00    -0.014 A 
BRANCH  40  41
ATOM     41  C   UNL A   1      43.151  24.990  28.182  1.00  0.00     0.031 A 
ATOM     42  C   UNL A   1      44.539  25.445  28.540  1.00  0.00     0.074 A 
ATOM     43  C   UNL A   1      42.106  25.826  28.309  1.00  0.00     0.049 A 
ATOM     44  N   UNL A   1      44.939  26.605  28.996  1.00  0.00    -0.248 NA
ATOM     45  C   UNL A   1      45.620  24.463  28.356  1.00  0.00     0.031 C 
ATOM     46  C   UNL A   1      40.722  25.509  27.957  1.00  0.00     0.029 A 
ATOM     47  N   UNL A   1      42.051  27.119  28.762  1.00  0.00    -0.354 N 
ATOM     48  C   UNL A   1      46.315  26.492  29.153  1.00  0.00     0.074 A 
ATOM     49  C   UNL A   1      46.676  25.143  28.777  1.00  0.00     0.031 C 
ATOM     50  C   UNL A   1      39.953  26.583  28.204  1.00  0.00     0.029 A 
ATOM     51  C   UNL A   1      40.786  27.651  28.752  1.00  0.00     0.049 A 
ATOM     52  H   UNL A   1      42.844  27.618  29.065  1.00  0.00     0.167 HD
ATOM     53  C   UNL A   1      47.200  27.430  29.566  1.00  0.00     0.031 A 
ATOM     54  C   UNL A   1      40.351  28.862  29.147  1.00  0.00     0.031 A 
ATOM     55  C   UNL A   1      46.835  28.765  29.956  1.00  0.00     0.049 A 
ATOM     56  C   UNL A   1      41.345  29.866  29.665  1.00  0.00     0.074 A 
ATOM     57  C   UNL A   1      47.655  29.796  30.380  1.00  0.00     0.029 A 
ATOM     58  N   UNL A   1      45.536  29.251  29.973  1.00  0.00    -0.354 N 
ATOM     59  N   UNL A   1      42.647  29.758  29.779  1.00  0.00    -0.248 NA
ATOM     60  C   UNL A   1      40.809  31.166  30.098  1.00  0.00     0.031 C 
ATOM     61  C   UNL A   1      46.845  30.890  30.704  1.00  0.00     0.029 A 
ATOM     62  C   UNL A   1      45.529  30.559  30.429  1.00  0.00     0.049 A 
ATOM     63  H   UNL A   1      44.738  28.742  29.704  1.00  0.00     0.167 HD
ATOM     64  C   UNL A   1      43.088  30.979  30.273  1.00  0.00     0.074 A 
ATOM     65  C   UNL A   1      41.917  31.818  30.422  1.00  0.00     0.031 C 
ATOM     66  C   UNL A   1      44.350  31.373  30.573  1.00  0.00     0.031 A 
BRANCH  53  67
ATOM     67  C   UNL A   1      48.645  27.027  29.647  1.00  0.00    -0.014 A 
ATOM     68  C   UNL A   1      49.177  26.449  30.812  1.00  0.00     0.009 A 
ATOM     69  C   UNL A   1      49.484  27.210  28.536  1.00  0.00     0.009 A 
ATOM     70  C   UNL A   1      50.527  26.095  30.871  1.00  0.00     0.001 A 
ATOM     71  C   UNL A   1      50.826  26.831  28.591  1.00  0.00     0.001 A 
ATOM     72  C   UNL A   1      51.349  26.283  29.761  1.00  0.00     0.000 A 
ENDBRANCH  53  67
BRANCH  54  73
ATOM     73  C   UNL A   1      38.904  29.192  29.076  1.00  0.00    -0.014 A 
ATOM     74  C   UNL A   1      38.334  29.676  27.888  1.00  0.00     0.009 A 
ATOM     75  C   UNL A   1      38.083  29.028  30.203  1.00  0.00     0.009 A 
ATOM     76  C   UNL A   1      36.978  30.008  27.838  1.00  0.00     0.001 A 
ATOM     77  C   UNL A   1      36.722  29.337  30.143  1.00  0.00     0.001 A 
ATOM     78  C   UNL A   1      36.173  29.834  28.963  1.00  0.00     0.000 A 
ENDBRANCH  54  73
BRANCH  66  79
ATOM     79  C   UNL A   1      44.531  32.781  31.065  1.00  0.00    -0.014 A 
ATOM     80  C   UNL A   1      44.732  33.844  30.171  1.00  0.00     0.009 A 
ATOM     81  C   UNL A   1      44.456  33.050  32.441  1.00  0.00     0.009 A 
ATOM     82  C   UNL A   1      44.886  35.146  30.650  1.00  0.00     0.001 A 
ATOM     83  C   UNL A   1      44.582  34.358  32.913  1.00  0.00     0.001 A 
ATOM     84  C   UNL A   1      44.806  35.403  32.019  1.00  0.00     0.000 A 
ENDBRANCH  66  79
ENDBRANCH  40  41
ENDBRANCH  33  35
ENDBRANCH  32  33
ENDBRANCH  31  32
ENDBRANCH  30  31
ENDBRANCH  29  30
ENDBRANCH   1  29
TORSDOF 18
ENDMDL
MODEL 2
REMARK VINA RESULT:     -10.7      4.076      8.485
REMARK SMILES CCc1cc(C(=O)c2[nH]c3cc(Cl)ccc3c2CC(=O)OCCOCCOC(=O)c2ccc(-c3c4nc(c(-c5ccccc5)c5ccc([nH]5)c(-c5ccccc5)c5nc(c(-c6ccccc6)c6ccc3[nH]6)C=C5)C=C4)cc2)ncc1Cl
REMARK SMILES IDX 23 1 22 2 21 3 19 4 20 5 18 6 17 7 8 8 9 9 10 10 16 12 11 13
REMARK SMILES IDX 15 14 12 15 14 16 13 17 6 18 7 19 5 20 3 21 4 22 80 23 79 24
REMARK SMILES IDX 81 25 78 26 2 27 1 28 24 29 25 30 26 31 27 32 28 33 29 34
REMARK SMILES IDX 30 35 31 36 77 37 32 38 76 39 33 40 34 41 35 42 70 43 36 44
REMARK SMILES IDX 75 45 69 46 71 47 37 48 74 49 68 50 67 51 38 53 60 54 45 55
REMARK SMILES IDX 59 56 46 57 49 58 58 59 72 60 47 61 48 62 57 64 73 65 50 66
REMARK SMILES IDX 39 67 40 68 44 69 41 70 43 71 42 72 61 73 62 74 66 75 63 76
REMARK SMILES IDX 65 77 64 78 51 79 52 80 56 81 53 82 55 83 54 84
REMARK H PARENT 9 11 71 52 49 63
REMARK Flexibility Score: inf
ROOT
ATOM      1  C   UNL A   1      31.924  29.449  27.208  1.00  0.00     0.202 C 
ENDROOT
BRANCH   1   2
ATOM      2  C   UNL A   1      31.674  28.084  26.560  1.00  0.00     0.261 C 
BRANCH   2   3
ATOM      3  O   UNL A   1      32.874  27.279  26.491  1.00  0.00    -0.463 OA
BRANCH   3   4
ATOM      4  C   UNL A   1      32.668  25.970  26.184  1.00  0.00     0.310 C 
ATOM      5  O   UNL A   1      31.768  25.288  26.672  1.00  0.00    -0.252 OA
BRANCH   4   6
ATOM      6  C   UNL A   1      33.667  25.353  25.228  1.00  0.00     0.161 C 
BRANCH   6   7
ATOM      7  C   UNL A   1      33.166  24.545  24.059  1.00  0.00     0.000 A 
ATOM      8  C   UNL A   1      32.487  25.015  22.929  1.00  0.00     0.093 A 
ATOM      9  N   UNL A   1      32.241  23.915  22.133  1.00  0.00    -0.351 N 
ATOM     10  C   UNL A   1      32.466  22.754  22.830  1.00  0.00     0.048 A 
ATOM     11  H   UNL A   1      31.945  23.959  21.195  1.00  0.00     0.167 HD
ATOM     12  C   UNL A   1      33.085  23.111  24.024  1.00  0.00     0.004 A 
ATOM     13  C   UNL A   1      32.156  21.428  22.500  1.00  0.00     0.047 A 
ATOM     14  C   UNL A   1      33.423  22.090  24.937  1.00  0.00     0.012 A 
ATOM     15  C   UNL A   1      32.465  20.444  23.443  1.00  0.00     0.043 A 
ATOM     16  C   UNL A   1      33.093  20.761  24.642  1.00  0.00     0.021 A 
ATOM     17  Cl  UNL A   1      32.035  18.806  23.121  1.00  0.00    -0.084 Cl
BRANCH   8  18
ATOM     18  C   UNL A   1      32.105  26.390  22.618  1.00  0.00     0.227 C 
ATOM     19  O   UNL A   1      32.880  27.180  22.085  1.00  0.00    -0.285 OA
BRANCH  18  20
ATOM     20  C   UNL A   1      30.745  26.900  22.986  1.00  0.00     0.113 A 
ATOM     21  C   UNL A   1      28.995  28.569  22.846  1.00  0.00    -0.026 A 
ATOM     22  C   UNL A   1      30.313  28.161  22.569  1.00  0.00     0.037 A 
ATOM     23  C   UNL A   1      28.154  27.645  23.490  1.00  0.00     0.062 A 
ATOM     24  C   UNL A   1      28.676  26.414  23.875  1.00  0.00     0.132 A 
ATOM     25  Cl  UNL A   1      26.487  27.958  23.795  1.00  0.00    -0.082 Cl
ATOM     26  N   UNL A   1      29.953  26.028  23.656  1.00  0.00    -0.251 NA
BRANCH  21  27
ATOM     27  C   UNL A   1      28.467  29.914  22.389  1.00  0.00     0.034 C 
ATOM     28  C   UNL A   1      29.052  31.141  23.082  1.00  0.00     0.009 C 
ENDBRANCH  21  27
ENDBRANCH  18  20
ENDBRANCH   8  18
ENDBRANCH   6   7
ENDBRANCH   4   6
ENDBRANCH   3   4
ENDBRANCH   2   3
ENDBRANCH   1   2
BRANCH   1  29
ATOM     29  O   UNL A   1      32.271  30.521  26.328  1.00  0.00    -0.374 OA
BRANCH  29  30
ATOM     30  C   UNL A   1      31.321  31.580  26.206  1.00  0.00     0.202 C 
BRANCH  30  31
ATOM     31  C   UNL A   1      31.792  32.953  26.698  1.00  0.00     0.261 C 
BRANCH  31  32
ATOM     32  O   UNL A   1      32.498  32.877  27.949  1.00  0.00    -0.460 OA
BRANCH  32  33
ATOM     33  C   UNL A   1      33.523  33.753  28.061  1.00  0.00     0.338 C 
ATOM     34  O   UNL A   1      33.464  34.975  28.070  1.00  0.00    -0.246 OA
BRANCH  33  35
ATOM     35  C   UNL A   1      34.780  33.038  28.331  1.00  0.00     0.060 A 
ATOM     36  C   UNL A   1      34.682  31.687  28.690  1.00  0.00     0.016 A 
ATOM     37  C   UNL A   1      36.018  33.686  28.323  1.00  0.00     0.016 A 
ATOM     38  C   UNL A   1      35.816  30.995  29.103  1.00  0.00     0.010 A 
ATOM     39  C   UNL A   1      37.155  32.989  28.746  1.00  0.00     0.010 A 
ATOM     40  C   UNL A   1      37.049  31.655  29.178  1.00  0.00    -0.014 A 
BRANCH  40  41
ATOM     41  C   UNL A   1      38.182  30.981  29.854  1.00  0.00     0.031 A 
ATOM     42  C   UNL A   1      38.418  31.248  31.315  1.00  0.00     0.074 A 
ATOM     43  C   UNL A   1      38.948  30.100  29.190  1.00  0.00     0.049 A 
ATOM     44  N   UNL A   1      39.316  30.734  32.117  1.00  0.00    -0.248 NA
ATOM     45  C   UNL A   1      37.520  32.220  31.959  1.00  0.00     0.031 C 
ATOM     46  C   UNL A   1      38.789  29.733  27.783  1.00  0.00     0.029 A 
ATOM     47  N   UNL A   1      40.011  29.346  29.617  1.00  0.00    -0.354 N 
ATOM     48  C   UNL A   1      39.091  31.319  33.357  1.00  0.00     0.074 A 
ATOM     49  C   UNL A   1      37.997  32.251  33.195  1.00  0.00     0.031 C 
ATOM     50  C   UNL A   1      39.720  28.818  27.464  1.00  0.00     0.029 A 
ATOM     51  C   UNL A   1      40.553  28.554  28.635  1.00  0.00     0.049 A 
ATOM     52  H   UNL A   1      40.353  29.370  30.541  1.00  0.00     0.167 HD
ATOM     53  C   UNL A   1      39.733  31.095  34.528  1.00  0.00     0.031 A 
ATOM     54  C   UNL A   1      41.607  27.717  28.678  1.00  0.00     0.031 A 
ATOM     55  C   UNL A   1      40.832  30.181  34.681  1.00  0.00     0.049 A 
ATOM     56  C   UNL A   1      42.346  27.534  29.976  1.00  0.00     0.074 A 
ATOM     57  C   UNL A   1      41.547  29.873  35.826  1.00  0.00     0.029 A 
ATOM     58  N   UNL A   1      41.380  29.430  33.652  1.00  0.00    -0.354 N 
ATOM     59  N   UNL A   1      42.104  28.070  31.148  1.00  0.00    -0.248 NA
ATOM     60  C   UNL A   1      43.499  26.621  29.958  1.00  0.00     0.031 C 
ATOM     61  C   UNL A   1      42.560  28.974  35.477  1.00  0.00     0.029 A 
ATOM     62  C   UNL A   1      42.442  28.681  34.129  1.00  0.00     0.049 A 
ATOM     63  H   UNL A   1      41.062  29.431  32.721  1.00  0.00     0.167 HD
ATOM     64  C   UNL A   1      43.057  27.542  32.011  1.00  0.00     0.074 A 
ATOM     65  C   UNL A   1      43.870  26.633  31.231  1.00  0.00     0.031 C 
ATOM     66  C   UNL A   1      43.240  27.785  33.332  1.00  0.00     0.031 A 
BRANCH  53  67
ATOM     67  C   UNL A   1      39.279  31.881  35.725  1.00  0.00    -0.014 A 
ATOM     68  C   UNL A   1      38.236  31.422  36.547  1.00  0.00     0.009 A 
ATOM     69  C   UNL A   1      39.917  33.089  36.049  1.00  0.00     0.009 A 
ATOM     70  C   UNL A   1      37.820  32.175  37.648  1.00  0.00     0.001 A 
ATOM     71  C   UNL A   1      39.516  33.826  37.165  1.00  0.00     0.001 A 
ATOM     72  C   UNL A   1      38.461  33.374  37.957  1.00  0.00     0.000 A 
ENDBRANCH  53  67
BRANCH  54  73
ATOM     73  C   UNL A   1      42.031  26.993  27.452  1.00  0.00    -0.014 A 
ATOM     74  C   UNL A   1      42.934  27.576  26.549  1.00  0.00     0.009 A 
ATOM     75  C   UNL A   1      41.528  25.712  27.176  1.00  0.00     0.009 A 
ATOM     76  C   UNL A   1      43.306  26.898  25.385  1.00  0.00     0.001 A 
ATOM     77  C   UNL A   1      41.923  25.026  26.025  1.00  0.00     0.001 A 
ATOM     78  C   UNL A   1      42.805  25.623  25.127  1.00  0.00     0.000 A 
ENDBRANCH  54  73
BRANCH  66  79
ATOM     79  C   UNL A   1      44.345  27.035  34.021  1.00  0.00    -0.014 A 
ATOM     80  C   UNL A   1      44.152  25.727  34.493  1.00  0.00     0.009 A 
ATOM     81  C   UNL A   1      45.607  27.632  34.160  1.00  0.00     0.009 A 
ATOM     82  C   UNL A   1      45.196  25.045  35.121  1.00  0.00     0.001 A 
ATOM     83  C   UNL A   1      46.657  26.936  34.762  1.00  0.00     0.001 A 
ATOM     84  C   UNL A   1      46.448  25.647  35.250  1.00  0.00     0.000 A 
ENDBRANCH  66  79
ENDBRANCH  40  41
ENDBRANCH  33  35
ENDBRANCH  32  33
ENDBRANCH  31  32
ENDBRANCH  30  31
ENDBRANCH  29  30
ENDBRANCH   1  29
TORSDOF 18
ENDMDL
MODEL 3
REMARK VINA RESULT:     -10.5      3.559      8.319
REMARK SMILES CCc1cc(C(=O)c2[nH]c3cc(Cl)ccc3c2CC(=O)OCCOCCOC(=O)c2ccc(-c3c4nc(c(-c5ccccc5)c5ccc([nH]5)c(-c5ccccc5)c5nc(c(-c6ccccc6)c6ccc3[nH]6)C=C5)C=C4)cc2)ncc1Cl
REMARK SMILES IDX 23 1 22 2 21 3 19 4 20 5 18 6 17 7 8 8 9 9 10 10 16 12 11 13
REMARK SMILES IDX 15 14 12 15 14 16 13 17 6 18 7 19 5 20 3 21 4 22 80 23 79 24
REMARK SMILES IDX 81 25 78 26 2 27 1 28 24 29 25 30 26 31 27 32 28 33 29 34
REMARK SMILES IDX 30 35 31 36 77 37 32 38 76 39 33 40 34 41 35 42 70 43 36 44
REMARK SMILES IDX 75 45 69 46 71 47 37 48 74 49 68 50 67 51 38 53 60 54 45 55
REMARK SMILES IDX 59 56 46 57 49 58 58 59 72 60 47 61 48 62 57 64 73 65 50 66
REMARK SMILES IDX 39 67 40 68 44 69 41 70 43 71 42 72 61 73 62 74 66 75 63 76
REMARK SMILES IDX 65 77 64 78 51 79 52 80 56 81 53 82 55 83 54 84
REMARK H PARENT 9 11 71 52 49 63
REMARK Flexibility Score: inf
ROOT
ATOM      1  C   UNL A   1      31.473  27.151  25.257  1.00  0.00     0.202 C 
ENDROOT
BRANCH   1   2
ATOM      2  C   UNL A   1      30.975  25.948  24.449  1.00  0.00     0.261 C 
BRANCH   2   3
ATOM      3  O   UNL A   1      32.060  25.189  23.866  1.00  0.00    -0.463 OA
BRANCH   3   4
ATOM      4  C   UNL A   1      31.754  23.901  23.556  1.00  0.00     0.310 C 
ATOM      5  O   UNL A   1      30.624  23.424  23.655  1.00  0.00    -0.252 OA
BRANCH   4   6
ATOM      6  C   UNL A   1      32.917  23.033  23.125  1.00  0.00     0.161 C 
BRANCH   6   7
ATOM      7  C   UNL A   1      33.406  21.945  24.046  1.00  0.00     0.000 A 
ATOM      8  C   UNL A   1      34.398  22.044  25.028  1.00  0.00     0.093 A 
ATOM      9  N   UNL A   1      34.493  20.800  25.617  1.00  0.00    -0.351 N 
ATOM     10  C   UNL A   1      33.831  19.860  24.869  1.00  0.00     0.048 A 
ATOM     11  H   UNL A   1      34.971  20.615  26.458  1.00  0.00     0.167 HD
ATOM     12  C   UNL A   1      33.104  20.548  23.902  1.00  0.00     0.004 A 
ATOM     13  C   UNL A   1      33.833  18.461  24.968  1.00  0.00     0.047 A 
ATOM     14  C   UNL A   1      32.329  19.804  22.988  1.00  0.00     0.012 A 
ATOM     15  C   UNL A   1      33.089  17.751  24.021  1.00  0.00     0.043 A 
ATOM     16  C   UNL A   1      32.343  18.405  23.047  1.00  0.00     0.021 A 
ATOM     17  Cl  UNL A   1      33.119  16.028  24.050  1.00  0.00    -0.084 Cl
BRANCH   8  18
ATOM     18  C   UNL A   1      35.189  23.217  25.391  1.00  0.00     0.227 C 
ATOM     19  O   UNL A   1      34.696  24.340  25.471  1.00  0.00    -0.285 OA
BRANCH  18  20
ATOM     20  C   UNL A   1      36.661  23.091  25.638  1.00  0.00     0.113 A 
ATOM     21  C   UNL A   1      38.758  23.979  26.466  1.00  0.00    -0.026 A 
ATOM     22  C   UNL A   1      37.398  24.161  26.150  1.00  0.00     0.037 A 
ATOM     23  C   UNL A   1      39.293  22.690  26.295  1.00  0.00     0.062 A 
ATOM     24  C   UNL A   1      38.484  21.688  25.771  1.00  0.00     0.132 A 
ATOM     25  Cl  UNL A   1      40.909  22.287  26.742  1.00  0.00    -0.082 Cl
ATOM     26  N   UNL A   1      37.189  21.863  25.420  1.00  0.00    -0.251 NA
BRANCH  21  27
ATOM     27  C   UNL A   1      39.594  25.097  27.053  1.00  0.00     0.034 C 
ATOM     28  C   UNL A   1      39.592  25.218  28.574  1.00  0.00     0.009 C 
ENDBRANCH  21  27
ENDBRANCH  18  20
ENDBRANCH   8  18
ENDBRANCH   6   7
ENDBRANCH   4   6
ENDBRANCH   3   4
ENDBRANCH   2   3
ENDBRANCH   1   2
BRANCH   1  29
ATOM     29  O   UNL A   1      31.221  28.443  24.701  1.00  0.00    -0.374 OA
BRANCH  29  30
ATOM     30  C   UNL A   1      32.193  29.454  24.970  1.00  0.00     0.202 C 
BRANCH  30  31
ATOM     31  C   UNL A   1      31.791  30.498  26.017  1.00  0.00     0.261 C 
BRANCH  31  32
ATOM     32  O   UNL A   1      32.631  30.461  27.183  1.00  0.00    -0.460 OA
BRANCH  32  33
ATOM     33  C   UNL A   1      33.307  31.610  27.416  1.00  0.00     0.338 C 
ATOM     34  O   UNL A   1      32.854  32.745  27.472  1.00  0.00    -0.246 OA
BRANCH  33  35
ATOM     35  C   UNL A   1      34.708  31.319  27.760  1.00  0.00     0.060 A 
ATOM     36  C   UNL A   1      35.037  29.983  28.022  1.00  0.00     0.016 A 
ATOM     37  C   UNL A   1      35.660  32.331  27.910  1.00  0.00     0.016 A 
ATOM     38  C   UNL A   1      36.304  29.660  28.497  1.00  0.00     0.010 A 
ATOM     39  C   UNL A   1      36.931  32.004  28.395  1.00  0.00     0.010 A 
ATOM     40  C   UNL A   1      37.242  30.674  28.730  1.00  0.00    -0.014 A 
BRANCH  40  41
ATOM     41  C   UNL A   1      38.484  30.346  29.468  1.00  0.00     0.031 A 
ATOM     42  C   UNL A   1      38.611  30.775  30.903  1.00  0.00     0.074 A 
ATOM     43  C   UNL A   1      39.454  29.623  28.884  1.00  0.00     0.049 A 
ATOM     44  N   UNL A   1      39.583  30.554  31.751  1.00  0.00    -0.248 NA
ATOM     45  C   UNL A   1      37.492  31.553  31.458  1.00  0.00     0.031 C 
ATOM     46  C   UNL A   1      39.424  29.119  27.512  1.00  0.00     0.029 A 
ATOM     47  N   UNL A   1      40.654  29.180  29.380  1.00  0.00    -0.354 N 
ATOM     48  C   UNL A   1      39.194  31.165  32.937  1.00  0.00     0.074 A 
ATOM     49  C   UNL A   1      37.914  31.793  32.691  1.00  0.00     0.031 C 
ATOM     50  C   UNL A   1      40.554  28.430  27.276  1.00  0.00     0.029 A 
ATOM     51  C   UNL A   1      41.394  28.465  28.471  1.00  0.00     0.049 A 
ATOM     52  H   UNL A   1      40.956  29.357  30.300  1.00  0.00     0.167 HD
ATOM     53  C   UNL A   1      39.840  31.193  34.126  1.00  0.00     0.031 A 
ATOM     54  C   UNL A   1      42.614  27.910  28.590  1.00  0.00     0.031 A 
ATOM     55  C   UNL A   1      41.119  30.582  34.363  1.00  0.00     0.049 A 
ATOM     56  C   UNL A   1      43.342  28.011  29.903  1.00  0.00     0.074 A 
ATOM     57  C   UNL A   1      41.856  30.545  35.535  1.00  0.00     0.029 A 
ATOM     58  N   UNL A   1      41.857  29.905  33.403  1.00  0.00    -0.354 N 
ATOM     59  N   UNL A   1      42.949  28.564  31.026  1.00  0.00    -0.248 NA
ATOM     60  C   UNL A   1      44.678  27.400  29.969  1.00  0.00     0.031 C 
ATOM     61  C   UNL A   1      43.063  29.889  35.268  1.00  0.00     0.029 A 
ATOM     62  C   UNL A   1      43.053  29.470  33.947  1.00  0.00     0.049 A 
ATOM     63  H   UNL A   1      41.572  29.757  32.473  1.00  0.00     0.167 HD
ATOM     64  C   UNL A   1      43.976  28.348  31.936  1.00  0.00     0.074 A 
ATOM     65  C   UNL A   1      45.002  27.601  31.239  1.00  0.00     0.031 C 
ATOM     66  C   UNL A   1      44.061  28.731  33.233  1.00  0.00     0.031 A 
BRANCH  53  67
ATOM     67  C   UNL A   1      39.181  31.940  35.252  1.00  0.00    -0.014 A 
ATOM     68  C   UNL A   1      38.333  31.288  36.163  1.00  0.00     0.009 A 
ATOM     69  C   UNL A   1      39.427  33.313  35.416  1.00  0.00     0.009 A 
ATOM     70  C   UNL A   1      37.719  32.004  37.194  1.00  0.00     0.001 A 
ATOM     71  C   UNL A   1      38.832  34.019  36.463  1.00  0.00     0.001 A 
ATOM     72  C   UNL A   1      37.971  33.367  37.344  1.00  0.00     0.000 A 
ENDBRANCH  53  67
BRANCH  54  73
ATOM     73  C   UNL A   1      43.230  27.213  27.431  1.00  0.00    -0.014 A 
ATOM     74  C   UNL A   1      43.123  25.821  27.289  1.00  0.00     0.009 A 
ATOM     75  C   UNL A   1      43.937  27.941  26.460  1.00  0.00     0.009 A 
ATOM     76  C   UNL A   1      43.728  25.171  26.210  1.00  0.00     0.001 A 
ATOM     77  C   UNL A   1      44.518  27.292  25.369  1.00  0.00     0.001 A 
ATOM     78  C   UNL A   1      44.420  25.907  25.249  1.00  0.00     0.000 A 
ENDBRANCH  54  73
BRANCH  66  79
ATOM     79  C   UNL A   1      45.294  28.322  33.990  1.00  0.00    -0.014 A 
ATOM     80  C   UNL A   1      46.410  29.169  34.073  1.00  0.00     0.009 A 
ATOM     81  C   UNL A   1      45.319  27.091  34.662  1.00  0.00     0.009 A 
ATOM     82  C   UNL A   1      47.541  28.775  34.790  1.00  0.00     0.001 A 
ATOM     83  C   UNL A   1      46.440  26.712  35.402  1.00  0.00     0.001 A 
ATOM     84  C   UNL A   1      47.553  27.549  35.458  1.00  0.00     0.000 A 
ENDBRANCH  66  79
ENDBRANCH  40  41
ENDBRANCH  33  35
ENDBRANCH  32  33
ENDBRANCH  31  32
ENDBRANCH  30  31
ENDBRANCH  29  30
ENDBRANCH   1  29
TORSDOF 18
ENDMDL
