MODEL 1
REMARK VINA RESULT:     -11.5      0.000      0.000
REMARK SMILES O=C(OCCOCCOC(=O)[C@H]1O[C@@H](Oc2c(-c3cc(O)c(O)c(O)c3)oc3cc(O)cc(O)c3c2=O)[C@H](O)[C@@H](O)[C@@H]1O)c1ccc(-c2c3nc(c(-c4ccccc4)c4ccc([nH]4)c(-c4ccccc4)c4nc(c(-c5ccccc5)c5ccc2[nH]5)C=C4)C=C3)cc1
REMARK SMILES IDX 7 1 6 2 5 3 4 4 3 5 2 6 1 7 44 8 45 9 91 10 46 11 90 12
REMARK SMILES IDX 47 13 48 14 49 15 84 16 50 17 89 18 83 19 85 20 51 21 88 22
REMARK SMILES IDX 82 23 81 24 52 26 74 27 59 28 73 29 60 30 63 31 72 32 86 33
REMARK SMILES IDX 61 34 62 35 71 37 87 38 64 39 53 40 54 41 58 42 55 43 57 44
REMARK SMILES IDX 56 45 75 46 76 47 80 48 77 49 79 50 78 51 65 52 66 53 70 54
REMARK SMILES IDX 67 55 69 56 68 57 8 58 9 59 10 60 11 61 12 62 13 63 42 64
REMARK SMILES IDX 14 65 40 66 38 67 43 68 15 70 16 71 17 72 36 73 27 74 35 75
REMARK SMILES IDX 37 76 28 77 33 78 29 79 32 80 30 81 18 82 19 83 26 84 20 85
REMARK SMILES IDX 24 86 22 87 21 88 25 90 23 92 34 94 31 96 41 98 39 100
REMARK H PARENT 85 25 63 36 43 69 21 89 25 91 23 93 34 95 31 97 41 99 39 101
REMARK Flexibility Score: inf
ROOT
ATOM      1  C   UNL A   1      31.760  30.030  25.745  1.00  0.00     0.202 C 
ENDROOT
BRANCH   1   2
ATOM      2  O   UNL A   1      32.888  30.808  26.182  1.00  0.00    -0.374 OA
BRANCH   2   3
ATOM      3  C   UNL A   1      32.679  31.616  27.348  1.00  0.00     0.202 C 
BRANCH   3   4
ATOM      4  C   UNL A   1      31.871  32.902  27.178  1.00  0.00     0.261 C 
BRANCH   4   5
ATOM      5  O   UNL A   1      32.635  34.029  27.625  1.00  0.00    -0.460 OA
BRANCH   5   6
ATOM      6  C   UNL A   1      33.209  34.220  28.833  1.00  0.00     0.338 C 
ATOM      7  O   UNL A   1      32.650  34.934  29.661  1.00  0.00    -0.246 OA
BRANCH   6   8
ATOM      8  C   UNL A   1      34.492  33.572  29.226  1.00  0.00     0.060 A 
ATOM      9  C   UNL A   1      34.687  32.835  30.396  1.00  0.00     0.016 A 
ATOM     10  C   UNL A   1      35.549  33.651  28.306  1.00  0.00     0.016 A 
ATOM     11  C   UNL A   1      35.911  32.280  30.705  1.00  0.00     0.010 A 
ATOM     12  C   UNL A   1      36.774  33.042  28.579  1.00  0.00     0.010 A 
ATOM     13  C   UNL A   1      36.957  32.381  29.798  1.00  0.00    -0.014 A 
BRANCH  13  14
ATOM     14  C   UNL A   1      38.262  31.880  30.237  1.00  0.00     0.031 A 
ATOM     15  C   UNL A   1      38.756  30.601  29.643  1.00  0.00     0.074 A 
ATOM     16  C   UNL A   1      39.036  32.667  31.004  1.00  0.00     0.049 A 
ATOM     17  N   UNL A   1      39.876  29.969  29.859  1.00  0.00    -0.248 NA
ATOM     18  C   UNL A   1      37.876  29.954  28.652  1.00  0.00     0.031 C 
ATOM     19  C   UNL A   1      38.669  34.006  31.481  1.00  0.00     0.029 A 
ATOM     20  N   UNL A   1      40.306  32.483  31.472  1.00  0.00    -0.354 N 
ATOM     21  C   UNL A   1      39.819  28.835  29.061  1.00  0.00     0.074 A 
ATOM     22  C   UNL A   1      38.559  28.861  28.356  1.00  0.00     0.031 C 
ATOM     23  C   UNL A   1      39.712  34.536  32.139  1.00  0.00     0.029 A 
ATOM     24  C   UNL A   1      40.778  33.546  32.200  1.00  0.00     0.049 A 
ATOM     25  H   UNL A   1      40.831  31.669  31.302  1.00  0.00     0.167 HD
ATOM     26  C   UNL A   1      40.742  27.854  28.948  1.00  0.00     0.031 A 
ATOM     27  C   UNL A   1      41.937  33.675  32.869  1.00  0.00     0.031 A 
ATOM     28  C   UNL A   1      41.974  27.858  29.686  1.00  0.00     0.049 A 
ATOM     29  C   UNL A   1      42.887  32.510  32.830  1.00  0.00     0.074 A 
ATOM     30  C   UNL A   1      42.964  26.896  29.733  1.00  0.00     0.029 A 
ATOM     31  N   UNL A   1      42.377  28.897  30.519  1.00  0.00    -0.354 N 
ATOM     32  N   UNL A   1      42.799  31.396  32.141  1.00  0.00    -0.248 NA
ATOM     33  C   UNL A   1      44.086  32.611  33.668  1.00  0.00     0.031 C 
ATOM     34  C   UNL A   1      43.939  27.329  30.639  1.00  0.00     0.029 A 
ATOM     35  C   UNL A   1      43.591  28.591  31.104  1.00  0.00     0.049 A 
ATOM     36  H   UNL A   1      41.873  29.729  30.668  1.00  0.00     0.167 HD
ATOM     37  C   UNL A   1      43.939  30.669  32.445  1.00  0.00     0.074 A 
ATOM     38  C   UNL A   1      44.713  31.484  33.365  1.00  0.00     0.031 C 
ATOM     39  C   UNL A   1      44.319  29.441  32.013  1.00  0.00     0.031 A 
BRANCH  26  40
ATOM     40  C   UNL A   1      40.377  26.677  28.089  1.00  0.00    -0.014 A 
ATOM     41  C   UNL A   1      39.596  25.615  28.575  1.00  0.00     0.009 A 
ATOM     42  C   UNL A   1      40.886  26.600  26.783  1.00  0.00     0.009 A 
ATOM     43  C   UNL A   1      39.377  24.480  27.787  1.00  0.00     0.001 A 
ATOM     44  C   UNL A   1      40.641  25.479  25.988  1.00  0.00     0.001 A 
ATOM     45  C   UNL A   1      39.899  24.413  26.496  1.00  0.00     0.000 A 
ENDBRANCH  26  40
BRANCH  27  46
ATOM     46  C   UNL A   1      42.224  34.897  33.667  1.00  0.00    -0.014 A 
ATOM     47  C   UNL A   1      41.778  35.018  34.990  1.00  0.00     0.009 A 
ATOM     48  C   UNL A   1      42.940  35.965  33.098  1.00  0.00     0.009 A 
ATOM     49  C   UNL A   1      42.018  36.189  35.716  1.00  0.00     0.001 A 
ATOM     50  C   UNL A   1      43.208  37.120  33.835  1.00  0.00     0.001 A 
ATOM     51  C   UNL A   1      42.736  37.236  35.140  1.00  0.00     0.000 A 
ENDBRANCH  27  46
BRANCH  39  52
ATOM     52  C   UNL A   1      45.646  28.940  32.502  1.00  0.00    -0.014 A 
ATOM     53  C   UNL A   1      46.831  29.206  31.799  1.00  0.00     0.009 A 
ATOM     54  C   UNL A   1      45.707  28.223  33.707  1.00  0.00     0.009 A 
ATOM     55  C   UNL A   1      48.051  28.729  32.280  1.00  0.00     0.001 A 
ATOM     56  C   UNL A   1      46.932  27.780  34.201  1.00  0.00     0.001 A 
ATOM     57  C   UNL A   1      48.101  28.023  33.482  1.00  0.00     0.000 A 
ENDBRANCH  39  52
ENDBRANCH  13  14
ENDBRANCH   6   8
ENDBRANCH   5   6
ENDBRANCH   4   5
ENDBRANCH   3   4
ENDBRANCH   2   3
ENDBRANCH   1   2
BRANCH   1  58
ATOM     58  C   UNL A   1      32.223  28.903  24.809  1.00  0.00     0.261 C 
BRANCH  58  59
ATOM     59  O   UNL A   1      31.240  28.711  23.785  1.00  0.00    -0.461 OA
BRANCH  59  60
ATOM     60  C   UNL A   1      30.620  27.497  23.836  1.00  0.00     0.338 C 
ATOM     61  O   UNL A   1      29.458  27.320  24.189  1.00  0.00    -0.249 OA
BRANCH  60  62
ATOM     62  C   UNL A   1      31.483  26.438  23.152  1.00  0.00     0.263 C 
ATOM     63  O   UNL A   1      30.843  25.161  23.124  1.00  0.00    -0.322 OA
ATOM     64  C   UNL A   1      31.906  26.796  21.738  1.00  0.00     0.186 C 
ATOM     65  C   UNL A   1      31.749  24.086  22.892  1.00  0.00     0.340 C 
ATOM     66  C   UNL A   1      32.946  25.760  21.286  1.00  0.00     0.181 C 
ATOM     67  C   UNL A   1      32.580  24.310  21.606  1.00  0.00     0.214 C 
BRANCH  64  68
ATOM     68  O   UNL A   1      32.533  28.074  21.582  1.00  0.00    -0.387 OA
ATOM     69  H   UNL A   1      32.614  28.282  20.638  1.00  0.00     0.211 HD
ENDBRANCH  64  68
BRANCH  65  70
ATOM     70  O   UNL A   1      31.104  22.790  22.803  1.00  0.00    -0.454 OA
BRANCH  70  71
ATOM     71  C   UNL A   1      31.725  21.740  23.466  1.00  0.00     0.214 A 
ATOM     72  C   UNL A   1      32.007  21.744  24.785  1.00  0.00     0.181 A 
ATOM     73  C   UNL A   1      31.993  20.481  22.701  1.00  0.00     0.239 A 
ATOM     74  O   UNL A   1      32.627  20.724  25.468  1.00  0.00    -0.452 OA
ATOM     75  C   UNL A   1      32.473  19.312  23.492  1.00  0.00     0.111 A 
ATOM     76  O   UNL A   1      31.823  20.447  21.488  1.00  0.00    -0.285 OA
ATOM     77  C   UNL A   1      32.793  19.524  24.834  1.00  0.00     0.146 A 
ATOM     78  C   UNL A   1      32.622  18.017  22.971  1.00  0.00     0.134 A 
ATOM     79  C   UNL A   1      33.298  18.494  25.630  1.00  0.00     0.094 A 
ATOM     80  C   UNL A   1      33.114  16.973  23.769  1.00  0.00     0.093 A 
ATOM     81  C   UNL A   1      33.457  17.228  25.092  1.00  0.00     0.123 A 
BRANCH  72  82
ATOM     82  C   UNL A   1      31.769  22.921  25.631  1.00  0.00     0.029 A 
ATOM     83  C   UNL A   1      32.810  23.853  25.786  1.00  0.00     0.062 A 
ATOM     84  C   UNL A   1      30.488  23.200  26.141  1.00  0.00     0.062 A 
ATOM     85  C   UNL A   1      32.534  25.098  26.328  1.00  0.00     0.162 A 
ATOM     86  C   UNL A   1      30.230  24.458  26.675  1.00  0.00     0.162 A 
ATOM     87  C   UNL A   1      31.239  25.414  26.725  1.00  0.00     0.200 A 
BRANCH  85  88
ATOM     88  O   UNL A   1      33.521  26.039  26.362  1.00  0.00    -0.504 OA
ATOM     89  H   UNL A   1      33.336  26.898  26.687  1.00  0.00     0.293 HD
ENDBRANCH  85  88
BRANCH  86  90
ATOM     90  O   UNL A   1      28.949  24.792  27.002  1.00  0.00    -0.504 OA
ATOM     91  H   UNL A   1      28.779  25.568  27.499  1.00  0.00     0.293 HD
ENDBRANCH  86  90
BRANCH  87  92
ATOM     92  O   UNL A   1      30.906  26.719  26.972  1.00  0.00    -0.502 OA
ATOM     93  H   UNL A   1      30.494  27.232  26.304  1.00  0.00     0.293 HD
ENDBRANCH  87  92
ENDBRANCH  72  82
BRANCH  78  94
ATOM     94  O   UNL A   1      32.271  17.738  21.681  1.00  0.00    -0.507 OA
ATOM     95  H   UNL A   1      32.838  17.989  20.976  1.00  0.00     0.293 HD
ENDBRANCH  78  94
BRANCH  81  96
ATOM     96  O   UNL A   1      33.946  16.254  25.911  1.00  0.00    -0.508 OA
ATOM     97  H   UNL A   1      34.780  15.867  25.731  1.00  0.00     0.293 HD
ENDBRANCH  81  96
ENDBRANCH  70  71
ENDBRANCH  65  70
BRANCH  66  98
ATOM     98  O   UNL A   1      33.161  25.887  19.856  1.00  0.00    -0.387 OA
ATOM     99  H   UNL A   1      32.721  26.688  19.533  1.00  0.00     0.211 HD
ENDBRANCH  66  98
BRANCH  67 100
ATOM    100  O   UNL A   1      33.783  23.525  21.615  1.00  0.00    -0.384 OA
ATOM    101  H   UNL A   1      33.607  22.667  22.032  1.00  0.00     0.211 HD
ENDBRANCH  67 100
ENDBRANCH  60  62
ENDBRANCH  59  60
ENDBRANCH  58  59
ENDBRANCH   1  58
TORSDOF 25
ENDMDL
MODEL 2
REMARK VINA RESULT:     -11.4      0.487      5.443
REMARK SMILES O=C(OCCOCCOC(=O)[C@H]1O[C@@H](Oc2c(-c3cc(O)c(O)c(O)c3)oc3cc(O)cc(O)c3c2=O)[C@H](O)[C@@H](O)[C@@H]1O)c1ccc(-c2c3nc(c(-c4ccccc4)c4ccc([nH]4)c(-c4ccccc4)c4nc(c(-c5ccccc5)c5ccc2[nH]5)C=C4)C=C3)cc1
REMARK SMILES IDX 7 1 6 2 5 3 4 4 3 5 2 6 1 7 44 8 45 9 91 10 46 11 90 12
REMARK SMILES IDX 47 13 48 14 49 15 84 16 50 17 89 18 83 19 85 20 51 21 88 22
REMARK SMILES IDX 82 23 81 24 52 26 74 27 59 28 73 29 60 30 63 31 72 32 86 33
REMARK SMILES IDX 61 34 62 35 71 37 87 38 64 39 53 40 54 41 58 42 55 43 57 44
REMARK SMILES IDX 56 45 75 46 76 47 80 48 77 49 79 50 78 51 65 52 66 53 70 54
REMARK SMILES IDX 67 55 69 56 68 57 8 58 9 59 10 60 11 61 12 62 13 63 42 64
REMARK SMILES IDX 14 65 40 66 38 67 43 68 15 70 16 71 17 72 36 73 27 74 35 75
REMARK SMILES IDX 37 76 28 77 33 78 29 79 32 80 30 81 18 82 19 83 26 84 20 85
REMARK SMILES IDX 24 86 22 87 21 88 25 90 23 92 34 94 31 96 41 98 39 100
REMARK H PARENT 85 25 63 36 43 69 21 89 25 91 23 93 34 95 31 97 41 99 39 101
REMARK Flexibility Score: inf
ROOT
ATOM      1  C   UNL A   1      31.759  30.103  25.584  1.00  0.00     0.202 C 
ENDROOT
BRANCH   1   2
ATOM      2  O   UNL A   1      32.563  30.129  26.776  1.00  0.00    -0.374 OA
BRANCH   2   3
ATOM      3  C   UNL A   1      32.970  31.426  27.231  1.00  0.00     0.202 C 
BRANCH   3   4
ATOM      4  C   UNL A   1      31.910  32.526  27.265  1.00  0.00     0.261 C 
BRANCH   4   5
ATOM      5  O   UNL A   1      32.529  33.805  27.454  1.00  0.00    -0.460 OA
BRANCH   5   6
ATOM      6  C   UNL A   1      33.157  34.271  28.555  1.00  0.00     0.338 C 
ATOM      7  O   UNL A   1      32.606  35.121  29.250  1.00  0.00    -0.246 OA
BRANCH   6   8
ATOM      8  C   UNL A   1      34.492  33.774  28.992  1.00  0.00     0.060 A 
ATOM      9  C   UNL A   1      35.693  34.021  28.323  1.00  0.00     0.016 A 
ATOM     10  C   UNL A   1      34.540  33.074  30.207  1.00  0.00     0.016 A 
ATOM     11  C   UNL A   1      36.891  33.509  28.776  1.00  0.00     0.010 A 
ATOM     12  C   UNL A   1      35.754  32.603  30.707  1.00  0.00     0.010 A 
ATOM     13  C   UNL A   1      36.925  32.800  29.969  1.00  0.00    -0.014 A 
BRANCH  13  14
ATOM     14  C   UNL A   1      38.202  32.179  30.331  1.00  0.00     0.031 A 
ATOM     15  C   UNL A   1      38.985  32.789  31.448  1.00  0.00     0.074 A 
ATOM     16  C   UNL A   1      38.529  30.997  29.781  1.00  0.00     0.049 A 
ATOM     17  N   UNL A   1      40.125  32.415  31.958  1.00  0.00    -0.248 NA
ATOM     18  C   UNL A   1      38.389  33.972  32.097  1.00  0.00     0.031 C 
ATOM     19  C   UNL A   1      37.717  30.269  28.799  1.00  0.00     0.029 A 
ATOM     20  N   UNL A   1      39.597  30.176  30.004  1.00  0.00    -0.354 N 
ATOM     21  C   UNL A   1      40.401  33.335  32.959  1.00  0.00     0.074 A 
ATOM     22  C   UNL A   1      39.314  34.285  32.989  1.00  0.00     0.031 C 
ATOM     23  C   UNL A   1      38.301  29.089  28.538  1.00  0.00     0.029 A 
ATOM     24  C   UNL A   1      39.560  29.020  29.267  1.00  0.00     0.049 A 
ATOM     25  H   UNL A   1      40.322  30.392  30.633  1.00  0.00     0.167 HD
ATOM     26  C   UNL A   1      41.484  33.381  33.767  1.00  0.00     0.031 A 
ATOM     27  C   UNL A   1      40.472  28.036  29.174  1.00  0.00     0.031 A 
ATOM     28  C   UNL A   1      42.553  32.425  33.688  1.00  0.00     0.049 A 
ATOM     29  C   UNL A   1      41.726  28.182  29.990  1.00  0.00     0.074 A 
ATOM     30  C   UNL A   1      43.744  32.392  34.386  1.00  0.00     0.029 A 
ATOM     31  N   UNL A   1      42.548  31.323  32.840  1.00  0.00    -0.354 N 
ATOM     32  N   UNL A   1      42.030  29.099  30.879  1.00  0.00    -0.248 NA
ATOM     33  C   UNL A   1      42.768  27.172  29.781  1.00  0.00     0.031 C 
ATOM     34  C   UNL A   1      44.484  31.300  33.917  1.00  0.00     0.029 A 
ATOM     35  C   UNL A   1      43.725  30.614  32.978  1.00  0.00     0.049 A 
ATOM     36  H   UNL A   1      41.812  31.082  32.232  1.00  0.00     0.167 HD
ATOM     37  C   UNL A   1      43.290  28.767  31.353  1.00  0.00     0.074 A 
ATOM     38  C   UNL A   1      43.681  27.550  30.664  1.00  0.00     0.031 C 
ATOM     39  C   UNL A   1      44.062  29.405  32.267  1.00  0.00     0.031 A 
BRANCH  26  40
ATOM     40  C   UNL A   1      41.584  34.556  34.698  1.00  0.00    -0.014 A 
ATOM     41  C   UNL A   1      42.167  35.771  34.301  1.00  0.00     0.009 A 
ATOM     42  C   UNL A   1      41.147  34.417  36.025  1.00  0.00     0.009 A 
ATOM     43  C   UNL A   1      42.353  36.802  35.227  1.00  0.00     0.001 A 
ATOM     44  C   UNL A   1      41.308  35.458  36.940  1.00  0.00     0.001 A 
ATOM     45  C   UNL A   1      41.924  36.645  36.545  1.00  0.00     0.000 A 
ENDBRANCH  26  40
BRANCH  27  46
ATOM     46  C   UNL A   1      40.266  26.892  28.247  1.00  0.00    -0.014 A 
ATOM     47  C   UNL A   1      39.599  25.732  28.665  1.00  0.00     0.009 A 
ATOM     48  C   UNL A   1      40.753  26.949  26.929  1.00  0.00     0.009 A 
ATOM     49  C   UNL A   1      39.448  24.647  27.797  1.00  0.00     0.001 A 
ATOM     50  C   UNL A   1      40.573  25.877  26.052  1.00  0.00     0.001 A 
ATOM     51  C   UNL A   1      39.931  24.722  26.490  1.00  0.00     0.000 A 
ENDBRANCH  27  46
BRANCH  39  52
ATOM     52  C   UNL A   1      45.377  28.762  32.597  1.00  0.00    -0.014 A 
ATOM     53  C   UNL A   1      46.550  29.101  31.905  1.00  0.00     0.009 A 
ATOM     54  C   UNL A   1      45.441  27.831  33.645  1.00  0.00     0.009 A 
ATOM     55  C   UNL A   1      47.758  28.488  32.236  1.00  0.00     0.001 A 
ATOM     56  C   UNL A   1      46.657  27.248  33.996  1.00  0.00     0.001 A 
ATOM     57  C   UNL A   1      47.812  27.568  33.284  1.00  0.00     0.000 A 
ENDBRANCH  39  52
ENDBRANCH  13  14
ENDBRANCH   6   8
ENDBRANCH   5   6
ENDBRANCH   4   5
ENDBRANCH   3   4
ENDBRANCH   2   3
ENDBRANCH   1   2
BRANCH   1  58
ATOM     58  C   UNL A   1      31.901  28.747  24.876  1.00  0.00     0.261 C 
BRANCH  58  59
ATOM     59  O   UNL A   1      30.917  28.656  23.838  1.00  0.00    -0.461 OA
BRANCH  59  60
ATOM     60  C   UNL A   1      30.306  27.440  23.763  1.00  0.00     0.338 C 
ATOM     61  O   UNL A   1      29.111  27.245  23.961  1.00  0.00    -0.249 OA
BRANCH  60  62
ATOM     62  C   UNL A   1      31.256  26.412  23.151  1.00  0.00     0.263 C 
ATOM     63  O   UNL A   1      30.669  25.110  23.089  1.00  0.00    -0.322 OA
ATOM     64  C   UNL A   1      31.764  26.777  21.767  1.00  0.00     0.186 C 
ATOM     65  C   UNL A   1      31.630  24.070  22.931  1.00  0.00     0.340 C 
ATOM     66  C   UNL A   1      32.872  25.780  21.399  1.00  0.00     0.181 C 
ATOM     67  C   UNL A   1      32.540  24.319  21.704  1.00  0.00     0.214 C 
BRANCH  64  68
ATOM     68  O   UNL A   1      32.350  28.078  21.645  1.00  0.00    -0.387 OA
ATOM     69  H   UNL A   1      33.194  28.009  21.173  1.00  0.00     0.211 HD
ENDBRANCH  64  68
BRANCH  65  70
ATOM     70  O   UNL A   1      31.044  22.749  22.807  1.00  0.00    -0.454 OA
BRANCH  70  71
ATOM     71  C   UNL A   1      31.708  21.712  23.448  1.00  0.00     0.214 A 
ATOM     72  C   UNL A   1      32.031  21.721  24.758  1.00  0.00     0.181 A 
ATOM     73  C   UNL A   1      31.979  20.460  22.674  1.00  0.00     0.239 A 
ATOM     74  O   UNL A   1      32.694  20.714  25.420  1.00  0.00    -0.452 OA
ATOM     75  C   UNL A   1      32.508  19.300  23.447  1.00  0.00     0.111 A 
ATOM     76  O   UNL A   1      31.771  20.423  21.467  1.00  0.00    -0.285 OA
ATOM     77  C   UNL A   1      32.866  19.519  24.779  1.00  0.00     0.146 A 
ATOM     78  C   UNL A   1      32.668  18.010  22.920  1.00  0.00     0.134 A 
ATOM     79  C   UNL A   1      33.418  18.499  25.557  1.00  0.00     0.094 A 
ATOM     80  C   UNL A   1      33.207  16.975  23.700  1.00  0.00     0.093 A 
ATOM     81  C   UNL A   1      33.586  17.236  25.012  1.00  0.00     0.123 A 
BRANCH  72  82
ATOM     82  C   UNL A   1      31.795  22.891  25.613  1.00  0.00     0.029 A 
ATOM     83  C   UNL A   1      32.838  23.820  25.776  1.00  0.00     0.062 A 
ATOM     84  C   UNL A   1      30.514  23.170  26.124  1.00  0.00     0.062 A 
ATOM     85  C   UNL A   1      32.564  25.061  26.328  1.00  0.00     0.162 A 
ATOM     86  C   UNL A   1      30.258  24.424  26.666  1.00  0.00     0.162 A 
ATOM     87  C   UNL A   1      31.269  25.378  26.726  1.00  0.00     0.200 A 
BRANCH  85  88
ATOM     88  O   UNL A   1      33.553  26.000  26.370  1.00  0.00    -0.504 OA
ATOM     89  H   UNL A   1      33.802  26.452  25.588  1.00  0.00     0.293 HD
ENDBRANCH  85  88
BRANCH  86  90
ATOM     90  O   UNL A   1      28.978  24.759  26.995  1.00  0.00    -0.504 OA
ATOM     91  H   UNL A   1      28.345  24.910  26.320  1.00  0.00     0.293 HD
ENDBRANCH  86  90
BRANCH  87  92
ATOM     92  O   UNL A   1      30.939  26.682  26.982  1.00  0.00    -0.502 OA
ATOM     93  H   UNL A   1      31.536  27.369  26.757  1.00  0.00     0.293 HD
ENDBRANCH  87  92
ENDBRANCH  72  82
BRANCH  78  94
ATOM     94  O   UNL A   1      32.283  17.725  21.640  1.00  0.00    -0.507 OA
ATOM     95  H   UNL A   1      31.667  17.037  21.478  1.00  0.00     0.293 HD
ENDBRANCH  78  94
BRANCH  81  96
ATOM     96  O   UNL A   1      34.122  16.273  25.814  1.00  0.00    -0.508 OA
ATOM     97  H   UNL A   1      34.637  16.517  26.558  1.00  0.00     0.293 HD
ENDBRANCH  81  96
ENDBRANCH  70  71
ENDBRANCH  65  70
BRANCH  66  98
ATOM     98  O   UNL A   1      33.183  25.907  19.986  1.00  0.00    -0.387 OA
ATOM     99  H   UNL A   1      34.062  26.302  19.883  1.00  0.00     0.211 HD
ENDBRANCH  66  98
BRANCH  67 100
ATOM    100  O   UNL A   1      33.769  23.582  21.805  1.00  0.00    -0.384 OA
ATOM    101  H   UNL A   1      33.883  23.264  22.714  1.00  0.00     0.211 HD
ENDBRANCH  67 100
ENDBRANCH  60  62
ENDBRANCH  59  60
ENDBRANCH  58  59
ENDBRANCH   1  58
TORSDOF 25
ENDMDL
MODEL 3
REMARK VINA RESULT:     -11.2      2.186      6.387
REMARK SMILES O=C(OCCOCCOC(=O)[C@H]1O[C@@H](Oc2c(-c3cc(O)c(O)c(O)c3)oc3cc(O)cc(O)c3c2=O)[C@H](O)[C@@H](O)[C@@H]1O)c1ccc(-c2c3nc(c(-c4ccccc4)c4ccc([nH]4)c(-c4ccccc4)c4nc(c(-c5ccccc5)c5ccc2[nH]5)C=C4)C=C3)cc1
REMARK SMILES IDX 7 1 6 2 5 3 4 4 3 5 2 6 1 7 44 8 45 9 91 10 46 11 90 12
REMARK SMILES IDX 47 13 48 14 49 15 84 16 50 17 89 18 83 19 85 20 51 21 88 22
REMARK SMILES IDX 82 23 81 24 52 26 74 27 59 28 73 29 60 30 63 31 72 32 86 33
REMARK SMILES IDX 61 34 62 35 71 37 87 38 64 39 53 40 54 41 58 42 55 43 57 44
REMARK SMILES IDX 56 45 75 46 76 47 80 48 77 49 79 50 78 51 65 52 66 53 70 54
REMARK SMILES IDX 67 55 69 56 68 57 8 58 9 59 10 60 11 61 12 62 13 63 42 64
REMARK SMILES IDX 14 65 40 66 38 67 43 68 15 70 16 71 17 72 36 73 27 74 35 75
REMARK SMILES IDX 37 76 28 77 33 78 29 79 32 80 30 81 18 82 19 83 26 84 20 85
REMARK SMILES IDX 24 86 22 87 21 88 25 90 23 92 34 94 31 96 41 98 39 100
REMARK H PARENT 85 25 63 36 43 69 21 89 25 91 23 93 34 95 31 97 41 99 39 101
REMARK Flexibility Score: inf
ROOT
ATOM      1  C   UNL A   1      31.684  30.002  25.444  1.00  0.00     0.202 C 
ENDROOT
BRANCH   1   2
ATOM      2  O   UNL A   1      32.880  30.563  26.014  1.00  0.00    -0.374 OA
BRANCH   2   3
ATOM      3  C   UNL A   1      32.712  31.280  27.244  1.00  0.00     0.202 C 
BRANCH   3   4
ATOM      4  C   UNL A   1      31.775  32.487  27.235  1.00  0.00     0.261 C 
BRANCH   4   5
ATOM      5  O   UNL A   1      32.533  33.703  27.292  1.00  0.00    -0.460 OA
BRANCH   5   6
ATOM      6  C   UNL A   1      33.089  34.288  28.375  1.00  0.00     0.338 C 
ATOM      7  O   UNL A   1      32.541  35.264  28.881  1.00  0.00    -0.246 OA
BRANCH   6   8
ATOM      8  C   UNL A   1      34.335  33.780  29.014  1.00  0.00     0.060 A 
ATOM      9  C   UNL A   1      35.624  34.228  28.716  1.00  0.00     0.016 A 
ATOM     10  C   UNL A   1      34.180  32.837  30.042  1.00  0.00     0.016 A 
ATOM     11  C   UNL A   1      36.736  33.695  29.334  1.00  0.00     0.010 A 
ATOM     12  C   UNL A   1      35.293  32.335  30.718  1.00  0.00     0.010 A 
ATOM     13  C   UNL A   1      36.573  32.748  30.337  1.00  0.00    -0.014 A 
BRANCH  13  14
ATOM     14  C   UNL A   1      37.793  32.132  30.867  1.00  0.00     0.031 A 
ATOM     15  C   UNL A   1      38.160  32.417  32.286  1.00  0.00     0.074 A 
ATOM     16  C   UNL A   1      38.425  31.204  30.128  1.00  0.00     0.049 A 
ATOM     17  N   UNL A   1      39.174  31.980  32.980  1.00  0.00    -0.248 NA
ATOM     18  C   UNL A   1      37.246  33.298  33.037  1.00  0.00     0.031 C 
ATOM     19  C   UNL A   1      38.012  30.763  28.790  1.00  0.00     0.029 A 
ATOM     20  N   UNL A   1      39.512  30.428  30.414  1.00  0.00    -0.354 N 
ATOM     21  C   UNL A   1      39.042  32.562  34.233  1.00  0.00     0.074 A 
ATOM     22  C   UNL A   1      37.853  33.380  34.209  1.00  0.00     0.031 C 
ATOM     23  C   UNL A   1      38.815  29.764  28.393  1.00  0.00     0.029 A 
ATOM     24  C   UNL A   1      39.840  29.557  29.406  1.00  0.00     0.049 A 
ATOM     25  H   UNL A   1      40.009  30.486  31.261  1.00  0.00     0.167 HD
ATOM     26  C   UNL A   1      39.860  32.426  35.301  1.00  0.00     0.031 A 
ATOM     27  C   UNL A   1      40.884  28.714  29.312  1.00  0.00     0.031 A 
ATOM     28  C   UNL A   1      41.045  31.616  35.272  1.00  0.00     0.049 A 
ATOM     29  C   UNL A   1      41.849  28.683  30.465  1.00  0.00     0.074 A 
ATOM     30  C   UNL A   1      42.008  31.447  36.248  1.00  0.00     0.029 A 
ATOM     31  N   UNL A   1      41.425  30.833  34.187  1.00  0.00    -0.354 N 
ATOM     32  N   UNL A   1      41.772  29.297  31.623  1.00  0.00    -0.248 NA
ATOM     33  C   UNL A   1      43.049  27.859  30.294  1.00  0.00     0.031 C 
ATOM     34  C   UNL A   1      43.000  30.607  35.730  1.00  0.00     0.029 A 
ATOM     35  C   UNL A   1      42.621  30.197  34.458  1.00  0.00     0.049 A 
ATOM     36  H   UNL A   1      40.916  30.744  33.350  1.00  0.00     0.167 HD
ATOM     37  C   UNL A   1      42.903  28.920  32.329  1.00  0.00     0.074 A 
ATOM     38  C   UNL A   1      43.636  28.005  31.474  1.00  0.00     0.031 C 
ATOM     39  C   UNL A   1      43.308  29.292  33.569  1.00  0.00     0.031 A 
BRANCH  26  40
ATOM     40  C   UNL A   1      39.539  33.259  36.509  1.00  0.00    -0.014 A 
ATOM     41  C   UNL A   1      40.047  34.559  36.672  1.00  0.00     0.009 A 
ATOM     42  C   UNL A   1      38.766  32.700  37.539  1.00  0.00     0.009 A 
ATOM     43  C   UNL A   1      39.827  35.259  37.862  1.00  0.00     0.001 A 
ATOM     44  C   UNL A   1      38.525  33.412  38.715  1.00  0.00     0.001 A 
ATOM     45  C   UNL A   1      39.067  34.686  38.882  1.00  0.00     0.000 A 
ENDBRANCH  26  40
BRANCH  27  46
ATOM     46  C   UNL A   1      41.098  27.902  28.085  1.00  0.00    -0.014 A 
ATOM     47  C   UNL A   1      40.788  26.535  28.057  1.00  0.00     0.009 A 
ATOM     48  C   UNL A   1      41.633  28.493  26.927  1.00  0.00     0.009 A 
ATOM     49  C   UNL A   1      41.033  25.774  26.911  1.00  0.00     0.001 A 
ATOM     50  C   UNL A   1      41.846  27.739  25.771  1.00  0.00     0.001 A 
ATOM     51  C   UNL A   1      41.558  26.377  25.768  1.00  0.00     0.000 A 
ENDBRANCH  27  46
BRANCH  39  52
ATOM     52  C   UNL A   1      44.575  28.669  34.074  1.00  0.00    -0.014 A 
ATOM     53  C   UNL A   1      44.564  27.444  34.758  1.00  0.00     0.009 A 
ATOM     54  C   UNL A   1      45.800  29.306  33.823  1.00  0.00     0.009 A 
ATOM     55  C   UNL A   1      45.759  26.887  35.215  1.00  0.00     0.001 A 
ATOM     56  C   UNL A   1      46.995  28.728  34.249  1.00  0.00     0.001 A 
ATOM     57  C   UNL A   1      46.972  27.526  34.954  1.00  0.00     0.000 A 
ENDBRANCH  39  52
ENDBRANCH  13  14
ENDBRANCH   6   8
ENDBRANCH   5   6
ENDBRANCH   4   5
ENDBRANCH   3   4
ENDBRANCH   2   3
ENDBRANCH   1   2
BRANCH   1  58
ATOM     58  C   UNL A   1      32.040  28.840  24.504  1.00  0.00     0.261 C 
BRANCH  58  59
ATOM     59  O   UNL A   1      30.852  28.404  23.832  1.00  0.00    -0.461 OA
BRANCH  59  60
ATOM     60  C   UNL A   1      30.525  27.104  24.078  1.00  0.00     0.338 C 
ATOM     61  O   UNL A   1      29.407  26.714  24.403  1.00  0.00    -0.249 OA
BRANCH  60  62
ATOM     62  C   UNL A   1      31.665  26.183  23.646  1.00  0.00     0.263 C 
ATOM     63  O   UNL A   1      31.700  24.978  24.411  1.00  0.00    -0.322 OA
ATOM     64  C   UNL A   1      31.647  25.818  22.172  1.00  0.00     0.186 C 
ATOM     65  C   UNL A   1      32.955  24.306  24.340  1.00  0.00     0.340 C 
ATOM     66  C   UNL A   1      32.966  25.099  21.853  1.00  0.00     0.181 C 
ATOM     67  C   UNL A   1      33.375  24.038  22.875  1.00  0.00     0.214 C 
BRANCH  64  68
ATOM     68  O   UNL A   1      31.571  26.920  21.260  1.00  0.00    -0.387 OA
ATOM     69  H   UNL A   1      32.333  26.897  20.660  1.00  0.00     0.211 HD
ENDBRANCH  64  68
BRANCH  65  70
ATOM     70  O   UNL A   1      32.987  23.051  25.065  1.00  0.00    -0.454 OA
BRANCH  70  71
ATOM     71  C   UNL A   1      34.235  22.474  25.258  1.00  0.00     0.214 A 
ATOM     72  C   UNL A   1      34.567  21.238  24.831  1.00  0.00     0.181 A 
ATOM     73  C   UNL A   1      35.314  23.312  25.871  1.00  0.00     0.239 A 
ATOM     74  O   UNL A   1      35.791  20.638  25.013  1.00  0.00    -0.452 OA
ATOM     75  C   UNL A   1      36.686  22.730  25.876  1.00  0.00     0.111 A 
ATOM     76  O   UNL A   1      35.049  24.413  26.339  1.00  0.00    -0.285 OA
ATOM     77  C   UNL A   1      36.828  21.401  25.471  1.00  0.00     0.146 A 
ATOM     78  C   UNL A   1      37.838  23.433  26.262  1.00  0.00     0.134 A 
ATOM     79  C   UNL A   1      38.071  20.766  25.497  1.00  0.00     0.094 A 
ATOM     80  C   UNL A   1      39.093  22.806  26.275  1.00  0.00     0.093 A 
ATOM     81  C   UNL A   1      39.193  21.471  25.900  1.00  0.00     0.123 A 
BRANCH  72  82
ATOM     82  C   UNL A   1      33.591  20.339  24.203  1.00  0.00     0.029 A 
ATOM     83  C   UNL A   1      32.821  20.831  23.134  1.00  0.00     0.062 A 
ATOM     84  C   UNL A   1      33.538  18.976  24.544  1.00  0.00     0.062 A 
ATOM     85  C   UNL A   1      32.111  19.944  22.341  1.00  0.00     0.162 A 
ATOM     86  C   UNL A   1      32.826  18.101  23.731  1.00  0.00     0.162 A 
ATOM     87  C   UNL A   1      32.154  18.580  22.611  1.00  0.00     0.200 A 
BRANCH  85  88
ATOM     88  O   UNL A   1      31.467  20.414  21.235  1.00  0.00    -0.504 OA
ATOM     89  H   UNL A   1      31.044  21.249  21.260  1.00  0.00     0.293 HD
ENDBRANCH  85  88
BRANCH  86  90
ATOM     90  O   UNL A   1      32.920  16.758  23.954  1.00  0.00    -0.504 OA
ATOM     91  H   UNL A   1      32.350  16.344  24.571  1.00  0.00     0.293 HD
ENDBRANCH  86  90
BRANCH  87  92
ATOM     92  O   UNL A   1      31.713  17.689  21.669  1.00  0.00    -0.502 OA
ATOM     93  H   UNL A   1      32.328  17.160  21.200  1.00  0.00     0.293 HD
ENDBRANCH  87  92
ENDBRANCH  72  82
BRANCH  78  94
ATOM     94  O   UNL A   1      37.767  24.751  26.614  1.00  0.00    -0.507 OA
ATOM     95  H   UNL A   1      36.942  25.197  26.599  1.00  0.00     0.293 HD
ENDBRANCH  78  94
BRANCH  81  96
ATOM     96  O   UNL A   1      40.385  20.808  25.901  1.00  0.00    -0.508 OA
ATOM     97  H   UNL A   1      40.662  20.344  25.136  1.00  0.00     0.293 HD
ENDBRANCH  81  96
ENDBRANCH  70  71
ENDBRANCH  65  70
BRANCH  66  98
ATOM     98  O   UNL A   1      32.873  24.482  20.543  1.00  0.00    -0.387 OA
ATOM     99  H   UNL A   1      32.104  24.838  20.071  1.00  0.00     0.211 HD
ENDBRANCH  66  98
BRANCH  67 100
ATOM    100  O   UNL A   1      34.790  23.818  22.766  1.00  0.00    -0.384 OA
ATOM    101  H   UNL A   1      35.145  24.354  22.040  1.00  0.00     0.211 HD
ENDBRANCH  67 100
ENDBRANCH  60  62
ENDBRANCH  59  60
ENDBRANCH  58  59
ENDBRANCH   1  58
TORSDOF 25
ENDMDL
