MODEL 1
REMARK VINA RESULT:      -9.6      0.000      0.000
REMARK SMILES CCCCCC[C@@H](C)N1C[C@H](C(=O)OCCOCCOC(=O)c2ccc(-c3c4nc(c(-c5ccccc5)c5ccc([nH]5)c(-c5ccccc5)c5nc(c(-c6ccccc6)c6ccc3[nH]6)C=C5)C=C4)cc2)CC1=O
REMARK SMILES IDX 15 1 14 2 12 3 13 4 11 5 9 6 10 7 72 8 71 9 73 10 7 11 8 12
REMARK SMILES IDX 6 13 5 14 4 15 3 16 2 17 1 18 16 19 17 20 18 21 19 22 20 23
REMARK SMILES IDX 21 24 22 25 23 26 24 27 70 28 25 29 69 30 26 31 27 32 28 33
REMARK SMILES IDX 63 34 29 35 68 36 62 37 64 38 30 39 67 40 61 41 60 42 31 44
REMARK SMILES IDX 53 45 38 46 52 47 39 48 42 49 51 50 65 51 40 52 41 53 50 55
REMARK SMILES IDX 66 56 43 57 32 58 33 59 37 60 34 61 36 62 35 63 54 64 55 65
REMARK SMILES IDX 59 66 56 67 58 68 57 69 44 70 45 71 49 72 46 73 48 74 47 75
REMARK H PARENT 64 43 42 54
REMARK Flexibility Score: inf
ROOT
ATOM      1  C   UNL A   1      34.986  31.382  27.691  1.00  0.00     0.261 C 
ENDROOT
BRANCH   1   2
ATOM      2  O   UNL A   1      33.770  31.011  27.025  1.00  0.00    -0.463 OA
BRANCH   2   3
ATOM      3  C   UNL A   1      33.420  29.704  27.173  1.00  0.00     0.311 C 
ATOM      4  O   UNL A   1      34.201  28.786  27.376  1.00  0.00    -0.252 OA
BRANCH   3   5
ATOM      5  C   UNL A   1      31.914  29.554  27.097  1.00  0.00     0.128 C 
ATOM      6  N   UNL A   1      31.730  28.261  25.192  1.00  0.00    -0.339 N 
ATOM      7  C   UNL A   1      31.500  29.613  25.654  1.00  0.00     0.135 C 
ATOM      8  C   UNL A   1      31.676  27.356  26.256  1.00  0.00     0.223 C 
ATOM      9  C   UNL A   1      31.490  28.154  27.528  1.00  0.00     0.117 C 
ATOM     10  O   UNL A   1      31.748  26.140  26.224  1.00  0.00    -0.275 OA
BRANCH   6  11
ATOM     11  C   UNL A   1      32.322  28.030  23.865  1.00  0.00     0.082 C 
ATOM     12  C   UNL A   1      33.851  28.093  23.951  1.00  0.00     0.031 C 
BRANCH  11  13
ATOM     13  C   UNL A   1      31.771  28.925  22.739  1.00  0.00     0.025 C 
BRANCH  13  14
ATOM     14  C   UNL A   1      30.282  28.726  22.422  1.00  0.00     0.002 C 
BRANCH  14  15
ATOM     15  C   UNL A   1      29.482  30.019  22.230  1.00  0.00     0.000 C 
BRANCH  15  16
ATOM     16  C   UNL A   1      28.214  30.137  23.084  1.00  0.00    -0.000 C 
BRANCH  16  17
ATOM     17  C   UNL A   1      27.719  31.566  23.327  1.00  0.00    -0.003 C 
ATOM     18  C   UNL A   1      28.806  32.618  23.167  1.00  0.00     0.004 C 
ENDBRANCH  16  17
ENDBRANCH  15  16
ENDBRANCH  14  15
ENDBRANCH  13  14
ENDBRANCH  11  13
ENDBRANCH   6  11
ENDBRANCH   3   5
ENDBRANCH   2   3
ENDBRANCH   1   2
BRANCH   1  19
ATOM     19  C   UNL A   1      34.914  32.817  28.218  1.00  0.00     0.202 C 
BRANCH  19  20
ATOM     20  O   UNL A   1      34.152  33.047  29.400  1.00  0.00    -0.374 OA
BRANCH  20  21
ATOM     21  C   UNL A   1      34.553  34.092  30.284  1.00  0.00     0.202 C 
BRANCH  21  22
ATOM     22  C   UNL A   1      34.607  33.786  31.787  1.00  0.00     0.261 C 
BRANCH  22  23
ATOM     23  O   UNL A   1      34.869  32.400  32.065  1.00  0.00    -0.460 OA
BRANCH  23  24
ATOM     24  C   UNL A   1      35.974  32.181  32.816  1.00  0.00     0.338 C 
ATOM     25  O   UNL A   1      36.138  32.463  33.996  1.00  0.00    -0.246 OA
BRANCH  24  26
ATOM     26  C   UNL A   1      36.946  31.368  32.068  1.00  0.00     0.060 A 
ATOM     27  C   UNL A   1      38.031  30.840  32.780  1.00  0.00     0.016 A 
ATOM     28  C   UNL A   1      36.855  31.207  30.684  1.00  0.00     0.016 A 
ATOM     29  C   UNL A   1      39.058  30.188  32.104  1.00  0.00     0.010 A 
ATOM     30  C   UNL A   1      37.894  30.563  30.006  1.00  0.00     0.010 A 
ATOM     31  C   UNL A   1      39.016  30.085  30.708  1.00  0.00    -0.014 A 
BRANCH  31  32
ATOM     32  C   UNL A   1      40.218  29.621  29.979  1.00  0.00     0.031 A 
ATOM     33  C   UNL A   1      41.355  30.584  29.764  1.00  0.00     0.074 A 
ATOM     34  C   UNL A   1      40.316  28.351  29.551  1.00  0.00     0.049 A 
ATOM     35  N   UNL A   1      42.489  30.400  29.138  1.00  0.00    -0.248 NA
ATOM     36  C   UNL A   1      41.192  31.932  30.334  1.00  0.00     0.031 C 
ATOM     37  C   UNL A   1      39.307  27.311  29.747  1.00  0.00     0.029 A 
ATOM     38  N   UNL A   1      41.321  27.721  28.861  1.00  0.00    -0.354 N 
ATOM     39  C   UNL A   1      43.170  31.607  29.232  1.00  0.00     0.074 A 
ATOM     40  C   UNL A   1      42.313  32.524  29.951  1.00  0.00     0.031 C 
ATOM     41  C   UNL A   1      39.743  26.171  29.181  1.00  0.00     0.029 A 
ATOM     42  C   UNL A   1      41.042  26.412  28.559  1.00  0.00     0.049 A 
ATOM     43  H   UNL A   1      42.161  28.167  28.605  1.00  0.00     0.167 HD
ATOM     44  C   UNL A   1      44.403  31.922  28.769  1.00  0.00     0.031 A 
ATOM     45  C   UNL A   1      41.750  25.516  27.843  1.00  0.00     0.031 A 
ATOM     46  C   UNL A   1      45.251  31.014  28.045  1.00  0.00     0.049 A 
ATOM     47  C   UNL A   1      43.080  25.918  27.265  1.00  0.00     0.074 A 
ATOM     48  C   UNL A   1      46.519  31.238  27.536  1.00  0.00     0.029 A 
ATOM     49  N   UNL A   1      44.914  29.710  27.720  1.00  0.00    -0.354 N 
ATOM     50  N   UNL A   1      43.721  27.057  27.376  1.00  0.00    -0.248 NA
ATOM     51  C   UNL A   1      43.788  24.906  26.467  1.00  0.00     0.031 C 
ATOM     52  C   UNL A   1      46.929  30.084  26.860  1.00  0.00     0.029 A 
ATOM     53  C   UNL A   1      45.939  29.123  26.998  1.00  0.00     0.049 A 
ATOM     54  H   UNL A   1      44.071  29.266  27.968  1.00  0.00     0.167 HD
ATOM     55  C   UNL A   1      44.918  26.888  26.690  1.00  0.00     0.074 A 
ATOM     56  C   UNL A   1      44.919  25.533  26.178  1.00  0.00     0.031 C 
ATOM     57  C   UNL A   1      45.926  27.773  26.501  1.00  0.00     0.031 A 
BRANCH  44  58
ATOM     58  C   UNL A   1      44.897  33.320  29.007  1.00  0.00    -0.014 A 
ATOM     59  C   UNL A   1      45.666  33.640  30.136  1.00  0.00     0.009 A 
ATOM     60  C   UNL A   1      44.621  34.325  28.065  1.00  0.00     0.009 A 
ATOM     61  C   UNL A   1      46.127  34.944  30.331  1.00  0.00     0.001 A 
ATOM     62  C   UNL A   1      45.105  35.621  28.249  1.00  0.00     0.001 A 
ATOM     63  C   UNL A   1      45.851  35.931  29.386  1.00  0.00     0.000 A 
ENDBRANCH  44  58
BRANCH  45  64
ATOM     64  C   UNL A   1      41.208  24.152  27.606  1.00  0.00    -0.014 A 
ATOM     65  C   UNL A   1      41.736  23.043  28.284  1.00  0.00     0.009 A 
ATOM     66  C   UNL A   1      40.181  23.951  26.671  1.00  0.00     0.009 A 
ATOM     67  C   UNL A   1      41.267  21.756  28.007  1.00  0.00     0.001 A 
ATOM     68  C   UNL A   1      39.693  22.667  26.419  1.00  0.00     0.001 A 
ATOM     69  C   UNL A   1      40.244  21.570  27.078  1.00  0.00     0.000 A 
ENDBRANCH  45  64
BRANCH  57  70
ATOM     70  C   UNL A   1      47.134  27.292  25.747  1.00  0.00    -0.014 A 
ATOM     71  C   UNL A   1      47.251  27.477  24.361  1.00  0.00     0.009 A 
ATOM     72  C   UNL A   1      48.187  26.680  26.444  1.00  0.00     0.009 A 
ATOM     73  C   UNL A   1      48.387  27.028  23.684  1.00  0.00     0.001 A 
ATOM     74  C   UNL A   1      49.334  26.259  25.768  1.00  0.00     0.001 A 
ATOM     75  C   UNL A   1      49.428  26.424  24.388  1.00  0.00     0.000 A 
ENDBRANCH  57  70
ENDBRANCH  31  32
ENDBRANCH  24  26
ENDBRANCH  23  24
ENDBRANCH  22  23
ENDBRANCH  21  22
ENDBRANCH  20  21
ENDBRANCH  19  20
ENDBRANCH   1  19
TORSDOF 20
ENDMDL
MODEL 2
REMARK VINA RESULT:      -9.2      3.876      8.294
REMARK SMILES CCCCCC[C@@H](C)N1C[C@H](C(=O)OCCOCCOC(=O)c2ccc(-c3c4nc(c(-c5ccccc5)c5ccc([nH]5)c(-c5ccccc5)c5nc(c(-c6ccccc6)c6ccc3[nH]6)C=C5)C=C4)cc2)CC1=O
REMARK SMILES IDX 15 1 14 2 12 3 13 4 11 5 9 6 10 7 72 8 71 9 73 10 7 11 8 12
REMARK SMILES IDX 6 13 5 14 4 15 3 16 2 17 1 18 16 19 17 20 18 21 19 22 20 23
REMARK SMILES IDX 21 24 22 25 23 26 24 27 70 28 25 29 69 30 26 31 27 32 28 33
REMARK SMILES IDX 63 34 29 35 68 36 62 37 64 38 30 39 67 40 61 41 60 42 31 44
REMARK SMILES IDX 53 45 38 46 52 47 39 48 42 49 51 50 65 51 40 52 41 53 50 55
REMARK SMILES IDX 66 56 43 57 32 58 33 59 37 60 34 61 36 62 35 63 54 64 55 65
REMARK SMILES IDX 59 66 56 67 58 68 57 69 44 70 45 71 49 72 46 73 48 74 47 75
REMARK H PARENT 64 43 42 54
REMARK Flexibility Score: inf
ROOT
ATOM      1  C   UNL A   1      32.154  22.808  26.350  1.00  0.00     0.261 C 
ENDROOT
BRANCH   1   2
ATOM      2  O   UNL A   1      31.318  22.844  25.184  1.00  0.00    -0.463 OA
BRANCH   2   3
ATOM      3  C   UNL A   1      30.827  24.077  24.878  1.00  0.00     0.311 C 
ATOM      4  O   UNL A   1      30.507  24.928  25.695  1.00  0.00    -0.252 OA
BRANCH   3   5
ATOM      5  C   UNL A   1      30.776  24.261  23.375  1.00  0.00     0.128 C 
ATOM      6  N   UNL A   1      32.341  25.939  23.116  1.00  0.00    -0.339 N 
ATOM      7  C   UNL A   1      30.911  25.725  23.068  1.00  0.00     0.135 C 
ATOM      8  C   UNL A   1      33.030  24.751  22.857  1.00  0.00     0.223 C 
ATOM      9  C   UNL A   1      32.005  23.647  22.715  1.00  0.00     0.117 C 
ATOM     10  O   UNL A   1      34.231  24.578  22.744  1.00  0.00    -0.275 OA
BRANCH   6  11
ATOM     11  C   UNL A   1      32.879  27.154  23.749  1.00  0.00     0.082 C 
ATOM     12  C   UNL A   1      33.669  27.977  22.726  1.00  0.00     0.031 C 
BRANCH  11  13
ATOM     13  C   UNL A   1      33.682  26.916  25.042  1.00  0.00     0.025 C 
BRANCH  13  14
ATOM     14  C   UNL A   1      32.894  27.124  26.343  1.00  0.00     0.002 C 
BRANCH  14  15
ATOM     15  C   UNL A   1      31.796  28.191  26.270  1.00  0.00     0.000 C 
BRANCH  15  16
ATOM     16  C   UNL A   1      31.928  29.336  27.283  1.00  0.00    -0.000 C 
BRANCH  16  17
ATOM     17  C   UNL A   1      32.857  30.478  26.860  1.00  0.00    -0.003 C 
ATOM     18  C   UNL A   1      34.282  30.319  27.368  1.00  0.00     0.004 C 
ENDBRANCH  16  17
ENDBRANCH  15  16
ENDBRANCH  14  15
ENDBRANCH  13  14
ENDBRANCH  11  13
ENDBRANCH   6  11
ENDBRANCH   3   5
ENDBRANCH   2   3
ENDBRANCH   1   2
BRANCH   1  19
ATOM     19  C   UNL A   1      33.574  23.281  26.030  1.00  0.00     0.202 C 
BRANCH  19  20
ATOM     20  O   UNL A   1      34.587  23.024  26.998  1.00  0.00    -0.374 OA
BRANCH  20  21
ATOM     21  C   UNL A   1      35.767  22.333  26.591  1.00  0.00     0.202 C 
BRANCH  21  22
ATOM     22  C   UNL A   1      36.414  22.730  25.258  1.00  0.00     0.261 C 
BRANCH  22  23
ATOM     23  O   UNL A   1      37.456  23.708  25.414  1.00  0.00    -0.460 OA
BRANCH  23  24
ATOM     24  C   UNL A   1      38.571  23.242  26.026  1.00  0.00     0.338 C 
ATOM     25  O   UNL A   1      39.062  22.125  25.925  1.00  0.00    -0.246 OA
BRANCH  24  26
ATOM     26  C   UNL A   1      39.262  24.335  26.728  1.00  0.00     0.060 A 
ATOM     27  C   UNL A   1      38.986  24.506  28.090  1.00  0.00     0.016 A 
ATOM     28  C   UNL A   1      40.086  25.235  26.049  1.00  0.00     0.016 A 
ATOM     29  C   UNL A   1      39.493  25.607  28.772  1.00  0.00     0.010 A 
ATOM     30  C   UNL A   1      40.584  26.348  26.733  1.00  0.00     0.010 A 
ATOM     31  C   UNL A   1      40.259  26.558  28.086  1.00  0.00    -0.014 A 
BRANCH  31  32
ATOM     32  C   UNL A   1      40.581  27.843  28.746  1.00  0.00     0.031 A 
ATOM     33  C   UNL A   1      41.965  28.049  29.301  1.00  0.00     0.074 A 
ATOM     34  C   UNL A   1      39.671  28.830  28.815  1.00  0.00     0.049 A 
ATOM     35  N   UNL A   1      42.458  29.082  29.935  1.00  0.00    -0.248 NA
ATOM     36  C   UNL A   1      42.920  26.944  29.114  1.00  0.00     0.031 C 
ATOM     37  C   UNL A   1      38.317  28.771  28.266  1.00  0.00     0.029 A 
ATOM     38  N   UNL A   1      39.754  30.078  29.378  1.00  0.00    -0.354 N 
ATOM     39  C   UNL A   1      43.775  28.750  30.227  1.00  0.00     0.074 A 
ATOM     40  C   UNL A   1      43.997  27.411  29.726  1.00  0.00     0.031 C 
ATOM     41  C   UNL A   1      37.692  29.934  28.527  1.00  0.00     0.029 A 
ATOM     42  C   UNL A   1      38.590  30.800  29.286  1.00  0.00     0.049 A 
ATOM     43  H   UNL A   1      40.570  30.422  29.807  1.00  0.00     0.167 HD
ATOM     44  C   UNL A   1      44.718  29.496  30.849  1.00  0.00     0.031 A 
ATOM     45  C   UNL A   1      38.281  32.015  29.778  1.00  0.00     0.031 A 
ATOM     46  C   UNL A   1      44.495  30.823  31.357  1.00  0.00     0.049 A 
ATOM     47  C   UNL A   1      39.322  32.789  30.542  1.00  0.00     0.074 A 
ATOM     48  C   UNL A   1      45.389  31.662  32.000  1.00  0.00     0.029 A 
ATOM     49  N   UNL A   1      43.290  31.502  31.284  1.00  0.00    -0.354 N 
ATOM     50  N   UNL A   1      40.569  32.471  30.796  1.00  0.00    -0.248 NA
ATOM     51  C   UNL A   1      38.914  34.095  31.081  1.00  0.00     0.031 C 
ATOM     52  C   UNL A   1      44.709  32.830  32.361  1.00  0.00     0.029 A 
ATOM     53  C   UNL A   1      43.408  32.740  31.891  1.00  0.00     0.049 A 
ATOM     54  H   UNL A   1      42.471  31.155  30.862  1.00  0.00     0.167 HD
ATOM     55  C   UNL A   1      41.100  33.548  31.496  1.00  0.00     0.074 A 
ATOM     56  C   UNL A   1      40.045  34.533  31.614  1.00  0.00     0.031 C 
ATOM     57  C   UNL A   1      42.350  33.709  31.995  1.00  0.00     0.031 A 
BRANCH  44  58
ATOM     58  C   UNL A   1      46.074  28.879  31.042  1.00  0.00    -0.014 A 
ATOM     59  C   UNL A   1      47.087  29.031  30.084  1.00  0.00     0.009 A 
ATOM     60  C   UNL A   1      46.353  28.169  32.221  1.00  0.00     0.009 A 
ATOM     61  C   UNL A   1      48.346  28.461  30.290  1.00  0.00     0.001 A 
ATOM     62  C   UNL A   1      47.620  27.623  32.436  1.00  0.00     0.001 A 
ATOM     63  C   UNL A   1      48.613  27.762  31.467  1.00  0.00     0.000 A 
ENDBRANCH  44  58
BRANCH  45  64
ATOM     64  C   UNL A   1      36.917  32.574  29.590  1.00  0.00    -0.014 A 
ATOM     65  C   UNL A   1      35.913  32.349  30.544  1.00  0.00     0.009 A 
ATOM     66  C   UNL A   1      36.603  33.306  28.435  1.00  0.00     0.009 A 
ATOM     67  C   UNL A   1      34.615  32.821  30.330  1.00  0.00     0.001 A 
ATOM     68  C   UNL A   1      35.313  33.802  28.237  1.00  0.00     0.001 A 
ATOM     69  C   UNL A   1      34.317  33.549  29.178  1.00  0.00     0.000 A 
ENDBRANCH  45  64
BRANCH  57  70
ATOM     70  C   UNL A   1      42.657  35.013  32.676  1.00  0.00    -0.014 A 
ATOM     71  C   UNL A   1      43.351  36.037  32.013  1.00  0.00     0.009 A 
ATOM     72  C   UNL A   1      42.209  35.234  33.987  1.00  0.00     0.009 A 
ATOM     73  C   UNL A   1      43.618  37.244  32.664  1.00  0.00     0.001 A 
ATOM     74  C   UNL A   1      42.451  36.451  34.625  1.00  0.00     0.001 A 
ATOM     75  C   UNL A   1      43.164  37.451  33.966  1.00  0.00     0.000 A 
ENDBRANCH  57  70
ENDBRANCH  31  32
ENDBRANCH  24  26
ENDBRANCH  23  24
ENDBRANCH  22  23
ENDBRANCH  21  22
ENDBRANCH  20  21
ENDBRANCH  19  20
ENDBRANCH   1  19
TORSDOF 20
ENDMDL
MODEL 3
REMARK VINA RESULT:      -9.1      4.113      8.996
REMARK SMILES CCCCCC[C@@H](C)N1C[C@H](C(=O)OCCOCCOC(=O)c2ccc(-c3c4nc(c(-c5ccccc5)c5ccc([nH]5)c(-c5ccccc5)c5nc(c(-c6ccccc6)c6ccc3[nH]6)C=C5)C=C4)cc2)CC1=O
REMARK SMILES IDX 15 1 14 2 12 3 13 4 11 5 9 6 10 7 72 8 71 9 73 10 7 11 8 12
REMARK SMILES IDX 6 13 5 14 4 15 3 16 2 17 1 18 16 19 17 20 18 21 19 22 20 23
REMARK SMILES IDX 21 24 22 25 23 26 24 27 70 28 25 29 69 30 26 31 27 32 28 33
REMARK SMILES IDX 63 34 29 35 68 36 62 37 64 38 30 39 67 40 61 41 60 42 31 44
REMARK SMILES IDX 53 45 38 46 52 47 39 48 42 49 51 50 65 51 40 52 41 53 50 55
REMARK SMILES IDX 66 56 43 57 32 58 33 59 37 60 34 61 36 62 35 63 54 64 55 65
REMARK SMILES IDX 59 66 56 67 58 68 57 69 44 70 45 71 49 72 46 73 48 74 47 75
REMARK H PARENT 64 43 42 54
REMARK Flexibility Score: inf
ROOT
ATOM      1  C   UNL A   1      36.774  21.704  25.391  1.00  0.00     0.261 C 
ENDROOT
BRANCH   1   2
ATOM      2  O   UNL A   1      35.870  22.658  24.815  1.00  0.00    -0.463 OA
BRANCH   2   3
ATOM      3  C   UNL A   1      35.241  23.458  25.719  1.00  0.00     0.311 C 
ATOM      4  O   UNL A   1      35.024  23.165  26.886  1.00  0.00    -0.252 OA
BRANCH   3   5
ATOM      5  C   UNL A   1      34.885  24.787  25.083  1.00  0.00     0.128 C 
ATOM      6  N   UNL A   1      32.770  24.306  24.292  1.00  0.00    -0.339 N 
ATOM      7  C   UNL A   1      34.120  24.522  23.819  1.00  0.00     0.135 C 
ATOM      8  C   UNL A   1      32.567  24.942  25.520  1.00  0.00     0.223 C 
ATOM      9  C   UNL A   1      33.885  25.547  25.948  1.00  0.00     0.117 C 
ATOM     10  O   UNL A   1      31.538  25.034  26.167  1.00  0.00    -0.275 OA
BRANCH   6  11
ATOM     11  C   UNL A   1      31.948  23.236  23.703  1.00  0.00     0.082 C 
ATOM     12  C   UNL A   1      30.595  23.796  23.254  1.00  0.00     0.031 C 
BRANCH  11  13
ATOM     13  C   UNL A   1      31.791  21.977  24.578  1.00  0.00     0.025 C 
BRANCH  13  14
ATOM     14  C   UNL A   1      32.912  20.939  24.427  1.00  0.00     0.002 C 
BRANCH  14  15
ATOM     15  C   UNL A   1      32.544  19.520  24.875  1.00  0.00     0.000 C 
BRANCH  15  16
ATOM     16  C   UNL A   1      32.514  18.469  23.759  1.00  0.00    -0.000 C 
BRANCH  16  17
ATOM     17  C   UNL A   1      33.153  17.122  24.113  1.00  0.00    -0.003 C 
ATOM     18  C   UNL A   1      34.148  16.631  23.073  1.00  0.00     0.004 C 
ENDBRANCH  16  17
ENDBRANCH  15  16
ENDBRANCH  14  15
ENDBRANCH  13  14
ENDBRANCH  11  13
ENDBRANCH   6  11
ENDBRANCH   3   5
ENDBRANCH   2   3
ENDBRANCH   1   2
BRANCH   1  19
ATOM     19  C   UNL A   1      38.134  22.339  25.691  1.00  0.00     0.202 C 
BRANCH  19  20
ATOM     20  O   UNL A   1      39.191  21.472  26.095  1.00  0.00    -0.374 OA
BRANCH  20  21
ATOM     21  C   UNL A   1      39.270  20.170  25.517  1.00  0.00     0.202 C 
BRANCH  21  22
ATOM     22  C   UNL A   1      40.348  19.213  26.040  1.00  0.00     0.261 C 
BRANCH  22  23
ATOM     23  O   UNL A   1      41.547  19.237  25.248  1.00  0.00    -0.460 OA
BRANCH  23  24
ATOM     24  C   UNL A   1      42.659  19.604  25.929  1.00  0.00     0.338 C 
ATOM     25  O   UNL A   1      43.722  18.999  25.996  1.00  0.00    -0.246 OA
BRANCH  24  26
ATOM     26  C   UNL A   1      42.502  20.963  26.468  1.00  0.00     0.060 A 
ATOM     27  C   UNL A   1      42.679  22.034  25.583  1.00  0.00     0.016 A 
ATOM     28  C   UNL A   1      42.286  21.190  27.829  1.00  0.00     0.016 A 
ATOM     29  C   UNL A   1      42.689  23.341  26.062  1.00  0.00     0.010 A 
ATOM     30  C   UNL A   1      42.310  22.503  28.310  1.00  0.00     0.010 A 
ATOM     31  C   UNL A   1      42.548  23.579  27.435  1.00  0.00    -0.014 A 
BRANCH  31  32
ATOM     32  C   UNL A   1      42.810  24.936  27.966  1.00  0.00     0.031 A 
ATOM     33  C   UNL A   1      44.226  25.329  28.292  1.00  0.00     0.074 A 
ATOM     34  C   UNL A   1      41.810  25.822  28.117  1.00  0.00     0.049 A 
ATOM     35  N   UNL A   1      44.682  26.452  28.784  1.00  0.00    -0.248 NA
ATOM     36  C   UNL A   1      45.266  24.321  28.024  1.00  0.00     0.031 C 
ATOM     37  C   UNL A   1      40.407  25.579  27.784  1.00  0.00     0.029 A 
ATOM     38  N   UNL A   1      41.828  27.109  28.590  1.00  0.00    -0.354 N 
ATOM     39  C   UNL A   1      46.057  26.285  28.891  1.00  0.00     0.074 A 
ATOM     40  C   UNL A   1      46.359  24.945  28.438  1.00  0.00     0.031 C 
ATOM     41  C   UNL A   1      39.696  26.684  28.072  1.00  0.00     0.029 A 
ATOM     42  C   UNL A   1      40.587  27.694  28.636  1.00  0.00     0.049 A 
ATOM     43  H   UNL A   1      42.652  27.569  28.871  1.00  0.00     0.167 HD
ATOM     44  C   UNL A   1      46.987  27.171  29.320  1.00  0.00     0.031 A 
ATOM     45  C   UNL A   1      40.213  28.902  29.101  1.00  0.00     0.031 A 
ATOM     46  C   UNL A   1      46.686  28.500  29.781  1.00  0.00     0.049 A 
ATOM     47  C   UNL A   1      41.256  29.836  29.653  1.00  0.00     0.074 A 
ATOM     48  C   UNL A   1      47.560  29.474  30.232  1.00  0.00     0.029 A 
ATOM     49  N   UNL A   1      45.412  29.039  29.854  1.00  0.00    -0.354 N 
ATOM     50  N   UNL A   1      42.555  29.673  29.732  1.00  0.00    -0.248 NA
ATOM     51  C   UNL A   1      40.780  31.126  30.174  1.00  0.00     0.031 C 
ATOM     52  C   UNL A   1      46.807  30.586  30.626  1.00  0.00     0.029 A 
ATOM     53  C   UNL A   1      45.472  30.323  30.366  1.00  0.00     0.049 A 
ATOM     54  H   UNL A   1      44.586  28.576  29.581  1.00  0.00     0.167 HD
ATOM     55  C   UNL A   1      43.052  30.848  30.282  1.00  0.00     0.074 A 
ATOM     56  C   UNL A   1      41.918  31.721  30.504  1.00  0.00     0.031 C 
ATOM     57  C   UNL A   1      44.334  31.178  30.576  1.00  0.00     0.031 A 
BRANCH  44  58
ATOM     58  C   UNL A   1      48.419  26.718  29.339  1.00  0.00    -0.014 A 
ATOM     59  C   UNL A   1      49.276  26.964  28.256  1.00  0.00     0.009 A 
ATOM     60  C   UNL A   1      48.929  26.071  30.477  1.00  0.00     0.009 A 
ATOM     61  C   UNL A   1      50.608  26.547  28.300  1.00  0.00     0.001 A 
ATOM     62  C   UNL A   1      50.267  25.679  30.528  1.00  0.00     0.001 A 
ATOM     63  C   UNL A   1      51.104  25.910  29.436  1.00  0.00     0.000 A 
ENDBRANCH  44  58
BRANCH  45  64
ATOM     64  C   UNL A   1      38.780  29.296  29.092  1.00  0.00    -0.014 A 
ATOM     65  C   UNL A   1      37.971  29.082  30.217  1.00  0.00     0.009 A 
ATOM     66  C   UNL A   1      38.206  29.856  27.940  1.00  0.00     0.009 A 
ATOM     67  C   UNL A   1      36.608  29.394  30.179  1.00  0.00     0.001 A 
ATOM     68  C   UNL A   1      36.852  30.195  27.915  1.00  0.00     0.001 A 
ATOM     69  C   UNL A   1      36.052  29.953  29.030  1.00  0.00     0.000 A 
ENDBRANCH  45  64
BRANCH  57  70
ATOM     70  C   UNL A   1      44.582  32.554  31.127  1.00  0.00    -0.014 A 
ATOM     71  C   UNL A   1      44.803  33.651  30.281  1.00  0.00     0.009 A 
ATOM     72  C   UNL A   1      44.554  32.759  32.515  1.00  0.00     0.009 A 
ATOM     73  C   UNL A   1      45.023  34.922  30.817  1.00  0.00     0.001 A 
ATOM     74  C   UNL A   1      44.745  34.035  33.048  1.00  0.00     0.001 A 
ATOM     75  C   UNL A   1      44.990  35.113  32.198  1.00  0.00     0.000 A 
ENDBRANCH  57  70
ENDBRANCH  31  32
ENDBRANCH  24  26
ENDBRANCH  23  24
ENDBRANCH  22  23
ENDBRANCH  21  22
ENDBRANCH  20  21
ENDBRANCH  19  20
ENDBRANCH   1  19
TORSDOF 20
ENDMDL
