MODEL 1
REMARK VINA RESULT:     -10.7      0.000      0.000
REMARK SMILES CC[C@](C)(NC(=O)N1Cc2ccccc2C1)C(=O)OCCOCCOC(=O)c1ccc(-c2c3nc(c(-c4ccccc4)c4ccc([nH]4)c(-c4ccccc4)c4nc(c(-c5ccccc5)c5ccc2[nH]5)C=C4)C=C3)cc1
REMARK SMILES IDX 23 1 22 2 21 3 20 4 19 5 17 6 18 7 3 8 4 9 2 10 1 11 5 12
REMARK SMILES IDX 6 13 7 15 8 16 9 17 16 18 10 19 15 20 11 21 14 22 12 23
REMARK SMILES IDX 13 24 24 25 25 26 26 27 27 28 28 29 29 30 75 31 30 32 74 33
REMARK SMILES IDX 31 34 32 35 33 36 68 37 34 38 73 39 67 40 69 41 35 42 72 43
REMARK SMILES IDX 66 44 65 45 36 47 58 48 43 49 57 50 44 51 47 52 56 53 70 54
REMARK SMILES IDX 45 55 46 56 55 58 71 59 48 60 37 61 38 62 42 63 39 64 41 65
REMARK SMILES IDX 40 66 59 67 60 68 64 69 61 70 63 71 62 72 49 73 50 74 54 75
REMARK SMILES IDX 51 76 53 77 52 78
REMARK H PARENT 5 14 69 46 47 57
REMARK Flexibility Score: inf
ROOT
ATOM      1  C   UNL A   1      42.109  20.669  26.227  1.00  0.00     0.202 C 
ENDROOT
BRANCH   1   2
ATOM      2  O   UNL A   1      40.903  21.373  26.608  1.00  0.00    -0.374 OA
BRANCH   2   3
ATOM      3  C   UNL A   1      39.565  21.108  26.126  1.00  0.00     0.202 C 
BRANCH   3   4
ATOM      4  C   UNL A   1      38.545  22.153  25.592  1.00  0.00     0.261 C 
BRANCH   4   5
ATOM      5  O   UNL A   1      37.222  21.665  25.561  1.00  0.00    -0.462 OA
BRANCH   5   6
ATOM      6  C   UNL A   1      36.228  22.514  25.838  1.00  0.00     0.331 C 
ATOM      7  O   UNL A   1      36.389  23.702  26.122  1.00  0.00    -0.249 OA
BRANCH   6   8
ATOM      8  C   UNL A   1      34.864  21.818  25.680  1.00  0.00     0.136 C 
ATOM      9  C   UNL A   1      34.255  21.854  27.115  1.00  0.00     0.047 C 
BRANCH   8  10
ATOM     10  C   UNL A   1      35.049  20.330  25.274  1.00  0.00     0.037 C 
ATOM     11  C   UNL A   1      33.841  19.641  24.626  1.00  0.00     0.007 C 
ENDBRANCH   8  10
BRANCH   8  12
ATOM     12  N   UNL A   1      33.836  22.444  24.726  1.00  0.00    -0.322 N 
ATOM     13  C   UNL A   1      33.282  23.635  24.362  1.00  0.00     0.318 C 
ATOM     14  H   UNL A   1      33.432  21.728  24.183  1.00  0.00     0.166 HD
ATOM     15  O   UNL A   1      32.617  23.617  23.321  1.00  0.00    -0.249 OA
ATOM     16  N   UNL A   1      33.343  24.762  25.145  1.00  0.00    -0.316 N 
ATOM     17  C   UNL A   1      32.122  25.241  25.778  1.00  0.00     0.157 C 
ATOM     18  C   UNL A   1      33.987  25.971  24.630  1.00  0.00     0.157 C 
ATOM     19  C   UNL A   1      32.338  26.641  26.190  1.00  0.00    -0.023 A 
ATOM     20  C   UNL A   1      33.459  27.088  25.509  1.00  0.00    -0.023 A 
ATOM     21  C   UNL A   1      31.571  27.428  27.045  1.00  0.00     0.006 A 
ATOM     22  C   UNL A   1      33.857  28.392  25.690  1.00  0.00     0.006 A 
ATOM     23  C   UNL A   1      31.988  28.733  27.250  1.00  0.00     0.000 A 
ATOM     24  C   UNL A   1      33.126  29.208  26.577  1.00  0.00     0.000 A 
ENDBRANCH   8  12
ENDBRANCH   6   8
ENDBRANCH   5   6
ENDBRANCH   4   5
ENDBRANCH   3   4
ENDBRANCH   2   3
ENDBRANCH   1   2
BRANCH   1  25
ATOM     25  C   UNL A   1      43.371  21.404  25.556  1.00  0.00     0.261 C 
BRANCH  25  26
ATOM     26  O   UNL A   1      43.035  22.597  24.714  1.00  0.00    -0.460 OA
BRANCH  26  27
ATOM     27  C   UNL A   1      43.626  23.818  24.985  1.00  0.00     0.338 C 
ATOM     28  O   UNL A   1      44.625  24.224  24.404  1.00  0.00    -0.246 OA
BRANCH  27  29
ATOM     29  C   UNL A   1      42.785  24.790  25.833  1.00  0.00     0.060 A 
ATOM     30  C   UNL A   1      43.390  26.017  26.185  1.00  0.00     0.016 A 
ATOM     31  C   UNL A   1      41.472  24.595  26.283  1.00  0.00     0.016 A 
ATOM     32  C   UNL A   1      42.704  27.035  26.892  1.00  0.00     0.010 A 
ATOM     33  C   UNL A   1      40.806  25.590  27.076  1.00  0.00     0.010 A 
ATOM     34  C   UNL A   1      41.416  26.823  27.403  1.00  0.00    -0.014 A 
BRANCH  34  35
ATOM     35  C   UNL A   1      40.937  27.710  28.538  1.00  0.00     0.031 A 
ATOM     36  C   UNL A   1      41.727  27.628  29.835  1.00  0.00     0.074 A 
ATOM     37  C   UNL A   1      39.947  28.635  28.482  1.00  0.00     0.049 A 
ATOM     38  N   UNL A   1      41.584  28.284  30.963  1.00  0.00    -0.248 NA
ATOM     39  C   UNL A   1      42.853  26.681  29.836  1.00  0.00     0.031 C 
ATOM     40  C   UNL A   1      39.141  28.967  27.311  1.00  0.00     0.029 A 
ATOM     41  N   UNL A   1      39.462  29.492  29.460  1.00  0.00    -0.354 N 
ATOM     42  C   UNL A   1      42.599  27.825  31.799  1.00  0.00     0.074 A 
ATOM     43  C   UNL A   1      43.344  26.836  31.053  1.00  0.00     0.031 C 
ATOM     44  C   UNL A   1      38.265  29.943  27.636  1.00  0.00     0.029 A 
ATOM     45  C   UNL A   1      38.416  30.295  29.052  1.00  0.00     0.049 A 
ATOM     46  H   UNL A   1      39.832  29.524  30.372  1.00  0.00     0.167 HD
ATOM     47  C   UNL A   1      42.898  28.169  33.075  1.00  0.00     0.031 A 
ATOM     48  C   UNL A   1      37.659  31.194  29.727  1.00  0.00     0.031 A 
ATOM     49  C   UNL A   1      42.158  29.108  33.872  1.00  0.00     0.049 A 
ATOM     50  C   UNL A   1      37.920  31.467  31.198  1.00  0.00     0.074 A 
ATOM     51  C   UNL A   1      42.375  29.479  35.189  1.00  0.00     0.029 A 
ATOM     52  N   UNL A   1      41.050  29.813  33.435  1.00  0.00    -0.354 N 
ATOM     53  N   UNL A   1      38.875  31.010  31.971  1.00  0.00    -0.248 NA
ATOM     54  C   UNL A   1      36.996  32.389  31.885  1.00  0.00     0.031 C 
ATOM     55  C   UNL A   1      41.356  30.358  35.569  1.00  0.00     0.029 A 
ATOM     56  C   UNL A   1      40.555  30.597  34.465  1.00  0.00     0.049 A 
ATOM     57  H   UNL A   1      40.671  29.765  32.528  1.00  0.00     0.167 HD
ATOM     58  C   UNL A   1      38.690  31.616  33.212  1.00  0.00     0.074 A 
ATOM     59  C   UNL A   1      37.541  32.484  33.090  1.00  0.00     0.031 C 
ATOM     60  C   UNL A   1      39.417  31.470  34.348  1.00  0.00     0.031 A 
BRANCH  47  61
ATOM     61  C   UNL A   1      44.049  27.444  33.721  1.00  0.00    -0.014 A 
ATOM     62  C   UNL A   1      45.357  27.952  33.680  1.00  0.00     0.009 A 
ATOM     63  C   UNL A   1      43.814  26.221  34.369  1.00  0.00     0.009 A 
ATOM     64  C   UNL A   1      46.413  27.225  34.236  1.00  0.00     0.001 A 
ATOM     65  C   UNL A   1      44.865  25.515  34.953  1.00  0.00     0.001 A 
ATOM     66  C   UNL A   1      46.166  26.010  34.874  1.00  0.00     0.000 A 
ENDBRANCH  47  61
BRANCH  48  67
ATOM     67  C   UNL A   1      36.520  31.906  29.061  1.00  0.00    -0.014 A 
ATOM     68  C   UNL A   1      36.635  33.247  28.652  1.00  0.00     0.009 A 
ATOM     69  C   UNL A   1      35.272  31.274  28.921  1.00  0.00     0.009 A 
ATOM     70  C   UNL A   1      35.529  33.940  28.144  1.00  0.00     0.001 A 
ATOM     71  C   UNL A   1      34.178  31.959  28.381  1.00  0.00     0.001 A 
ATOM     72  C   UNL A   1      34.303  33.294  28.002  1.00  0.00     0.000 A 
ENDBRANCH  48  67
BRANCH  60  73
ATOM     73  C   UNL A   1      39.044  32.309  35.543  1.00  0.00    -0.014 A 
ATOM     74  C   UNL A   1      39.524  33.617  35.714  1.00  0.00     0.009 A 
ATOM     75  C   UNL A   1      38.153  31.791  36.499  1.00  0.00     0.009 A 
ATOM     76  C   UNL A   1      39.156  34.368  36.835  1.00  0.00     0.001 A 
ATOM     77  C   UNL A   1      37.759  32.554  37.599  1.00  0.00     0.001 A 
ATOM     78  C   UNL A   1      38.272  33.838  37.773  1.00  0.00     0.000 A 
ENDBRANCH  60  73
ENDBRANCH  34  35
ENDBRANCH  27  29
ENDBRANCH  26  27
ENDBRANCH  25  26
ENDBRANCH   1  25
TORSDOF 16
ENDMDL
MODEL 2
REMARK VINA RESULT:     -10.6      3.077      8.216
REMARK SMILES CC[C@](C)(NC(=O)N1Cc2ccccc2C1)C(=O)OCCOCCOC(=O)c1ccc(-c2c3nc(c(-c4ccccc4)c4ccc([nH]4)c(-c4ccccc4)c4nc(c(-c5ccccc5)c5ccc2[nH]5)C=C4)C=C3)cc1
REMARK SMILES IDX 23 1 22 2 21 3 20 4 19 5 17 6 18 7 3 8 4 9 2 10 1 11 5 12
REMARK SMILES IDX 6 13 7 15 8 16 9 17 16 18 10 19 15 20 11 21 14 22 12 23
REMARK SMILES IDX 13 24 24 25 25 26 26 27 27 28 28 29 29 30 75 31 30 32 74 33
REMARK SMILES IDX 31 34 32 35 33 36 68 37 34 38 73 39 67 40 69 41 35 42 72 43
REMARK SMILES IDX 66 44 65 45 36 47 58 48 43 49 57 50 44 51 47 52 56 53 70 54
REMARK SMILES IDX 45 55 46 56 55 58 71 59 48 60 37 61 38 62 42 63 39 64 41 65
REMARK SMILES IDX 40 66 59 67 60 68 64 69 61 70 63 71 62 72 49 73 50 74 54 75
REMARK SMILES IDX 51 76 53 77 52 78
REMARK H PARENT 5 14 69 46 47 57
REMARK Flexibility Score: inf
ROOT
ATOM      1  C   UNL A   1      31.413  32.247  26.848  1.00  0.00     0.202 C 
ENDROOT
BRANCH   1   2
ATOM      2  O   UNL A   1      31.521  30.950  26.214  1.00  0.00    -0.374 OA
BRANCH   2   3
ATOM      3  C   UNL A   1      32.349  29.847  26.650  1.00  0.00     0.202 C 
BRANCH   3   4
ATOM      4  C   UNL A   1      31.864  28.525  27.310  1.00  0.00     0.261 C 
BRANCH   4   5
ATOM      5  O   UNL A   1      32.556  27.389  26.839  1.00  0.00    -0.462 OA
BRANCH   5   6
ATOM      6  C   UNL A   1      31.839  26.343  26.417  1.00  0.00     0.331 C 
ATOM      7  O   UNL A   1      30.677  26.114  26.758  1.00  0.00    -0.249 OA
BRANCH   6   8
ATOM      8  C   UNL A   1      32.642  25.514  25.398  1.00  0.00     0.136 C 
ATOM      9  C   UNL A   1      32.278  24.038  25.743  1.00  0.00     0.047 C 
BRANCH   8  10
ATOM     10  C   UNL A   1      34.169  25.697  25.621  1.00  0.00     0.037 C 
ATOM     11  C   UNL A   1      35.063  24.508  25.248  1.00  0.00     0.007 C 
ENDBRANCH   8  10
BRANCH   8  12
ATOM     12  N   UNL A   1      32.355  25.724  23.904  1.00  0.00    -0.322 N 
ATOM     13  C   UNL A   1      31.783  26.594  23.023  1.00  0.00     0.318 C 
ATOM     14  H   UNL A   1      32.709  24.954  23.402  1.00  0.00     0.166 HD
ATOM     15  O   UNL A   1      32.031  26.385  21.832  1.00  0.00    -0.249 OA
ATOM     16  N   UNL A   1      30.891  27.568  23.402  1.00  0.00    -0.316 N 
ATOM     17  C   UNL A   1      29.495  27.427  23.015  1.00  0.00     0.157 C 
ATOM     18  C   UNL A   1      31.201  28.976  23.148  1.00  0.00     0.157 C 
ATOM     19  C   UNL A   1      28.846  28.745  23.151  1.00  0.00    -0.023 A 
ATOM     20  C   UNL A   1      29.863  29.683  23.235  1.00  0.00    -0.023 A 
ATOM     21  C   UNL A   1      27.489  29.056  23.144  1.00  0.00     0.006 A 
ATOM     22  C   UNL A   1      29.521  31.012  23.331  1.00  0.00     0.006 A 
ATOM     23  C   UNL A   1      27.144  30.391  23.269  1.00  0.00     0.000 A 
ATOM     24  C   UNL A   1      28.156  31.361  23.364  1.00  0.00     0.000 A 
ENDBRANCH   8  12
ENDBRANCH   6   8
ENDBRANCH   5   6
ENDBRANCH   4   5
ENDBRANCH   3   4
ENDBRANCH   2   3
ENDBRANCH   1   2
BRANCH   1  25
ATOM     25  C   UNL A   1      32.689  33.169  27.169  1.00  0.00     0.261 C 
BRANCH  25  26
ATOM     26  O   UNL A   1      32.413  34.347  28.052  1.00  0.00    -0.460 OA
BRANCH  26  27
ATOM     27  C   UNL A   1      33.205  34.574  29.165  1.00  0.00     0.338 C 
ATOM     28  O   UNL A   1      32.814  35.179  30.154  1.00  0.00    -0.246 OA
BRANCH  27  29
ATOM     29  C   UNL A   1      34.506  33.752  29.232  1.00  0.00     0.060 A 
ATOM     30  C   UNL A   1      34.405  32.440  29.744  1.00  0.00     0.016 A 
ATOM     31  C   UNL A   1      35.782  34.162  28.823  1.00  0.00     0.016 A 
ATOM     32  C   UNL A   1      35.504  31.548  29.787  1.00  0.00     0.010 A 
ATOM     33  C   UNL A   1      36.915  33.289  28.949  1.00  0.00     0.010 A 
ATOM     34  C   UNL A   1      36.796  31.969  29.444  1.00  0.00    -0.014 A 
BRANCH  34  35
ATOM     35  C   UNL A   1      37.977  31.169  29.964  1.00  0.00     0.031 A 
ATOM     36  C   UNL A   1      38.307  31.341  31.440  1.00  0.00     0.074 A 
ATOM     37  C   UNL A   1      38.698  30.249  29.279  1.00  0.00     0.049 A 
ATOM     38  N   UNL A   1      39.229  30.769  32.178  1.00  0.00    -0.248 NA
ATOM     39  C   UNL A   1      37.448  32.279  32.179  1.00  0.00     0.031 C 
ATOM     40  C   UNL A   1      38.481  29.838  27.894  1.00  0.00     0.029 A 
ATOM     41  N   UNL A   1      39.773  29.468  29.681  1.00  0.00    -0.354 N 
ATOM     42  C   UNL A   1      39.056  31.281  33.462  1.00  0.00     0.074 A 
ATOM     43  C   UNL A   1      37.951  32.209  33.400  1.00  0.00     0.031 C 
ATOM     44  C   UNL A   1      39.388  28.894  27.564  1.00  0.00     0.029 A 
ATOM     45  C   UNL A   1      40.283  28.643  28.699  1.00  0.00     0.049 A 
ATOM     46  H   UNL A   1      40.142  29.500  30.594  1.00  0.00     0.167 HD
ATOM     47  C   UNL A   1      39.748  31.028  34.600  1.00  0.00     0.031 A 
ATOM     48  C   UNL A   1      41.345  27.801  28.697  1.00  0.00     0.031 A 
ATOM     49  C   UNL A   1      40.883  30.154  34.699  1.00  0.00     0.049 A 
ATOM     50  C   UNL A   1      42.194  27.633  29.945  1.00  0.00     0.074 A 
ATOM     51  C   UNL A   1      41.663  29.878  35.810  1.00  0.00     0.029 A 
ATOM     52  N   UNL A   1      41.413  29.426  33.648  1.00  0.00    -0.354 N 
ATOM     53  N   UNL A   1      42.021  28.139  31.142  1.00  0.00    -0.248 NA
ATOM     54  C   UNL A   1      43.385  26.768  29.837  1.00  0.00     0.031 C 
ATOM     55  C   UNL A   1      42.706  29.035  35.414  1.00  0.00     0.029 A 
ATOM     56  C   UNL A   1      42.527  28.722  34.077  1.00  0.00     0.049 A 
ATOM     57  H   UNL A   1      41.052  29.410  32.732  1.00  0.00     0.167 HD
ATOM     58  C   UNL A   1      43.049  27.625  31.930  1.00  0.00     0.074 A 
ATOM     59  C   UNL A   1      43.836  26.757  31.084  1.00  0.00     0.031 C 
ATOM     60  C   UNL A   1      43.309  27.849  33.242  1.00  0.00     0.031 A 
BRANCH  47  61
ATOM     61  C   UNL A   1      39.331  31.792  35.829  1.00  0.00    -0.014 A 
ATOM     62  C   UNL A   1      40.013  32.947  36.246  1.00  0.00     0.009 A 
ATOM     63  C   UNL A   1      38.243  31.334  36.588  1.00  0.00     0.009 A 
ATOM     64  C   UNL A   1      39.640  33.599  37.424  1.00  0.00     0.001 A 
ATOM     65  C   UNL A   1      37.852  32.006  37.745  1.00  0.00     0.001 A 
ATOM     66  C   UNL A   1      38.559  33.130  38.170  1.00  0.00     0.000 A 
ENDBRANCH  47  61
BRANCH  48  67
ATOM     67  C   UNL A   1      41.737  27.049  27.461  1.00  0.00    -0.014 A 
ATOM     68  C   UNL A   1      41.416  25.689  27.298  1.00  0.00     0.009 A 
ATOM     69  C   UNL A   1      42.528  27.666  26.476  1.00  0.00     0.009 A 
ATOM     70  C   UNL A   1      41.892  24.965  26.198  1.00  0.00     0.001 A 
ATOM     71  C   UNL A   1      42.975  26.948  25.361  1.00  0.00     0.001 A 
ATOM     72  C   UNL A   1      42.666  25.596  25.227  1.00  0.00     0.000 A 
ENDBRANCH  48  67
BRANCH  60  73
ATOM     73  C   UNL A   1      44.453  27.101  33.878  1.00  0.00    -0.014 A 
ATOM     74  C   UNL A   1      45.747  27.640  33.950  1.00  0.00     0.009 A 
ATOM     75  C   UNL A   1      44.215  25.844  34.460  1.00  0.00     0.009 A 
ATOM     76  C   UNL A   1      46.785  26.918  34.549  1.00  0.00     0.001 A 
ATOM     77  C   UNL A   1      45.244  25.139  35.089  1.00  0.00     0.001 A 
ATOM     78  C   UNL A   1      46.531  25.672  35.121  1.00  0.00     0.000 A 
ENDBRANCH  60  73
ENDBRANCH  34  35
ENDBRANCH  27  29
ENDBRANCH  26  27
ENDBRANCH  25  26
ENDBRANCH   1  25
TORSDOF 16
ENDMDL
MODEL 3
REMARK VINA RESULT:     -10.5      3.480      4.846
REMARK SMILES CC[C@](C)(NC(=O)N1Cc2ccccc2C1)C(=O)OCCOCCOC(=O)c1ccc(-c2c3nc(c(-c4ccccc4)c4ccc([nH]4)c(-c4ccccc4)c4nc(c(-c5ccccc5)c5ccc2[nH]5)C=C4)C=C3)cc1
REMARK SMILES IDX 23 1 22 2 21 3 20 4 19 5 17 6 18 7 3 8 4 9 2 10 1 11 5 12
REMARK SMILES IDX 6 13 7 15 8 16 9 17 16 18 10 19 15 20 11 21 14 22 12 23
REMARK SMILES IDX 13 24 24 25 25 26 26 27 27 28 28 29 29 30 75 31 30 32 74 33
REMARK SMILES IDX 31 34 32 35 33 36 68 37 34 38 73 39 67 40 69 41 35 42 72 43
REMARK SMILES IDX 66 44 65 45 36 47 58 48 43 49 57 50 44 51 47 52 56 53 70 54
REMARK SMILES IDX 45 55 46 56 55 58 71 59 48 60 37 61 38 62 42 63 39 64 41 65
REMARK SMILES IDX 40 66 59 67 60 68 64 69 61 70 63 71 62 72 49 73 50 74 54 75
REMARK SMILES IDX 51 76 53 77 52 78
REMARK H PARENT 5 14 69 46 47 57
REMARK Flexibility Score: inf
ROOT
ATOM      1  C   UNL A   1      37.793  20.388  25.001  1.00  0.00     0.202 C 
ENDROOT
BRANCH   1   2
ATOM      2  O   UNL A   1      37.058  21.550  24.548  1.00  0.00    -0.374 OA
BRANCH   2   3
ATOM      3  C   UNL A   1      37.211  22.905  25.030  1.00  0.00     0.202 C 
BRANCH   3   4
ATOM      4  C   UNL A   1      36.069  23.900  25.382  1.00  0.00     0.261 C 
BRANCH   4   5
ATOM      5  O   UNL A   1      34.957  23.272  25.980  1.00  0.00    -0.462 OA
BRANCH   5   6
ATOM      6  C   UNL A   1      33.928  22.932  25.198  1.00  0.00     0.331 C 
ATOM      7  O   UNL A   1      33.804  23.280  24.022  1.00  0.00    -0.249 OA
BRANCH   6   8
ATOM      8  C   UNL A   1      32.966  21.993  25.949  1.00  0.00     0.136 C 
ATOM      9  C   UNL A   1      33.860  21.341  27.048  1.00  0.00     0.047 C 
BRANCH   8  10
ATOM     10  C   UNL A   1      32.455  20.864  25.013  1.00  0.00     0.037 C 
ATOM     11  C   UNL A   1      33.445  19.736  24.695  1.00  0.00     0.007 C 
ENDBRANCH   8  10
BRANCH   8  12
ATOM     12  N   UNL A   1      31.748  22.612  26.651  1.00  0.00    -0.322 N 
ATOM     13  C   UNL A   1      30.887  23.667  26.595  1.00  0.00     0.318 C 
ATOM     14  H   UNL A   1      31.502  22.043  27.417  1.00  0.00     0.166 HD
ATOM     15  O   UNL A   1      29.883  23.573  27.308  1.00  0.00    -0.249 OA
ATOM     16  N   UNL A   1      31.155  24.819  25.897  1.00  0.00    -0.316 N 
ATOM     17  C   UNL A   1      31.424  26.041  26.641  1.00  0.00     0.157 C 
ATOM     18  C   UNL A   1      30.263  25.238  24.815  1.00  0.00     0.157 C 
ATOM     19  C   UNL A   1      31.260  27.183  25.721  1.00  0.00    -0.023 A 
ATOM     20  C   UNL A   1      30.566  26.710  24.618  1.00  0.00    -0.023 A 
ATOM     21  C   UNL A   1      31.650  28.508  25.895  1.00  0.00     0.006 A 
ATOM     22  C   UNL A   1      30.247  27.597  23.617  1.00  0.00     0.006 A 
ATOM     23  C   UNL A   1      31.354  29.396  24.874  1.00  0.00     0.000 A 
ATOM     24  C   UNL A   1      30.658  28.939  23.742  1.00  0.00     0.000 A 
ENDBRANCH   8  12
ENDBRANCH   6   8
ENDBRANCH   5   6
ENDBRANCH   4   5
ENDBRANCH   3   4
ENDBRANCH   2   3
ENDBRANCH   1   2
BRANCH   1  25
ATOM     25  C   UNL A   1      39.234  20.488  25.704  1.00  0.00     0.261 C 
BRANCH  25  26
ATOM     26  O   UNL A   1      40.063  19.242  25.630  1.00  0.00    -0.460 OA
BRANCH  26  27
ATOM     27  C   UNL A   1      41.391  19.274  26.018  1.00  0.00     0.338 C 
ATOM     28  O   UNL A   1      42.175  18.358  25.802  1.00  0.00    -0.246 OA
BRANCH  27  29
ATOM     29  C   UNL A   1      41.921  20.652  26.456  1.00  0.00     0.060 A 
ATOM     30  C   UNL A   1      41.729  21.007  27.809  1.00  0.00     0.016 A 
ATOM     31  C   UNL A   1      42.591  21.588  25.658  1.00  0.00     0.016 A 
ATOM     32  C   UNL A   1      42.236  22.207  28.366  1.00  0.00     0.010 A 
ATOM     33  C   UNL A   1      43.029  22.844  26.201  1.00  0.00     0.010 A 
ATOM     34  C   UNL A   1      42.848  23.179  27.563  1.00  0.00    -0.014 A 
BRANCH  34  35
ATOM     35  C   UNL A   1      42.919  24.603  28.083  1.00  0.00     0.031 A 
ATOM     36  C   UNL A   1      44.305  25.124  28.432  1.00  0.00     0.074 A 
ATOM     37  C   UNL A   1      41.893  25.485  28.172  1.00  0.00     0.049 A 
ATOM     38  N   UNL A   1      44.689  26.303  28.863  1.00  0.00    -0.248 NA
ATOM     39  C   UNL A   1      45.410  24.172  28.238  1.00  0.00     0.031 C 
ATOM     40  C   UNL A   1      40.508  25.241  27.781  1.00  0.00     0.029 A 
ATOM     41  N   UNL A   1      41.875  26.800  28.617  1.00  0.00    -0.354 N 
ATOM     42  C   UNL A   1      46.073  26.227  28.990  1.00  0.00     0.074 A 
ATOM     43  C   UNL A   1      46.460  24.890  28.598  1.00  0.00     0.031 C 
ATOM     44  C   UNL A   1      39.780  26.357  28.006  1.00  0.00     0.029 A 
ATOM     45  C   UNL A   1      40.631  27.398  28.589  1.00  0.00     0.049 A 
ATOM     46  H   UNL A   1      42.684  27.269  28.928  1.00  0.00     0.167 HD
ATOM     47  C   UNL A   1      46.962  27.163  29.404  1.00  0.00     0.031 A 
ATOM     48  C   UNL A   1      40.216  28.624  28.994  1.00  0.00     0.031 A 
ATOM     49  C   UNL A   1      46.621  28.485  29.850  1.00  0.00     0.049 A 
ATOM     50  C   UNL A   1      41.205  29.613  29.585  1.00  0.00     0.074 A 
ATOM     51  C   UNL A   1      47.463  29.477  30.325  1.00  0.00     0.029 A 
ATOM     52  N   UNL A   1      45.335  28.996  29.894  1.00  0.00    -0.354 N 
ATOM     53  N   UNL A   1      42.506  29.513  29.709  1.00  0.00    -0.248 NA
ATOM     54  C   UNL A   1      40.661  30.890  30.086  1.00  0.00     0.031 C 
ATOM     55  C   UNL A   1      46.678  30.565  30.719  1.00  0.00     0.029 A 
ATOM     56  C   UNL A   1      45.357  30.280  30.414  1.00  0.00     0.049 A 
ATOM     57  H   UNL A   1      44.527  28.518  29.600  1.00  0.00     0.167 HD
ATOM     58  C   UNL A   1      42.935  30.720  30.261  1.00  0.00     0.074 A 
ATOM     59  C   UNL A   1      41.760  31.544  30.436  1.00  0.00     0.031 C 
ATOM     60  C   UNL A   1      44.193  31.109  30.583  1.00  0.00     0.031 A 
BRANCH  47  61
ATOM     61  C   UNL A   1      48.407  26.742  29.471  1.00  0.00    -0.014 A 
ATOM     62  C   UNL A   1      48.937  26.106  30.605  1.00  0.00     0.009 A 
ATOM     63  C   UNL A   1      49.250  27.002  28.380  1.00  0.00     0.009 A 
ATOM     64  C   UNL A   1      50.295  25.782  30.661  1.00  0.00     0.001 A 
ATOM     65  C   UNL A   1      50.598  26.647  28.426  1.00  0.00     0.001 A 
ATOM     66  C   UNL A   1      51.123  26.050  29.571  1.00  0.00     0.000 A 
ENDBRANCH  47  61
BRANCH  48  67
ATOM     67  C   UNL A   1      38.773  29.020  28.914  1.00  0.00    -0.014 A 
ATOM     68  C   UNL A   1      38.244  29.630  27.762  1.00  0.00     0.009 A 
ATOM     69  C   UNL A   1      37.935  28.879  30.033  1.00  0.00     0.009 A 
ATOM     70  C   UNL A   1      36.928  30.108  27.741  1.00  0.00     0.001 A 
ATOM     71  C   UNL A   1      36.609  29.327  29.999  1.00  0.00     0.001 A 
ATOM     72  C   UNL A   1      36.109  29.950  28.858  1.00  0.00     0.000 A 
ENDBRANCH  48  67
BRANCH  60  73
ATOM     73  C   UNL A   1      44.393  32.511  31.100  1.00  0.00    -0.014 A 
ATOM     74  C   UNL A   1      44.602  33.599  30.238  1.00  0.00     0.009 A 
ATOM     75  C   UNL A   1      44.323  32.752  32.482  1.00  0.00     0.009 A 
ATOM     76  C   UNL A   1      44.782  34.888  30.752  1.00  0.00     0.001 A 
ATOM     77  C   UNL A   1      44.469  34.044  32.992  1.00  0.00     0.001 A 
ATOM     78  C   UNL A   1      44.711  35.109  32.127  1.00  0.00     0.000 A 
ENDBRANCH  60  73
ENDBRANCH  34  35
ENDBRANCH  27  29
ENDBRANCH  26  27
ENDBRANCH  25  26
ENDBRANCH   1  25
TORSDOF 16
ENDMDL
