MODEL 1
REMARK VINA RESULT:     -10.2      0.000      0.000
REMARK SMILES C[C@@H]1CCCCN1S(=O)(=O)c1ccc(CCC(=O)OCCOCCOC(=O)c2ccc(-c3c4nc(c(-c5ccccc5)c5ccc([nH]5)c(-c5ccccc5)c5nc(c(-c6ccccc6)c6ccc3[nH]6)C=C5)C=C4)cc2)cc1
REMARK SMILES IDX 21 1 20 2 19 3 17 4 18 5 16 6 15 7 14 8 11 9 12 10 77 11
REMARK SMILES IDX 13 12 76 13 8 14 9 15 10 16 7 17 1 18 2 19 3 20 4 21 6 22
REMARK SMILES IDX 5 23 22 24 23 25 24 26 25 27 26 28 27 29 28 30 29 31 75 32
REMARK SMILES IDX 30 33 74 34 31 35 32 36 33 37 68 38 34 39 73 40 67 41 69 42
REMARK SMILES IDX 35 43 72 44 66 45 65 46 36 48 58 49 43 50 57 51 44 52 47 53
REMARK SMILES IDX 56 54 70 55 45 56 46 57 55 59 71 60 48 61 37 62 38 63 42 64
REMARK SMILES IDX 39 65 41 66 40 67 59 68 60 69 64 70 61 71 63 72 62 73 49 74
REMARK SMILES IDX 50 75 54 76 51 77 53 78 52 79
REMARK H PARENT 69 47 47 58
REMARK Flexibility Score: inf
ROOT
ATOM      1  C   UNL A   1      34.854  33.683  28.929  1.00  0.00     0.202 C 
ENDROOT
BRANCH   1   2
ATOM      2  C   UNL A   1      34.429  32.660  27.865  1.00  0.00     0.261 C 
BRANCH   2   3
ATOM      3  O   UNL A   1      34.403  31.318  28.399  1.00  0.00    -0.463 OA
BRANCH   3   4
ATOM      4  C   UNL A   1      34.375  30.289  27.515  1.00  0.00     0.306 C 
ATOM      5  O   UNL A   1      35.322  29.559  27.251  1.00  0.00    -0.252 OA
BRANCH   4   6
ATOM      6  C   UNL A   1      33.005  30.128  26.893  1.00  0.00     0.127 C 
BRANCH   6   7
ATOM      7  C   UNL A   1      33.010  29.428  25.530  1.00  0.00     0.047 C 
BRANCH   7   8
ATOM      8  C   UNL A   1      32.561  27.984  25.596  1.00  0.00    -0.047 A 
ATOM      9  C   UNL A   1      31.842  25.261  25.475  1.00  0.00     0.082 A 
ATOM     10  C   UNL A   1      30.986  26.243  24.974  1.00  0.00     0.022 A 
ATOM     11  C   UNL A   1      33.048  25.645  26.060  1.00  0.00     0.022 A 
ATOM     12  C   UNL A   1      31.334  27.589  25.061  1.00  0.00     0.005 A 
ATOM     13  C   UNL A   1      33.401  27.000  26.126  1.00  0.00     0.005 A 
BRANCH   9  14
ATOM     14  S   UNL A   1      31.470  23.555  25.113  1.00  0.00     0.243 S 
ATOM     15  O   UNL A   1      30.733  23.519  23.870  1.00  0.00    -0.207 OA
ATOM     16  O   UNL A   1      30.869  23.016  26.316  1.00  0.00    -0.207 OA
BRANCH  14  17
ATOM     17  N   UNL A   1      32.960  22.736  24.912  1.00  0.00    -0.195 NA
ATOM     18  C   UNL A   1      33.627  23.868  22.727  1.00  0.00     0.026 C 
ATOM     19  C   UNL A   1      34.062  23.357  24.101  1.00  0.00     0.070 C 
ATOM     20  C   UNL A   1      35.223  22.359  23.881  1.00  0.00     0.020 C 
ATOM     21  C   UNL A   1      35.312  21.314  24.978  1.00  0.00     0.003 C 
ATOM     22  C   UNL A   1      32.785  21.281  24.618  1.00  0.00     0.103 C 
ATOM     23  C   UNL A   1      34.028  20.496  25.038  1.00  0.00     0.017 C 
ENDBRANCH  14  17
ENDBRANCH   9  14
ENDBRANCH   7   8
ENDBRANCH   6   7
ENDBRANCH   4   6
ENDBRANCH   3   4
ENDBRANCH   2   3
ENDBRANCH   1   2
BRANCH   1  24
ATOM     24  O   UNL A   1      34.023  33.698  30.092  1.00  0.00    -0.374 OA
BRANCH  24  25
ATOM     25  C   UNL A   1      34.432  34.575  31.139  1.00  0.00     0.202 C 
BRANCH  25  26
ATOM     26  C   UNL A   1      34.585  33.892  32.503  1.00  0.00     0.261 C 
BRANCH  26  27
ATOM     27  O   UNL A   1      35.046  32.536  32.353  1.00  0.00    -0.460 OA
BRANCH  27  28
ATOM     28  C   UNL A   1      36.151  32.223  33.073  1.00  0.00     0.338 C 
ATOM     29  O   UNL A   1      36.300  32.325  34.279  1.00  0.00    -0.246 OA
BRANCH  28  30
ATOM     30  C   UNL A   1      37.153  31.578  32.199  1.00  0.00     0.060 A 
ATOM     31  C   UNL A   1      38.203  30.889  32.819  1.00  0.00     0.016 A 
ATOM     32  C   UNL A   1      37.100  31.668  30.806  1.00  0.00     0.016 A 
ATOM     33  C   UNL A   1      39.221  30.321  32.053  1.00  0.00     0.010 A 
ATOM     34  C   UNL A   1      38.119  31.085  30.038  1.00  0.00     0.010 A 
ATOM     35  C   UNL A   1      39.204  30.435  30.656  1.00  0.00    -0.014 A 
BRANCH  35  36
ATOM     36  C   UNL A   1      40.387  30.006  29.863  1.00  0.00     0.031 A 
ATOM     37  C   UNL A   1      40.366  28.659  29.188  1.00  0.00     0.074 A 
ATOM     38  C   UNL A   1      41.458  30.808  29.700  1.00  0.00     0.049 A 
ATOM     39  N   UNL A   1      41.279  28.088  28.442  1.00  0.00    -0.248 NA
ATOM     40  C   UNL A   1      39.152  27.847  29.377  1.00  0.00     0.031 C 
ATOM     41  C   UNL A   1      41.616  32.143  30.273  1.00  0.00     0.029 A 
ATOM     42  N   UNL A   1      42.626  30.603  29.004  1.00  0.00    -0.354 N 
ATOM     43  C   UNL A   1      40.748  26.859  28.073  1.00  0.00     0.074 A 
ATOM     44  C   UNL A   1      39.460  26.742  28.718  1.00  0.00     0.031 C 
ATOM     45  C   UNL A   1      42.819  32.630  29.925  1.00  0.00     0.029 A 
ATOM     46  C   UNL A   1      43.520  31.639  29.112  1.00  0.00     0.049 A 
ATOM     47  H   UNL A   1      42.805  29.789  28.478  1.00  0.00     0.167 HD
ATOM     48  C   UNL A   1      41.268  25.919  27.249  1.00  0.00     0.031 A 
ATOM     49  C   UNL A   1      44.768  31.773  28.622  1.00  0.00     0.031 A 
ATOM     50  C   UNL A   1      42.544  26.022  26.595  1.00  0.00     0.049 A 
ATOM     51  C   UNL A   1      45.358  30.681  27.772  1.00  0.00     0.074 A 
ATOM     52  C   UNL A   1      43.137  25.129  25.719  1.00  0.00     0.029 A 
ATOM     53  N   UNL A   1      43.424  27.080  26.747  1.00  0.00    -0.354 N 
ATOM     54  N   UNL A   1      44.825  29.544  27.394  1.00  0.00    -0.248 NA
ATOM     55  C   UNL A   1      46.722  30.900  27.264  1.00  0.00     0.031 C 
ATOM     56  C   UNL A   1      44.399  25.627  25.375  1.00  0.00     0.029 A 
ATOM     57  C   UNL A   1      44.567  26.852  25.999  1.00  0.00     0.049 A 
ATOM     58  H   UNL A   1      43.261  27.876  27.303  1.00  0.00     0.167 HD
ATOM     59  C   UNL A   1      45.767  28.937  26.573  1.00  0.00     0.074 A 
ATOM     60  C   UNL A   1      46.905  29.829  26.504  1.00  0.00     0.031 C 
ATOM     61  C   UNL A   1      45.690  27.749  25.927  1.00  0.00     0.031 A 
BRANCH  48  62
ATOM     62  C   UNL A   1      40.447  24.684  27.016  1.00  0.00    -0.014 A 
ATOM     63  C   UNL A   1      39.227  24.747  26.323  1.00  0.00     0.009 A 
ATOM     64  C   UNL A   1      40.908  23.441  27.474  1.00  0.00     0.009 A 
ATOM     65  C   UNL A   1      38.468  23.593  26.124  1.00  0.00     0.001 A 
ATOM     66  C   UNL A   1      40.158  22.284  27.250  1.00  0.00     0.001 A 
ATOM     67  C   UNL A   1      38.935  22.363  26.585  1.00  0.00     0.000 A 
ENDBRANCH  48  62
BRANCH  49  68
ATOM     68  C   UNL A   1      45.563  32.995  28.917  1.00  0.00    -0.014 A 
ATOM     69  C   UNL A   1      46.428  33.036  30.021  1.00  0.00     0.009 A 
ATOM     70  C   UNL A   1      45.423  34.142  28.121  1.00  0.00     0.009 A 
ATOM     71  C   UNL A   1      47.111  34.211  30.343  1.00  0.00     0.001 A 
ATOM     72  C   UNL A   1      46.127  35.309  28.431  1.00  0.00     0.001 A 
ATOM     73  C   UNL A   1      46.961  35.346  29.547  1.00  0.00     0.000 A 
ENDBRANCH  49  68
BRANCH  61  74
ATOM     74  C   UNL A   1      46.844  27.362  25.046  1.00  0.00    -0.014 A 
ATOM     75  C   UNL A   1      46.944  27.827  23.726  1.00  0.00     0.009 A 
ATOM     76  C   UNL A   1      47.870  26.554  25.563  1.00  0.00     0.009 A 
ATOM     77  C   UNL A   1      48.035  27.465  22.933  1.00  0.00     0.001 A 
ATOM     78  C   UNL A   1      48.972  26.218  24.777  1.00  0.00     0.001 A 
ATOM     79  C   UNL A   1      49.050  26.666  23.460  1.00  0.00     0.000 A 
ENDBRANCH  61  74
ENDBRANCH  35  36
ENDBRANCH  28  30
ENDBRANCH  27  28
ENDBRANCH  26  27
ENDBRANCH  25  26
ENDBRANCH  24  25
ENDBRANCH   1  24
TORSDOF 18
ENDMDL
MODEL 2
REMARK VINA RESULT:     -10.0      4.331      8.233
REMARK SMILES C[C@@H]1CCCCN1S(=O)(=O)c1ccc(CCC(=O)OCCOCCOC(=O)c2ccc(-c3c4nc(c(-c5ccccc5)c5ccc([nH]5)c(-c5ccccc5)c5nc(c(-c6ccccc6)c6ccc3[nH]6)C=C5)C=C4)cc2)cc1
REMARK SMILES IDX 21 1 20 2 19 3 17 4 18 5 16 6 15 7 14 8 11 9 12 10 77 11
REMARK SMILES IDX 13 12 76 13 8 14 9 15 10 16 7 17 1 18 2 19 3 20 4 21 6 22
REMARK SMILES IDX 5 23 22 24 23 25 24 26 25 27 26 28 27 29 28 30 29 31 75 32
REMARK SMILES IDX 30 33 74 34 31 35 32 36 33 37 68 38 34 39 73 40 67 41 69 42
REMARK SMILES IDX 35 43 72 44 66 45 65 46 36 48 58 49 43 50 57 51 44 52 47 53
REMARK SMILES IDX 56 54 70 55 45 56 46 57 55 59 71 60 48 61 37 62 38 63 42 64
REMARK SMILES IDX 39 65 41 66 40 67 59 68 60 69 64 70 61 71 63 72 62 73 49 74
REMARK SMILES IDX 50 75 54 76 51 77 53 78 52 79
REMARK H PARENT 69 47 47 58
REMARK Flexibility Score: inf
ROOT
ATOM      1  C   UNL A   1      34.833  33.999  29.010  1.00  0.00     0.202 C 
ENDROOT
BRANCH   1   2
ATOM      2  C   UNL A   1      34.416  32.523  28.943  1.00  0.00     0.261 C 
BRANCH   2   3
ATOM      3  O   UNL A   1      34.975  31.865  27.785  1.00  0.00    -0.463 OA
BRANCH   3   4
ATOM      4  C   UNL A   1      34.711  30.544  27.622  1.00  0.00     0.306 C 
ATOM      5  O   UNL A   1      35.544  29.648  27.659  1.00  0.00    -0.252 OA
BRANCH   4   6
ATOM      6  C   UNL A   1      33.234  30.295  27.407  1.00  0.00     0.127 C 
BRANCH   6   7
ATOM      7  C   UNL A   1      32.865  29.896  25.974  1.00  0.00     0.047 C 
BRANCH   7   8
ATOM      8  C   UNL A   1      32.744  28.400  25.781  1.00  0.00    -0.047 A 
ATOM      9  C   UNL A   1      32.365  25.666  25.201  1.00  0.00     0.082 A 
ATOM     10  C   UNL A   1      31.475  26.344  26.035  1.00  0.00     0.022 A 
ATOM     11  C   UNL A   1      33.460  26.352  24.677  1.00  0.00     0.022 A 
ATOM     12  C   UNL A   1      31.682  27.688  26.340  1.00  0.00     0.005 A 
ATOM     13  C   UNL A   1      33.652  27.708  24.972  1.00  0.00     0.005 A 
BRANCH   9  14
ATOM     14  S   UNL A   1      31.919  24.033  24.643  1.00  0.00     0.243 S 
ATOM     15  O   UNL A   1      31.794  24.079  23.203  1.00  0.00    -0.207 OA
ATOM     16  O   UNL A   1      30.782  23.636  25.447  1.00  0.00    -0.207 OA
BRANCH  14  17
ATOM     17  N   UNL A   1      33.199  22.978  25.067  1.00  0.00    -0.195 NA
ATOM     18  C   UNL A   1      32.161  20.853  24.112  1.00  0.00     0.026 C 
ATOM     19  C   UNL A   1      33.417  21.704  24.300  1.00  0.00     0.070 C 
ATOM     20  C   UNL A   1      34.483  20.817  24.983  1.00  0.00     0.020 C 
ATOM     21  C   UNL A   1      35.472  21.620  25.809  1.00  0.00     0.003 C 
ATOM     22  C   UNL A   1      33.321  22.782  26.544  1.00  0.00     0.103 C 
ATOM     23  C   UNL A   1      34.748  22.378  26.915  1.00  0.00     0.017 C 
ENDBRANCH  14  17
ENDBRANCH   9  14
ENDBRANCH   7   8
ENDBRANCH   6   7
ENDBRANCH   4   6
ENDBRANCH   3   4
ENDBRANCH   2   3
ENDBRANCH   1   2
BRANCH   1  24
ATOM     24  O   UNL A   1      33.982  34.882  28.274  1.00  0.00    -0.374 OA
BRANCH  24  25
ATOM     25  C   UNL A   1      33.732  36.151  28.875  1.00  0.00     0.202 C 
BRANCH  25  26
ATOM     26  C   UNL A   1      32.530  36.166  29.826  1.00  0.00     0.261 C 
BRANCH  26  27
ATOM     27  O   UNL A   1      32.928  36.551  31.156  1.00  0.00    -0.460 OA
BRANCH  27  28
ATOM     28  C   UNL A   1      32.587  35.675  32.132  1.00  0.00     0.338 C 
ATOM     29  O   UNL A   1      31.463  35.385  32.505  1.00  0.00    -0.246 OA
BRANCH  28  30
ATOM     30  C   UNL A   1      33.793  34.972  32.618  1.00  0.00     0.060 A 
ATOM     31  C   UNL A   1      35.030  35.595  32.414  1.00  0.00     0.016 A 
ATOM     32  C   UNL A   1      33.732  33.716  33.227  1.00  0.00     0.016 A 
ATOM     33  C   UNL A   1      36.212  34.951  32.784  1.00  0.00     0.010 A 
ATOM     34  C   UNL A   1      34.921  33.076  33.608  1.00  0.00     0.010 A 
ATOM     35  C   UNL A   1      36.171  33.675  33.360  1.00  0.00    -0.014 A 
BRANCH  35  36
ATOM     36  C   UNL A   1      37.433  32.914  33.564  1.00  0.00     0.031 A 
ATOM     37  C   UNL A   1      38.241  33.159  34.812  1.00  0.00     0.074 A 
ATOM     38  C   UNL A   1      37.850  31.984  32.683  1.00  0.00     0.049 A 
ATOM     39  N   UNL A   1      39.363  32.604  35.200  1.00  0.00    -0.248 NA
ATOM     40  C   UNL A   1      37.713  34.162  35.752  1.00  0.00     0.031 C 
ATOM     41  C   UNL A   1      37.167  31.622  31.442  1.00  0.00     0.029 A 
ATOM     42  N   UNL A   1      38.963  31.177  32.699  1.00  0.00    -0.354 N 
ATOM     43  C   UNL A   1      39.668  33.187  36.423  1.00  0.00     0.074 A 
ATOM     44  C   UNL A   1      38.647  34.175  36.689  1.00  0.00     0.031 C 
ATOM     45  C   UNL A   1      37.885  30.682  30.804  1.00  0.00     0.029 A 
ATOM     46  C   UNL A   1      39.082  30.381  31.585  1.00  0.00     0.049 A 
ATOM     47  H   UNL A   1      39.615  31.171  33.437  1.00  0.00     0.167 HD
ATOM     48  C   UNL A   1      40.689  32.910  37.267  1.00  0.00     0.031 A 
ATOM     49  C   UNL A   1      40.051  29.516  31.227  1.00  0.00     0.031 A 
ATOM     50  C   UNL A   1      41.710  31.928  37.021  1.00  0.00     0.049 A 
ATOM     51  C   UNL A   1      41.219  29.281  32.146  1.00  0.00     0.074 A 
ATOM     52  C   UNL A   1      42.767  31.561  37.836  1.00  0.00     0.029 A 
ATOM     53  N   UNL A   1      41.801  31.158  35.874  1.00  0.00    -0.354 N 
ATOM     54  N   UNL A   1      41.469  29.806  33.321  1.00  0.00    -0.248 NA
ATOM     55  C   UNL A   1      42.233  28.315  31.695  1.00  0.00     0.031 C 
ATOM     56  C   UNL A   1      43.526  30.599  37.161  1.00  0.00     0.029 A 
ATOM     57  C   UNL A   1      42.911  30.334  35.949  1.00  0.00     0.049 A 
ATOM     58  H   UNL A   1      41.171  31.192  35.118  1.00  0.00     0.167 HD
ATOM     59  C   UNL A   1      42.640  29.205  33.765  1.00  0.00     0.074 A 
ATOM     60  C   UNL A   1      43.052  28.273  32.736  1.00  0.00     0.031 C 
ATOM     61  C   UNL A   1      43.308  29.402  34.926  1.00  0.00     0.031 A 
BRANCH  48  62
ATOM     62  C   UNL A   1      40.753  33.697  38.545  1.00  0.00    -0.014 A 
ATOM     63  C   UNL A   1      41.414  34.935  38.599  1.00  0.00     0.009 A 
ATOM     64  C   UNL A   1      40.126  33.207  39.700  1.00  0.00     0.009 A 
ATOM     65  C   UNL A   1      41.476  35.649  39.796  1.00  0.00     0.001 A 
ATOM     66  C   UNL A   1      40.168  33.937  40.889  1.00  0.00     0.001 A 
ATOM     67  C   UNL A   1      40.851  35.152  40.938  1.00  0.00     0.000 A 
ENDBRANCH  48  62
BRANCH  49  68
ATOM     68  C   UNL A   1      39.968  28.792  29.931  1.00  0.00    -0.014 A 
ATOM     69  C   UNL A   1      40.417  29.396  28.746  1.00  0.00     0.009 A 
ATOM     70  C   UNL A   1      39.398  27.512  29.867  1.00  0.00     0.009 A 
ATOM     71  C   UNL A   1      40.265  28.746  27.519  1.00  0.00     0.001 A 
ATOM     72  C   UNL A   1      39.269  26.854  28.641  1.00  0.00     0.001 A 
ATOM     73  C   UNL A   1      39.692  27.477  27.467  1.00  0.00     0.000 A 
ENDBRANCH  49  68
BRANCH  61  74
ATOM     74  C   UNL A   1      44.529  28.561  35.176  1.00  0.00    -0.014 A 
ATOM     75  C   UNL A   1      45.815  29.030  34.870  1.00  0.00     0.009 A 
ATOM     76  C   UNL A   1      44.388  27.296  35.769  1.00  0.00     0.009 A 
ATOM     77  C   UNL A   1      46.934  28.235  35.127  1.00  0.00     0.001 A 
ATOM     78  C   UNL A   1      45.510  26.516  36.050  1.00  0.00     0.001 A 
ATOM     79  C   UNL A   1      46.782  26.982  35.721  1.00  0.00     0.000 A 
ENDBRANCH  61  74
ENDBRANCH  35  36
ENDBRANCH  28  30
ENDBRANCH  27  28
ENDBRANCH  26  27
ENDBRANCH  25  26
ENDBRANCH  24  25
ENDBRANCH   1  24
TORSDOF 18
ENDMDL
MODEL 3
REMARK VINA RESULT:     -10.0      4.208      9.704
REMARK SMILES C[C@@H]1CCCCN1S(=O)(=O)c1ccc(CCC(=O)OCCOCCOC(=O)c2ccc(-c3c4nc(c(-c5ccccc5)c5ccc([nH]5)c(-c5ccccc5)c5nc(c(-c6ccccc6)c6ccc3[nH]6)C=C5)C=C4)cc2)cc1
REMARK SMILES IDX 21 1 20 2 19 3 17 4 18 5 16 6 15 7 14 8 11 9 12 10 77 11
REMARK SMILES IDX 13 12 76 13 8 14 9 15 10 16 7 17 1 18 2 19 3 20 4 21 6 22
REMARK SMILES IDX 5 23 22 24 23 25 24 26 25 27 26 28 27 29 28 30 29 31 75 32
REMARK SMILES IDX 30 33 74 34 31 35 32 36 33 37 68 38 34 39 73 40 67 41 69 42
REMARK SMILES IDX 35 43 72 44 66 45 65 46 36 48 58 49 43 50 57 51 44 52 47 53
REMARK SMILES IDX 56 54 70 55 45 56 46 57 55 59 71 60 48 61 37 62 38 63 42 64
REMARK SMILES IDX 39 65 41 66 40 67 59 68 60 69 64 70 61 71 63 72 62 73 49 74
REMARK SMILES IDX 50 75 54 76 51 77 53 78 52 79
REMARK H PARENT 69 47 47 58
REMARK Flexibility Score: inf
ROOT
ATOM      1  C   UNL A   1      42.437  20.318  26.311  1.00  0.00     0.202 C 
ENDROOT
BRANCH   1   2
ATOM      2  C   UNL A   1      41.208  20.821  27.081  1.00  0.00     0.261 C 
BRANCH   2   3
ATOM      3  O   UNL A   1      40.344  21.619  26.241  1.00  0.00    -0.463 OA
BRANCH   3   4
ATOM      4  C   UNL A   1      39.721  22.682  26.808  1.00  0.00     0.306 C 
ATOM      5  O   UNL A   1      40.014  23.177  27.888  1.00  0.00    -0.252 OA
BRANCH   4   6
ATOM      6  C   UNL A   1      38.613  23.213  25.925  1.00  0.00     0.127 C 
BRANCH   6   7
ATOM      7  C   UNL A   1      37.638  22.141  25.426  1.00  0.00     0.047 C 
BRANCH   7   8
ATOM      8  C   UNL A   1      36.244  22.672  25.171  1.00  0.00    -0.047 A 
ATOM      9  C   UNL A   1      33.727  23.713  24.441  1.00  0.00     0.082 A 
ATOM     10  C   UNL A   1      34.713  24.547  24.971  1.00  0.00     0.022 A 
ATOM     11  C   UNL A   1      33.993  22.352  24.299  1.00  0.00     0.022 A 
ATOM     12  C   UNL A   1      35.945  24.022  25.356  1.00  0.00     0.005 A 
ATOM     13  C   UNL A   1      35.242  21.834  24.670  1.00  0.00     0.005 A 
BRANCH   9  14
ATOM     14  S   UNL A   1      32.275  24.469  23.735  1.00  0.00     0.243 S 
ATOM     15  O   UNL A   1      31.117  23.834  24.323  1.00  0.00    -0.207 OA
ATOM     16  O   UNL A   1      32.464  24.424  22.299  1.00  0.00    -0.207 OA
BRANCH  14  17
ATOM     17  N   UNL A   1      32.295  26.125  24.170  1.00  0.00    -0.195 NA
ATOM     18  C   UNL A   1      29.807  26.556  23.811  1.00  0.00     0.026 C 
ATOM     19  C   UNL A   1      31.046  26.791  24.676  1.00  0.00     0.070 C 
ATOM     20  C   UNL A   1      31.242  28.319  24.805  1.00  0.00     0.020 C 
ATOM     21  C   UNL A   1      32.692  28.708  25.026  1.00  0.00     0.003 C 
ATOM     22  C   UNL A   1      33.034  26.973  23.185  1.00  0.00     0.103 C 
ATOM     23  C   UNL A   1      33.551  28.246  23.855  1.00  0.00     0.017 C 
ENDBRANCH  14  17
ENDBRANCH   9  14
ENDBRANCH   7   8
ENDBRANCH   6   7
ENDBRANCH   4   6
ENDBRANCH   3   4
ENDBRANCH   2   3
ENDBRANCH   1   2
BRANCH   1  24
ATOM     24  O   UNL A   1      42.905  21.217  25.302  1.00  0.00    -0.374 OA
BRANCH  24  25
ATOM     25  C   UNL A   1      44.279  21.091  24.943  1.00  0.00     0.202 C 
BRANCH  25  26
ATOM     26  C   UNL A   1      44.916  22.390  24.439  1.00  0.00     0.261 C 
BRANCH  26  27
ATOM     27  O   UNL A   1      44.080  23.525  24.738  1.00  0.00    -0.460 OA
BRANCH  27  28
ATOM     28  C   UNL A   1      44.745  24.639  25.128  1.00  0.00     0.338 C 
ATOM     29  O   UNL A   1      45.772  25.091  24.652  1.00  0.00    -0.246 OA
BRANCH  28  30
ATOM     30  C   UNL A   1      43.962  25.356  26.156  1.00  0.00     0.060 A 
ATOM     31  C   UNL A   1      44.097  26.749  26.217  1.00  0.00     0.016 A 
ATOM     32  C   UNL A   1      43.140  24.692  27.070  1.00  0.00     0.016 A 
ATOM     33  C   UNL A   1      43.443  27.477  27.212  1.00  0.00     0.010 A 
ATOM     34  C   UNL A   1      42.474  25.427  28.061  1.00  0.00     0.010 A 
ATOM     35  C   UNL A   1      42.645  26.821  28.160  1.00  0.00    -0.014 A 
BRANCH  35  36
ATOM     36  C   UNL A   1      42.117  27.573  29.330  1.00  0.00     0.031 A 
ATOM     37  C   UNL A   1      40.793  28.280  29.207  1.00  0.00     0.074 A 
ATOM     38  C   UNL A   1      42.772  27.602  30.507  1.00  0.00     0.049 A 
ATOM     39  N   UNL A   1      40.139  28.984  30.099  1.00  0.00    -0.248 NA
ATOM     40  C   UNL A   1      40.111  28.181  27.906  1.00  0.00     0.031 C 
ATOM     41  C   UNL A   1      44.051  26.950  30.785  1.00  0.00     0.029 A 
ATOM     42  N   UNL A   1      42.448  28.218  31.692  1.00  0.00    -0.354 N 
ATOM     43  C   UNL A   1      38.975  29.403  29.468  1.00  0.00     0.074 A 
ATOM     44  C   UNL A   1      39.034  28.924  28.105  1.00  0.00     0.031 C 
ATOM     45  C   UNL A   1      44.415  27.218  32.051  1.00  0.00     0.029 A 
ATOM     46  C   UNL A   1      43.400  28.067  32.670  1.00  0.00     0.049 A 
ATOM     47  H   UNL A   1      41.612  28.722  31.827  1.00  0.00     0.167 HD
ATOM     48  C   UNL A   1      37.934  30.101  29.978  1.00  0.00     0.031 A 
ATOM     49  C   UNL A   1      43.456  28.564  33.921  1.00  0.00     0.031 A 
ATOM     50  C   UNL A   1      37.856  30.580  31.331  1.00  0.00     0.049 A 
ATOM     51  C   UNL A   1      42.322  29.404  34.443  1.00  0.00     0.074 A 
ATOM     52  C   UNL A   1      36.824  31.271  31.942  1.00  0.00     0.029 A 
ATOM     53  N   UNL A   1      38.850  30.420  32.282  1.00  0.00    -0.354 N 
ATOM     54  N   UNL A   1      41.206  29.753  33.849  1.00  0.00    -0.248 NA
ATOM     55  C   UNL A   1      42.448  29.905  35.821  1.00  0.00     0.031 C 
ATOM     56  C   UNL A   1      37.213  31.569  33.253  1.00  0.00     0.029 A 
ATOM     57  C   UNL A   1      38.466  31.020  33.469  1.00  0.00     0.049 A 
ATOM     58  H   UNL A   1      39.703  29.949  32.135  1.00  0.00     0.167 HD
ATOM     59  C   UNL A   1      40.484  30.473  34.791  1.00  0.00     0.074 A 
ATOM     60  C   UNL A   1      41.282  30.512  35.998  1.00  0.00     0.031 C 
ATOM     61  C   UNL A   1      39.261  31.044  34.668  1.00  0.00     0.031 A 
BRANCH  48  62
ATOM     62  C   UNL A   1      36.788  30.394  29.053  1.00  0.00    -0.014 A 
ATOM     63  C   UNL A   1      36.574  31.690  28.556  1.00  0.00     0.009 A 
ATOM     64  C   UNL A   1      35.928  29.360  28.656  1.00  0.00     0.009 A 
ATOM     65  C   UNL A   1      35.498  31.951  27.706  1.00  0.00     0.001 A 
ATOM     66  C   UNL A   1      34.867  29.620  27.785  1.00  0.00     0.001 A 
ATOM     67  C   UNL A   1      34.648  30.915  27.320  1.00  0.00     0.000 A 
ENDBRANCH  48  62
BRANCH  49  68
ATOM     68  C   UNL A   1      44.633  28.285  34.787  1.00  0.00    -0.014 A 
ATOM     69  C   UNL A   1      45.738  29.151  34.792  1.00  0.00     0.009 A 
ATOM     70  C   UNL A   1      44.674  27.127  35.578  1.00  0.00     0.009 A 
ATOM     71  C   UNL A   1      46.874  28.844  35.544  1.00  0.00     0.001 A 
ATOM     72  C   UNL A   1      45.802  26.835  36.349  1.00  0.00     0.001 A 
ATOM     73  C   UNL A   1      46.905  27.688  36.322  1.00  0.00     0.000 A 
ENDBRANCH  49  68
BRANCH  61  74
ATOM     74  C   UNL A   1      38.684  31.718  35.882  1.00  0.00    -0.014 A 
ATOM     75  C   UNL A   1      38.739  33.111  36.040  1.00  0.00     0.009 A 
ATOM     76  C   UNL A   1      38.037  30.946  36.860  1.00  0.00     0.009 A 
ATOM     77  C   UNL A   1      38.182  33.713  37.170  1.00  0.00     0.001 A 
ATOM     78  C   UNL A   1      37.457  31.554  37.973  1.00  0.00     0.001 A 
ATOM     79  C   UNL A   1      37.537  32.936  38.132  1.00  0.00     0.000 A 
ENDBRANCH  61  74
ENDBRANCH  35  36
ENDBRANCH  28  30
ENDBRANCH  27  28
ENDBRANCH  26  27
ENDBRANCH  25  26
ENDBRANCH  24  25
ENDBRANCH   1  24
TORSDOF 18
ENDMDL
