MODEL 1
REMARK VINA RESULT:     -11.7      0.000      0.000
REMARK SMILES COC(=O)c1ccc2c(c1)=N[C@H](c1cn(CCC(=O)OCCOCCOC(=O)c3ccc(-c4c5nc(c(-c6ccccc6)c6ccc([nH]6)c(-c6ccccc6)c6nc(c(-c7ccccc7)c7ccc4[nH]7)C=C6)C=C5)cc3)c3ccccc13)N=2
REMARK SMILES IDX 21 1 20 2 18 3 19 4 17 5 16 6 15 7 13 8 14 9 82 10 77 11
REMARK SMILES IDX 81 12 78 13 80 14 79 15 12 16 5 17 6 18 10 19 7 20 9 21 8 22
REMARK SMILES IDX 11 23 83 24 3 25 4 26 2 27 1 28 22 29 23 30 24 31 25 32
REMARK SMILES IDX 26 33 27 34 28 35 29 36 30 37 76 38 31 39 75 40 32 41 33 42
REMARK SMILES IDX 34 43 69 44 35 45 74 46 68 47 70 48 36 49 73 50 67 51 66 52
REMARK SMILES IDX 37 54 59 55 44 56 58 57 45 58 48 59 57 60 71 61 46 62 47 63
REMARK SMILES IDX 56 65 72 66 49 67 38 68 39 69 43 70 40 71 42 72 41 73 60 74
REMARK SMILES IDX 61 75 65 76 62 77 64 78 63 79 50 80 51 81 55 82 52 83 54 84
REMARK SMILES IDX 53 85
REMARK H PARENT 70 53 48 64
REMARK Flexibility Score: inf
ROOT
ATOM      1  C   UNL A   1      34.997  30.573  27.674  1.00  0.00     0.261 C 
ENDROOT
BRANCH   1   2
ATOM      2  O   UNL A   1      33.800  31.332  27.415  1.00  0.00    -0.463 OA
BRANCH   2   3
ATOM      3  C   UNL A   1      32.784  30.678  26.799  1.00  0.00     0.307 C 
ATOM      4  O   UNL A   1      31.637  31.090  26.693  1.00  0.00    -0.252 OA
BRANCH   3   5
ATOM      5  C   UNL A   1      33.239  29.360  26.231  1.00  0.00     0.144 C 
BRANCH   5   6
ATOM      6  C   UNL A   1      32.327  28.845  25.116  1.00  0.00     0.134 C 
BRANCH   6   7
ATOM      7  N   UNL A   1      32.209  27.396  25.122  1.00  0.00    -0.346 N 
ATOM      8  C   UNL A   1      32.174  25.404  26.053  1.00  0.00     0.024 A 
ATOM      9  C   UNL A   1      31.515  26.636  26.036  1.00  0.00     0.094 A 
ATOM     10  C   UNL A   1      33.447  25.674  25.405  1.00  0.00     0.007 A 
ATOM     11  C   UNL A   1      32.941  26.493  24.390  1.00  0.00     0.048 A 
ATOM     12  C   UNL A   1      34.510  24.826  25.068  1.00  0.00     0.011 A 
ATOM     13  C   UNL A   1      32.831  25.979  23.094  1.00  0.00     0.027 A 
ATOM     14  C   UNL A   1      34.405  24.253  23.807  1.00  0.00     0.001 A 
ATOM     15  C   UNL A   1      33.480  24.753  22.885  1.00  0.00     0.002 A 
BRANCH   8  16
ATOM     16  C   UNL A   1      31.598  24.055  26.428  1.00  0.00     0.255 C 
ATOM     17  C   UNL A   1      32.713  20.102  24.483  1.00  0.00     0.062 A 
ATOM     18  C   UNL A   1      33.592  20.056  25.646  1.00  0.00     0.018 A 
ATOM     19  C   UNL A   1      31.939  21.169  24.213  1.00  0.00     0.046 A 
ATOM     20  C   UNL A   1      33.654  21.039  26.560  1.00  0.00     0.031 A 
ATOM     21  C   UNL A   1      31.919  22.277  25.181  1.00  0.00     0.087 A 
ATOM     22  C   UNL A   1      32.769  22.201  26.384  1.00  0.00     0.086 A 
ATOM     23  N   UNL A   1      31.190  23.339  25.172  1.00  0.00    -0.252 NA
ATOM     24  N   UNL A   1      32.575  23.199  27.172  1.00  0.00    -0.252 NA
BRANCH  17  25
ATOM     25  C   UNL A   1      32.611  18.959  23.524  1.00  0.00     0.337 C 
ATOM     26  O   UNL A   1      32.153  19.051  22.395  1.00  0.00    -0.246 OA
BRANCH  25  27
ATOM     27  O   UNL A   1      33.027  17.811  24.120  1.00  0.00    -0.465 OA
ATOM     28  C   UNL A   1      33.948  17.041  23.338  1.00  0.00     0.282 C 
ENDBRANCH  25  27
ENDBRANCH  17  25
ENDBRANCH   8  16
ENDBRANCH   6   7
ENDBRANCH   5   6
ENDBRANCH   3   5
ENDBRANCH   2   3
ENDBRANCH   1   2
BRANCH   1  29
ATOM     29  C   UNL A   1      35.809  31.173  28.823  1.00  0.00     0.202 C 
BRANCH  29  30
ATOM     30  O   UNL A   1      35.114  32.150  29.608  1.00  0.00    -0.374 OA
BRANCH  30  31
ATOM     31  C   UNL A   1      35.847  33.358  29.824  1.00  0.00     0.202 C 
BRANCH  31  32
ATOM     32  C   UNL A   1      36.286  33.557  31.280  1.00  0.00     0.261 C 
BRANCH  32  33
ATOM     33  O   UNL A   1      37.332  32.627  31.585  1.00  0.00    -0.460 OA
BRANCH  33  34
ATOM     34  C   UNL A   1      38.600  33.050  31.328  1.00  0.00     0.338 C 
ATOM     35  O   UNL A   1      39.172  34.010  31.774  1.00  0.00    -0.246 OA
BRANCH  34  36
ATOM     36  C   UNL A   1      39.243  31.908  30.646  1.00  0.00     0.060 A 
ATOM     37  C   UNL A   1      38.594  30.685  30.575  1.00  0.00     0.016 A 
ATOM     38  C   UNL A   1      40.593  32.011  30.323  1.00  0.00     0.016 A 
ATOM     39  C   UNL A   1      39.333  29.527  30.394  1.00  0.00     0.010 A 
ATOM     40  C   UNL A   1      41.318  30.854  30.041  1.00  0.00     0.010 A 
ATOM     41  C   UNL A   1      40.712  29.597  30.158  1.00  0.00    -0.014 A 
BRANCH  41  42
ATOM     42  C   UNL A   1      41.413  28.326  29.885  1.00  0.00     0.031 A 
ATOM     43  C   UNL A   1      42.257  27.826  31.020  1.00  0.00     0.074 A 
ATOM     44  C   UNL A   1      41.223  27.567  28.783  1.00  0.00     0.049 A 
ATOM     45  N   UNL A   1      43.465  27.359  30.993  1.00  0.00    -0.248 NA
ATOM     46  C   UNL A   1      41.703  27.976  32.382  1.00  0.00     0.031 C 
ATOM     47  C   UNL A   1      40.269  27.823  27.701  1.00  0.00     0.029 A 
ATOM     48  N   UNL A   1      41.721  26.327  28.466  1.00  0.00    -0.354 N 
ATOM     49  C   UNL A   1      43.763  27.014  32.312  1.00  0.00     0.074 A 
ATOM     50  C   UNL A   1      42.721  27.565  33.134  1.00  0.00     0.031 C 
ATOM     51  C   UNL A   1      40.034  26.673  27.037  1.00  0.00     0.029 A 
ATOM     52  C   UNL A   1      40.925  25.648  27.549  1.00  0.00     0.049 A 
ATOM     53  H   UNL A   1      42.551  25.958  28.847  1.00  0.00     0.167 HD
ATOM     54  C   UNL A   1      44.694  26.076  32.630  1.00  0.00     0.031 A 
ATOM     55  C   UNL A   1      40.915  24.322  27.276  1.00  0.00     0.031 A 
ATOM     56  C   UNL A   1      45.622  25.825  31.566  1.00  0.00     0.049 A 
ATOM     57  C   UNL A   1      42.184  23.714  27.714  1.00  0.00     0.074 A 
ATOM     58  C   UNL A   1      46.808  26.352  31.111  1.00  0.00     0.029 A 
ATOM     59  N   UNL A   1      45.162  24.962  30.614  1.00  0.00    -0.354 N 
ATOM     60  N   UNL A   1      43.328  23.935  27.137  1.00  0.00    -0.248 NA
ATOM     61  C   UNL A   1      42.247  23.004  28.986  1.00  0.00     0.031 C 
ATOM     62  C   UNL A   1      46.981  25.864  29.782  1.00  0.00     0.029 A 
ATOM     63  C   UNL A   1      45.903  25.042  29.466  1.00  0.00     0.049 A 
ATOM     64  H   UNL A   1      44.396  24.357  30.737  1.00  0.00     0.167 HD
ATOM     65  C   UNL A   1      44.250  23.779  28.149  1.00  0.00     0.074 A 
ATOM     66  C   UNL A   1      43.566  23.030  29.193  1.00  0.00     0.031 C 
ATOM     67  C   UNL A   1      45.357  24.567  28.214  1.00  0.00     0.031 A 
BRANCH  54  68
ATOM     68  C   UNL A   1      44.463  25.042  33.716  1.00  0.00    -0.014 A 
ATOM     69  C   UNL A   1      44.003  23.735  33.459  1.00  0.00     0.009 A 
ATOM     70  C   UNL A   1      44.995  25.273  34.999  1.00  0.00     0.009 A 
ATOM     71  C   UNL A   1      44.070  22.715  34.412  1.00  0.00     0.001 A 
ATOM     72  C   UNL A   1      45.099  24.244  35.945  1.00  0.00     0.001 A 
ATOM     73  C   UNL A   1      44.639  22.964  35.650  1.00  0.00     0.000 A 
ENDBRANCH  54  68
BRANCH  55  74
ATOM     74  C   UNL A   1      39.770  23.478  26.869  1.00  0.00    -0.014 A 
ATOM     75  C   UNL A   1      39.975  22.139  26.491  1.00  0.00     0.009 A 
ATOM     76  C   UNL A   1      38.525  24.060  26.577  1.00  0.00     0.009 A 
ATOM     77  C   UNL A   1      38.991  21.422  25.805  1.00  0.00     0.001 A 
ATOM     78  C   UNL A   1      37.543  23.343  25.884  1.00  0.00     0.001 A 
ATOM     79  C   UNL A   1      37.782  22.031  25.484  1.00  0.00     0.000 A 
ENDBRANCH  55  74
BRANCH  67  80
ATOM     80  C   UNL A   1      45.877  25.166  26.942  1.00  0.00    -0.014 A 
ATOM     81  C   UNL A   1      46.839  24.442  26.222  1.00  0.00     0.009 A 
ATOM     82  C   UNL A   1      45.515  26.444  26.487  1.00  0.00     0.009 A 
ATOM     83  C   UNL A   1      47.437  24.983  25.084  1.00  0.00     0.001 A 
ATOM     84  C   UNL A   1      46.097  26.975  25.331  1.00  0.00     0.001 A 
ATOM     85  C   UNL A   1      47.063  26.248  24.638  1.00  0.00     0.000 A 
ENDBRANCH  67  80
ENDBRANCH  41  42
ENDBRANCH  34  36
ENDBRANCH  33  34
ENDBRANCH  32  33
ENDBRANCH  31  32
ENDBRANCH  30  31
ENDBRANCH  29  30
ENDBRANCH   1  29
TORSDOF 19
ENDMDL
MODEL 2
REMARK VINA RESULT:     -11.5      3.718      9.490
REMARK SMILES COC(=O)c1ccc2c(c1)=N[C@H](c1cn(CCC(=O)OCCOCCOC(=O)c3ccc(-c4c5nc(c(-c6ccccc6)c6ccc([nH]6)c(-c6ccccc6)c6nc(c(-c7ccccc7)c7ccc4[nH]7)C=C6)C=C5)cc3)c3ccccc13)N=2
REMARK SMILES IDX 21 1 20 2 18 3 19 4 17 5 16 6 15 7 13 8 14 9 82 10 77 11
REMARK SMILES IDX 81 12 78 13 80 14 79 15 12 16 5 17 6 18 10 19 7 20 9 21 8 22
REMARK SMILES IDX 11 23 83 24 3 25 4 26 2 27 1 28 22 29 23 30 24 31 25 32
REMARK SMILES IDX 26 33 27 34 28 35 29 36 30 37 76 38 31 39 75 40 32 41 33 42
REMARK SMILES IDX 34 43 69 44 35 45 74 46 68 47 70 48 36 49 73 50 67 51 66 52
REMARK SMILES IDX 37 54 59 55 44 56 58 57 45 58 48 59 57 60 71 61 46 62 47 63
REMARK SMILES IDX 56 65 72 66 49 67 38 68 39 69 43 70 40 71 42 72 41 73 60 74
REMARK SMILES IDX 61 75 65 76 62 77 64 78 63 79 50 80 51 81 55 82 52 83 54 84
REMARK SMILES IDX 53 85
REMARK H PARENT 70 53 48 64
REMARK Flexibility Score: inf
ROOT
ATOM      1  C   UNL A   1      39.086  21.830  26.109  1.00  0.00     0.261 C 
ENDROOT
BRANCH   1   2
ATOM      2  O   UNL A   1      38.245  21.535  24.977  1.00  0.00    -0.463 OA
BRANCH   2   3
ATOM      3  C   UNL A   1      36.945  21.252  25.239  1.00  0.00     0.307 C 
ATOM      4  O   UNL A   1      36.390  20.187  25.007  1.00  0.00    -0.252 OA
BRANCH   3   5
ATOM      5  C   UNL A   1      36.243  22.421  25.879  1.00  0.00     0.144 C 
BRANCH   5   6
ATOM      6  C   UNL A   1      34.785  22.122  26.227  1.00  0.00     0.134 C 
BRANCH   6   7
ATOM      7  N   UNL A   1      33.906  23.245  25.944  1.00  0.00    -0.346 N 
ATOM      8  C   UNL A   1      32.004  24.349  25.991  1.00  0.00     0.024 A 
ATOM      9  C   UNL A   1      33.003  23.816  26.811  1.00  0.00     0.094 A 
ATOM     10  C   UNL A   1      32.224  23.711  24.704  1.00  0.00     0.007 A 
ATOM     11  C   UNL A   1      33.621  23.797  24.718  1.00  0.00     0.048 A 
ATOM     12  C   UNL A   1      31.589  23.882  23.468  1.00  0.00     0.011 A 
ATOM     13  C   UNL A   1      34.249  24.755  23.916  1.00  0.00     0.027 A 
ATOM     14  C   UNL A   1      32.154  24.865  22.666  1.00  0.00     0.001 A 
ATOM     15  C   UNL A   1      33.417  25.379  22.975  1.00  0.00     0.002 A 
BRANCH   8  16
ATOM     16  C   UNL A   1      31.074  25.502  26.302  1.00  0.00     0.255 C 
ATOM     17  C   UNL A   1      29.612  28.568  23.283  1.00  0.00     0.062 A 
ATOM     18  C   UNL A   1      28.477  27.652  23.265  1.00  0.00     0.018 A 
ATOM     19  C   UNL A   1      30.721  28.321  24.003  1.00  0.00     0.046 A 
ATOM     20  C   UNL A   1      28.428  26.529  24.003  1.00  0.00     0.031 A 
ATOM     21  C   UNL A   1      30.738  27.130  24.868  1.00  0.00     0.087 A 
ATOM     22  C   UNL A   1      29.566  26.235  24.888  1.00  0.00     0.086 A 
ATOM     23  N   UNL A   1      31.644  26.756  25.703  1.00  0.00    -0.252 NA
ATOM     24  N   UNL A   1      29.696  25.293  25.755  1.00  0.00    -0.252 NA
BRANCH  17  25
ATOM     25  C   UNL A   1      29.606  29.847  22.508  1.00  0.00     0.337 C 
ATOM     26  O   UNL A   1      29.748  29.915  21.297  1.00  0.00    -0.246 OA
BRANCH  25  27
ATOM     27  O   UNL A   1      29.500  30.905  23.355  1.00  0.00    -0.465 OA
ATOM     28  C   UNL A   1      28.523  31.876  22.963  1.00  0.00     0.282 C 
ENDBRANCH  25  27
ENDBRANCH  17  25
ENDBRANCH   8  16
ENDBRANCH   6   7
ENDBRANCH   5   6
ENDBRANCH   3   5
ENDBRANCH   2   3
ENDBRANCH   1   2
BRANCH   1  29
ATOM     29  C   UNL A   1      40.068  20.693  26.395  1.00  0.00     0.202 C 
BRANCH  29  30
ATOM     30  O   UNL A   1      40.778  20.805  27.635  1.00  0.00    -0.374 OA
BRANCH  30  31
ATOM     31  C   UNL A   1      41.114  22.146  27.999  1.00  0.00     0.202 C 
BRANCH  31  32
ATOM     32  C   UNL A   1      42.592  22.328  28.370  1.00  0.00     0.261 C 
BRANCH  32  33
ATOM     33  O   UNL A   1      43.007  23.651  28.007  1.00  0.00    -0.460 OA
BRANCH  33  34
ATOM     34  C   UNL A   1      43.903  24.245  28.841  1.00  0.00     0.338 C 
ATOM     35  O   UNL A   1      44.944  23.805  29.253  1.00  0.00    -0.246 OA
BRANCH  34  36
ATOM     36  C   UNL A   1      43.497  25.665  28.874  1.00  0.00     0.060 A 
ATOM     37  C   UNL A   1      43.647  26.404  30.038  1.00  0.00     0.016 A 
ATOM     38  C   UNL A   1      42.731  26.155  27.821  1.00  0.00     0.016 A 
ATOM     39  C   UNL A   1      42.863  27.527  30.242  1.00  0.00     0.010 A 
ATOM     40  C   UNL A   1      42.019  27.341  27.988  1.00  0.00     0.010 A 
ATOM     41  C   UNL A   1      42.013  27.990  29.229  1.00  0.00    -0.014 A 
BRANCH  41  42
ATOM     42  C   UNL A   1      41.277  29.244  29.489  1.00  0.00     0.031 A 
ATOM     43  C   UNL A   1      42.102  30.489  29.346  1.00  0.00     0.074 A 
ATOM     44  C   UNL A   1      39.943  29.322  29.692  1.00  0.00     0.049 A 
ATOM     45  N   UNL A   1      42.165  31.519  30.131  1.00  0.00    -0.248 NA
ATOM     46  C   UNL A   1      43.065  30.529  28.227  1.00  0.00     0.031 C 
ATOM     47  C   UNL A   1      38.986  28.213  29.639  1.00  0.00     0.029 A 
ATOM     48  N   UNL A   1      39.131  30.421  29.831  1.00  0.00    -0.354 N 
ATOM     49  C   UNL A   1      43.060  32.399  29.521  1.00  0.00     0.074 A 
ATOM     50  C   UNL A   1      43.699  31.675  28.457  1.00  0.00     0.031 C 
ATOM     51  C   UNL A   1      37.747  28.707  29.437  1.00  0.00     0.029 A 
ATOM     52  C   UNL A   1      37.808  30.157  29.495  1.00  0.00     0.049 A 
ATOM     53  H   UNL A   1      39.452  31.301  30.135  1.00  0.00     0.167 HD
ATOM     54  C   UNL A   1      43.033  33.740  29.746  1.00  0.00     0.031 A 
ATOM     55  C   UNL A   1      36.832  31.045  29.192  1.00  0.00     0.031 A 
ATOM     56  C   UNL A   1      42.348  34.092  30.955  1.00  0.00     0.049 A 
ATOM     57  C   UNL A   1      37.187  32.373  29.721  1.00  0.00     0.074 A 
ATOM     58  C   UNL A   1      42.652  34.220  32.291  1.00  0.00     0.029 A 
ATOM     59  N   UNL A   1      40.990  34.145  30.834  1.00  0.00    -0.354 N 
ATOM     60  N   UNL A   1      37.209  32.665  30.988  1.00  0.00    -0.248 NA
ATOM     61  C   UNL A   1      37.766  33.376  28.834  1.00  0.00     0.031 C 
ATOM     62  C   UNL A   1      41.407  34.226  32.987  1.00  0.00     0.029 A 
ATOM     63  C   UNL A   1      40.376  34.113  32.057  1.00  0.00     0.049 A 
ATOM     64  H   UNL A   1      40.511  34.198  29.976  1.00  0.00     0.167 HD
ATOM     65  C   UNL A   1      38.160  33.656  31.088  1.00  0.00     0.074 A 
ATOM     66  C   UNL A   1      38.325  34.181  29.740  1.00  0.00     0.031 C 
ATOM     67  C   UNL A   1      38.988  33.725  32.166  1.00  0.00     0.031 A 
BRANCH  54  68
ATOM     68  C   UNL A   1      43.198  34.751  28.627  1.00  0.00    -0.014 A 
ATOM     69  C   UNL A   1      42.114  35.376  27.979  1.00  0.00     0.009 A 
ATOM     70  C   UNL A   1      44.467  35.321  28.407  1.00  0.00     0.009 A 
ATOM     71  C   UNL A   1      42.273  36.502  27.166  1.00  0.00     0.001 A 
ATOM     72  C   UNL A   1      44.627  36.472  27.623  1.00  0.00     0.001 A 
ATOM     73  C   UNL A   1      43.529  37.064  27.005  1.00  0.00     0.000 A 
ENDBRANCH  54  68
BRANCH  55  74
ATOM     74  C   UNL A   1      35.700  30.878  28.254  1.00  0.00    -0.014 A 
ATOM     75  C   UNL A   1      34.652  31.816  28.234  1.00  0.00     0.009 A 
ATOM     76  C   UNL A   1      35.504  29.659  27.585  1.00  0.00     0.009 A 
ATOM     77  C   UNL A   1      33.436  31.530  27.608  1.00  0.00     0.001 A 
ATOM     78  C   UNL A   1      34.282  29.371  26.965  1.00  0.00     0.001 A 
ATOM     79  C   UNL A   1      33.244  30.298  26.991  1.00  0.00     0.000 A 
ENDBRANCH  55  74
BRANCH  67  80
ATOM     80  C   UNL A   1      38.515  33.138  33.461  1.00  0.00    -0.014 A 
ATOM     81  C   UNL A   1      38.015  34.017  34.434  1.00  0.00     0.009 A 
ATOM     82  C   UNL A   1      38.629  31.776  33.779  1.00  0.00     0.009 A 
ATOM     83  C   UNL A   1      37.650  33.552  35.698  1.00  0.00     0.001 A 
ATOM     84  C   UNL A   1      38.239  31.306  35.037  1.00  0.00     0.001 A 
ATOM     85  C   UNL A   1      37.760  32.196  35.997  1.00  0.00     0.000 A 
ENDBRANCH  67  80
ENDBRANCH  41  42
ENDBRANCH  34  36
ENDBRANCH  33  34
ENDBRANCH  32  33
ENDBRANCH  31  32
ENDBRANCH  30  31
ENDBRANCH  29  30
ENDBRANCH   1  29
TORSDOF 19
ENDMDL
MODEL 3
REMARK VINA RESULT:     -11.3      3.788      9.511
REMARK SMILES COC(=O)c1ccc2c(c1)=N[C@H](c1cn(CCC(=O)OCCOCCOC(=O)c3ccc(-c4c5nc(c(-c6ccccc6)c6ccc([nH]6)c(-c6ccccc6)c6nc(c(-c7ccccc7)c7ccc4[nH]7)C=C6)C=C5)cc3)c3ccccc13)N=2
REMARK SMILES IDX 21 1 20 2 18 3 19 4 17 5 16 6 15 7 13 8 14 9 82 10 77 11
REMARK SMILES IDX 81 12 78 13 80 14 79 15 12 16 5 17 6 18 10 19 7 20 9 21 8 22
REMARK SMILES IDX 11 23 83 24 3 25 4 26 2 27 1 28 22 29 23 30 24 31 25 32
REMARK SMILES IDX 26 33 27 34 28 35 29 36 30 37 76 38 31 39 75 40 32 41 33 42
REMARK SMILES IDX 34 43 69 44 35 45 74 46 68 47 70 48 36 49 73 50 67 51 66 52
REMARK SMILES IDX 37 54 59 55 44 56 58 57 45 58 48 59 57 60 71 61 46 62 47 63
REMARK SMILES IDX 56 65 72 66 49 67 38 68 39 69 43 70 40 71 42 72 41 73 60 74
REMARK SMILES IDX 61 75 65 76 62 77 64 78 63 79 50 80 51 81 55 82 52 83 54 84
REMARK SMILES IDX 53 85
REMARK H PARENT 70 53 48 64
REMARK Flexibility Score: inf
ROOT
ATOM      1  C   UNL A   1      39.028  21.570  25.997  1.00  0.00     0.261 C 
ENDROOT
BRANCH   1   2
ATOM      2  O   UNL A   1      37.666  21.851  25.622  1.00  0.00    -0.463 OA
BRANCH   2   3
ATOM      3  C   UNL A   1      36.926  20.804  25.180  1.00  0.00     0.307 C 
ATOM      4  O   UNL A   1      37.367  19.709  24.860  1.00  0.00    -0.252 OA
BRANCH   3   5
ATOM      5  C   UNL A   1      35.459  21.142  25.140  1.00  0.00     0.144 C 
BRANCH   5   6
ATOM      6  C   UNL A   1      35.091  22.306  26.062  1.00  0.00     0.134 C 
BRANCH   6   7
ATOM      7  N   UNL A   1      34.324  23.333  25.377  1.00  0.00    -0.346 N 
ATOM      8  C   UNL A   1      33.887  25.385  24.715  1.00  0.00     0.024 A 
ATOM      9  C   UNL A   1      34.832  24.360  24.614  1.00  0.00     0.094 A 
ATOM     10  C   UNL A   1      33.066  24.999  25.850  1.00  0.00     0.007 A 
ATOM     11  C   UNL A   1      32.994  23.636  25.541  1.00  0.00     0.048 A 
ATOM     12  C   UNL A   1      31.922  25.586  26.405  1.00  0.00     0.011 A 
ATOM     13  C   UNL A   1      31.809  23.124  25.003  1.00  0.00     0.027 A 
ATOM     14  C   UNL A   1      30.727  25.141  25.855  1.00  0.00     0.001 A 
ATOM     15  C   UNL A   1      30.709  23.992  25.058  1.00  0.00     0.002 A 
BRANCH   8  16
ATOM     16  C   UNL A   1      33.626  26.500  23.725  1.00  0.00     0.255 C 
ATOM     17  C   UNL A   1      29.663  28.663  23.207  1.00  0.00     0.062 A 
ATOM     18  C   UNL A   1      30.337  29.603  24.095  1.00  0.00     0.018 A 
ATOM     19  C   UNL A   1      30.221  27.493  22.847  1.00  0.00     0.046 A 
ATOM     20  C   UNL A   1      31.578  29.403  24.572  1.00  0.00     0.031 A 
ATOM     21  C   UNL A   1      31.592  27.208  23.296  1.00  0.00     0.087 A 
ATOM     22  C   UNL A   1      32.291  28.188  24.149  1.00  0.00     0.086 A 
ATOM     23  N   UNL A   1      32.346  26.207  22.996  1.00  0.00    -0.252 NA
ATOM     24  N   UNL A   1      33.507  27.838  24.384  1.00  0.00    -0.252 NA
BRANCH  17  25
ATOM     25  C   UNL A   1      28.312  28.949  22.633  1.00  0.00     0.337 C 
ATOM     26  O   UNL A   1      27.264  28.547  23.115  1.00  0.00    -0.246 OA
BRANCH  25  27
ATOM     27  O   UNL A   1      28.436  29.645  21.472  1.00  0.00    -0.465 OA
ATOM     28  C   UNL A   1      28.494  31.066  21.641  1.00  0.00     0.282 C 
ENDBRANCH  25  27
ENDBRANCH  17  25
ENDBRANCH   8  16
ENDBRANCH   6   7
ENDBRANCH   5   6
ENDBRANCH   3   5
ENDBRANCH   2   3
ENDBRANCH   1   2
BRANCH   1  29
ATOM     29  C   UNL A   1      39.700  22.785  26.638  1.00  0.00     0.202 C 
BRANCH  29  30
ATOM     30  O   UNL A   1      41.123  22.842  26.480  1.00  0.00    -0.374 OA
BRANCH  30  31
ATOM     31  C   UNL A   1      41.859  22.448  27.641  1.00  0.00     0.202 C 
BRANCH  31  32
ATOM     32  C   UNL A   1      43.345  22.825  27.582  1.00  0.00     0.261 C 
BRANCH  32  33
ATOM     33  O   UNL A   1      43.702  23.514  28.786  1.00  0.00    -0.460 OA
BRANCH  33  34
ATOM     34  C   UNL A   1      44.310  24.721  28.624  1.00  0.00     0.338 C 
ATOM     35  O   UNL A   1      45.281  24.985  27.964  1.00  0.00    -0.246 OA
BRANCH  34  36
ATOM     36  C   UNL A   1      43.343  25.701  29.158  1.00  0.00     0.060 A 
ATOM     37  C   UNL A   1      42.301  26.155  28.364  1.00  0.00     0.016 A 
ATOM     38  C   UNL A   1      43.652  26.345  30.353  1.00  0.00     0.016 A 
ATOM     39  C   UNL A   1      41.707  27.374  28.644  1.00  0.00     0.010 A 
ATOM     40  C   UNL A   1      42.983  27.520  30.688  1.00  0.00     0.010 A 
ATOM     41  C   UNL A   1      42.066  28.088  29.794  1.00  0.00    -0.014 A 
BRANCH  41  42
ATOM     42  C   UNL A   1      41.323  29.335  30.072  1.00  0.00     0.031 A 
ATOM     43  C   UNL A   1      42.115  30.590  29.856  1.00  0.00     0.074 A 
ATOM     44  C   UNL A   1      40.002  29.394  30.350  1.00  0.00     0.049 A 
ATOM     45  N   UNL A   1      42.204  31.638  30.614  1.00  0.00    -0.248 NA
ATOM     46  C   UNL A   1      43.011  30.623  28.681  1.00  0.00     0.031 C 
ATOM     47  C   UNL A   1      39.064  28.268  30.375  1.00  0.00     0.029 A 
ATOM     48  N   UNL A   1      39.179  30.482  30.514  1.00  0.00    -0.354 N 
ATOM     49  C   UNL A   1      43.046  32.520  29.936  1.00  0.00     0.074 A 
ATOM     50  C   UNL A   1      43.636  31.785  28.851  1.00  0.00     0.031 C 
ATOM     51  C   UNL A   1      37.807  28.736  30.236  1.00  0.00     0.029 A 
ATOM     52  C   UNL A   1      37.844  30.187  30.261  1.00  0.00     0.049 A 
ATOM     53  H   UNL A   1      39.501  31.373  30.781  1.00  0.00     0.167 HD
ATOM     54  C   UNL A   1      43.008  33.865  30.134  1.00  0.00     0.031 A 
ATOM     55  C   UNL A   1      36.836  31.051  29.997  1.00  0.00     0.031 A 
ATOM     56  C   UNL A   1      42.388  34.230  31.374  1.00  0.00     0.049 A 
ATOM     57  C   UNL A   1      37.196  32.397  30.478  1.00  0.00     0.074 A 
ATOM     58  C   UNL A   1      42.765  34.393  32.686  1.00  0.00     0.029 A 
ATOM     59  N   UNL A   1      41.024  34.257  31.331  1.00  0.00    -0.354 N 
ATOM     60  N   UNL A   1      37.286  32.716  31.735  1.00  0.00    -0.248 NA
ATOM     61  C   UNL A   1      37.705  33.390  29.538  1.00  0.00     0.031 C 
ATOM     62  C   UNL A   1      41.563  34.392  33.454  1.00  0.00     0.029 A 
ATOM     63  C   UNL A   1      40.483  34.242  32.588  1.00  0.00     0.049 A 
ATOM     64  H   UNL A   1      40.495  34.284  30.502  1.00  0.00     0.167 HD
ATOM     65  C   UNL A   1      38.223  33.725  31.759  1.00  0.00     0.074 A 
ATOM     66  C   UNL A   1      38.300  34.225  30.394  1.00  0.00     0.031 C 
ATOM     67  C   UNL A   1      39.110  33.831  32.785  1.00  0.00     0.031 A 
BRANCH  54  68
ATOM     68  C   UNL A   1      43.089  34.854  28.987  1.00  0.00    -0.014 A 
ATOM     69  C   UNL A   1      44.240  35.027  28.191  1.00  0.00     0.009 A 
ATOM     70  C   UNL A   1      41.900  35.422  28.492  1.00  0.00     0.009 A 
ATOM     71  C   UNL A   1      44.214  35.716  26.975  1.00  0.00     0.001 A 
ATOM     72  C   UNL A   1      41.861  36.081  27.256  1.00  0.00     0.001 A 
ATOM     73  C   UNL A   1      43.018  36.225  26.496  1.00  0.00     0.000 A 
ENDBRANCH  54  68
BRANCH  55  74
ATOM     74  C   UNL A   1      35.655  30.846  29.130  1.00  0.00    -0.014 A 
ATOM     75  C   UNL A   1      35.601  29.746  28.255  1.00  0.00     0.009 A 
ATOM     76  C   UNL A   1      34.714  31.873  28.954  1.00  0.00     0.009 A 
ATOM     77  C   UNL A   1      34.672  29.696  27.212  1.00  0.00     0.001 A 
ATOM     78  C   UNL A   1      33.789  31.825  27.904  1.00  0.00     0.001 A 
ATOM     79  C   UNL A   1      33.779  30.746  27.025  1.00  0.00     0.000 A 
ENDBRANCH  55  74
BRANCH  67  80
ATOM     80  C   UNL A   1      38.724  33.264  34.118  1.00  0.00    -0.014 A 
ATOM     81  C   UNL A   1      39.040  31.921  34.374  1.00  0.00     0.009 A 
ATOM     82  C   UNL A   1      37.992  33.980  35.078  1.00  0.00     0.009 A 
ATOM     83  C   UNL A   1      38.623  31.302  35.552  1.00  0.00     0.001 A 
ATOM     84  C   UNL A   1      37.597  33.365  36.270  1.00  0.00     0.001 A 
ATOM     85  C   UNL A   1      37.905  32.025  36.501  1.00  0.00     0.000 A 
ENDBRANCH  67  80
ENDBRANCH  41  42
ENDBRANCH  34  36
ENDBRANCH  33  34
ENDBRANCH  32  33
ENDBRANCH  31  32
ENDBRANCH  30  31
ENDBRANCH  29  30
ENDBRANCH   1  29
TORSDOF 19
ENDMDL
