MODEL 1
REMARK VINA RESULT:      -9.7      0.000      0.000
REMARK SMILES C[NH+]1CCC([N@@H+](CC(=O)OCCOCCOC(=O)c2ccc(-c3c4nc(c(-c5ccccc5)c5ccc([nH]5)c(-c5ccccc5)c5nc(c(-c6ccccc6)c6ccc3[nH]6)C=C5)C=C4)cc2)C(C)(C)C)CC1
REMARK SMILES IDX 13 1 12 2 11 3 10 4 8 5 9 6 7 7 6 8 5 10 1 11 2 12 3 13
REMARK SMILES IDX 72 14 4 16 71 17 67 18 68 19 69 20 70 21 14 22 15 23 16 24
REMARK SMILES IDX 17 25 18 26 19 27 20 28 66 29 21 30 65 31 22 32 23 33 24 34
REMARK SMILES IDX 59 35 25 36 64 37 58 38 60 39 26 40 63 41 57 42 56 43 27 45
REMARK SMILES IDX 49 46 34 47 48 48 35 49 38 50 47 51 61 52 36 53 37 54 46 56
REMARK SMILES IDX 62 57 39 58 28 59 29 60 33 61 30 62 32 63 31 64 50 65 51 66
REMARK SMILES IDX 55 67 52 68 54 69 53 70 40 71 41 72 45 73 42 74 44 75 43 76
REMARK H PARENT 6 9 2 15 60 44 38 55
REMARK Flexibility Score: inf
ROOT
ATOM      1  O   UNL A   1      35.321  22.689  25.492  1.00  0.00    -0.374 OA
ENDROOT
BRANCH   1   2
ATOM      2  C   UNL A   1      35.149  23.837  24.659  1.00  0.00     0.202 C 
BRANCH   2   3
ATOM      3  C   UNL A   1      34.379  23.548  23.369  1.00  0.00     0.261 C 
BRANCH   3   4
ATOM      4  O   UNL A   1      34.121  24.781  22.665  1.00  0.00    -0.459 OA
BRANCH   4   5
ATOM      5  C   UNL A   1      32.899  25.361  22.747  1.00  0.00     0.361 C 
ATOM      6  O   UNL A   1      31.890  24.898  22.226  1.00  0.00    -0.245 OA
BRANCH   5   7
ATOM      7  C   UNL A   1      32.941  26.733  23.443  1.00  0.00     0.387 C 
BRANCH   7   8
ATOM      8  N   UNL A   1      31.989  26.993  24.557  1.00  0.00    -0.319 N 
ATOM      9  H   UNL A   1      31.413  26.165  24.710  1.00  0.00     0.349 HD
BRANCH   8  10
ATOM     10  C   UNL A   1      30.846  27.886  24.206  1.00  0.00     0.196 C 
ATOM     11  C   UNL A   1      27.824  29.940  21.836  1.00  0.00     0.332 C 
ATOM     12  N   UNL A   1      28.945  29.130  22.309  1.00  0.00    -0.337 N 
ATOM     13  C   UNL A   1      28.474  28.060  23.184  1.00  0.00     0.268 C 
ATOM     14  C   UNL A   1      29.919  29.958  23.025  1.00  0.00     0.268 C 
ATOM     15  H   UNL A   1      29.399  28.718  21.493  1.00  0.00     0.347 HD
ATOM     16  C   UNL A   1      29.618  27.153  23.634  1.00  0.00     0.126 C 
ATOM     17  C   UNL A   1      31.159  29.127  23.350  1.00  0.00     0.126 C 
ENDBRANCH   8  10
BRANCH   8  18
ATOM     18  C   UNL A   1      32.434  26.733  25.952  1.00  0.00     0.090 C 
ATOM     19  C   UNL A   1      33.904  27.125  26.127  1.00  0.00     0.078 C 
ATOM     20  C   UNL A   1      31.587  27.490  27.006  1.00  0.00     0.078 C 
ATOM     21  C   UNL A   1      32.302  25.242  26.379  1.00  0.00     0.078 C 
ENDBRANCH   8  18
ENDBRANCH   7   8
ENDBRANCH   5   7
ENDBRANCH   4   5
ENDBRANCH   3   4
ENDBRANCH   2   3
ENDBRANCH   1   2
BRANCH   1  22
ATOM     22  C   UNL A   1      35.390  21.441  24.806  1.00  0.00     0.202 C 
BRANCH  22  23
ATOM     23  C   UNL A   1      36.724  20.706  25.011  1.00  0.00     0.261 C 
BRANCH  23  24
ATOM     24  O   UNL A   1      37.850  21.610  24.968  1.00  0.00    -0.460 OA
BRANCH  24  25
ATOM     25  C   UNL A   1      38.889  21.270  25.766  1.00  0.00     0.338 C 
ATOM     26  O   UNL A   1      39.472  20.199  25.794  1.00  0.00    -0.246 OA
BRANCH  25  27
ATOM     27  C   UNL A   1      39.374  22.434  26.538  1.00  0.00     0.060 A 
ATOM     28  C   UNL A   1      38.792  23.672  26.240  1.00  0.00     0.016 A 
ATOM     29  C   UNL A   1      40.438  22.364  27.438  1.00  0.00     0.016 A 
ATOM     30  C   UNL A   1      39.321  24.848  26.774  1.00  0.00     0.010 A 
ATOM     31  C   UNL A   1      40.964  23.552  27.978  1.00  0.00     0.010 A 
ATOM     32  C   UNL A   1      40.441  24.810  27.618  1.00  0.00    -0.014 A 
BRANCH  32  33
ATOM     33  C   UNL A   1      41.112  26.093  27.989  1.00  0.00     0.031 A 
ATOM     34  C   UNL A   1      42.458  26.440  27.396  1.00  0.00     0.074 A 
ATOM     35  C   UNL A   1      40.503  27.003  28.777  1.00  0.00     0.049 A 
ATOM     36  N   UNL A   1      43.151  27.549  27.501  1.00  0.00    -0.248 NA
ATOM     37  C   UNL A   1      43.112  25.402  26.586  1.00  0.00     0.031 C 
ATOM     38  C   UNL A   1      39.202  26.833  29.419  1.00  0.00     0.029 A 
ATOM     39  N   UNL A   1      40.899  28.267  29.154  1.00  0.00    -0.354 N 
ATOM     40  C   UNL A   1      44.319  27.338  26.777  1.00  0.00     0.074 A 
ATOM     41  C   UNL A   1      44.263  25.979  26.284  1.00  0.00     0.031 C 
ATOM     42  C   UNL A   1      38.892  27.958  30.085  1.00  0.00     0.029 A 
ATOM     43  C   UNL A   1      39.981  28.923  29.939  1.00  0.00     0.049 A 
ATOM     44  H   UNL A   1      41.759  28.663  28.885  1.00  0.00     0.167 HD
ATOM     45  C   UNL A   1      45.340  28.193  26.521  1.00  0.00     0.031 A 
ATOM     46  C   UNL A   1      40.005  30.159  30.480  1.00  0.00     0.031 A 
ATOM     47  C   UNL A   1      45.417  29.549  26.994  1.00  0.00     0.049 A 
ATOM     48  C   UNL A   1      41.170  31.078  30.222  1.00  0.00     0.074 A 
ATOM     49  C   UNL A   1      46.399  30.494  26.742  1.00  0.00     0.029 A 
ATOM     50  N   UNL A   1      44.487  30.152  27.825  1.00  0.00    -0.354 N 
ATOM     51  N   UNL A   1      42.234  30.882  29.483  1.00  0.00    -0.248 NA
ATOM     52  C   UNL A   1      41.127  32.402  30.867  1.00  0.00     0.031 C 
ATOM     53  C   UNL A   1      46.094  31.649  27.472  1.00  0.00     0.029 A 
ATOM     54  C   UNL A   1      44.889  31.445  28.124  1.00  0.00     0.049 A 
ATOM     55  H   UNL A   1      43.663  29.726  28.154  1.00  0.00     0.167 HD
ATOM     56  C   UNL A   1      42.970  32.060  29.552  1.00  0.00     0.074 A 
ATOM     57  C   UNL A   1      42.225  32.974  30.391  1.00  0.00     0.031 C 
ATOM     58  C   UNL A   1      44.155  32.355  28.965  1.00  0.00     0.031 A 
BRANCH  45  59
ATOM     59  C   UNL A   1      46.484  27.663  25.699  1.00  0.00    -0.014 A 
ATOM     60  C   UNL A   1      47.496  26.876  26.273  1.00  0.00     0.009 A 
ATOM     61  C   UNL A   1      46.543  27.948  24.326  1.00  0.00     0.009 A 
ATOM     62  C   UNL A   1      48.570  26.432  25.499  1.00  0.00     0.001 A 
ATOM     63  C   UNL A   1      47.602  27.474  23.548  1.00  0.00     0.001 A 
ATOM     64  C   UNL A   1      48.621  26.729  24.138  1.00  0.00     0.000 A 
ENDBRANCH  45  59
BRANCH  46  65
ATOM     65  C   UNL A   1      38.874  30.616  31.331  1.00  0.00    -0.014 A 
ATOM     66  C   UNL A   1      38.903  30.439  32.723  1.00  0.00     0.009 A 
ATOM     67  C   UNL A   1      37.745  31.212  30.746  1.00  0.00     0.009 A 
ATOM     68  C   UNL A   1      37.815  30.829  33.509  1.00  0.00     0.001 A 
ATOM     69  C   UNL A   1      36.672  31.628  31.538  1.00  0.00     0.001 A 
ATOM     70  C   UNL A   1      36.705  31.428  32.917  1.00  0.00     0.000 A 
ENDBRANCH  46  65
BRANCH  58  71
ATOM     71  C   UNL A   1      44.721  33.735  29.179  1.00  0.00    -0.014 A 
ATOM     72  C   UNL A   1      45.614  34.005  30.228  1.00  0.00     0.009 A 
ATOM     73  C   UNL A   1      44.397  34.767  28.285  1.00  0.00     0.009 A 
ATOM     74  C   UNL A   1      46.145  35.288  30.393  1.00  0.00     0.001 A 
ATOM     75  C   UNL A   1      44.952  36.040  28.434  1.00  0.00     0.001 A 
ATOM     76  C   UNL A   1      45.819  36.302  29.493  1.00  0.00     0.000 A 
ENDBRANCH  58  71
ENDBRANCH  32  33
ENDBRANCH  25  27
ENDBRANCH  24  25
ENDBRANCH  23  24
ENDBRANCH  22  23
ENDBRANCH   1  22
TORSDOF 17
ENDMDL
MODEL 2
REMARK VINA RESULT:      -9.6      3.933      8.645
REMARK SMILES C[NH+]1CCC([N@@H+](CC(=O)OCCOCCOC(=O)c2ccc(-c3c4nc(c(-c5ccccc5)c5ccc([nH]5)c(-c5ccccc5)c5nc(c(-c6ccccc6)c6ccc3[nH]6)C=C5)C=C4)cc2)C(C)(C)C)CC1
REMARK SMILES IDX 13 1 12 2 11 3 10 4 8 5 9 6 7 7 6 8 5 10 1 11 2 12 3 13
REMARK SMILES IDX 72 14 4 16 71 17 67 18 68 19 69 20 70 21 14 22 15 23 16 24
REMARK SMILES IDX 17 25 18 26 19 27 20 28 66 29 21 30 65 31 22 32 23 33 24 34
REMARK SMILES IDX 59 35 25 36 64 37 58 38 60 39 26 40 63 41 57 42 56 43 27 45
REMARK SMILES IDX 49 46 34 47 48 48 35 49 38 50 47 51 61 52 36 53 37 54 46 56
REMARK SMILES IDX 62 57 39 58 28 59 29 60 33 61 30 62 32 63 31 64 50 65 51 66
REMARK SMILES IDX 55 67 52 68 54 69 53 70 40 71 41 72 45 73 42 74 44 75 43 76
REMARK H PARENT 6 9 2 15 60 44 38 55
REMARK Flexibility Score: inf
ROOT
ATOM      1  O   UNL A   1      31.123  28.081  25.261  1.00  0.00    -0.374 OA
ENDROOT
BRANCH   1   2
ATOM      2  C   UNL A   1      30.877  27.007  26.169  1.00  0.00     0.202 C 
BRANCH   2   3
ATOM      3  C   UNL A   1      30.217  25.790  25.517  1.00  0.00     0.261 C 
BRANCH   3   4
ATOM      4  O   UNL A   1      29.988  24.766  26.507  1.00  0.00    -0.459 OA
BRANCH   4   5
ATOM      5  C   UNL A   1      30.841  23.718  26.602  1.00  0.00     0.361 C 
ATOM      6  O   UNL A   1      31.377  23.370  27.648  1.00  0.00    -0.245 OA
BRANCH   5   7
ATOM      7  C   UNL A   1      31.171  23.098  25.232  1.00  0.00     0.387 C 
BRANCH   7   8
ATOM      8  N   UNL A   1      32.600  22.939  24.851  1.00  0.00    -0.319 N 
ATOM      9  H   UNL A   1      33.191  23.151  25.654  1.00  0.00     0.349 HD
BRANCH   8  10
ATOM     10  C   UNL A   1      33.143  24.033  23.995  1.00  0.00     0.196 C 
ATOM     11  C   UNL A   1      33.626  27.961  22.175  1.00  0.00     0.332 C 
ATOM     12  N   UNL A   1      33.176  26.797  22.937  1.00  0.00    -0.337 N 
ATOM     13  C   UNL A   1      34.183  26.403  23.918  1.00  0.00     0.268 C 
ATOM     14  C   UNL A   1      32.891  25.670  22.044  1.00  0.00     0.268 C 
ATOM     15  H   UNL A   1      32.318  27.057  23.425  1.00  0.00     0.347 HD
ATOM     16  C   UNL A   1      33.706  25.234  24.778  1.00  0.00     0.126 C 
ATOM     17  C   UNL A   1      32.254  24.533  22.841  1.00  0.00     0.126 C 
ENDBRANCH   8  10
BRANCH   8  18
ATOM     18  C   UNL A   1      33.222  21.593  24.963  1.00  0.00     0.090 C 
ATOM     19  C   UNL A   1      32.359  20.542  24.260  1.00  0.00     0.078 C 
ATOM     20  C   UNL A   1      34.654  21.540  24.370  1.00  0.00     0.078 C 
ATOM     21  C   UNL A   1      33.419  21.119  26.433  1.00  0.00     0.078 C 
ENDBRANCH   8  18
ENDBRANCH   7   8
ENDBRANCH   5   7
ENDBRANCH   4   5
ENDBRANCH   3   4
ENDBRANCH   2   3
ENDBRANCH   1   2
BRANCH   1  22
ATOM     22  C   UNL A   1      32.259  28.889  25.565  1.00  0.00     0.202 C 
BRANCH  22  23
ATOM     23  C   UNL A   1      31.892  30.242  26.195  1.00  0.00     0.261 C 
BRANCH  23  24
ATOM     24  O   UNL A   1      32.599  30.469  27.434  1.00  0.00    -0.460 OA
BRANCH  24  25
ATOM     25  C   UNL A   1      33.365  31.585  27.460  1.00  0.00     0.338 C 
ATOM     26  O   UNL A   1      32.982  32.739  27.373  1.00  0.00    -0.246 OA
BRANCH  25  27
ATOM     27  C   UNL A   1      34.774  31.260  27.772  1.00  0.00     0.060 A 
ATOM     28  C   UNL A   1      35.084  29.906  27.938  1.00  0.00     0.016 A 
ATOM     29  C   UNL A   1      35.745  32.231  28.018  1.00  0.00     0.016 A 
ATOM     30  C   UNL A   1      36.335  29.521  28.424  1.00  0.00     0.010 A 
ATOM     31  C   UNL A   1      37.006  31.839  28.503  1.00  0.00     0.010 A 
ATOM     32  C   UNL A   1      37.299  30.484  28.754  1.00  0.00    -0.014 A 
BRANCH  32  33
ATOM     33  C   UNL A   1      38.535  30.053  29.478  1.00  0.00     0.031 A 
ATOM     34  C   UNL A   1      38.712  30.393  30.939  1.00  0.00     0.074 A 
ATOM     35  C   UNL A   1      39.466  29.281  28.880  1.00  0.00     0.049 A 
ATOM     36  N   UNL A   1      39.653  30.015  31.772  1.00  0.00    -0.248 NA
ATOM     37  C   UNL A   1      37.703  31.278  31.539  1.00  0.00     0.031 C 
ATOM     38  C   UNL A   1      39.443  28.852  27.484  1.00  0.00     0.029 A 
ATOM     39  N   UNL A   1      40.609  28.704  29.388  1.00  0.00    -0.354 N 
ATOM     40  C   UNL A   1      39.351  30.620  32.986  1.00  0.00     0.074 A 
ATOM     41  C   UNL A   1      38.172  31.430  32.767  1.00  0.00     0.031 C 
ATOM     42  C   UNL A   1      40.502  28.057  27.252  1.00  0.00     0.029 A 
ATOM     43  C   UNL A   1      41.294  27.937  28.475  1.00  0.00     0.049 A 
ATOM     44  H   UNL A   1      40.906  28.828  30.318  1.00  0.00     0.167 HD
ATOM     45  C   UNL A   1      39.975  30.505  34.185  1.00  0.00     0.031 A 
ATOM     46  C   UNL A   1      42.427  27.215  28.602  1.00  0.00     0.031 A 
ATOM     47  C   UNL A   1      41.144  29.704  34.431  1.00  0.00     0.049 A 
ATOM     48  C   UNL A   1      43.133  27.137  29.931  1.00  0.00     0.074 A 
ATOM     49  C   UNL A   1      41.812  29.500  35.628  1.00  0.00     0.029 A 
ATOM     50  N   UNL A   1      41.829  28.984  33.465  1.00  0.00    -0.354 N 
ATOM     51  N   UNL A   1      42.795  27.665  31.081  1.00  0.00    -0.248 NA
ATOM     52  C   UNL A   1      44.374  26.346  29.977  1.00  0.00     0.031 C 
ATOM     53  C   UNL A   1      42.937  28.707  35.374  1.00  0.00     0.029 A 
ATOM     54  C   UNL A   1      42.932  28.364  34.032  1.00  0.00     0.049 A 
ATOM     55  H   UNL A   1      41.571  28.923  32.517  1.00  0.00     0.167 HD
ATOM     56  C   UNL A   1      43.763  27.249  31.991  1.00  0.00     0.074 A 
ATOM     57  C   UNL A   1      44.693  26.413  31.263  1.00  0.00     0.031 C 
ATOM     58  C   UNL A   1      43.864  27.536  33.311  1.00  0.00     0.031 A 
BRANCH  45  59
ATOM     59  C   UNL A   1      39.407  31.299  35.330  1.00  0.00    -0.014 A 
ATOM     60  C   UNL A   1      39.868  32.592  35.625  1.00  0.00     0.009 A 
ATOM     61  C   UNL A   1      38.385  30.747  36.119  1.00  0.00     0.009 A 
ATOM     62  C   UNL A   1      39.356  33.293  36.719  1.00  0.00     0.001 A 
ATOM     63  C   UNL A   1      37.851  31.464  37.192  1.00  0.00     0.001 A 
ATOM     64  C   UNL A   1      38.347  32.730  37.499  1.00  0.00     0.000 A 
ENDBRANCH  45  59
BRANCH  46  65
ATOM     65  C   UNL A   1      42.979  26.492  27.425  1.00  0.00    -0.014 A 
ATOM     66  C   UNL A   1      43.894  27.114  26.562  1.00  0.00     0.009 A 
ATOM     67  C   UNL A   1      42.571  25.177  27.148  1.00  0.00     0.009 A 
ATOM     68  C   UNL A   1      44.371  26.443  25.432  1.00  0.00     0.001 A 
ATOM     69  C   UNL A   1      43.072  24.499  26.035  1.00  0.00     0.001 A 
ATOM     70  C   UNL A   1      43.965  25.135  25.174  1.00  0.00     0.000 A 
ENDBRANCH  46  65
BRANCH  58  71
ATOM     71  C   UNL A   1      45.005  26.920  34.078  1.00  0.00    -0.014 A 
ATOM     72  C   UNL A   1      46.273  27.521  34.114  1.00  0.00     0.009 A 
ATOM     73  C   UNL A   1      44.792  25.747  34.820  1.00  0.00     0.009 A 
ATOM     74  C   UNL A   1      47.310  26.944  34.852  1.00  0.00     0.001 A 
ATOM     75  C   UNL A   1      45.822  25.189  35.581  1.00  0.00     0.001 A 
ATOM     76  C   UNL A   1      47.082  25.782  35.589  1.00  0.00     0.000 A 
ENDBRANCH  58  71
ENDBRANCH  32  33
ENDBRANCH  25  27
ENDBRANCH  24  25
ENDBRANCH  23  24
ENDBRANCH  22  23
ENDBRANCH   1  22
TORSDOF 17
ENDMDL
MODEL 3
REMARK VINA RESULT:      -9.5      3.516      5.272
REMARK SMILES C[NH+]1CCC([N@@H+](CC(=O)OCCOCCOC(=O)c2ccc(-c3c4nc(c(-c5ccccc5)c5ccc([nH]5)c(-c5ccccc5)c5nc(c(-c6ccccc6)c6ccc3[nH]6)C=C5)C=C4)cc2)C(C)(C)C)CC1
REMARK SMILES IDX 13 1 12 2 11 3 10 4 8 5 9 6 7 7 6 8 5 10 1 11 2 12 3 13
REMARK SMILES IDX 72 14 4 16 71 17 67 18 68 19 69 20 70 21 14 22 15 23 16 24
REMARK SMILES IDX 17 25 18 26 19 27 20 28 66 29 21 30 65 31 22 32 23 33 24 34
REMARK SMILES IDX 59 35 25 36 64 37 58 38 60 39 26 40 63 41 57 42 56 43 27 45
REMARK SMILES IDX 49 46 34 47 48 48 35 49 38 50 47 51 61 52 36 53 37 54 46 56
REMARK SMILES IDX 62 57 39 58 28 59 29 60 33 61 30 62 32 63 31 64 50 65 51 66
REMARK SMILES IDX 55 67 52 68 54 69 53 70 40 71 41 72 45 73 42 74 44 75 43 76
REMARK H PARENT 6 9 2 15 60 44 38 55
REMARK Flexibility Score: inf
ROOT
ATOM      1  O   UNL A   1      37.818  22.212  25.346  1.00  0.00    -0.374 OA
ENDROOT
BRANCH   1   2
ATOM      2  C   UNL A   1      37.471  23.578  25.582  1.00  0.00     0.202 C 
BRANCH   2   3
ATOM      3  C   UNL A   1      35.992  23.788  25.908  1.00  0.00     0.261 C 
BRANCH   3   4
ATOM      4  O   UNL A   1      35.576  22.856  26.928  1.00  0.00    -0.459 OA
BRANCH   4   5
ATOM      5  C   UNL A   1      34.592  21.963  26.664  1.00  0.00     0.361 C 
ATOM      6  O   UNL A   1      33.726  21.647  27.473  1.00  0.00    -0.245 OA
BRANCH   5   7
ATOM      7  C   UNL A   1      34.759  21.287  25.292  1.00  0.00     0.387 C 
BRANCH   7   8
ATOM      8  N   UNL A   1      33.539  20.834  24.570  1.00  0.00    -0.319 N 
ATOM      9  H   UNL A   1      32.724  20.962  25.170  1.00  0.00     0.349 HD
BRANCH   8  10
ATOM     10  C   UNL A   1      33.392  19.353  24.461  1.00  0.00     0.196 C 
ATOM     11  C   UNL A   1      33.601  15.124  25.482  1.00  0.00     0.332 C 
ATOM     12  N   UNL A   1      33.712  16.582  25.449  1.00  0.00    -0.337 N 
ATOM     13  C   UNL A   1      32.389  17.200  25.489  1.00  0.00     0.268 C 
ATOM     14  C   UNL A   1      34.423  17.021  24.245  1.00  0.00     0.268 C 
ATOM     15  H   UNL A   1      34.241  16.873  26.271  1.00  0.00     0.347 HD
ATOM     16  C   UNL A   1      32.478  18.724  25.530  1.00  0.00     0.126 C 
ATOM     17  C   UNL A   1      34.682  18.525  24.323  1.00  0.00     0.126 C 
ENDBRANCH   8  10
BRANCH   8  18
ATOM     18  C   UNL A   1      32.831  21.801  23.690  1.00  0.00     0.090 C 
ATOM     19  C   UNL A   1      31.758  22.558  24.477  1.00  0.00     0.078 C 
ATOM     20  C   UNL A   1      33.787  22.830  23.034  1.00  0.00     0.078 C 
ATOM     21  C   UNL A   1      32.126  21.133  22.473  1.00  0.00     0.078 C 
ENDBRANCH   8  18
ENDBRANCH   7   8
ENDBRANCH   5   7
ENDBRANCH   4   5
ENDBRANCH   3   4
ENDBRANCH   2   3
ENDBRANCH   1   2
BRANCH   1  22
ATOM     22  C   UNL A   1      38.981  21.751  26.031  1.00  0.00     0.202 C 
BRANCH  22  23
ATOM     23  C   UNL A   1      39.423  20.343  25.598  1.00  0.00     0.261 C 
BRANCH  23  24
ATOM     24  O   UNL A   1      40.447  19.809  26.464  1.00  0.00    -0.460 OA
BRANCH  24  25
ATOM     25  C   UNL A   1      41.716  19.973  26.021  1.00  0.00     0.338 C 
ATOM     26  O   UNL A   1      42.299  19.285  25.200  1.00  0.00    -0.246 OA
BRANCH  25  27
ATOM     27  C   UNL A   1      42.309  21.223  26.543  1.00  0.00     0.060 A 
ATOM     28  C   UNL A   1      42.307  21.386  27.933  1.00  0.00     0.016 A 
ATOM     29  C   UNL A   1      42.745  22.263  25.721  1.00  0.00     0.016 A 
ATOM     30  C   UNL A   1      42.663  22.610  28.501  1.00  0.00     0.010 A 
ATOM     31  C   UNL A   1      43.108  23.493  26.298  1.00  0.00     0.010 A 
ATOM     32  C   UNL A   1      43.028  23.695  27.691  1.00  0.00    -0.014 A 
BRANCH  32  33
ATOM     33  C   UNL A   1      43.186  25.045  28.315  1.00  0.00     0.031 A 
ATOM     34  C   UNL A   1      44.560  25.547  28.691  1.00  0.00     0.074 A 
ATOM     35  C   UNL A   1      42.133  25.874  28.471  1.00  0.00     0.049 A 
ATOM     36  N   UNL A   1      44.919  26.729  29.135  1.00  0.00    -0.248 NA
ATOM     37  C   UNL A   1      45.672  24.596  28.555  1.00  0.00     0.031 C 
ATOM     38  C   UNL A   1      40.745  25.551  28.148  1.00  0.00     0.029 A 
ATOM     39  N   UNL A   1      42.078  27.172  28.925  1.00  0.00    -0.354 N 
ATOM     40  C   UNL A   1      46.293  26.658  29.336  1.00  0.00     0.074 A 
ATOM     41  C   UNL A   1      46.691  25.304  29.016  1.00  0.00     0.031 C 
ATOM     42  C   UNL A   1      39.978  26.629  28.386  1.00  0.00     0.029 A 
ATOM     43  C   UNL A   1      40.814  27.714  28.899  1.00  0.00     0.049 A 
ATOM     44  H   UNL A   1      42.869  27.667  29.238  1.00  0.00     0.167 HD
ATOM     45  C   UNL A   1      47.157  27.625  29.729  1.00  0.00     0.031 A 
ATOM     46  C   UNL A   1      40.372  28.941  29.245  1.00  0.00     0.031 A 
ATOM     47  C   UNL A   1      46.789  28.978  30.049  1.00  0.00     0.049 A 
ATOM     48  C   UNL A   1      41.341  29.990  29.725  1.00  0.00     0.074 A 
ATOM     49  C   UNL A   1      47.611  30.031  30.414  1.00  0.00     0.029 A 
ATOM     50  N   UNL A   1      45.491  29.466  30.054  1.00  0.00    -0.354 N 
ATOM     51  N   UNL A   1      42.645  29.921  29.846  1.00  0.00    -0.248 NA
ATOM     52  C   UNL A   1      40.774  31.296  30.102  1.00  0.00     0.031 C 
ATOM     53  C   UNL A   1      46.806  31.140  30.701  1.00  0.00     0.029 A 
ATOM     54  C   UNL A   1      45.488  30.795  30.451  1.00  0.00     0.049 A 
ATOM     55  H   UNL A   1      44.692  28.945  29.813  1.00  0.00     0.167 HD
ATOM     56  C   UNL A   1      43.054  31.176  30.286  1.00  0.00     0.074 A 
ATOM     57  C   UNL A   1      41.864  31.993  30.395  1.00  0.00     0.031 C 
ATOM     58  C   UNL A   1      44.306  31.609  30.568  1.00  0.00     0.031 A 
BRANCH  45  59
ATOM     59  C   UNL A   1      48.605  27.236  29.861  1.00  0.00    -0.014 A 
ATOM     60  C   UNL A   1      49.119  26.723  31.064  1.00  0.00     0.009 A 
ATOM     61  C   UNL A   1      49.465  27.375  28.761  1.00  0.00     0.009 A 
ATOM     62  C   UNL A   1      50.475  26.408  31.176  1.00  0.00     0.001 A 
ATOM     63  C   UNL A   1      50.814  27.028  28.866  1.00  0.00     0.001 A 
ATOM     64  C   UNL A   1      51.320  26.558  30.077  1.00  0.00     0.000 A 
ENDBRANCH  45  59
BRANCH  46  65
ATOM     65  C   UNL A   1      38.922  29.260  29.149  1.00  0.00    -0.014 A 
ATOM     66  C   UNL A   1      38.073  29.091  30.253  1.00  0.00     0.009 A 
ATOM     67  C   UNL A   1      38.377  29.714  27.937  1.00  0.00     0.009 A 
ATOM     68  C   UNL A   1      36.704  29.348  30.139  1.00  0.00     0.001 A 
ATOM     69  C   UNL A   1      37.014  29.999  27.835  1.00  0.00     0.001 A 
ATOM     70  C   UNL A   1      36.178  29.808  28.933  1.00  0.00     0.000 A 
ENDBRANCH  46  65
BRANCH  58  71
ATOM     71  C   UNL A   1      44.474  33.043  30.998  1.00  0.00    -0.014 A 
ATOM     72  C   UNL A   1      44.604  34.079  30.059  1.00  0.00     0.009 A 
ATOM     73  C   UNL A   1      44.448  33.369  32.363  1.00  0.00     0.009 A 
ATOM     74  C   UNL A   1      44.735  35.405  30.481  1.00  0.00     0.001 A 
ATOM     75  C   UNL A   1      44.549  34.697  32.781  1.00  0.00     0.001 A 
ATOM     76  C   UNL A   1      44.701  35.713  31.840  1.00  0.00     0.000 A 
ENDBRANCH  58  71
ENDBRANCH  32  33
ENDBRANCH  25  27
ENDBRANCH  24  25
ENDBRANCH  23  24
ENDBRANCH  22  23
ENDBRANCH   1  22
TORSDOF 17
ENDMDL
