MODEL 1
REMARK VINA RESULT:      -9.7      0.000      0.000
REMARK SMILES CCCCNC(=O)[C@@H](C)Oc1ccc(N)cc1C(=O)OCCOCCOC(=O)c1ccc(-c2c3nc(c(-c4ccccc4)c4ccc([nH]4)c(-c4ccccc4)c4nc(c(-c5ccccc5)c5ccc2[nH]5)C=C4)C=C3)cc1
REMARK SMILES IDX 21 1 20 2 18 3 19 4 17 5 11 6 12 7 13 8 16 9 14 10 10 11
REMARK SMILES IDX 8 12 9 13 6 14 5 15 7 17 4 18 3 19 2 20 1 21 15 22 22 25
REMARK SMILES IDX 23 26 24 27 25 28 26 29 27 30 28 31 29 32 30 33 76 34 31 35
REMARK SMILES IDX 75 36 32 37 33 38 34 39 69 40 35 41 74 42 68 43 70 44 36 45
REMARK SMILES IDX 73 46 67 47 66 48 37 50 59 51 44 52 58 53 45 54 48 55 57 56
REMARK SMILES IDX 71 57 46 58 47 59 56 61 72 62 49 63 38 64 39 65 43 66 40 67
REMARK SMILES IDX 42 68 41 69 60 70 61 71 65 72 62 73 64 74 63 75 50 76 51 77
REMARK SMILES IDX 55 78 52 79 54 80 53 81
REMARK H PARENT 5 16 15 23 15 24 70 49 48 60
REMARK Flexibility Score: inf
ROOT
ATOM      1  C   UNL A   1      37.740  23.315  25.068  1.00  0.00     0.261 C 
ENDROOT
BRANCH   1   2
ATOM      2  O   UNL A   1      36.397  23.783  24.850  1.00  0.00    -0.460 OA
BRANCH   2   3
ATOM      3  C   UNL A   1      35.862  23.370  23.681  1.00  0.00     0.342 C 
ATOM      4  O   UNL A   1      36.493  23.095  22.668  1.00  0.00    -0.246 OA
BRANCH   3   5
ATOM      5  C   UNL A   1      34.400  23.145  23.739  1.00  0.00     0.104 A 
ATOM      6  C   UNL A   1      33.434  23.811  22.979  1.00  0.00     0.135 A 
ATOM      7  C   UNL A   1      32.213  23.169  22.788  1.00  0.00     0.049 A 
ATOM      8  C   UNL A   1      31.856  22.063  23.571  1.00  0.00     0.029 A 
ATOM      9  C   UNL A   1      34.010  22.072  24.567  1.00  0.00     0.045 A 
ATOM     10  C   UNL A   1      32.707  21.592  24.561  1.00  0.00     0.032 A 
BRANCH   6  11
ATOM     11  O   UNL A   1      33.688  24.986  22.342  1.00  0.00    -0.480 OA
BRANCH  11  12
ATOM     12  C   UNL A   1      32.566  25.637  21.720  1.00  0.00     0.258 C 
ATOM     13  C   UNL A   1      32.593  25.509  20.194  1.00  0.00     0.064 C 
BRANCH  12  14
ATOM     14  C   UNL A   1      31.932  26.983  22.219  1.00  0.00     0.260 C 
ATOM     15  N   UNL A   1      32.584  27.907  22.987  1.00  0.00    -0.353 N 
ATOM     16  H   UNL A   1      32.161  28.796  23.008  1.00  0.00     0.163 HD
ATOM     17  O   UNL A   1      30.769  27.267  21.906  1.00  0.00    -0.271 OA
BRANCH  15  18
ATOM     18  C   UNL A   1      33.795  27.793  23.776  1.00  0.00     0.116 C 
BRANCH  18  19
ATOM     19  C   UNL A   1      33.609  27.102  25.123  1.00  0.00     0.021 C 
BRANCH  19  20
ATOM     20  C   UNL A   1      33.932  27.963  26.353  1.00  0.00    -0.002 C 
ATOM     21  C   UNL A   1      33.456  29.408  26.256  1.00  0.00     0.004 C 
ENDBRANCH  19  20
ENDBRANCH  18  19
ENDBRANCH  15  18
ENDBRANCH  12  14
ENDBRANCH  11  12
ENDBRANCH   6  11
BRANCH  10  22
ATOM     22  N   UNL A   1      32.329  20.565  25.404  1.00  0.00    -0.399 N 
ATOM     23  H   UNL A   1      31.787  20.760  26.203  1.00  0.00     0.156 HD
ATOM     24  H   UNL A   1      32.600  19.640  25.207  1.00  0.00     0.156 HD
ENDBRANCH  10  22
ENDBRANCH   3   5
ENDBRANCH   2   3
ENDBRANCH   1   2
BRANCH   1  25
ATOM     25  C   UNL A   1      37.743  21.912  25.673  1.00  0.00     0.202 C 
BRANCH  25  26
ATOM     26  O   UNL A   1      37.645  20.826  24.752  1.00  0.00    -0.374 OA
BRANCH  26  27
ATOM     27  C   UNL A   1      38.411  19.656  25.046  1.00  0.00     0.202 C 
BRANCH  27  28
ATOM     28  C   UNL A   1      39.718  19.889  25.813  1.00  0.00     0.261 C 
BRANCH  28  29
ATOM     29  O   UNL A   1      40.614  18.770  25.676  1.00  0.00    -0.460 OA
BRANCH  29  30
ATOM     30  C   UNL A   1      41.901  19.023  26.005  1.00  0.00     0.338 C 
ATOM     31  O   UNL A   1      42.868  18.289  25.839  1.00  0.00    -0.246 OA
BRANCH  30  32
ATOM     32  C   UNL A   1      42.039  20.427  26.433  1.00  0.00     0.060 A 
ATOM     33  C   UNL A   1      42.288  21.385  25.441  1.00  0.00     0.016 A 
ATOM     34  C   UNL A   1      41.977  20.799  27.778  1.00  0.00     0.016 A 
ATOM     35  C   UNL A   1      42.532  22.710  25.793  1.00  0.00     0.010 A 
ATOM     36  C   UNL A   1      42.229  22.127  28.131  1.00  0.00     0.010 A 
ATOM     37  C   UNL A   1      42.547  23.079  27.144  1.00  0.00    -0.014 A 
BRANCH  37  38
ATOM     38  C   UNL A   1      43.057  24.416  27.527  1.00  0.00     0.031 A 
ATOM     39  C   UNL A   1      42.073  25.489  27.902  1.00  0.00     0.074 A 
ATOM     40  C   UNL A   1      44.376  24.668  27.564  1.00  0.00     0.049 A 
ATOM     41  N   UNL A   1      42.292  26.729  28.256  1.00  0.00    -0.248 NA
ATOM     42  C   UNL A   1      40.651  25.112  27.868  1.00  0.00     0.031 C 
ATOM     43  C   UNL A   1      45.430  23.707  27.252  1.00  0.00     0.029 A 
ATOM     44  N   UNL A   1      45.048  25.823  27.874  1.00  0.00    -0.354 N 
ATOM     45  C   UNL A   1      41.037  27.285  28.470  1.00  0.00     0.074 A 
ATOM     46  C   UNL A   1      40.062  26.256  28.179  1.00  0.00     0.031 C 
ATOM     47  C   UNL A   1      46.622  24.317  27.374  1.00  0.00     0.029 A 
ATOM     48  C   UNL A   1      46.409  25.715  27.744  1.00  0.00     0.049 A 
ATOM     49  H   UNL A   1      44.597  26.650  28.162  1.00  0.00     0.167 HD
ATOM     50  C   UNL A   1      40.723  28.539  28.875  1.00  0.00     0.031 A 
ATOM     51  C   UNL A   1      47.374  26.643  27.886  1.00  0.00     0.031 A 
ATOM     52  C   UNL A   1      41.691  29.566  29.153  1.00  0.00     0.049 A 
ATOM     53  C   UNL A   1      47.003  28.045  28.284  1.00  0.00     0.074 A 
ATOM     54  C   UNL A   1      41.475  30.854  29.607  1.00  0.00     0.029 A 
ATOM     55  N   UNL A   1      43.060  29.423  28.987  1.00  0.00    -0.354 N 
ATOM     56  N   UNL A   1      45.817  28.548  28.531  1.00  0.00    -0.248 NA
ATOM     57  C   UNL A   1      48.106  29.005  28.435  1.00  0.00     0.031 C 
ATOM     58  C   UNL A   1      42.709  31.512  29.655  1.00  0.00     0.029 A 
ATOM     59  C   UNL A   1      43.699  30.613  29.293  1.00  0.00     0.049 A 
ATOM     60  H   UNL A   1      43.512  28.598  28.694  1.00  0.00     0.167 HD
ATOM     61  C   UNL A   1      46.031  29.875  28.885  1.00  0.00     0.074 A 
ATOM     62  C   UNL A   1      47.463  30.094  28.835  1.00  0.00     0.031 C 
ATOM     63  C   UNL A   1      45.124  30.823  29.225  1.00  0.00     0.031 A 
BRANCH  50  64
ATOM     64  C   UNL A   1      39.261  28.874  28.988  1.00  0.00    -0.014 A 
ATOM     65  C   UNL A   1      38.537  29.386  27.899  1.00  0.00     0.009 A 
ATOM     66  C   UNL A   1      38.599  28.676  30.209  1.00  0.00     0.009 A 
ATOM     67  C   UNL A   1      37.194  29.738  28.047  1.00  0.00     0.001 A 
ATOM     68  C   UNL A   1      37.248  29.000  30.346  1.00  0.00     0.001 A 
ATOM     69  C   UNL A   1      36.550  29.544  29.268  1.00  0.00     0.000 A 
ENDBRANCH  50  64
BRANCH  51  70
ATOM     70  C   UNL A   1      48.789  26.270  27.628  1.00  0.00    -0.014 A 
ATOM     71  C   UNL A   1      49.610  25.807  28.665  1.00  0.00     0.009 A 
ATOM     72  C   UNL A   1      49.314  26.349  26.328  1.00  0.00     0.009 A 
ATOM     73  C   UNL A   1      50.934  25.441  28.408  1.00  0.00     0.001 A 
ATOM     74  C   UNL A   1      50.629  25.959  26.068  1.00  0.00     0.001 A 
ATOM     75  C   UNL A   1      51.438  25.509  27.109  1.00  0.00     0.000 A 
ENDBRANCH  51  70
BRANCH  63  76
ATOM     76  C   UNL A   1      45.651  32.183  29.592  1.00  0.00    -0.014 A 
ATOM     77  C   UNL A   1      45.784  33.199  28.633  1.00  0.00     0.009 A 
ATOM     78  C   UNL A   1      45.974  32.465  30.929  1.00  0.00     0.009 A 
ATOM     79  C   UNL A   1      46.259  34.460  29.000  1.00  0.00     0.001 A 
ATOM     80  C   UNL A   1      46.421  33.735  31.299  1.00  0.00     0.001 A 
ATOM     81  C   UNL A   1      46.572  34.728  30.332  1.00  0.00     0.000 A 
ENDBRANCH  63  76
ENDBRANCH  37  38
ENDBRANCH  30  32
ENDBRANCH  29  30
ENDBRANCH  28  29
ENDBRANCH  27  28
ENDBRANCH  26  27
ENDBRANCH  25  26
ENDBRANCH   1  25
TORSDOF 21
ENDMDL
MODEL 2
REMARK VINA RESULT:      -9.6      2.260      3.777
REMARK SMILES CCCCNC(=O)[C@@H](C)Oc1ccc(N)cc1C(=O)OCCOCCOC(=O)c1ccc(-c2c3nc(c(-c4ccccc4)c4ccc([nH]4)c(-c4ccccc4)c4nc(c(-c5ccccc5)c5ccc2[nH]5)C=C4)C=C3)cc1
REMARK SMILES IDX 21 1 20 2 18 3 19 4 17 5 11 6 12 7 13 8 16 9 14 10 10 11
REMARK SMILES IDX 8 12 9 13 6 14 5 15 7 17 4 18 3 19 2 20 1 21 15 22 22 25
REMARK SMILES IDX 23 26 24 27 25 28 26 29 27 30 28 31 29 32 30 33 76 34 31 35
REMARK SMILES IDX 75 36 32 37 33 38 34 39 69 40 35 41 74 42 68 43 70 44 36 45
REMARK SMILES IDX 73 46 67 47 66 48 37 50 59 51 44 52 58 53 45 54 48 55 57 56
REMARK SMILES IDX 71 57 46 58 47 59 56 61 72 62 49 63 38 64 39 65 43 66 40 67
REMARK SMILES IDX 42 68 41 69 60 70 61 71 65 72 62 73 64 74 63 75 50 76 51 77
REMARK SMILES IDX 55 78 52 79 54 80 53 81
REMARK H PARENT 5 16 15 23 15 24 70 49 48 60
REMARK Flexibility Score: inf
ROOT
ATOM      1  C   UNL A   1      35.152  24.453  24.402  1.00  0.00     0.261 C 
ENDROOT
BRANCH   1   2
ATOM      2  O   UNL A   1      34.106  25.440  24.409  1.00  0.00    -0.460 OA
BRANCH   2   3
ATOM      3  C   UNL A   1      33.439  25.515  25.581  1.00  0.00     0.342 C 
ATOM      4  O   UNL A   1      33.279  24.591  26.369  1.00  0.00    -0.246 OA
BRANCH   3   5
ATOM      5  C   UNL A   1      32.994  26.884  25.929  1.00  0.00     0.104 A 
ATOM      6  C   UNL A   1      31.672  27.293  26.128  1.00  0.00     0.135 A 
ATOM      7  C   UNL A   1      31.462  28.429  26.905  1.00  0.00     0.049 A 
ATOM      8  C   UNL A   1      32.522  29.295  27.208  1.00  0.00     0.029 A 
ATOM      9  C   UNL A   1      34.044  27.790  26.182  1.00  0.00     0.045 A 
ATOM     10  C   UNL A   1      33.801  29.042  26.730  1.00  0.00     0.032 A 
BRANCH   6  11
ATOM     11  O   UNL A   1      30.608  26.565  25.692  1.00  0.00    -0.480 OA
BRANCH  11  12
ATOM     12  C   UNL A   1      30.036  26.953  24.431  1.00  0.00     0.258 C 
ATOM     13  C   UNL A   1      28.720  26.225  24.142  1.00  0.00     0.064 C 
BRANCH  12  14
ATOM     14  C   UNL A   1      30.867  27.268  23.138  1.00  0.00     0.260 C 
ATOM     15  N   UNL A   1      31.022  28.517  22.604  1.00  0.00    -0.353 N 
ATOM     16  H   UNL A   1      31.761  28.599  21.957  1.00  0.00     0.163 HD
ATOM     17  O   UNL A   1      31.444  26.351  22.540  1.00  0.00    -0.271 OA
BRANCH  15  18
ATOM     18  C   UNL A   1      30.278  29.740  22.833  1.00  0.00     0.116 C 
BRANCH  18  19
ATOM     19  C   UNL A   1      29.508  30.248  21.617  1.00  0.00     0.021 C 
BRANCH  19  20
ATOM     20  C   UNL A   1      27.979  30.131  21.713  1.00  0.00    -0.002 C 
ATOM     21  C   UNL A   1      27.472  29.512  23.011  1.00  0.00     0.004 C 
ENDBRANCH  19  20
ENDBRANCH  18  19
ENDBRANCH  15  18
ENDBRANCH  12  14
ENDBRANCH  11  12
ENDBRANCH   6  11
BRANCH  10  22
ATOM     22  N   UNL A   1      34.834  29.935  26.939  1.00  0.00    -0.399 N 
ATOM     23  H   UNL A   1      34.642  30.897  27.031  1.00  0.00     0.156 HD
ATOM     24  H   UNL A   1      35.762  29.611  26.995  1.00  0.00     0.156 HD
ENDBRANCH  10  22
ENDBRANCH   3   5
ENDBRANCH   2   3
ENDBRANCH   1   2
BRANCH   1  25
ATOM     25  C   UNL A   1      34.789  23.271  23.504  1.00  0.00     0.202 C 
BRANCH  25  26
ATOM     26  O   UNL A   1      35.558  22.082  23.682  1.00  0.00    -0.374 OA
BRANCH  26  27
ATOM     27  C   UNL A   1      35.669  21.576  25.014  1.00  0.00     0.202 C 
BRANCH  27  28
ATOM     28  C   UNL A   1      36.856  20.642  25.277  1.00  0.00     0.261 C 
BRANCH  28  29
ATOM     29  O   UNL A   1      38.111  21.306  25.037  1.00  0.00    -0.460 OA
BRANCH  29  30
ATOM     30  C   UNL A   1      39.088  21.023  25.927  1.00  0.00     0.338 C 
ATOM     31  O   UNL A   1      39.612  19.936  26.135  1.00  0.00    -0.246 OA
BRANCH  30  32
ATOM     32  C   UNL A   1      39.607  22.274  26.513  1.00  0.00     0.060 A 
ATOM     33  C   UNL A   1      39.047  23.478  26.065  1.00  0.00     0.016 A 
ATOM     34  C   UNL A   1      40.649  22.277  27.442  1.00  0.00     0.016 A 
ATOM     35  C   UNL A   1      39.565  24.695  26.503  1.00  0.00     0.010 A 
ATOM     36  C   UNL A   1      41.173  23.499  27.875  1.00  0.00     0.010 A 
ATOM     37  C   UNL A   1      40.660  24.711  27.375  1.00  0.00    -0.014 A 
BRANCH  37  38
ATOM     38  C   UNL A   1      41.367  25.987  27.632  1.00  0.00     0.031 A 
ATOM     39  C   UNL A   1      40.709  27.020  28.504  1.00  0.00     0.074 A 
ATOM     40  C   UNL A   1      42.586  26.218  27.117  1.00  0.00     0.049 A 
ATOM     41  N   UNL A   1      41.136  28.208  28.850  1.00  0.00    -0.248 NA
ATOM     42  C   UNL A   1      39.390  26.667  29.054  1.00  0.00     0.031 C 
ATOM     43  C   UNL A   1      43.342  25.288  26.283  1.00  0.00     0.029 A 
ATOM     44  N   UNL A   1      43.397  27.320  27.220  1.00  0.00    -0.354 N 
ATOM     45  C   UNL A   1      40.132  28.749  29.644  1.00  0.00     0.074 A 
ATOM     46  C   UNL A   1      39.065  27.774  29.703  1.00  0.00     0.031 C 
ATOM     47  C   UNL A   1      44.505  25.864  25.936  1.00  0.00     0.029 A 
ATOM     48  C   UNL A   1      44.560  27.211  26.501  1.00  0.00     0.049 A 
ATOM     49  H   UNL A   1      43.166  28.112  27.756  1.00  0.00     0.167 HD
ATOM     50  C   UNL A   1      40.101  29.950  30.270  1.00  0.00     0.031 A 
ATOM     51  C   UNL A   1      45.548  28.105  26.302  1.00  0.00     0.031 A 
ATOM     52  C   UNL A   1      41.156  30.926  30.201  1.00  0.00     0.049 A 
ATOM     53  C   UNL A   1      45.472  29.454  26.962  1.00  0.00     0.074 A 
ATOM     54  C   UNL A   1      41.237  32.154  30.832  1.00  0.00     0.029 A 
ATOM     55  N   UNL A   1      42.309  30.787  29.443  1.00  0.00    -0.354 N 
ATOM     56  N   UNL A   1      44.540  29.938  27.749  1.00  0.00    -0.248 NA
ATOM     57  C   UNL A   1      46.590  30.376  26.715  1.00  0.00     0.031 C 
ATOM     58  C   UNL A   1      42.410  32.787  30.405  1.00  0.00     0.029 A 
ATOM     59  C   UNL A   1      43.090  31.925  29.560  1.00  0.00     0.049 A 
ATOM     60  H   UNL A   1      42.538  29.997  28.902  1.00  0.00     0.167 HD
ATOM     61  C   UNL A   1      44.969  31.212  28.106  1.00  0.00     0.074 A 
ATOM     62  C   UNL A   1      46.250  31.418  27.462  1.00  0.00     0.031 C 
ATOM     63  C   UNL A   1      44.356  32.124  28.901  1.00  0.00     0.031 A 
BRANCH  50  64
ATOM     64  C   UNL A   1      38.854  30.287  31.040  1.00  0.00    -0.014 A 
ATOM     65  C   UNL A   1      37.773  30.950  30.437  1.00  0.00     0.009 A 
ATOM     66  C   UNL A   1      38.763  29.936  32.395  1.00  0.00     0.009 A 
ATOM     67  C   UNL A   1      36.649  31.298  31.189  1.00  0.00     0.001 A 
ATOM     68  C   UNL A   1      37.624  30.258  33.138  1.00  0.00     0.001 A 
ATOM     69  C   UNL A   1      36.575  30.951  32.537  1.00  0.00     0.000 A 
ENDBRANCH  50  64
BRANCH  51  70
ATOM     70  C   UNL A   1      46.687  27.748  25.419  1.00  0.00    -0.014 A 
ATOM     71  C   UNL A   1      46.643  28.017  24.044  1.00  0.00     0.009 A 
ATOM     72  C   UNL A   1      47.842  27.159  25.960  1.00  0.00     0.009 A 
ATOM     73  C   UNL A   1      47.729  27.693  23.226  1.00  0.00     0.001 A 
ATOM     74  C   UNL A   1      48.936  26.861  25.146  1.00  0.00     0.001 A 
ATOM     75  C   UNL A   1      48.876  27.124  23.779  1.00  0.00     0.000 A 
ENDBRANCH  51  70
BRANCH  63  76
ATOM     76  C   UNL A   1      45.074  33.424  29.139  1.00  0.00    -0.014 A 
ATOM     77  C   UNL A   1      44.847  34.544  28.322  1.00  0.00     0.009 A 
ATOM     78  C   UNL A   1      45.954  33.544  30.226  1.00  0.00     0.009 A 
ATOM     79  C   UNL A   1      45.511  35.747  28.572  1.00  0.00     0.001 A 
ATOM     80  C   UNL A   1      46.594  34.757  30.491  1.00  0.00     0.001 A 
ATOM     81  C   UNL A   1      46.379  35.853  29.658  1.00  0.00     0.000 A 
ENDBRANCH  63  76
ENDBRANCH  37  38
ENDBRANCH  30  32
ENDBRANCH  29  30
ENDBRANCH  28  29
ENDBRANCH  27  28
ENDBRANCH  26  27
ENDBRANCH  25  26
ENDBRANCH   1  25
TORSDOF 21
ENDMDL
MODEL 3
REMARK VINA RESULT:      -9.6      2.990      7.528
REMARK SMILES CCCCNC(=O)[C@@H](C)Oc1ccc(N)cc1C(=O)OCCOCCOC(=O)c1ccc(-c2c3nc(c(-c4ccccc4)c4ccc([nH]4)c(-c4ccccc4)c4nc(c(-c5ccccc5)c5ccc2[nH]5)C=C4)C=C3)cc1
REMARK SMILES IDX 21 1 20 2 18 3 19 4 17 5 11 6 12 7 13 8 16 9 14 10 10 11
REMARK SMILES IDX 8 12 9 13 6 14 5 15 7 17 4 18 3 19 2 20 1 21 15 22 22 25
REMARK SMILES IDX 23 26 24 27 25 28 26 29 27 30 28 31 29 32 30 33 76 34 31 35
REMARK SMILES IDX 75 36 32 37 33 38 34 39 69 40 35 41 74 42 68 43 70 44 36 45
REMARK SMILES IDX 73 46 67 47 66 48 37 50 59 51 44 52 58 53 45 54 48 55 57 56
REMARK SMILES IDX 71 57 46 58 47 59 56 61 72 62 49 63 38 64 39 65 43 66 40 67
REMARK SMILES IDX 42 68 41 69 60 70 61 71 65 72 62 73 64 74 63 75 50 76 51 77
REMARK SMILES IDX 55 78 52 79 54 80 53 81
REMARK H PARENT 5 16 15 23 15 24 70 49 48 60
REMARK Flexibility Score: inf
ROOT
ATOM      1  C   UNL A   1      34.008  28.134  23.688  1.00  0.00     0.261 C 
ENDROOT
BRANCH   1   2
ATOM      2  O   UNL A   1      34.099  26.744  23.330  1.00  0.00    -0.460 OA
BRANCH   2   3
ATOM      3  C   UNL A   1      33.157  26.349  22.446  1.00  0.00     0.342 C 
ATOM      4  O   UNL A   1      33.375  25.872  21.339  1.00  0.00    -0.246 OA
BRANCH   3   5
ATOM      5  C   UNL A   1      31.775  26.422  22.973  1.00  0.00     0.104 A 
ATOM      6  C   UNL A   1      31.250  25.650  24.013  1.00  0.00     0.135 A 
ATOM      7  C   UNL A   1      30.149  26.159  24.698  1.00  0.00     0.049 A 
ATOM      8  C   UNL A   1      29.415  27.231  24.175  1.00  0.00     0.029 A 
ATOM      9  C   UNL A   1      30.996  27.459  22.420  1.00  0.00     0.045 A 
ATOM     10  C   UNL A   1      29.762  27.801  22.958  1.00  0.00     0.032 A 
BRANCH   6  11
ATOM     11  O   UNL A   1      31.839  24.499  24.438  1.00  0.00    -0.480 OA
BRANCH  11  12
ATOM     12  C   UNL A   1      32.172  24.424  25.835  1.00  0.00     0.258 C 
ATOM     13  C   UNL A   1      33.641  24.767  26.101  1.00  0.00     0.064 C 
BRANCH  12  14
ATOM     14  C   UNL A   1      31.594  23.358  26.830  1.00  0.00     0.260 C 
ATOM     15  N   UNL A   1      32.289  22.274  27.292  1.00  0.00    -0.353 N 
ATOM     16  H   UNL A   1      31.899  21.845  28.088  1.00  0.00     0.163 HD
ATOM     17  O   UNL A   1      30.438  23.478  27.256  1.00  0.00    -0.271 OA
BRANCH  15  18
ATOM     18  C   UNL A   1      33.504  21.654  26.802  1.00  0.00     0.116 C 
BRANCH  18  19
ATOM     19  C   UNL A   1      33.279  20.546  25.777  1.00  0.00     0.021 C 
BRANCH  19  20
ATOM     20  C   UNL A   1      33.571  20.931  24.319  1.00  0.00    -0.002 C 
ATOM     21  C   UNL A   1      32.333  21.255  23.491  1.00  0.00     0.004 C 
ENDBRANCH  19  20
ENDBRANCH  18  19
ENDBRANCH  15  18
ENDBRANCH  12  14
ENDBRANCH  11  12
ENDBRANCH   6  11
BRANCH  10  22
ATOM     22  N   UNL A   1      28.992  28.794  22.384  1.00  0.00    -0.399 N 
ATOM     23  H   UNL A   1      28.081  28.964  22.718  1.00  0.00     0.156 HD
ATOM     24  H   UNL A   1      29.352  29.330  21.642  1.00  0.00     0.156 HD
ENDBRANCH  10  22
ENDBRANCH   3   5
ENDBRANCH   2   3
ENDBRANCH   1   2
BRANCH   1  25
ATOM     25  C   UNL A   1      33.905  28.308  25.203  1.00  0.00     0.202 C 
BRANCH  25  26
ATOM     26  O   UNL A   1      32.630  28.705  25.708  1.00  0.00    -0.374 OA
BRANCH  26  27
ATOM     27  C   UNL A   1      32.318  30.099  25.653  1.00  0.00     0.202 C 
BRANCH  27  28
ATOM     28  C   UNL A   1      32.657  30.910  26.909  1.00  0.00     0.261 C 
BRANCH  28  29
ATOM     29  O   UNL A   1      33.621  30.226  27.732  1.00  0.00    -0.460 OA
BRANCH  29  30
ATOM     30  C   UNL A   1      34.560  31.020  28.294  1.00  0.00     0.338 C 
ATOM     31  O   UNL A   1      34.394  32.125  28.797  1.00  0.00    -0.246 OA
BRANCH  30  32
ATOM     32  C   UNL A   1      35.833  30.284  28.407  1.00  0.00     0.060 A 
ATOM     33  C   UNL A   1      36.140  29.709  29.648  1.00  0.00     0.016 A 
ATOM     34  C   UNL A   1      36.732  30.196  27.342  1.00  0.00     0.016 A 
ATOM     35  C   UNL A   1      37.372  29.092  29.847  1.00  0.00     0.010 A 
ATOM     36  C   UNL A   1      37.971  29.582  27.545  1.00  0.00     0.010 A 
ATOM     37  C   UNL A   1      38.312  29.065  28.809  1.00  0.00    -0.014 A 
BRANCH  37  38
ATOM     38  C   UNL A   1      39.703  28.644  29.098  1.00  0.00     0.031 A 
ATOM     39  C   UNL A   1      40.616  29.597  29.818  1.00  0.00     0.074 A 
ATOM     40  C   UNL A   1      40.143  27.425  28.746  1.00  0.00     0.049 A 
ATOM     41  N   UNL A   1      41.869  29.446  30.161  1.00  0.00    -0.248 NA
ATOM     42  C   UNL A   1      40.037  30.896  30.197  1.00  0.00     0.031 C 
ATOM     43  C   UNL A   1      39.351  26.401  28.071  1.00  0.00     0.029 A 
ATOM     44  N   UNL A   1      41.379  26.850  28.905  1.00  0.00    -0.354 N 
ATOM     45  C   UNL A   1      42.233  30.635  30.780  1.00  0.00     0.074 A 
ATOM     46  C   UNL A   1      41.079  31.506  30.739  1.00  0.00     0.031 C 
ATOM     47  C   UNL A   1      40.124  25.323  27.860  1.00  0.00     0.029 A 
ATOM     48  C   UNL A   1      41.471  25.594  28.360  1.00  0.00     0.049 A 
ATOM     49  H   UNL A   1      42.127  27.295  29.365  1.00  0.00     0.167 HD
ATOM     50  C   UNL A   1      43.422  30.972  31.336  1.00  0.00     0.031 A 
ATOM     51  C   UNL A   1      42.528  24.766  28.256  1.00  0.00     0.031 A 
ATOM     52  C   UNL A   1      44.574  30.111  31.366  1.00  0.00     0.049 A 
ATOM     53  C   UNL A   1      43.854  25.178  28.831  1.00  0.00     0.074 A 
ATOM     54  C   UNL A   1      45.811  30.346  31.941  1.00  0.00     0.029 A 
ATOM     55  N   UNL A   1      44.635  28.855  30.783  1.00  0.00    -0.354 N 
ATOM     56  N   UNL A   1      44.175  26.286  29.457  1.00  0.00    -0.248 NA
ATOM     57  C   UNL A   1      44.962  24.221  28.696  1.00  0.00     0.031 C 
ATOM     58  C   UNL A   1      46.640  29.257  31.649  1.00  0.00     0.029 A 
ATOM     59  C   UNL A   1      45.899  28.317  30.950  1.00  0.00     0.049 A 
ATOM     60  H   UNL A   1      43.888  28.411  30.318  1.00  0.00     0.167 HD
ATOM     61  C   UNL A   1      45.514  26.151  29.807  1.00  0.00     0.074 A 
ATOM     62  C   UNL A   1      45.939  24.848  29.336  1.00  0.00     0.031 C 
ATOM     63  C   UNL A   1      46.315  27.026  30.464  1.00  0.00     0.031 A 
BRANCH  50  64
ATOM     64  C   UNL A   1      43.540  32.358  31.909  1.00  0.00    -0.014 A 
ATOM     65  C   UNL A   1      43.956  33.446  31.124  1.00  0.00     0.009 A 
ATOM     66  C   UNL A   1      43.230  32.576  33.260  1.00  0.00     0.009 A 
ATOM     67  C   UNL A   1      44.107  34.711  31.695  1.00  0.00     0.001 A 
ATOM     68  C   UNL A   1      43.353  33.849  33.821  1.00  0.00     0.001 A 
ATOM     69  C   UNL A   1      43.805  34.912  33.041  1.00  0.00     0.000 A 
ENDBRANCH  50  64
BRANCH  51  70
ATOM     70  C   UNL A   1      42.367  23.464  27.558  1.00  0.00    -0.014 A 
ATOM     71  C   UNL A   1      42.699  23.330  26.202  1.00  0.00     0.009 A 
ATOM     72  C   UNL A   1      41.907  22.339  28.260  1.00  0.00     0.009 A 
ATOM     73  C   UNL A   1      42.562  22.096  25.561  1.00  0.00     0.001 A 
ATOM     74  C   UNL A   1      41.795  21.101  27.624  1.00  0.00     0.001 A 
ATOM     75  C   UNL A   1      42.118  20.983  26.274  1.00  0.00     0.000 A 
ENDBRANCH  51  70
BRANCH  63  76
ATOM     76  C   UNL A   1      47.731  26.597  30.733  1.00  0.00    -0.014 A 
ATOM     77  C   UNL A   1      48.768  26.892  29.834  1.00  0.00     0.009 A 
ATOM     78  C   UNL A   1      48.039  25.928  31.929  1.00  0.00     0.009 A 
ATOM     79  C   UNL A   1      50.079  26.499  30.113  1.00  0.00     0.001 A 
ATOM     80  C   UNL A   1      49.355  25.563  32.219  1.00  0.00     0.001 A 
ATOM     81  C   UNL A   1      50.371  25.841  31.307  1.00  0.00     0.000 A 
ENDBRANCH  63  76
ENDBRANCH  37  38
ENDBRANCH  30  32
ENDBRANCH  29  30
ENDBRANCH  28  29
ENDBRANCH  27  28
ENDBRANCH  26  27
ENDBRANCH  25  26
ENDBRANCH   1  25
TORSDOF 21
ENDMDL
