MODEL 1
REMARK VINA RESULT:      -9.5      0.000      0.000
REMARK SMILES O=C(N[C@@H](CS)C(=O)N[C@@H](CO)C(=O)OCCOCCOC(=O)c1ccc(-c2c3nc(c(-c4ccccc4)c4ccc([nH]4)c(-c4ccccc4)c4nc(c(-c5ccccc5)c5ccc2[nH]5)C=C4)C=C3)cc1)c1ccc(F)cc1
REMARK SMILES IDX 17 1 16 2 15 3 13 4 14 5 10 6 9 7 7 8 8 9 4 11 3 12 1 13
REMARK SMILES IDX 2 14 72 16 73 17 78 18 74 19 77 20 75 21 76 22 5 23 6 24
REMARK SMILES IDX 11 26 12 27 18 29 19 30 20 31 21 32 22 33 23 34 24 35 25 36
REMARK SMILES IDX 71 37 26 38 70 39 27 40 28 41 29 42 64 43 30 44 69 45 63 46
REMARK SMILES IDX 65 47 31 48 68 49 62 50 61 51 32 53 54 54 39 55 53 56 40 57
REMARK SMILES IDX 43 58 52 59 66 60 41 61 42 62 51 64 67 65 44 66 33 67 34 68
REMARK SMILES IDX 38 69 35 70 37 71 36 72 55 73 56 74 60 75 57 76 59 77 58 78
REMARK SMILES IDX 45 79 46 80 50 81 47 82 49 83 48 84
REMARK H PARENT 9 10 3 15 6 25 12 28 65 52 43 63
REMARK Flexibility Score: inf
ROOT
ATOM      1  C   UNL A   1      30.981  27.056  24.771  1.00  0.00     0.202 C 
ENDROOT
BRANCH   1   2
ATOM      2  C   UNL A   1      31.960  25.883  24.854  1.00  0.00     0.261 C 
BRANCH   2   3
ATOM      3  O   UNL A   1      31.464  24.865  25.739  1.00  0.00    -0.462 OA
BRANCH   3   4
ATOM      4  C   UNL A   1      30.946  23.763  25.127  1.00  0.00     0.331 C 
ATOM      5  O   UNL A   1      30.612  23.709  23.949  1.00  0.00    -0.250 OA
BRANCH   4   6
ATOM      6  C   UNL A   1      30.797  22.578  26.095  1.00  0.00     0.218 C 
BRANCH   6   7
ATOM      7  N   UNL A   1      32.062  22.141  26.708  1.00  0.00    -0.339 N 
ATOM      8  C   UNL A   1      33.136  21.461  26.241  1.00  0.00     0.244 C 
ATOM      9  O   UNL A   1      34.127  21.437  26.983  1.00  0.00    -0.273 OA
ATOM     10  H   UNL A   1      32.144  22.397  27.656  1.00  0.00     0.164 HD
BRANCH   8  11
ATOM     11  C   UNL A   1      33.244  20.825  24.838  1.00  0.00     0.181 C 
BRANCH  11  12
ATOM     12  N   UNL A   1      33.386  21.770  23.728  1.00  0.00    -0.339 N 
ATOM     13  O   UNL A   1      34.227  23.499  22.577  1.00  0.00    -0.269 OA
ATOM     14  C   UNL A   1      34.384  22.677  23.475  1.00  0.00     0.251 C 
ATOM     15  H   UNL A   1      32.657  21.751  23.067  1.00  0.00     0.164 HD
BRANCH  14  16
ATOM     16  C   UNL A   1      35.617  22.716  24.293  1.00  0.00     0.040 A 
ATOM     17  C   UNL A   1      36.628  21.755  24.153  1.00  0.00     0.017 A 
ATOM     18  C   UNL A   1      35.785  23.782  25.187  1.00  0.00     0.017 A 
ATOM     19  C   UNL A   1      37.758  21.812  24.971  1.00  0.00     0.040 A 
ATOM     20  C   UNL A   1      36.927  23.845  25.988  1.00  0.00     0.040 A 
ATOM     21  C   UNL A   1      37.894  22.851  25.884  1.00  0.00     0.123 A 
ATOM     22  F   UNL A   1      38.977  22.900  26.669  1.00  0.00    -0.207 F 
ENDBRANCH  14  16
ENDBRANCH  11  12
BRANCH  11  23
ATOM     23  C   UNL A   1      34.208  19.626  24.780  1.00  0.00     0.101 C 
BRANCH  23  24
ATOM     24  S   UNL A   1      33.541  18.082  24.089  1.00  0.00    -0.177 SA
ATOM     25  H   UNL A   1      32.503  17.654  24.857  1.00  0.00     0.102 HD
ENDBRANCH  23  24
ENDBRANCH  11  23
ENDBRANCH   8  11
ENDBRANCH   6   7
BRANCH   6  26
ATOM     26  C   UNL A   1      29.784  22.973  27.172  1.00  0.00     0.193 C 
BRANCH  26  27
ATOM     27  O   UNL A   1      29.071  24.154  26.798  1.00  0.00    -0.394 OA
ATOM     28  H   UNL A   1      29.703  24.865  26.607  1.00  0.00     0.210 HD
ENDBRANCH  26  27
ENDBRANCH   6  26
ENDBRANCH   4   6
ENDBRANCH   3   4
ENDBRANCH   2   3
ENDBRANCH   1   2
BRANCH   1  29
ATOM     29  O   UNL A   1      31.549  28.360  24.887  1.00  0.00    -0.374 OA
BRANCH  29  30
ATOM     30  C   UNL A   1      32.087  28.734  26.154  1.00  0.00     0.202 C 
BRANCH  30  31
ATOM     31  C   UNL A   1      33.616  28.790  26.264  1.00  0.00     0.261 C 
BRANCH  31  32
ATOM     32  O   UNL A   1      34.069  28.890  27.624  1.00  0.00    -0.460 OA
BRANCH  32  33
ATOM     33  C   UNL A   1      34.581  30.096  27.957  1.00  0.00     0.338 C 
ATOM     34  O   UNL A   1      33.981  31.161  28.056  1.00  0.00    -0.246 OA
BRANCH  33  35
ATOM     35  C   UNL A   1      35.983  29.956  28.372  1.00  0.00     0.060 A 
ATOM     36  C   UNL A   1      36.967  30.155  27.396  1.00  0.00     0.016 A 
ATOM     37  C   UNL A   1      36.328  29.543  29.660  1.00  0.00     0.016 A 
ATOM     38  C   UNL A   1      38.302  29.895  27.690  1.00  0.00     0.010 A 
ATOM     39  C   UNL A   1      37.669  29.270  29.951  1.00  0.00     0.010 A 
ATOM     40  C   UNL A   1      38.654  29.411  28.957  1.00  0.00    -0.014 A 
BRANCH  40  41
ATOM     41  C   UNL A   1      40.030  28.907  29.178  1.00  0.00     0.031 A 
ATOM     42  C   UNL A   1      41.028  29.794  29.869  1.00  0.00     0.074 A 
ATOM     43  C   UNL A   1      40.372  27.660  28.812  1.00  0.00     0.049 A 
ATOM     44  N   UNL A   1      42.279  29.556  30.169  1.00  0.00    -0.248 NA
ATOM     45  C   UNL A   1      40.549  31.124  30.281  1.00  0.00     0.031 C 
ATOM     46  C   UNL A   1      39.479  26.689  28.179  1.00  0.00     0.029 A 
ATOM     47  N   UNL A   1      41.567  26.998  28.923  1.00  0.00    -0.354 N 
ATOM     48  C   UNL A   1      42.738  30.706  30.800  1.00  0.00     0.074 A 
ATOM     49  C   UNL A   1      41.642  31.650  30.816  1.00  0.00     0.031 C 
ATOM     50  C   UNL A   1      40.162  25.553  27.956  1.00  0.00     0.029 A 
ATOM     51  C   UNL A   1      41.542  25.729  28.402  1.00  0.00     0.049 A 
ATOM     52  H   UNL A   1      42.367  27.395  29.338  1.00  0.00     0.167 HD
ATOM     53  C   UNL A   1      43.962  30.953  31.326  1.00  0.00     0.031 A 
ATOM     54  C   UNL A   1      42.529  24.819  28.282  1.00  0.00     0.031 A 
ATOM     55  C   UNL A   1      45.058  30.022  31.296  1.00  0.00     0.049 A 
ATOM     56  C   UNL A   1      43.903  25.149  28.798  1.00  0.00     0.074 A 
ATOM     57  C   UNL A   1      46.334  30.174  31.810  1.00  0.00     0.029 A 
ATOM     58  N   UNL A   1      45.007  28.766  30.712  1.00  0.00    -0.354 N 
ATOM     59  N   UNL A   1      44.319  26.230  29.413  1.00  0.00    -0.248 NA
ATOM     60  C   UNL A   1      44.944  24.128  28.607  1.00  0.00     0.031 C 
ATOM     61  C   UNL A   1      47.072  29.029  31.489  1.00  0.00     0.029 A 
ATOM     62  C   UNL A   1      46.238  28.143  30.825  1.00  0.00     0.049 A 
ATOM     63  H   UNL A   1      44.214  28.375  30.281  1.00  0.00     0.167 HD
ATOM     64  C   UNL A   1      45.659  26.009  29.704  1.00  0.00     0.074 A 
ATOM     65  C   UNL A   1      45.983  24.686  29.211  1.00  0.00     0.031 C 
ATOM     66  C   UNL A   1      46.543  26.828  30.324  1.00  0.00     0.031 A 
BRANCH  53  67
ATOM     67  C   UNL A   1      44.188  32.304  31.943  1.00  0.00    -0.014 A 
ATOM     68  C   UNL A   1      44.645  33.388  31.177  1.00  0.00     0.009 A 
ATOM     69  C   UNL A   1      43.916  32.500  33.306  1.00  0.00     0.009 A 
ATOM     70  C   UNL A   1      44.857  34.634  31.773  1.00  0.00     0.001 A 
ATOM     71  C   UNL A   1      44.103  33.752  33.892  1.00  0.00     0.001 A 
ATOM     72  C   UNL A   1      44.582  34.816  33.129  1.00  0.00     0.000 A 
ENDBRANCH  53  67
BRANCH  54  73
ATOM     73  C   UNL A   1      42.260  23.513  27.627  1.00  0.00    -0.014 A 
ATOM     74  C   UNL A   1      41.907  22.388  28.387  1.00  0.00     0.009 A 
ATOM     75  C   UNL A   1      42.372  23.383  26.233  1.00  0.00     0.009 A 
ATOM     76  C   UNL A   1      41.695  21.154  27.767  1.00  0.00     0.001 A 
ATOM     77  C   UNL A   1      42.133  22.155  25.615  1.00  0.00     0.001 A 
ATOM     78  C   UNL A   1      41.804  21.039  26.382  1.00  0.00     0.000 A 
ENDBRANCH  54  73
BRANCH  66  79
ATOM     79  C   UNL A   1      47.937  26.304  30.531  1.00  0.00    -0.014 A 
ATOM     80  C   UNL A   1      48.322  25.721  31.749  1.00  0.00     0.009 A 
ATOM     81  C   UNL A   1      48.863  26.358  29.478  1.00  0.00     0.009 A 
ATOM     82  C   UNL A   1      49.619  25.231  31.916  1.00  0.00     0.001 A 
ATOM     83  C   UNL A   1      50.150  25.842  29.640  1.00  0.00     0.001 A 
ATOM     84  C   UNL A   1      50.530  25.288  30.861  1.00  0.00     0.000 A 
ENDBRANCH  66  79
ENDBRANCH  40  41
ENDBRANCH  33  35
ENDBRANCH  32  33
ENDBRANCH  31  32
ENDBRANCH  30  31
ENDBRANCH  29  30
ENDBRANCH   1  29
TORSDOF 22
ENDMDL
MODEL 2
REMARK VINA RESULT:      -9.0      3.473      5.613
REMARK SMILES O=C(N[C@@H](CS)C(=O)N[C@@H](CO)C(=O)OCCOCCOC(=O)c1ccc(-c2c3nc(c(-c4ccccc4)c4ccc([nH]4)c(-c4ccccc4)c4nc(c(-c5ccccc5)c5ccc2[nH]5)C=C4)C=C3)cc1)c1ccc(F)cc1
REMARK SMILES IDX 17 1 16 2 15 3 13 4 14 5 10 6 9 7 7 8 8 9 4 11 3 12 1 13
REMARK SMILES IDX 2 14 72 16 73 17 78 18 74 19 77 20 75 21 76 22 5 23 6 24
REMARK SMILES IDX 11 26 12 27 18 29 19 30 20 31 21 32 22 33 23 34 24 35 25 36
REMARK SMILES IDX 71 37 26 38 70 39 27 40 28 41 29 42 64 43 30 44 69 45 63 46
REMARK SMILES IDX 65 47 31 48 68 49 62 50 61 51 32 53 54 54 39 55 53 56 40 57
REMARK SMILES IDX 43 58 52 59 66 60 41 61 42 62 51 64 67 65 44 66 33 67 34 68
REMARK SMILES IDX 38 69 35 70 37 71 36 72 55 73 56 74 60 75 57 76 59 77 58 78
REMARK SMILES IDX 45 79 46 80 50 81 47 82 49 83 48 84
REMARK H PARENT 9 10 3 15 6 25 12 28 65 52 43 63
REMARK Flexibility Score: inf
ROOT
ATOM      1  C   UNL A   1      34.105  33.991  28.716  1.00  0.00     0.202 C 
ENDROOT
BRANCH   1   2
ATOM      2  C   UNL A   1      34.636  32.888  27.798  1.00  0.00     0.261 C 
BRANCH   2   3
ATOM      3  O   UNL A   1      34.272  31.590  28.296  1.00  0.00    -0.462 OA
BRANCH   3   4
ATOM      4  C   UNL A   1      33.478  30.851  27.471  1.00  0.00     0.331 C 
ATOM      5  O   UNL A   1      32.375  31.200  27.064  1.00  0.00    -0.250 OA
BRANCH   4   6
ATOM      6  C   UNL A   1      34.110  29.494  27.119  1.00  0.00     0.218 C 
BRANCH   6   7
ATOM      7  N   UNL A   1      34.264  29.263  25.674  1.00  0.00    -0.339 N 
ATOM      8  C   UNL A   1      34.164  28.161  24.891  1.00  0.00     0.244 C 
ATOM      9  O   UNL A   1      34.160  28.362  23.669  1.00  0.00    -0.273 OA
ATOM     10  H   UNL A   1      34.488  30.080  25.170  1.00  0.00     0.164 HD
BRANCH   8  11
ATOM     11  C   UNL A   1      33.947  26.722  25.407  1.00  0.00     0.181 C 
BRANCH  11  12
ATOM     12  N   UNL A   1      32.779  26.531  26.268  1.00  0.00    -0.339 N 
ATOM     13  O   UNL A   1      30.697  26.854  27.033  1.00  0.00    -0.269 OA
ATOM     14  C   UNL A   1      31.491  26.979  26.105  1.00  0.00     0.251 C 
ATOM     15  H   UNL A   1      32.941  26.005  27.083  1.00  0.00     0.164 HD
BRANCH  14  16
ATOM     16  C   UNL A   1      31.060  27.650  24.859  1.00  0.00     0.040 A 
ATOM     17  C   UNL A   1      30.792  26.932  23.686  1.00  0.00     0.017 A 
ATOM     18  C   UNL A   1      30.865  29.038  24.889  1.00  0.00     0.017 A 
ATOM     19  C   UNL A   1      30.421  27.611  22.524  1.00  0.00     0.040 A 
ATOM     20  C   UNL A   1      30.473  29.711  23.729  1.00  0.00     0.040 A 
ATOM     21  C   UNL A   1      30.271  28.993  22.554  1.00  0.00     0.123 A 
ATOM     22  F   UNL A   1      29.919  29.642  21.438  1.00  0.00    -0.207 F 
ENDBRANCH  14  16
ENDBRANCH  11  12
BRANCH  11  23
ATOM     23  C   UNL A   1      34.118  25.648  24.317  1.00  0.00     0.101 C 
BRANCH  23  24
ATOM     24  S   UNL A   1      33.867  23.922  24.832  1.00  0.00    -0.177 SA
ATOM     25  H   UNL A   1      32.537  23.684  24.983  1.00  0.00     0.102 HD
ENDBRANCH  23  24
ENDBRANCH  11  23
ENDBRANCH   8  11
ENDBRANCH   6   7
BRANCH   6  26
ATOM     26  C   UNL A   1      35.463  29.407  27.827  1.00  0.00     0.193 C 
BRANCH  26  27
ATOM     27  O   UNL A   1      36.478  30.082  27.082  1.00  0.00    -0.394 OA
ATOM     28  H   UNL A   1      36.255  30.060  26.138  1.00  0.00     0.210 HD
ENDBRANCH  26  27
ENDBRANCH   6  26
ENDBRANCH   4   6
ENDBRANCH   3   4
ENDBRANCH   2   3
ENDBRANCH   1   2
BRANCH   1  29
ATOM     29  O   UNL A   1      34.047  33.680  30.107  1.00  0.00    -0.374 OA
BRANCH  29  30
ATOM     30  C   UNL A   1      33.869  34.765  31.017  1.00  0.00     0.202 C 
BRANCH  30  31
ATOM     31  C   UNL A   1      34.609  34.667  32.358  1.00  0.00     0.261 C 
BRANCH  31  32
ATOM     32  O   UNL A   1      35.963  34.210  32.209  1.00  0.00    -0.460 OA
BRANCH  32  33
ATOM     33  C   UNL A   1      36.244  33.067  32.874  1.00  0.00     0.338 C 
ATOM     34  O   UNL A   1      35.752  32.674  33.927  1.00  0.00    -0.246 OA
BRANCH  33  35
ATOM     35  C   UNL A   1      37.131  32.217  32.070  1.00  0.00     0.060 A 
ATOM     36  C   UNL A   1      38.096  31.465  32.752  1.00  0.00     0.016 A 
ATOM     37  C   UNL A   1      37.089  32.225  30.674  1.00  0.00     0.016 A 
ATOM     38  C   UNL A   1      39.058  30.755  32.039  1.00  0.00     0.010 A 
ATOM     39  C   UNL A   1      38.063  31.521  29.959  1.00  0.00     0.010 A 
ATOM     40  C   UNL A   1      39.071  30.814  30.639  1.00  0.00    -0.014 A 
BRANCH  40  41
ATOM     41  C   UNL A   1      40.234  30.262  29.906  1.00  0.00     0.031 A 
ATOM     42  C   UNL A   1      41.462  31.114  29.740  1.00  0.00     0.074 A 
ATOM     43  C   UNL A   1      40.215  29.003  29.437  1.00  0.00     0.049 A 
ATOM     44  N   UNL A   1      42.590  30.833  29.142  1.00  0.00    -0.248 NA
ATOM     45  C   UNL A   1      41.411  32.461  30.332  1.00  0.00     0.031 C 
ATOM     46  C   UNL A   1      39.103  28.063  29.580  1.00  0.00     0.029 A 
ATOM     47  N   UNL A   1      41.167  28.299  28.745  1.00  0.00    -0.354 N 
ATOM     48  C   UNL A   1      43.382  31.967  29.281  1.00  0.00     0.074 A 
ATOM     49  C   UNL A   1      42.596  32.949  29.995  1.00  0.00     0.031 C 
ATOM     50  C   UNL A   1      39.437  26.903  28.988  1.00  0.00     0.029 A 
ATOM     51  C   UNL A   1      40.770  27.031  28.403  1.00  0.00     0.049 A 
ATOM     52  H   UNL A   1      42.051  28.668  28.516  1.00  0.00     0.167 HD
ATOM     53  C   UNL A   1      44.652  32.170  28.857  1.00  0.00     0.031 A 
ATOM     54  C   UNL A   1      41.406  26.086  27.682  1.00  0.00     0.031 A 
ATOM     55  C   UNL A   1      45.428  31.200  28.132  1.00  0.00     0.049 A 
ATOM     56  C   UNL A   1      42.784  26.367  27.150  1.00  0.00     0.074 A 
ATOM     57  C   UNL A   1      46.728  31.308  27.668  1.00  0.00     0.029 A 
ATOM     58  N   UNL A   1      44.971  29.946  27.760  1.00  0.00    -0.354 N 
ATOM     59  N   UNL A   1      43.530  27.434  27.307  1.00  0.00    -0.248 NA
ATOM     60  C   UNL A   1      43.410  25.309  26.343  1.00  0.00     0.031 C 
ATOM     61  C   UNL A   1      47.038  30.137  26.967  1.00  0.00     0.029 A 
ATOM     62  C   UNL A   1      45.952  29.280  27.045  1.00  0.00     0.049 A 
ATOM     63  H   UNL A   1      44.082  29.583  27.973  1.00  0.00     0.167 HD
ATOM     64  C   UNL A   1      44.721  27.166  26.643  1.00  0.00     0.074 A 
ATOM     65  C   UNL A   1      44.603  25.831  26.093  1.00  0.00     0.031 C 
ATOM     66  C   UNL A   1      45.814  27.954  26.501  1.00  0.00     0.031 A 
BRANCH  53  67
ATOM     67  C   UNL A   1      45.265  33.514  29.136  1.00  0.00    -0.014 A 
ATOM     68  C   UNL A   1      45.124  34.580  28.234  1.00  0.00     0.009 A 
ATOM     69  C   UNL A   1      45.972  33.721  30.330  1.00  0.00     0.009 A 
ATOM     70  C   UNL A   1      45.710  35.819  28.508  1.00  0.00     0.001 A 
ATOM     71  C   UNL A   1      46.533  34.967  30.613  1.00  0.00     0.001 A 
ATOM     72  C   UNL A   1      46.410  36.012  29.699  1.00  0.00     0.000 A 
ENDBRANCH  53  67
BRANCH  54  73
ATOM     73  C   UNL A   1      40.737  24.789  27.403  1.00  0.00    -0.014 A 
ATOM     74  C   UNL A   1      41.226  23.596  27.954  1.00  0.00     0.009 A 
ATOM     75  C   UNL A   1      39.611  24.738  26.566  1.00  0.00     0.009 A 
ATOM     76  C   UNL A   1      40.615  22.375  27.654  1.00  0.00     0.001 A 
ATOM     77  C   UNL A   1      38.986  23.521  26.290  1.00  0.00     0.001 A 
ATOM     78  C   UNL A   1      39.494  22.339  26.827  1.00  0.00     0.000 A 
ENDBRANCH  54  73
BRANCH  66  79
ATOM     79  C   UNL A   1      46.980  27.381  25.746  1.00  0.00    -0.014 A 
ATOM     80  C   UNL A   1      47.924  26.557  26.379  1.00  0.00     0.009 A 
ATOM     81  C   UNL A   1      47.113  27.637  24.372  1.00  0.00     0.009 A 
ATOM     82  C   UNL A   1      48.995  26.027  25.656  1.00  0.00     0.001 A 
ATOM     83  C   UNL A   1      48.168  27.083  23.647  1.00  0.00     0.001 A 
ATOM     84  C   UNL A   1      49.113  26.286  24.291  1.00  0.00     0.000 A 
ENDBRANCH  66  79
ENDBRANCH  40  41
ENDBRANCH  33  35
ENDBRANCH  32  33
ENDBRANCH  31  32
ENDBRANCH  30  31
ENDBRANCH  29  30
ENDBRANCH   1  29
TORSDOF 22
ENDMDL
MODEL 3
REMARK VINA RESULT:      -9.0      1.607      2.473
REMARK SMILES O=C(N[C@@H](CS)C(=O)N[C@@H](CO)C(=O)OCCOCCOC(=O)c1ccc(-c2c3nc(c(-c4ccccc4)c4ccc([nH]4)c(-c4ccccc4)c4nc(c(-c5ccccc5)c5ccc2[nH]5)C=C4)C=C3)cc1)c1ccc(F)cc1
REMARK SMILES IDX 17 1 16 2 15 3 13 4 14 5 10 6 9 7 7 8 8 9 4 11 3 12 1 13
REMARK SMILES IDX 2 14 72 16 73 17 78 18 74 19 77 20 75 21 76 22 5 23 6 24
REMARK SMILES IDX 11 26 12 27 18 29 19 30 20 31 21 32 22 33 23 34 24 35 25 36
REMARK SMILES IDX 71 37 26 38 70 39 27 40 28 41 29 42 64 43 30 44 69 45 63 46
REMARK SMILES IDX 65 47 31 48 68 49 62 50 61 51 32 53 54 54 39 55 53 56 40 57
REMARK SMILES IDX 43 58 52 59 66 60 41 61 42 62 51 64 67 65 44 66 33 67 34 68
REMARK SMILES IDX 38 69 35 70 37 71 36 72 55 73 56 74 60 75 57 76 59 77 58 78
REMARK SMILES IDX 45 79 46 80 50 81 47 82 49 83 48 84
REMARK H PARENT 9 10 3 15 6 25 12 28 65 52 43 63
REMARK Flexibility Score: inf
ROOT
ATOM      1  C   UNL A   1      30.948  27.302  24.973  1.00  0.00     0.202 C 
ENDROOT
BRANCH   1   2
ATOM      2  C   UNL A   1      32.056  26.303  24.633  1.00  0.00     0.261 C 
BRANCH   2   3
ATOM      3  O   UNL A   1      32.006  25.166  25.511  1.00  0.00    -0.462 OA
BRANCH   3   4
ATOM      4  C   UNL A   1      31.939  23.954  24.892  1.00  0.00     0.331 C 
ATOM      5  O   UNL A   1      32.236  23.750  23.719  1.00  0.00    -0.250 OA
BRANCH   4   6
ATOM      6  C   UNL A   1      31.417  22.852  25.828  1.00  0.00     0.218 C 
BRANCH   6   7
ATOM      7  N   UNL A   1      32.426  22.333  26.764  1.00  0.00    -0.339 N 
ATOM      8  C   UNL A   1      33.583  21.646  26.600  1.00  0.00     0.244 C 
ATOM      9  O   UNL A   1      34.298  21.539  27.605  1.00  0.00    -0.273 OA
ATOM     10  H   UNL A   1      32.217  22.523  27.708  1.00  0.00     0.164 HD
BRANCH   8  11
ATOM     11  C   UNL A   1      34.109  21.100  25.254  1.00  0.00     0.181 C 
BRANCH  11  12
ATOM     12  N   UNL A   1      33.113  20.995  24.186  1.00  0.00    -0.339 N 
ATOM     13  O   UNL A   1      31.892  20.011  22.584  1.00  0.00    -0.269 OA
ATOM     14  C   UNL A   1      32.593  19.877  23.583  1.00  0.00     0.251 C 
ATOM     15  H   UNL A   1      32.767  21.853  23.850  1.00  0.00     0.164 HD
BRANCH  14  16
ATOM     16  C   UNL A   1      32.901  18.518  24.082  1.00  0.00     0.040 A 
ATOM     17  C   UNL A   1      32.462  18.074  25.337  1.00  0.00     0.017 A 
ATOM     18  C   UNL A   1      33.604  17.647  23.239  1.00  0.00     0.017 A 
ATOM     19  C   UNL A   1      32.806  16.795  25.780  1.00  0.00     0.040 A 
ATOM     20  C   UNL A   1      33.927  16.361  23.679  1.00  0.00     0.040 A 
ATOM     21  C   UNL A   1      33.540  15.954  24.951  1.00  0.00     0.123 A 
ATOM     22  F   UNL A   1      33.872  14.731  25.381  1.00  0.00    -0.207 F 
ENDBRANCH  14  16
ENDBRANCH  11  12
BRANCH  11  23
ATOM     23  C   UNL A   1      35.447  21.725  24.820  1.00  0.00     0.101 C 
BRANCH  23  24
ATOM     24  S   UNL A   1      36.915  20.658  24.932  1.00  0.00    -0.177 SA
ATOM     25  H   UNL A   1      36.836  19.896  26.056  1.00  0.00     0.102 HD
ENDBRANCH  23  24
ENDBRANCH  11  23
ENDBRANCH   8  11
ENDBRANCH   6   7
BRANCH   6  26
ATOM     26  C   UNL A   1      30.213  23.412  26.588  1.00  0.00     0.193 C 
BRANCH  26  27
ATOM     27  O   UNL A   1      29.876  22.582  27.701  1.00  0.00    -0.394 OA
ATOM     28  H   UNL A   1      29.628  23.139  28.456  1.00  0.00     0.210 HD
ENDBRANCH  26  27
ENDBRANCH   6  26
ENDBRANCH   4   6
ENDBRANCH   3   4
ENDBRANCH   2   3
ENDBRANCH   1   2
BRANCH   1  29
ATOM     29  O   UNL A   1      31.344  28.669  25.078  1.00  0.00    -0.374 OA
BRANCH  29  30
ATOM     30  C   UNL A   1      32.029  29.068  26.264  1.00  0.00     0.202 C 
BRANCH  30  31
ATOM     31  C   UNL A   1      33.560  29.138  26.185  1.00  0.00     0.261 C 
BRANCH  31  32
ATOM     32  O   UNL A   1      34.185  29.029  27.474  1.00  0.00    -0.460 OA
BRANCH  32  33
ATOM     33  C   UNL A   1      34.669  30.193  27.961  1.00  0.00     0.338 C 
ATOM     34  O   UNL A   1      34.048  31.228  28.179  1.00  0.00    -0.246 OA
BRANCH  33  35
ATOM     35  C   UNL A   1      36.066  30.025  28.384  1.00  0.00     0.060 A 
ATOM     36  C   UNL A   1      37.062  30.290  27.435  1.00  0.00     0.016 A 
ATOM     37  C   UNL A   1      36.396  29.527  29.645  1.00  0.00     0.016 A 
ATOM     38  C   UNL A   1      38.394  30.011  27.728  1.00  0.00     0.010 A 
ATOM     39  C   UNL A   1      37.734  29.234  29.934  1.00  0.00     0.010 A 
ATOM     40  C   UNL A   1      38.731  29.442  28.963  1.00  0.00    -0.014 A 
BRANCH  40  41
ATOM     41  C   UNL A   1      40.104  28.925  29.167  1.00  0.00     0.031 A 
ATOM     42  C   UNL A   1      41.123  29.806  29.835  1.00  0.00     0.074 A 
ATOM     43  C   UNL A   1      40.426  27.671  28.805  1.00  0.00     0.049 A 
ATOM     44  N   UNL A   1      42.375  29.557  30.117  1.00  0.00    -0.248 NA
ATOM     45  C   UNL A   1      40.665  31.145  30.243  1.00  0.00     0.031 C 
ATOM     46  C   UNL A   1      39.512  26.705  28.195  1.00  0.00     0.029 A 
ATOM     47  N   UNL A   1      41.616  26.997  28.903  1.00  0.00    -0.354 N 
ATOM     48  C   UNL A   1      42.858  30.706  30.731  1.00  0.00     0.074 A 
ATOM     49  C   UNL A   1      41.773  31.662  30.756  1.00  0.00     0.031 C 
ATOM     50  C   UNL A   1      40.179  25.559  27.970  1.00  0.00     0.029 A 
ATOM     51  C   UNL A   1      41.568  25.724  28.393  1.00  0.00     0.049 A 
ATOM     52  H   UNL A   1      42.426  27.388  29.303  1.00  0.00     0.167 HD
ATOM     53  C   UNL A   1      44.092  30.943  31.235  1.00  0.00     0.031 A 
ATOM     54  C   UNL A   1      42.542  24.802  28.265  1.00  0.00     0.031 A 
ATOM     55  C   UNL A   1      45.177  30.000  31.196  1.00  0.00     0.049 A 
ATOM     56  C   UNL A   1      43.928  25.120  28.757  1.00  0.00     0.074 A 
ATOM     57  C   UNL A   1      46.463  30.141  31.688  1.00  0.00     0.029 A 
ATOM     58  N   UNL A   1      45.103  28.740  30.623  1.00  0.00    -0.354 N 
ATOM     59  N   UNL A   1      44.366  26.201  29.356  1.00  0.00    -0.248 NA
ATOM     60  C   UNL A   1      44.954  24.086  28.558  1.00  0.00     0.031 C 
ATOM     61  C   UNL A   1      47.182  28.986  31.365  1.00  0.00     0.029 A 
ATOM     62  C   UNL A   1      46.329  28.104  30.722  1.00  0.00     0.049 A 
ATOM     63  H   UNL A   1      44.298  28.354  30.208  1.00  0.00     0.167 HD
ATOM     64  C   UNL A   1      45.708  25.968  29.627  1.00  0.00     0.074 A 
ATOM     65  C   UNL A   1      46.010  24.637  29.141  1.00  0.00     0.031 C 
ATOM     66  C   UNL A   1      46.611  26.782  30.227  1.00  0.00     0.031 A 
BRANCH  53  67
ATOM     67  C   UNL A   1      44.342  32.297  31.838  1.00  0.00    -0.014 A 
ATOM     68  C   UNL A   1      44.129  32.536  33.205  1.00  0.00     0.009 A 
ATOM     69  C   UNL A   1      44.821  33.340  31.031  1.00  0.00     0.009 A 
ATOM     70  C   UNL A   1      44.359  33.805  33.744  1.00  0.00     0.001 A 
ATOM     71  C   UNL A   1      45.075  34.599  31.578  1.00  0.00     0.001 A 
ATOM     72  C   UNL A   1      44.836  34.833  32.931  1.00  0.00     0.000 A 
ENDBRANCH  53  67
BRANCH  54  73
ATOM     73  C   UNL A   1      42.248  23.494  27.625  1.00  0.00    -0.014 A 
ATOM     74  C   UNL A   1      41.732  22.427  28.375  1.00  0.00     0.009 A 
ATOM     75  C   UNL A   1      42.501  23.302  26.257  1.00  0.00     0.009 A 
ATOM     76  C   UNL A   1      41.497  21.188  27.775  1.00  0.00     0.001 A 
ATOM     77  C   UNL A   1      42.238  22.071  25.654  1.00  0.00     0.001 A 
ATOM     78  C   UNL A   1      41.745  21.012  26.415  1.00  0.00     0.000 A 
ENDBRANCH  54  73
BRANCH  66  79
ATOM     79  C   UNL A   1      48.002  26.244  30.416  1.00  0.00    -0.014 A 
ATOM     80  C   UNL A   1      48.404  25.680  31.637  1.00  0.00     0.009 A 
ATOM     81  C   UNL A   1      48.907  26.264  29.344  1.00  0.00     0.009 A 
ATOM     82  C   UNL A   1      49.698  25.177  31.788  1.00  0.00     0.001 A 
ATOM     83  C   UNL A   1      50.190  25.735  29.490  1.00  0.00     0.001 A 
ATOM     84  C   UNL A   1      50.588  25.200  30.714  1.00  0.00     0.000 A 
ENDBRANCH  66  79
ENDBRANCH  40  41
ENDBRANCH  33  35
ENDBRANCH  32  33
ENDBRANCH  31  32
ENDBRANCH  30  31
ENDBRANCH  29  30
ENDBRANCH   1  29
TORSDOF 22
ENDMDL
