MODEL 1
REMARK VINA RESULT:     -10.0      0.000      0.000
REMARK SMILES [NH3+][C@H](C(=O)OCCOCCOC(=O)c1ccc(-c2c3nc(c(-c4ccccc4)c4ccc([nH]4)c(-c4ccccc4)c4nc(c(-c5ccccc5)c5ccc2[nH]5)C=C4)C=C3)cc1)c1ccc(Cl)c(OC(F)(F)F)c1
REMARK SMILES IDX 7 1 6 2 5 3 3 4 4 5 2 6 1 7 62 11 63 12 73 13 64 14 67 15
REMARK SMILES IDX 65 16 66 17 68 18 69 19 70 20 71 21 72 22 8 23 9 24 10 25
REMARK SMILES IDX 11 26 12 27 13 28 14 29 15 30 61 31 16 32 60 33 17 34 18 35
REMARK SMILES IDX 19 36 54 37 20 38 59 39 53 40 55 41 21 42 58 43 52 44 51 45
REMARK SMILES IDX 22 47 44 48 29 49 43 50 30 51 33 52 42 53 56 54 31 55 32 56
REMARK SMILES IDX 41 58 57 59 34 60 23 61 24 62 28 63 25 64 27 65 26 66 45 67
REMARK SMILES IDX 46 68 50 69 47 70 49 71 48 72 35 73 36 74 40 75 37 76 39 77
REMARK SMILES IDX 38 78
REMARK H PARENT 1 8 1 9 1 10 55 46 33 57
REMARK Flexibility Score: inf
ROOT
ATOM      1  C   UNL A   1      34.179  37.171  32.319  1.00  0.00     0.202 C 
ENDROOT
BRANCH   1   2
ATOM      2  C   UNL A   1      32.766  36.989  31.760  1.00  0.00     0.261 C 
BRANCH   2   3
ATOM      3  O   UNL A   1      32.836  36.639  30.366  1.00  0.00    -0.459 OA
BRANCH   3   4
ATOM      4  C   UNL A   1      33.184  35.359  30.086  1.00  0.00     0.369 C 
ATOM      5  O   UNL A   1      33.193  34.452  30.917  1.00  0.00    -0.245 OA
BRANCH   4   6
ATOM      6  C   UNL A   1      33.530  35.097  28.593  1.00  0.00     0.323 C 
BRANCH   6   7
ATOM      7  N   UNL A   1      34.505  36.150  28.193  1.00  0.00    -0.342 N 
ATOM      8  H   UNL A   1      35.082  35.805  27.425  1.00  0.00     0.345 HD
ATOM      9  H   UNL A   1      35.102  36.380  28.989  1.00  0.00     0.345 HD
ATOM     10  H   UNL A   1      34.003  36.984  27.893  1.00  0.00     0.345 HD
ENDBRANCH   6   7
BRANCH   6  11
ATOM     11  C   UNL A   1      34.007  33.695  28.187  1.00  0.00     0.025 A 
ATOM     12  C   UNL A   1      35.374  33.378  28.192  1.00  0.00     0.012 A 
ATOM     13  C   UNL A   1      33.094  32.649  27.904  1.00  0.00     0.059 A 
ATOM     14  C   UNL A   1      35.817  32.092  27.871  1.00  0.00     0.025 A 
ATOM     15  C   UNL A   1      33.522  31.350  27.590  1.00  0.00     0.148 A 
ATOM     16  C   UNL A   1      34.898  31.089  27.564  1.00  0.00     0.083 A 
ATOM     17  Cl  UNL A   1      35.514  29.523  27.169  1.00  0.00    -0.080 Cl
BRANCH  15  18
ATOM     18  O   UNL A   1      32.698  30.292  27.314  1.00  0.00    -0.404 OA
BRANCH  18  19
ATOM     19  C   UNL A   1      32.072  30.229  26.048  1.00  0.00     0.573 C 
ATOM     20  F   UNL A   1      32.982  30.158  25.054  1.00  0.00    -0.132 F 
ATOM     21  F   UNL A   1      31.238  29.168  25.976  1.00  0.00    -0.132 F 
ATOM     22  F   UNL A   1      31.339  31.350  25.868  1.00  0.00    -0.132 F 
ENDBRANCH  18  19
ENDBRANCH  15  18
ENDBRANCH   6  11
ENDBRANCH   4   6
ENDBRANCH   3   4
ENDBRANCH   2   3
ENDBRANCH   1   2
BRANCH   1  23
ATOM     23  O   UNL A   1      34.387  36.633  33.626  1.00  0.00    -0.374 OA
BRANCH  23  24
ATOM     24  C   UNL A   1      34.906  35.306  33.716  1.00  0.00     0.202 C 
BRANCH  24  25
ATOM     25  C   UNL A   1      36.092  34.987  32.800  1.00  0.00     0.261 C 
BRANCH  25  26
ATOM     26  O   UNL A   1      36.990  34.034  33.396  1.00  0.00    -0.460 OA
BRANCH  26  27
ATOM     27  C   UNL A   1      36.601  32.742  33.285  1.00  0.00     0.338 C 
ATOM     28  O   UNL A   1      35.570  32.238  33.705  1.00  0.00    -0.246 OA
BRANCH  27  29
ATOM     29  C   UNL A   1      37.529  32.009  32.402  1.00  0.00     0.060 A 
ATOM     30  C   UNL A   1      38.590  31.327  33.011  1.00  0.00     0.016 A 
ATOM     31  C   UNL A   1      37.414  32.043  31.011  1.00  0.00     0.016 A 
ATOM     32  C   UNL A   1      39.570  30.719  32.230  1.00  0.00     0.010 A 
ATOM     33  C   UNL A   1      38.400  31.433  30.226  1.00  0.00     0.010 A 
ATOM     34  C   UNL A   1      39.502  30.803  30.833  1.00  0.00    -0.014 A 
BRANCH  34  35
ATOM     35  C   UNL A   1      40.669  30.368  30.026  1.00  0.00     0.031 A 
ATOM     36  C   UNL A   1      40.631  29.023  29.354  1.00  0.00     0.074 A 
ATOM     37  C   UNL A   1      41.729  31.177  29.849  1.00  0.00     0.049 A 
ATOM     38  N   UNL A   1      41.527  28.454  28.588  1.00  0.00    -0.248 NA
ATOM     39  C   UNL A   1      39.421  28.213  29.570  1.00  0.00     0.031 C 
ATOM     40  C   UNL A   1      41.872  32.522  30.405  1.00  0.00     0.029 A 
ATOM     41  N   UNL A   1      42.886  30.981  29.138  1.00  0.00    -0.354 N 
ATOM     42  C   UNL A   1      40.992  27.221  28.235  1.00  0.00     0.074 A 
ATOM     43  C   UNL A   1      39.708  27.111  28.893  1.00  0.00     0.031 C 
ATOM     44  C   UNL A   1      43.053  33.031  30.012  1.00  0.00     0.029 A 
ATOM     45  C   UNL A   1      43.757  32.039  29.201  1.00  0.00     0.049 A 
ATOM     46  H   UNL A   1      43.074  30.158  28.631  1.00  0.00     0.167 HD
ATOM     47  C   UNL A   1      41.516  26.267  27.429  1.00  0.00     0.031 A 
ATOM     48  C   UNL A   1      44.988  32.189  28.674  1.00  0.00     0.031 A 
ATOM     49  C   UNL A   1      42.795  26.363  26.779  1.00  0.00     0.049 A 
ATOM     50  C   UNL A   1      45.581  31.082  27.845  1.00  0.00     0.074 A 
ATOM     51  C   UNL A   1      43.401  25.453  25.930  1.00  0.00     0.029 A 
ATOM     52  N   UNL A   1      43.668  27.430  26.912  1.00  0.00    -0.354 N 
ATOM     53  N   UNL A   1      45.052  29.933  27.497  1.00  0.00    -0.248 NA
ATOM     54  C   UNL A   1      46.943  31.297  27.331  1.00  0.00     0.031 C 
ATOM     55  C   UNL A   1      44.664  25.948  25.589  1.00  0.00     0.029 A 
ATOM     56  C   UNL A   1      44.820  27.189  26.185  1.00  0.00     0.049 A 
ATOM     57  H   UNL A   1      43.493  28.240  27.445  1.00  0.00     0.167 HD
ATOM     58  C   UNL A   1      46.004  29.302  26.705  1.00  0.00     0.074 A 
ATOM     59  C   UNL A   1      47.137  30.200  26.613  1.00  0.00     0.031 C 
ATOM     60  C   UNL A   1      45.942  28.089  26.104  1.00  0.00     0.031 A 
BRANCH  47  61
ATOM     61  C   UNL A   1      40.710  25.015  27.235  1.00  0.00    -0.014 A 
ATOM     62  C   UNL A   1      39.528  25.018  26.479  1.00  0.00     0.009 A 
ATOM     63  C   UNL A   1      41.154  23.807  27.798  1.00  0.00     0.009 A 
ATOM     64  C   UNL A   1      38.789  23.845  26.317  1.00  0.00     0.001 A 
ATOM     65  C   UNL A   1      40.427  22.632  27.614  1.00  0.00     0.001 A 
ATOM     66  C   UNL A   1      39.241  22.653  26.882  1.00  0.00     0.000 A 
ENDBRANCH  47  61
BRANCH  48  67
ATOM     67  C   UNL A   1      45.757  33.435  28.924  1.00  0.00    -0.014 A 
ATOM     68  C   UNL A   1      45.668  34.522  28.043  1.00  0.00     0.009 A 
ATOM     69  C   UNL A   1      46.603  33.532  30.040  1.00  0.00     0.009 A 
ATOM     70  C   UNL A   1      46.427  35.673  28.262  1.00  0.00     0.001 A 
ATOM     71  C   UNL A   1      47.341  34.694  30.271  1.00  0.00     0.001 A 
ATOM     72  C   UNL A   1      47.258  35.761  29.377  1.00  0.00     0.000 A 
ENDBRANCH  48  67
BRANCH  60  73
ATOM     73  C   UNL A   1      47.118  27.671  25.268  1.00  0.00    -0.014 A 
ATOM     74  C   UNL A   1      47.110  27.822  23.873  1.00  0.00     0.009 A 
ATOM     75  C   UNL A   1      48.267  27.158  25.892  1.00  0.00     0.009 A 
ATOM     76  C   UNL A   1      48.220  27.441  23.117  1.00  0.00     0.001 A 
ATOM     77  C   UNL A   1      49.384  26.802  25.135  1.00  0.00     0.001 A 
ATOM     78  C   UNL A   1      49.357  26.937  23.748  1.00  0.00     0.000 A 
ENDBRANCH  60  73
ENDBRANCH  34  35
ENDBRANCH  27  29
ENDBRANCH  26  27
ENDBRANCH  25  26
ENDBRANCH  24  25
ENDBRANCH  23  24
ENDBRANCH   1  23
TORSDOF 18
ENDMDL
MODEL 2
REMARK VINA RESULT:      -9.8      0.641      6.023
REMARK SMILES [NH3+][C@H](C(=O)OCCOCCOC(=O)c1ccc(-c2c3nc(c(-c4ccccc4)c4ccc([nH]4)c(-c4ccccc4)c4nc(c(-c5ccccc5)c5ccc2[nH]5)C=C4)C=C3)cc1)c1ccc(Cl)c(OC(F)(F)F)c1
REMARK SMILES IDX 7 1 6 2 5 3 3 4 4 5 2 6 1 7 62 11 63 12 73 13 64 14 67 15
REMARK SMILES IDX 65 16 66 17 68 18 69 19 70 20 71 21 72 22 8 23 9 24 10 25
REMARK SMILES IDX 11 26 12 27 13 28 14 29 15 30 61 31 16 32 60 33 17 34 18 35
REMARK SMILES IDX 19 36 54 37 20 38 59 39 53 40 55 41 21 42 58 43 52 44 51 45
REMARK SMILES IDX 22 47 44 48 29 49 43 50 30 51 33 52 42 53 56 54 31 55 32 56
REMARK SMILES IDX 41 58 57 59 34 60 23 61 24 62 28 63 25 64 27 65 26 66 45 67
REMARK SMILES IDX 46 68 50 69 47 70 49 71 48 72 35 73 36 74 40 75 37 76 39 77
REMARK SMILES IDX 38 78
REMARK H PARENT 1 8 1 9 1 10 55 46 33 57
REMARK Flexibility Score: inf
ROOT
ATOM      1  C   UNL A   1      33.979  37.092  32.284  1.00  0.00     0.202 C 
ENDROOT
BRANCH   1   2
ATOM      2  C   UNL A   1      32.833  36.317  31.631  1.00  0.00     0.261 C 
BRANCH   2   3
ATOM      3  O   UNL A   1      33.172  36.005  30.268  1.00  0.00    -0.459 OA
BRANCH   3   4
ATOM      4  C   UNL A   1      33.628  34.749  30.037  1.00  0.00     0.369 C 
ATOM      5  O   UNL A   1      33.655  33.860  30.887  1.00  0.00    -0.245 OA
BRANCH   4   6
ATOM      6  C   UNL A   1      34.080  34.488  28.572  1.00  0.00     0.323 C 
BRANCH   6   7
ATOM      7  N   UNL A   1      35.332  35.270  28.369  1.00  0.00    -0.342 N 
ATOM      8  H   UNL A   1      35.834  34.906  27.559  1.00  0.00     0.345 HD
ATOM      9  H   UNL A   1      35.922  35.189  29.198  1.00  0.00     0.345 HD
ATOM     10  H   UNL A   1      35.100  36.250  28.213  1.00  0.00     0.345 HD
ENDBRANCH   6   7
BRANCH   6  11
ATOM     11  C   UNL A   1      34.235  33.034  28.103  1.00  0.00     0.025 A 
ATOM     12  C   UNL A   1      35.490  32.406  28.130  1.00  0.00     0.012 A 
ATOM     13  C   UNL A   1      33.117  32.246  27.734  1.00  0.00     0.059 A 
ATOM     14  C   UNL A   1      35.635  31.069  27.750  1.00  0.00     0.025 A 
ATOM     15  C   UNL A   1      33.243  30.900  27.361  1.00  0.00     0.148 A 
ATOM     16  C   UNL A   1      34.521  30.325  27.360  1.00  0.00     0.083 A 
ATOM     17  Cl  UNL A   1      34.772  28.679  26.895  1.00  0.00    -0.080 Cl
BRANCH  15  18
ATOM     18  O   UNL A   1      32.209  30.078  27.001  1.00  0.00    -0.404 OA
BRANCH  18  19
ATOM     19  C   UNL A   1      31.790  30.062  25.650  1.00  0.00     0.573 C 
ATOM     20  F   UNL A   1      30.983  31.108  25.376  1.00  0.00    -0.132 F 
ATOM     21  F   UNL A   1      32.854  30.078  24.817  1.00  0.00    -0.132 F 
ATOM     22  F   UNL A   1      31.097  28.925  25.422  1.00  0.00    -0.132 F 
ENDBRANCH  18  19
ENDBRANCH  15  18
ENDBRANCH   6  11
ENDBRANCH   4   6
ENDBRANCH   3   4
ENDBRANCH   2   3
ENDBRANCH   1   2
BRANCH   1  23
ATOM     23  O   UNL A   1      34.301  36.688  33.616  1.00  0.00    -0.374 OA
BRANCH  23  24
ATOM     24  C   UNL A   1      34.681  35.326  33.817  1.00  0.00     0.202 C 
BRANCH  24  25
ATOM     25  C   UNL A   1      36.014  34.905  33.189  1.00  0.00     0.261 C 
BRANCH  25  26
ATOM     26  O   UNL A   1      36.549  33.720  33.807  1.00  0.00    -0.460 OA
BRANCH  26  27
ATOM     27  C   UNL A   1      36.419  32.590  33.073  1.00  0.00     0.338 C 
ATOM     28  O   UNL A   1      35.398  31.952  32.867  1.00  0.00    -0.246 OA
BRANCH  27  29
ATOM     29  C   UNL A   1      37.684  32.296  32.372  1.00  0.00     0.060 A 
ATOM     30  C   UNL A   1      37.746  32.603  31.007  1.00  0.00     0.016 A 
ATOM     31  C   UNL A   1      38.758  31.671  33.007  1.00  0.00     0.016 A 
ATOM     32  C   UNL A   1      38.863  32.239  30.259  1.00  0.00     0.010 A 
ATOM     33  C   UNL A   1      39.881  31.303  32.254  1.00  0.00     0.010 A 
ATOM     34  C   UNL A   1      39.921  31.552  30.870  1.00  0.00    -0.014 A 
BRANCH  34  35
ATOM     35  C   UNL A   1      40.983  30.959  30.021  1.00  0.00     0.031 A 
ATOM     36  C   UNL A   1      42.224  31.761  29.738  1.00  0.00     0.074 A 
ATOM     37  C   UNL A   1      40.873  29.704  29.549  1.00  0.00     0.049 A 
ATOM     38  N   UNL A   1      43.282  31.432  29.042  1.00  0.00    -0.248 NA
ATOM     39  C   UNL A   1      42.280  33.112  30.320  1.00  0.00     0.031 C 
ATOM     40  C   UNL A   1      39.746  28.803  29.789  1.00  0.00     0.029 A 
ATOM     41  N   UNL A   1      41.734  28.969  28.773  1.00  0.00    -0.354 N 
ATOM     42  C   UNL A   1      44.127  32.534  29.098  1.00  0.00     0.074 A 
ATOM     43  C   UNL A   1      43.446  33.551  29.871  1.00  0.00     0.031 C 
ATOM     44  C   UNL A   1      39.987  27.633  29.171  1.00  0.00     0.029 A 
ATOM     45  C   UNL A   1      41.269  27.714  28.473  1.00  0.00     0.049 A 
ATOM     46  H   UNL A   1      42.603  29.311  28.461  1.00  0.00     0.167 HD
ATOM     47  C   UNL A   1      45.362  32.686  28.564  1.00  0.00     0.031 A 
ATOM     48  C   UNL A   1      41.810  26.742  27.713  1.00  0.00     0.031 A 
ATOM     49  C   UNL A   1      46.041  31.685  27.786  1.00  0.00     0.049 A 
ATOM     50  C   UNL A   1      43.150  26.964  27.064  1.00  0.00     0.074 A 
ATOM     51  C   UNL A   1      47.302  31.744  27.218  1.00  0.00     0.029 A 
ATOM     52  N   UNL A   1      45.512  30.447  27.462  1.00  0.00    -0.354 N 
ATOM     53  N   UNL A   1      43.949  28.001  27.149  1.00  0.00    -0.248 NA
ATOM     54  C   UNL A   1      43.664  25.876  26.218  1.00  0.00     0.031 C 
ATOM     55  C   UNL A   1      47.515  30.558  26.507  1.00  0.00     0.029 A 
ATOM     56  C   UNL A   1      46.408  29.743  26.677  1.00  0.00     0.049 A 
ATOM     57  H   UNL A   1      44.629  30.117  27.749  1.00  0.00     0.167 HD
ATOM     58  C   UNL A   1      45.068  27.679  26.391  1.00  0.00     0.074 A 
ATOM     59  C   UNL A   1      44.852  26.348  25.864  1.00  0.00     0.031 C 
ATOM     60  C   UNL A   1      46.178  28.420  26.157  1.00  0.00     0.031 A 
BRANCH  47  61
ATOM     61  C   UNL A   1      46.044  34.007  28.777  1.00  0.00    -0.014 A 
ATOM     62  C   UNL A   1      45.908  35.054  27.853  1.00  0.00     0.009 A 
ATOM     63  C   UNL A   1      46.815  34.213  29.931  1.00  0.00     0.009 A 
ATOM     64  C   UNL A   1      46.558  36.272  28.066  1.00  0.00     0.001 A 
ATOM     65  C   UNL A   1      47.443  35.439  30.153  1.00  0.00     0.001 A 
ATOM     66  C   UNL A   1      47.321  36.464  29.216  1.00  0.00     0.000 A 
ENDBRANCH  47  61
BRANCH  48  67
ATOM     67  C   UNL A   1      41.078  25.466  27.505  1.00  0.00    -0.014 A 
ATOM     68  C   UNL A   1      39.965  25.409  26.653  1.00  0.00     0.009 A 
ATOM     69  C   UNL A   1      41.478  24.302  28.179  1.00  0.00     0.009 A 
ATOM     70  C   UNL A   1      39.256  24.217  26.496  1.00  0.00     0.001 A 
ATOM     71  C   UNL A   1      40.783  23.105  28.001  1.00  0.00     0.001 A 
ATOM     72  C   UNL A   1      39.667  23.065  27.166  1.00  0.00     0.000 A 
ENDBRANCH  48  67
BRANCH  60  73
ATOM     73  C   UNL A   1      47.259  27.799  25.317  1.00  0.00    -0.014 A 
ATOM     74  C   UNL A   1      47.207  27.842  23.916  1.00  0.00     0.009 A 
ATOM     75  C   UNL A   1      48.365  27.199  25.941  1.00  0.00     0.009 A 
ATOM     76  C   UNL A   1      48.230  27.272  23.155  1.00  0.00     0.001 A 
ATOM     77  C   UNL A   1      49.397  26.652  25.177  1.00  0.00     0.001 A 
ATOM     78  C   UNL A   1      49.325  26.682  23.785  1.00  0.00     0.000 A 
ENDBRANCH  60  73
ENDBRANCH  34  35
ENDBRANCH  27  29
ENDBRANCH  26  27
ENDBRANCH  25  26
ENDBRANCH  24  25
ENDBRANCH  23  24
ENDBRANCH   1  23
TORSDOF 18
ENDMDL
MODEL 3
REMARK VINA RESULT:      -9.8      4.194      7.655
REMARK SMILES [NH3+][C@H](C(=O)OCCOCCOC(=O)c1ccc(-c2c3nc(c(-c4ccccc4)c4ccc([nH]4)c(-c4ccccc4)c4nc(c(-c5ccccc5)c5ccc2[nH]5)C=C4)C=C3)cc1)c1ccc(Cl)c(OC(F)(F)F)c1
REMARK SMILES IDX 7 1 6 2 5 3 3 4 4 5 2 6 1 7 62 11 63 12 73 13 64 14 67 15
REMARK SMILES IDX 65 16 66 17 68 18 69 19 70 20 71 21 72 22 8 23 9 24 10 25
REMARK SMILES IDX 11 26 12 27 13 28 14 29 15 30 61 31 16 32 60 33 17 34 18 35
REMARK SMILES IDX 19 36 54 37 20 38 59 39 53 40 55 41 21 42 58 43 52 44 51 45
REMARK SMILES IDX 22 47 44 48 29 49 43 50 30 51 33 52 42 53 56 54 31 55 32 56
REMARK SMILES IDX 41 58 57 59 34 60 23 61 24 62 28 63 25 64 27 65 26 66 45 67
REMARK SMILES IDX 46 68 50 69 47 70 49 71 48 72 35 73 36 74 40 75 37 76 39 77
REMARK SMILES IDX 38 78
REMARK H PARENT 1 8 1 9 1 10 55 46 33 57
REMARK Flexibility Score: inf
ROOT
ATOM      1  C   UNL A   1      33.586  36.717  28.907  1.00  0.00     0.202 C 
ENDROOT
BRANCH   1   2
ATOM      2  C   UNL A   1      33.264  37.278  30.294  1.00  0.00     0.261 C 
BRANCH   2   3
ATOM      3  O   UNL A   1      32.128  36.587  30.846  1.00  0.00    -0.459 OA
BRANCH   3   4
ATOM      4  C   UNL A   1      32.222  36.226  32.149  1.00  0.00     0.369 C 
ATOM      5  O   UNL A   1      31.255  35.943  32.855  1.00  0.00    -0.245 OA
BRANCH   4   6
ATOM      6  C   UNL A   1      33.677  36.144  32.692  1.00  0.00     0.323 C 
BRANCH   6   7
ATOM      7  N   UNL A   1      33.669  36.807  34.026  1.00  0.00    -0.342 N 
ATOM      8  H   UNL A   1      32.818  36.552  34.528  1.00  0.00     0.345 HD
ATOM      9  H   UNL A   1      33.700  37.820  33.902  1.00  0.00     0.345 HD
ATOM     10  H   UNL A   1      34.483  36.505  34.561  1.00  0.00     0.345 HD
ENDBRANCH   6   7
BRANCH   6  11
ATOM     11  C   UNL A   1      34.362  34.770  32.742  1.00  0.00     0.025 A 
ATOM     12  C   UNL A   1      34.310  33.907  31.637  1.00  0.00     0.012 A 
ATOM     13  C   UNL A   1      35.154  34.372  33.847  1.00  0.00     0.059 A 
ATOM     14  C   UNL A   1      34.970  32.675  31.653  1.00  0.00     0.025 A 
ATOM     15  C   UNL A   1      35.830  33.143  33.876  1.00  0.00     0.148 A 
ATOM     16  C   UNL A   1      35.716  32.293  32.768  1.00  0.00     0.083 A 
ATOM     17  Cl  UNL A   1      36.500  30.752  32.726  1.00  0.00    -0.080 Cl
BRANCH  15  18
ATOM     18  O   UNL A   1      36.618  32.697  34.903  1.00  0.00    -0.404 OA
BRANCH  18  19
ATOM     19  C   UNL A   1      38.007  32.962  34.861  1.00  0.00     0.573 C 
ATOM     20  F   UNL A   1      38.725  31.835  35.045  1.00  0.00    -0.132 F 
ATOM     21  F   UNL A   1      38.351  33.534  33.686  1.00  0.00    -0.132 F 
ATOM     22  F   UNL A   1      38.316  33.824  35.853  1.00  0.00    -0.132 F 
ENDBRANCH  18  19
ENDBRANCH  15  18
ENDBRANCH   6  11
ENDBRANCH   4   6
ENDBRANCH   3   4
ENDBRANCH   2   3
ENDBRANCH   1   2
BRANCH   1  23
ATOM     23  O   UNL A   1      33.197  35.357  28.699  1.00  0.00    -0.374 OA
BRANCH  23  24
ATOM     24  C   UNL A   1      34.136  34.497  28.053  1.00  0.00     0.202 C 
BRANCH  24  25
ATOM     25  C   UNL A   1      33.748  33.015  27.985  1.00  0.00     0.261 C 
BRANCH  25  26
ATOM     26  O   UNL A   1      34.881  32.177  27.693  1.00  0.00    -0.460 OA
BRANCH  26  27
ATOM     27  C   UNL A   1      34.649  30.849  27.814  1.00  0.00     0.338 C 
ATOM     28  O   UNL A   1      33.602  30.255  27.605  1.00  0.00    -0.246 OA
BRANCH  27  29
ATOM     29  C   UNL A   1      35.916  30.137  28.072  1.00  0.00     0.060 A 
ATOM     30  C   UNL A   1      36.040  29.473  29.299  1.00  0.00     0.016 A 
ATOM     31  C   UNL A   1      36.985  30.172  27.174  1.00  0.00     0.016 A 
ATOM     32  C   UNL A   1      37.252  28.887  29.657  1.00  0.00     0.010 A 
ATOM     33  C   UNL A   1      38.204  29.584  27.535  1.00  0.00     0.010 A 
ATOM     34  C   UNL A   1      38.353  28.973  28.793  1.00  0.00    -0.014 A 
BRANCH  34  35
ATOM     35  C   UNL A   1      39.691  28.564  29.287  1.00  0.00     0.031 A 
ATOM     36  C   UNL A   1      40.253  29.233  30.512  1.00  0.00     0.074 A 
ATOM     37  C   UNL A   1      40.377  27.574  28.688  1.00  0.00     0.049 A 
ATOM     38  N   UNL A   1      41.388  29.017  31.126  1.00  0.00    -0.248 NA
ATOM     39  C   UNL A   1      39.423  30.281  31.128  1.00  0.00     0.031 C 
ATOM     40  C   UNL A   1      39.927  26.814  27.523  1.00  0.00     0.029 A 
ATOM     41  N   UNL A   1      41.603  27.037  28.989  1.00  0.00    -0.354 N 
ATOM     42  C   UNL A   1      41.411  29.902  32.196  1.00  0.00     0.074 A 
ATOM     43  C   UNL A   1      40.192  30.679  32.131  1.00  0.00     0.031 C 
ATOM     44  C   UNL A   1      40.866  25.904  27.209  1.00  0.00     0.029 A 
ATOM     45  C   UNL A   1      41.992  26.038  28.132  1.00  0.00     0.049 A 
ATOM     46  H   UNL A   1      42.153  27.339  29.748  1.00  0.00     0.167 HD
ATOM     47  C   UNL A   1      42.357  30.054  33.154  1.00  0.00     0.031 A 
ATOM     48  C   UNL A   1      43.130  25.319  28.089  1.00  0.00     0.031 A 
ATOM     49  C   UNL A   1      43.576  29.294  33.221  1.00  0.00     0.049 A 
ATOM     50  C   UNL A   1      44.200  25.559  29.120  1.00  0.00     0.074 A 
ATOM     51  C   UNL A   1      44.585  29.366  34.166  1.00  0.00     0.029 A 
ATOM     52  N   UNL A   1      43.953  28.328  32.303  1.00  0.00    -0.354 N 
ATOM     53  N   UNL A   1      44.196  26.381  30.141  1.00  0.00    -0.248 NA
ATOM     54  C   UNL A   1      45.432  24.765  28.991  1.00  0.00     0.031 C 
ATOM     55  C   UNL A   1      45.598  28.477  33.790  1.00  0.00     0.029 A 
ATOM     56  C   UNL A   1      45.194  27.817  32.641  1.00  0.00     0.049 A 
ATOM     57  H   UNL A   1      43.418  28.047  31.526  1.00  0.00     0.167 HD
ATOM     58  C   UNL A   1      45.409  26.184  30.790  1.00  0.00     0.074 A 
ATOM     59  C   UNL A   1      46.119  25.158  30.055  1.00  0.00     0.031 C 
ATOM     60  C   UNL A   1      45.890  26.798  31.899  1.00  0.00     0.031 A 
BRANCH  47  61
ATOM     61  C   UNL A   1      42.119  31.112  34.192  1.00  0.00    -0.014 A 
ATOM     62  C   UNL A   1      41.756  30.776  35.505  1.00  0.00     0.009 A 
ATOM     63  C   UNL A   1      42.284  32.465  33.857  1.00  0.00     0.009 A 
ATOM     64  C   UNL A   1      41.531  31.776  36.454  1.00  0.00     0.001 A 
ATOM     65  C   UNL A   1      42.083  33.461  34.813  1.00  0.00     0.001 A 
ATOM     66  C   UNL A   1      41.698  33.116  36.108  1.00  0.00     0.000 A 
ENDBRANCH  47  61
BRANCH  48  67
ATOM     67  C   UNL A   1      43.330  24.307  27.020  1.00  0.00    -0.014 A 
ATOM     68  C   UNL A   1      42.876  22.990  27.186  1.00  0.00     0.009 A 
ATOM     69  C   UNL A   1      43.998  24.652  25.835  1.00  0.00     0.009 A 
ATOM     70  C   UNL A   1      43.105  22.034  26.194  1.00  0.00     0.001 A 
ATOM     71  C   UNL A   1      44.203  23.700  24.834  1.00  0.00     0.001 A 
ATOM     72  C   UNL A   1      43.764  22.390  25.018  1.00  0.00     0.000 A 
ENDBRANCH  48  67
BRANCH  60  73
ATOM     73  C   UNL A   1      47.234  26.356  32.405  1.00  0.00    -0.014 A 
ATOM     74  C   UNL A   1      48.409  27.025  32.030  1.00  0.00     0.009 A 
ATOM     75  C   UNL A   1      47.320  25.280  33.303  1.00  0.00     0.009 A 
ATOM     76  C   UNL A   1      49.646  26.607  32.524  1.00  0.00     0.001 A 
ATOM     77  C   UNL A   1      48.555  24.881  33.814  1.00  0.00     0.001 A 
ATOM     78  C   UNL A   1      49.718  25.540  33.419  1.00  0.00     0.000 A 
ENDBRANCH  60  73
ENDBRANCH  34  35
ENDBRANCH  27  29
ENDBRANCH  26  27
ENDBRANCH  25  26
ENDBRANCH  24  25
ENDBRANCH  23  24
ENDBRANCH   1  23
TORSDOF 18
ENDMDL
