MODEL 1
REMARK VINA RESULT:      -8.9      0.000      0.000
REMARK SMILES CC[C@@H](C(=O)OCCOCCOC(=O)c1ccc(-c2c3nc(c(-c4ccccc4)c4ccc([nH]4)c(-c4ccccc4)c4nc(c(-c5ccccc5)c5ccc2[nH]5)C=C4)C=C3)cc1)N(C)C(=O)N(C)C[C@@H]1CCC[N@H+]1C
REMARK SMILES IDX 7 1 6 2 4 3 5 4 3 5 2 6 1 7 63 8 64 9 65 10 66 11 67 12
REMARK SMILES IDX 68 13 69 14 70 15 71 16 74 17 72 18 73 19 75 20 8 22 9 23
REMARK SMILES IDX 10 24 11 25 12 26 13 27 14 28 15 29 16 30 62 31 17 32 61 33
REMARK SMILES IDX 18 34 19 35 20 36 55 37 21 38 60 39 54 40 56 41 22 42 59 43
REMARK SMILES IDX 53 44 52 45 23 47 45 48 30 49 44 50 31 51 34 52 43 53 57 54
REMARK SMILES IDX 32 55 33 56 42 58 58 59 35 60 24 61 25 62 29 63 26 64 28 65
REMARK SMILES IDX 27 66 46 67 47 68 51 69 48 70 50 71 49 72 36 73 37 74 41 75
REMARK SMILES IDX 38 76 40 77 39 78
REMARK H PARENT 74 21 56 46 34 57
REMARK Flexibility Score: inf
ROOT
ATOM      1  C   UNL A   1      32.073  27.595  26.675  1.00  0.00     0.261 C 
ENDROOT
BRANCH   1   2
ATOM      2  O   UNL A   1      30.966  27.245  25.821  1.00  0.00    -0.462 OA
BRANCH   2   3
ATOM      3  C   UNL A   1      31.207  27.254  24.483  1.00  0.00     0.328 C 
ATOM      4  O   UNL A   1      30.398  27.660  23.653  1.00  0.00    -0.250 OA
BRANCH   3   5
ATOM      5  C   UNL A   1      32.558  26.595  24.107  1.00  0.00     0.196 C 
BRANCH   5   6
ATOM      6  C   UNL A   1      33.690  27.444  23.470  1.00  0.00     0.034 C 
ATOM      7  C   UNL A   1      33.393  28.929  23.282  1.00  0.00     0.007 C 
ENDBRANCH   5   6
BRANCH   5   8
ATOM      8  N   UNL A   1      32.246  25.322  23.348  1.00  0.00    -0.314 N 
ATOM      9  C   UNL A   1      32.968  25.206  22.095  1.00  0.00     0.149 C 
BRANCH   8  10
ATOM     10  C   UNL A   1      31.535  24.315  23.987  1.00  0.00     0.320 C 
ATOM     11  O   UNL A   1      30.530  23.856  23.431  1.00  0.00    -0.248 OA
BRANCH  10  12
ATOM     12  N   UNL A   1      31.883  23.779  25.218  1.00  0.00    -0.322 N 
ATOM     13  C   UNL A   1      31.211  23.810  26.508  1.00  0.00     0.149 C 
BRANCH  12  14
ATOM     14  C   UNL A   1      33.229  23.144  25.295  1.00  0.00     0.185 C 
BRANCH  14  15
ATOM     15  C   UNL A   1      33.350  21.724  24.672  1.00  0.00     0.203 C 
ATOM     16  C   UNL A   1      32.138  20.819  24.957  1.00  0.00     0.073 C 
ATOM     17  N   UNL A   1      34.419  20.873  25.254  1.00  0.00    -0.333 N 
ATOM     18  C   UNL A   1      32.681  19.386  24.889  1.00  0.00     0.068 C 
ATOM     19  C   UNL A   1      34.174  19.549  24.672  1.00  0.00     0.262 C 
ATOM     20  C   UNL A   1      35.762  21.331  24.940  1.00  0.00     0.333 C 
ATOM     21  H   UNL A   1      34.381  20.889  26.273  1.00  0.00     0.348 HD
ENDBRANCH  14  15
ENDBRANCH  12  14
ENDBRANCH  10  12
ENDBRANCH   8  10
ENDBRANCH   5   8
ENDBRANCH   3   5
ENDBRANCH   2   3
ENDBRANCH   1   2
BRANCH   1  22
ATOM     22  C   UNL A   1      31.863  28.993  27.272  1.00  0.00     0.202 C 
BRANCH  22  23
ATOM     23  O   UNL A   1      32.316  30.090  26.476  1.00  0.00    -0.374 OA
BRANCH  23  24
ATOM     24  C   UNL A   1      31.386  31.152  26.278  1.00  0.00     0.202 C 
BRANCH  24  25
ATOM     25  C   UNL A   1      31.708  32.487  26.949  1.00  0.00     0.261 C 
BRANCH  25  26
ATOM     26  O   UNL A   1      33.073  32.561  27.355  1.00  0.00    -0.460 OA
BRANCH  26  27
ATOM     27  C   UNL A   1      33.339  33.633  28.133  1.00  0.00     0.338 C 
ATOM     28  O   UNL A   1      32.639  34.605  28.348  1.00  0.00    -0.246 OA
BRANCH  27  29
ATOM     29  C   UNL A   1      34.586  33.369  28.855  1.00  0.00     0.060 A 
ATOM     30  C   UNL A   1      35.775  33.704  28.201  1.00  0.00     0.016 A 
ATOM     31  C   UNL A   1      34.590  32.781  30.123  1.00  0.00     0.016 A 
ATOM     32  C   UNL A   1      36.988  33.383  28.787  1.00  0.00     0.010 A 
ATOM     33  C   UNL A   1      35.810  32.460  30.711  1.00  0.00     0.010 A 
ATOM     34  C   UNL A   1      37.007  32.718  30.020  1.00  0.00    -0.014 A 
BRANCH  34  35
ATOM     35  C   UNL A   1      38.281  32.148  30.497  1.00  0.00     0.031 A 
ATOM     36  C   UNL A   1      38.752  30.849  29.913  1.00  0.00     0.074 A 
ATOM     37  C   UNL A   1      39.025  32.819  31.390  1.00  0.00     0.049 A 
ATOM     38  N   UNL A   1      39.844  30.177  30.166  1.00  0.00    -0.248 NA
ATOM     39  C   UNL A   1      37.875  30.222  28.909  1.00  0.00     0.031 C 
ATOM     40  C   UNL A   1      38.679  34.113  31.980  1.00  0.00     0.029 A 
ATOM     41  N   UNL A   1      40.235  32.505  31.948  1.00  0.00    -0.354 N 
ATOM     42  C   UNL A   1      39.783  29.048  29.359  1.00  0.00     0.074 A 
ATOM     43  C   UNL A   1      38.532  29.105  28.637  1.00  0.00     0.031 C 
ATOM     44  C   UNL A   1      39.662  34.485  32.816  1.00  0.00     0.029 A 
ATOM     45  C   UNL A   1      40.683  33.442  32.845  1.00  0.00     0.049 A 
ATOM     46  H   UNL A   1      40.735  31.686  31.727  1.00  0.00     0.167 HD
ATOM     47  C   UNL A   1      40.694  28.057  29.228  1.00  0.00     0.031 A 
ATOM     48  C   UNL A   1      41.789  33.442  33.611  1.00  0.00     0.031 A 
ATOM     49  C   UNL A   1      41.928  28.003  29.963  1.00  0.00     0.049 A 
ATOM     50  C   UNL A   1      42.747  32.289  33.505  1.00  0.00     0.074 A 
ATOM     51  C   UNL A   1      42.930  27.051  29.903  1.00  0.00     0.029 A 
ATOM     52  N   UNL A   1      42.324  28.944  30.903  1.00  0.00    -0.354 N 
ATOM     53  N   UNL A   1      42.693  31.236  32.724  1.00  0.00    -0.248 NA
ATOM     54  C   UNL A   1      43.925  32.328  34.382  1.00  0.00     0.031 C 
ATOM     55  C   UNL A   1      43.902  27.382  30.851  1.00  0.00     0.029 A 
ATOM     56  C   UNL A   1      43.541  28.578  31.452  1.00  0.00     0.049 A 
ATOM     57  H   UNL A   1      41.816  29.751  31.144  1.00  0.00     0.167 HD
ATOM     58  C   UNL A   1      43.842  30.505  32.992  1.00  0.00     0.074 A 
ATOM     59  C   UNL A   1      44.581  31.243  33.997  1.00  0.00     0.031 C 
ATOM     60  C   UNL A   1      44.254  29.328  32.455  1.00  0.00     0.031 A 
BRANCH  47  61
ATOM     61  C   UNL A   1      40.365  26.934  28.284  1.00  0.00    -0.014 A 
ATOM     62  C   UNL A   1      40.841  26.921  26.963  1.00  0.00     0.009 A 
ATOM     63  C   UNL A   1      39.577  25.861  28.731  1.00  0.00     0.009 A 
ATOM     64  C   UNL A   1      40.507  25.875  26.100  1.00  0.00     0.001 A 
ATOM     65  C   UNL A   1      39.271  24.801  27.875  1.00  0.00     0.001 A 
ATOM     66  C   UNL A   1      39.726  24.813  26.558  1.00  0.00     0.000 A 
ENDBRANCH  47  61
BRANCH  48  67
ATOM     67  C   UNL A   1      42.038  34.564  34.553  1.00  0.00    -0.014 A 
ATOM     68  C   UNL A   1      42.767  35.693  34.149  1.00  0.00     0.009 A 
ATOM     69  C   UNL A   1      41.554  34.505  35.870  1.00  0.00     0.009 A 
ATOM     70  C   UNL A   1      43.026  36.727  35.051  1.00  0.00     0.001 A 
ATOM     71  C   UNL A   1      41.787  35.555  36.759  1.00  0.00     0.001 A 
ATOM     72  C   UNL A   1      42.532  36.659  36.353  1.00  0.00     0.000 A 
ENDBRANCH  48  67
BRANCH  60  73
ATOM     73  C   UNL A   1      45.579  28.791  32.919  1.00  0.00    -0.014 A 
ATOM     74  C   UNL A   1      46.785  29.213  32.337  1.00  0.00     0.009 A 
ATOM     75  C   UNL A   1      45.620  27.874  33.982  1.00  0.00     0.009 A 
ATOM     76  C   UNL A   1      48.002  28.695  32.785  1.00  0.00     0.001 A 
ATOM     77  C   UNL A   1      46.841  27.386  34.449  1.00  0.00     0.001 A 
ATOM     78  C   UNL A   1      48.029  27.788  33.843  1.00  0.00     0.000 A 
ENDBRANCH  60  73
ENDBRANCH  34  35
ENDBRANCH  27  29
ENDBRANCH  26  27
ENDBRANCH  25  26
ENDBRANCH  24  25
ENDBRANCH  23  24
ENDBRANCH  22  23
ENDBRANCH   1  22
TORSDOF 20
ENDMDL
MODEL 2
REMARK VINA RESULT:      -8.9      1.976      5.951
REMARK SMILES CC[C@@H](C(=O)OCCOCCOC(=O)c1ccc(-c2c3nc(c(-c4ccccc4)c4ccc([nH]4)c(-c4ccccc4)c4nc(c(-c5ccccc5)c5ccc2[nH]5)C=C4)C=C3)cc1)N(C)C(=O)N(C)C[C@@H]1CCC[N@H+]1C
REMARK SMILES IDX 7 1 6 2 4 3 5 4 3 5 2 6 1 7 63 8 64 9 65 10 66 11 67 12
REMARK SMILES IDX 68 13 69 14 70 15 71 16 74 17 72 18 73 19 75 20 8 22 9 23
REMARK SMILES IDX 10 24 11 25 12 26 13 27 14 28 15 29 16 30 62 31 17 32 61 33
REMARK SMILES IDX 18 34 19 35 20 36 55 37 21 38 60 39 54 40 56 41 22 42 59 43
REMARK SMILES IDX 53 44 52 45 23 47 45 48 30 49 44 50 31 51 34 52 43 53 57 54
REMARK SMILES IDX 32 55 33 56 42 58 58 59 35 60 24 61 25 62 29 63 26 64 28 65
REMARK SMILES IDX 27 66 46 67 47 68 51 69 48 70 50 71 49 72 36 73 37 74 41 75
REMARK SMILES IDX 38 76 40 77 39 78
REMARK H PARENT 74 21 56 46 34 57
REMARK Flexibility Score: inf
ROOT
ATOM      1  C   UNL A   1      31.960  27.338  26.705  1.00  0.00     0.261 C 
ENDROOT
BRANCH   1   2
ATOM      2  O   UNL A   1      30.897  27.067  25.770  1.00  0.00    -0.462 OA
BRANCH   2   3
ATOM      3  C   UNL A   1      31.117  27.434  24.479  1.00  0.00     0.328 C 
ATOM      4  O   UNL A   1      30.395  28.215  23.865  1.00  0.00    -0.250 OA
BRANCH   3   5
ATOM      5  C   UNL A   1      32.305  26.680  23.830  1.00  0.00     0.196 C 
BRANCH   5   6
ATOM      6  C   UNL A   1      33.560  27.460  23.358  1.00  0.00     0.034 C 
ATOM      7  C   UNL A   1      33.451  28.981  23.368  1.00  0.00     0.007 C 
ENDBRANCH   5   6
BRANCH   5   8
ATOM      8  N   UNL A   1      31.731  25.750  22.781  1.00  0.00    -0.314 N 
ATOM      9  C   UNL A   1      31.837  26.269  21.430  1.00  0.00     0.149 C 
BRANCH   8  10
ATOM     10  C   UNL A   1      31.402  24.450  23.141  1.00  0.00     0.320 C 
ATOM     11  O   UNL A   1      30.244  24.211  23.503  1.00  0.00    -0.248 OA
BRANCH  10  12
ATOM     12  N   UNL A   1      32.294  23.388  23.117  1.00  0.00    -0.322 N 
ATOM     13  C   UNL A   1      33.322  23.013  22.158  1.00  0.00     0.149 C 
BRANCH  12  14
ATOM     14  C   UNL A   1      32.128  22.373  24.196  1.00  0.00     0.185 C 
BRANCH  14  15
ATOM     15  C   UNL A   1      33.228  22.361  25.297  1.00  0.00     0.203 C 
ATOM     16  C   UNL A   1      33.887  23.733  25.527  1.00  0.00     0.073 C 
ATOM     17  N   UNL A   1      34.440  21.572  24.961  1.00  0.00    -0.333 N 
ATOM     18  C   UNL A   1      35.286  23.420  26.072  1.00  0.00     0.068 C 
ATOM     19  C   UNL A   1      35.388  21.907  26.031  1.00  0.00     0.262 C 
ATOM     20  C   UNL A   1      34.207  20.139  24.913  1.00  0.00     0.333 C 
ATOM     21  H   UNL A   1      34.777  21.803  24.026  1.00  0.00     0.348 HD
ENDBRANCH  14  15
ENDBRANCH  12  14
ENDBRANCH  10  12
ENDBRANCH   8  10
ENDBRANCH   5   8
ENDBRANCH   3   5
ENDBRANCH   2   3
ENDBRANCH   1   2
BRANCH   1  22
ATOM     22  C   UNL A   1      31.813  28.751  27.282  1.00  0.00     0.202 C 
BRANCH  22  23
ATOM     23  O   UNL A   1      32.475  29.795  26.565  1.00  0.00    -0.374 OA
BRANCH  23  24
ATOM     24  C   UNL A   1      31.649  30.852  26.084  1.00  0.00     0.202 C 
BRANCH  24  25
ATOM     25  C   UNL A   1      31.846  32.227  26.721  1.00  0.00     0.261 C 
BRANCH  25  26
ATOM     26  O   UNL A   1      32.715  32.170  27.849  1.00  0.00    -0.460 OA
BRANCH  26  27
ATOM     27  C   UNL A   1      33.676  33.119  27.830  1.00  0.00     0.338 C 
ATOM     28  O   UNL A   1      33.549  34.323  27.698  1.00  0.00    -0.246 OA
BRANCH  27  29
ATOM     29  C   UNL A   1      34.948  32.482  28.179  1.00  0.00     0.060 A 
ATOM     30  C   UNL A   1      34.909  31.114  28.460  1.00  0.00     0.016 A 
ATOM     31  C   UNL A   1      36.137  33.211  28.258  1.00  0.00     0.016 A 
ATOM     32  C   UNL A   1      36.058  30.475  28.897  1.00  0.00     0.010 A 
ATOM     33  C   UNL A   1      37.292  32.568  28.697  1.00  0.00     0.010 A 
ATOM     34  C   UNL A   1      37.239  31.212  29.063  1.00  0.00    -0.014 A 
BRANCH  34  35
ATOM     35  C   UNL A   1      38.368  30.587  29.777  1.00  0.00     0.031 A 
ATOM     36  C   UNL A   1      38.548  30.884  31.237  1.00  0.00     0.074 A 
ATOM     37  C   UNL A   1      39.174  29.725  29.138  1.00  0.00     0.049 A 
ATOM     38  N   UNL A   1      39.453  30.434  32.066  1.00  0.00    -0.248 NA
ATOM     39  C   UNL A   1      37.579  31.812  31.845  1.00  0.00     0.031 C 
ATOM     40  C   UNL A   1      39.052  29.334  27.733  1.00  0.00     0.029 A 
ATOM     41  N   UNL A   1      40.251  29.015  29.596  1.00  0.00    -0.354 N 
ATOM     42  C   UNL A   1      39.166  31.027  33.289  1.00  0.00     0.074 A 
ATOM     43  C   UNL A   1      38.029  31.896  33.087  1.00  0.00     0.031 C 
ATOM     44  C   UNL A   1      40.017  28.445  27.446  1.00  0.00     0.029 A 
ATOM     45  C   UNL A   1      40.841  28.236  28.633  1.00  0.00     0.049 A 
ATOM     46  H   UNL A   1      40.571  29.059  30.526  1.00  0.00     0.167 HD
ATOM     47  C   UNL A   1      39.793  30.854  34.475  1.00  0.00     0.031 A 
ATOM     48  C   UNL A   1      41.935  27.456  28.706  1.00  0.00     0.031 A 
ATOM     49  C   UNL A   1      40.932  29.997  34.660  1.00  0.00     0.049 A 
ATOM     50  C   UNL A   1      42.662  27.344  30.018  1.00  0.00     0.074 A 
ATOM     51  C   UNL A   1      41.641  29.740  35.820  1.00  0.00     0.029 A 
ATOM     52  N   UNL A   1      41.536  29.264  33.648  1.00  0.00    -0.354 N 
ATOM     53  N   UNL A   1      42.371  27.889  31.175  1.00  0.00    -0.248 NA
ATOM     54  C   UNL A   1      43.862  26.498  30.035  1.00  0.00     0.031 C 
ATOM     55  C   UNL A   1      42.711  28.899  35.498  1.00  0.00     0.029 A 
ATOM     56  C   UNL A   1      42.628  28.577  34.152  1.00  0.00     0.049 A 
ATOM     57  H   UNL A   1      41.234  29.236  32.713  1.00  0.00     0.167 HD
ATOM     58  C   UNL A   1      43.334  27.430  32.064  1.00  0.00     0.074 A 
ATOM     59  C   UNL A   1      44.206  26.549  31.314  1.00  0.00     0.031 C 
ATOM     60  C   UNL A   1      43.484  27.709  33.383  1.00  0.00     0.031 A 
BRANCH  47  61
ATOM     61  C   UNL A   1      39.279  31.638  35.650  1.00  0.00    -0.014 A 
ATOM     62  C   UNL A   1      39.791  32.907  35.968  1.00  0.00     0.009 A 
ATOM     63  C   UNL A   1      38.251  31.105  36.444  1.00  0.00     0.009 A 
ATOM     64  C   UNL A   1      39.309  33.609  37.075  1.00  0.00     0.001 A 
ATOM     65  C   UNL A   1      37.750  31.822  37.532  1.00  0.00     0.001 A 
ATOM     66  C   UNL A   1      38.285  33.068  37.853  1.00  0.00     0.000 A 
ENDBRANCH  47  61
BRANCH  48  67
ATOM     67  C   UNL A   1      42.414  26.736  27.499  1.00  0.00    -0.014 A 
ATOM     68  C   UNL A   1      43.320  27.341  26.613  1.00  0.00     0.009 A 
ATOM     69  C   UNL A   1      41.959  25.437  27.220  1.00  0.00     0.009 A 
ATOM     70  C   UNL A   1      43.739  26.669  25.462  1.00  0.00     0.001 A 
ATOM     71  C   UNL A   1      42.404  24.757  26.086  1.00  0.00     0.001 A 
ATOM     72  C   UNL A   1      43.284  25.377  25.202  1.00  0.00     0.000 A 
ENDBRANCH  48  67
BRANCH  60  73
ATOM     73  C   UNL A   1      44.611  27.023  34.103  1.00  0.00    -0.014 A 
ATOM     74  C   UNL A   1      45.879  27.614  34.211  1.00  0.00     0.009 A 
ATOM     75  C   UNL A   1      44.385  25.779  34.715  1.00  0.00     0.009 A 
ATOM     76  C   UNL A   1      46.910  26.954  34.882  1.00  0.00     0.001 A 
ATOM     77  C   UNL A   1      45.408  25.138  35.415  1.00  0.00     0.001 A 
ATOM     78  C   UNL A   1      46.672  25.721  35.488  1.00  0.00     0.000 A 
ENDBRANCH  60  73
ENDBRANCH  34  35
ENDBRANCH  27  29
ENDBRANCH  26  27
ENDBRANCH  25  26
ENDBRANCH  24  25
ENDBRANCH  23  24
ENDBRANCH  22  23
ENDBRANCH   1  22
TORSDOF 20
ENDMDL
MODEL 3
REMARK VINA RESULT:      -8.8      3.794      8.567
REMARK SMILES CC[C@@H](C(=O)OCCOCCOC(=O)c1ccc(-c2c3nc(c(-c4ccccc4)c4ccc([nH]4)c(-c4ccccc4)c4nc(c(-c5ccccc5)c5ccc2[nH]5)C=C4)C=C3)cc1)N(C)C(=O)N(C)C[C@@H]1CCC[N@H+]1C
REMARK SMILES IDX 7 1 6 2 4 3 5 4 3 5 2 6 1 7 63 8 64 9 65 10 66 11 67 12
REMARK SMILES IDX 68 13 69 14 70 15 71 16 74 17 72 18 73 19 75 20 8 22 9 23
REMARK SMILES IDX 10 24 11 25 12 26 13 27 14 28 15 29 16 30 62 31 17 32 61 33
REMARK SMILES IDX 18 34 19 35 20 36 55 37 21 38 60 39 54 40 56 41 22 42 59 43
REMARK SMILES IDX 53 44 52 45 23 47 45 48 30 49 44 50 31 51 34 52 43 53 57 54
REMARK SMILES IDX 32 55 33 56 42 58 58 59 35 60 24 61 25 62 29 63 26 64 28 65
REMARK SMILES IDX 27 66 46 67 47 68 51 69 48 70 50 71 49 72 36 73 37 74 41 75
REMARK SMILES IDX 38 76 40 77 39 78
REMARK H PARENT 74 21 56 46 34 57
REMARK Flexibility Score: inf
ROOT
ATOM      1  C   UNL A   1      33.931  23.363  24.187  1.00  0.00     0.261 C 
ENDROOT
BRANCH   1   2
ATOM      2  O   UNL A   1      33.446  23.932  22.955  1.00  0.00    -0.462 OA
BRANCH   2   3
ATOM      3  C   UNL A   1      32.202  24.481  22.990  1.00  0.00     0.328 C 
ATOM      4  O   UNL A   1      31.209  23.883  23.395  1.00  0.00    -0.250 OA
BRANCH   3   5
ATOM      5  C   UNL A   1      32.148  25.896  22.360  1.00  0.00     0.196 C 
BRANCH   5   6
ATOM      6  C   UNL A   1      32.862  26.178  21.011  1.00  0.00     0.034 C 
ATOM      7  C   UNL A   1      32.439  25.307  19.831  1.00  0.00     0.007 C 
ENDBRANCH   5   6
BRANCH   5   8
ATOM      8  N   UNL A   1      32.487  26.890  23.451  1.00  0.00    -0.314 N 
ATOM      9  C   UNL A   1      33.716  27.621  23.204  1.00  0.00     0.149 C 
BRANCH   8  10
ATOM     10  C   UNL A   1      31.529  27.188  24.411  1.00  0.00     0.320 C 
ATOM     11  O   UNL A   1      30.470  27.713  24.048  1.00  0.00    -0.248 OA
BRANCH  10  12
ATOM     12  N   UNL A   1      31.680  26.929  25.766  1.00  0.00    -0.322 N 
ATOM     13  C   UNL A   1      31.758  25.678  26.506  1.00  0.00     0.149 C 
BRANCH  12  14
ATOM     14  C   UNL A   1      31.656  28.118  26.663  1.00  0.00     0.185 C 
BRANCH  14  15
ATOM     15  C   UNL A   1      32.887  29.066  26.573  1.00  0.00     0.203 C 
ATOM     16  C   UNL A   1      34.167  28.476  27.192  1.00  0.00     0.073 C 
ATOM     17  N   UNL A   1      32.784  30.305  27.385  1.00  0.00    -0.333 N 
ATOM     18  C   UNL A   1      35.004  29.690  27.615  1.00  0.00     0.068 C 
ATOM     19  C   UNL A   1      34.128  30.890  27.311  1.00  0.00     0.262 C 
ATOM     20  C   UNL A   1      31.789  31.242  26.891  1.00  0.00     0.333 C 
ATOM     21  H   UNL A   1      32.478  30.093  28.335  1.00  0.00     0.348 HD
ENDBRANCH  14  15
ENDBRANCH  12  14
ENDBRANCH  10  12
ENDBRANCH   8  10
ENDBRANCH   5   8
ENDBRANCH   3   5
ENDBRANCH   2   3
ENDBRANCH   1   2
BRANCH   1  22
ATOM     22  C   UNL A   1      33.709  21.845  24.195  1.00  0.00     0.202 C 
BRANCH  22  23
ATOM     23  O   UNL A   1      33.984  21.177  25.428  1.00  0.00    -0.374 OA
BRANCH  23  24
ATOM     24  C   UNL A   1      35.249  21.452  26.025  1.00  0.00     0.202 C 
BRANCH  24  25
ATOM     25  C   UNL A   1      36.473  20.799  25.382  1.00  0.00     0.261 C 
BRANCH  25  26
ATOM     26  O   UNL A   1      37.538  21.730  25.203  1.00  0.00    -0.460 OA
BRANCH  26  27
ATOM     27  C   UNL A   1      38.675  21.365  25.835  1.00  0.00     0.338 C 
ATOM     28  O   UNL A   1      39.236  20.286  25.822  1.00  0.00    -0.246 OA
BRANCH  27  29
ATOM     29  C   UNL A   1      39.262  22.566  26.435  1.00  0.00     0.060 A 
ATOM     30  C   UNL A   1      38.652  23.785  26.128  1.00  0.00     0.016 A 
ATOM     31  C   UNL A   1      40.397  22.501  27.248  1.00  0.00     0.016 A 
ATOM     32  C   UNL A   1      39.221  24.965  26.579  1.00  0.00     0.010 A 
ATOM     33  C   UNL A   1      40.968  23.688  27.701  1.00  0.00     0.010 A 
ATOM     34  C   UNL A   1      40.406  24.920  27.325  1.00  0.00    -0.014 A 
BRANCH  34  35
ATOM     35  C   UNL A   1      41.140  26.177  27.565  1.00  0.00     0.031 A 
ATOM     36  C   UNL A   1      40.503  27.227  28.428  1.00  0.00     0.074 A 
ATOM     37  C   UNL A   1      42.375  26.341  27.068  1.00  0.00     0.049 A 
ATOM     38  N   UNL A   1      40.969  28.394  28.788  1.00  0.00    -0.248 NA
ATOM     39  C   UNL A   1      39.161  26.923  28.955  1.00  0.00     0.031 C 
ATOM     40  C   UNL A   1      43.100  25.360  26.259  1.00  0.00     0.029 A 
ATOM     41  N   UNL A   1      43.242  27.394  27.182  1.00  0.00    -0.354 N 
ATOM     42  C   UNL A   1      39.978  28.964  29.578  1.00  0.00     0.074 A 
ATOM     43  C   UNL A   1      38.872  28.034  29.614  1.00  0.00     0.031 C 
ATOM     44  C   UNL A   1      44.310  25.858  25.955  1.00  0.00     0.029 A 
ATOM     45  C   UNL A   1      44.426  27.201  26.516  1.00  0.00     0.049 A 
ATOM     46  H   UNL A   1      43.037  28.210  27.692  1.00  0.00     0.167 HD
ATOM     47  C   UNL A   1      39.995  30.154  30.221  1.00  0.00     0.031 A 
ATOM     48  C   UNL A   1      45.476  28.029  26.366  1.00  0.00     0.031 A 
ATOM     49  C   UNL A   1      41.096  31.077  30.165  1.00  0.00     0.049 A 
ATOM     50  C   UNL A   1      45.437  29.380  27.026  1.00  0.00     0.074 A 
ATOM     51  C   UNL A   1      41.224  32.307  30.786  1.00  0.00     0.029 A 
ATOM     52  N   UNL A   1      42.258  30.871  29.436  1.00  0.00    -0.354 N 
ATOM     53  N   UNL A   1      44.506  29.902  27.789  1.00  0.00    -0.248 NA
ATOM     54  C   UNL A   1      46.598  30.252  26.811  1.00  0.00     0.031 C 
ATOM     55  C   UNL A   1      42.438  32.872  30.381  1.00  0.00     0.029 A 
ATOM     56  C   UNL A   1      43.096  31.965  29.566  1.00  0.00     0.049 A 
ATOM     57  H   UNL A   1      42.458  30.066  28.905  1.00  0.00     0.167 HD
ATOM     58  C   UNL A   1      44.982  31.149  28.169  1.00  0.00     0.074 A 
ATOM     59  C   UNL A   1      46.292  31.297  27.565  1.00  0.00     0.031 C 
ATOM     60  C   UNL A   1      44.393  32.089  28.950  1.00  0.00     0.031 A 
BRANCH  47  61
ATOM     61  C   UNL A   1      38.770  30.535  31.004  1.00  0.00    -0.014 A 
ATOM     62  C   UNL A   1      38.638  30.216  32.364  1.00  0.00     0.009 A 
ATOM     63  C   UNL A   1      37.735  31.242  30.370  1.00  0.00     0.009 A 
ATOM     64  C   UNL A   1      37.481  30.566  33.065  1.00  0.00     0.001 A 
ATOM     65  C   UNL A   1      36.594  31.619  31.081  1.00  0.00     0.001 A 
ATOM     66  C   UNL A   1      36.463  31.272  32.424  1.00  0.00     0.000 A 
ENDBRANCH  47  61
BRANCH  48  67
ATOM     67  C   UNL A   1      46.642  27.608  25.548  1.00  0.00    -0.014 A 
ATOM     68  C   UNL A   1      47.720  26.924  26.131  1.00  0.00     0.009 A 
ATOM     69  C   UNL A   1      46.687  27.897  24.175  1.00  0.00     0.009 A 
ATOM     70  C   UNL A   1      48.828  26.562  25.362  1.00  0.00     0.001 A 
ATOM     71  C   UNL A   1      47.781  27.506  23.402  1.00  0.00     0.001 A 
ATOM     72  C   UNL A   1      48.856  26.849  23.998  1.00  0.00     0.000 A 
ENDBRANCH  48  67
BRANCH  60  73
ATOM     73  C   UNL A   1      45.178  33.342  29.223  1.00  0.00    -0.014 A 
ATOM     74  C   UNL A   1      46.068  33.428  30.306  1.00  0.00     0.009 A 
ATOM     75  C   UNL A   1      45.050  34.441  28.358  1.00  0.00     0.009 A 
ATOM     76  C   UNL A   1      46.782  34.605  30.538  1.00  0.00     0.001 A 
ATOM     77  C   UNL A   1      45.792  35.603  28.574  1.00  0.00     0.001 A 
ATOM     78  C   UNL A   1      46.648  35.688  29.670  1.00  0.00     0.000 A 
ENDBRANCH  60  73
ENDBRANCH  34  35
ENDBRANCH  27  29
ENDBRANCH  26  27
ENDBRANCH  25  26
ENDBRANCH  24  25
ENDBRANCH  23  24
ENDBRANCH  22  23
ENDBRANCH   1  22
TORSDOF 20
ENDMDL
