MODEL 1
REMARK VINA RESULT:     -11.4      0.000      0.000
REMARK SMILES [NH3+][C@H]1CN(C(=O)OCC2c3ccccc3-c3ccccc32)C[C@@H]1C(=O)OCCOCCOC(=O)c1ccc(-c2c3nc(c(-c4ccccc4)c4ccc([nH]4)c(-c4ccccc4)c4nc(c(-c5ccccc5)c5ccc2[nH]5)C=C4)C=C3)cc1
REMARK SMILES IDX 28 1 27 2 26 3 24 4 25 5 23 6 2 7 3 8 4 9 22 10 1 11 5 15
REMARK SMILES IDX 6 16 7 17 8 18 9 19 10 20 21 21 11 22 15 23 16 24 20 25
REMARK SMILES IDX 12 26 14 27 17 28 19 29 13 30 18 31 29 32 30 33 31 34 32 35
REMARK SMILES IDX 33 36 34 37 35 38 36 39 82 40 37 41 81 42 38 43 39 44 40 45
REMARK SMILES IDX 75 46 41 47 80 48 74 49 76 50 42 51 79 52 73 53 72 54 43 56
REMARK SMILES IDX 65 57 50 58 64 59 51 60 54 61 63 62 77 63 52 64 53 65 62 67
REMARK SMILES IDX 78 68 55 69 44 70 45 71 49 72 46 73 48 74 47 75 66 76 67 77
REMARK SMILES IDX 71 78 68 79 70 80 69 81 56 82 57 83 61 84 58 85 60 86 59 87
REMARK H PARENT 1 12 1 13 1 14 76 55 54 66
REMARK Flexibility Score: inf
ROOT
ATOM      1  C   UNL A   1      32.191  29.604  27.254  1.00  0.00     0.202 C 
ENDROOT
BRANCH   1   2
ATOM      2  C   UNL A   1      32.258  28.216  26.611  1.00  0.00     0.261 C 
BRANCH   2   3
ATOM      3  O   UNL A   1      31.147  27.988  25.735  1.00  0.00    -0.463 OA
BRANCH   3   4
ATOM      4  C   UNL A   1      31.414  28.098  24.402  1.00  0.00     0.316 C 
ATOM      5  O   UNL A   1      32.490  28.427  23.923  1.00  0.00    -0.252 OA
BRANCH   4   6
ATOM      6  C   UNL A   1      30.218  27.649  23.585  1.00  0.00     0.178 C 
ATOM      7  C   UNL A   1      29.461  26.522  24.313  1.00  0.00     0.216 C 
ATOM      8  C   UNL A   1      30.297  25.264  23.957  1.00  0.00     0.188 C 
ATOM      9  N   UNL A   1      31.105  25.670  22.814  1.00  0.00    -0.301 N 
ATOM     10  C   UNL A   1      30.700  26.966  22.324  1.00  0.00     0.145 C 
BRANCH   7  11
ATOM     11  N   UNL A   1      28.075  26.431  23.816  1.00  0.00    -0.353 N 
ATOM     12  H   UNL A   1      27.974  25.593  23.244  1.00  0.00     0.344 HD
ATOM     13  H   UNL A   1      27.861  27.255  23.255  1.00  0.00     0.344 HD
ATOM     14  H   UNL A   1      27.433  26.382  24.607  1.00  0.00     0.344 HD
ENDBRANCH   7  11
BRANCH   9  15
ATOM     15  C   UNL A   1      32.327  25.140  22.502  1.00  0.00     0.410 C 
ATOM     16  O   UNL A   1      33.239  25.796  22.021  1.00  0.00    -0.224 OA
BRANCH  15  17
ATOM     17  O   UNL A   1      32.373  23.808  22.738  1.00  0.00    -0.448 OA
BRANCH  17  18
ATOM     18  C   UNL A   1      33.702  23.260  22.862  1.00  0.00     0.248 C 
BRANCH  18  19
ATOM     19  C   UNL A   1      33.863  22.614  24.250  1.00  0.00     0.088 C 
ATOM     20  C   UNL A   1      33.649  21.099  24.282  1.00  0.00    -0.029 A 
ATOM     21  C   UNL A   1      35.300  22.724  24.752  1.00  0.00    -0.029 A 
ATOM     22  C   UNL A   1      32.499  20.369  24.023  1.00  0.00     0.005 A 
ATOM     23  C   UNL A   1      34.833  20.447  24.690  1.00  0.00    -0.014 A 
ATOM     24  C   UNL A   1      35.838  21.443  24.990  1.00  0.00    -0.014 A 
ATOM     25  C   UNL A   1      36.037  23.874  24.998  1.00  0.00     0.005 A 
ATOM     26  C   UNL A   1      32.553  18.976  24.102  1.00  0.00     0.000 A 
ATOM     27  C   UNL A   1      34.886  19.064  24.780  1.00  0.00     0.009 A 
ATOM     28  C   UNL A   1      37.127  21.301  25.474  1.00  0.00     0.009 A 
ATOM     29  C   UNL A   1      37.338  23.730  25.481  1.00  0.00     0.000 A 
ATOM     30  C   UNL A   1      33.740  18.327  24.471  1.00  0.00     0.001 A 
ATOM     31  C   UNL A   1      37.878  22.456  25.717  1.00  0.00     0.001 A 
ENDBRANCH  18  19
ENDBRANCH  17  18
ENDBRANCH  15  17
ENDBRANCH   9  15
ENDBRANCH   4   6
ENDBRANCH   3   4
ENDBRANCH   2   3
ENDBRANCH   1   2
BRANCH   1  32
ATOM     32  O   UNL A   1      32.329  30.730  26.389  1.00  0.00    -0.374 OA
BRANCH  32  33
ATOM     33  C   UNL A   1      31.396  31.800  26.522  1.00  0.00     0.202 C 
BRANCH  33  34
ATOM     34  C   UNL A   1      31.952  33.213  26.729  1.00  0.00     0.261 C 
BRANCH  34  35
ATOM     35  O   UNL A   1      32.312  33.474  28.097  1.00  0.00    -0.460 OA
BRANCH  35  36
ATOM     36  C   UNL A   1      33.401  34.266  28.247  1.00  0.00     0.338 C 
ATOM     37  O   UNL A   1      33.428  35.484  28.318  1.00  0.00    -0.246 OA
BRANCH  36  38
ATOM     38  C   UNL A   1      34.601  33.446  28.488  1.00  0.00     0.060 A 
ATOM     39  C   UNL A   1      34.407  32.142  28.961  1.00  0.00     0.016 A 
ATOM     40  C   UNL A   1      35.887  33.976  28.369  1.00  0.00     0.016 A 
ATOM     41  C   UNL A   1      35.498  31.377  29.364  1.00  0.00     0.010 A 
ATOM     42  C   UNL A   1      36.982  33.211  28.788  1.00  0.00     0.010 A 
ATOM     43  C   UNL A   1      36.787  31.924  29.321  1.00  0.00    -0.014 A 
BRANCH  43  44
ATOM     44  C   UNL A   1      37.903  31.202  29.978  1.00  0.00     0.031 A 
ATOM     45  C   UNL A   1      38.193  31.474  31.429  1.00  0.00     0.074 A 
ATOM     46  C   UNL A   1      38.618  30.282  29.307  1.00  0.00     0.049 A 
ATOM     47  N   UNL A   1      39.127  30.971  32.196  1.00  0.00    -0.248 NA
ATOM     48  C   UNL A   1      37.308  32.435  32.109  1.00  0.00     0.031 C 
ATOM     49  C   UNL A   1      38.400  29.888  27.915  1.00  0.00     0.029 A 
ATOM     50  N   UNL A   1      39.674  29.508  29.716  1.00  0.00    -0.354 N 
ATOM     51  C   UNL A   1      38.940  31.549  33.445  1.00  0.00     0.074 A 
ATOM     52  C   UNL A   1      37.825  32.463  33.329  1.00  0.00     0.031 C 
ATOM     53  C   UNL A   1      39.304  28.951  27.582  1.00  0.00     0.029 A 
ATOM     54  C   UNL A   1      40.179  28.702  28.726  1.00  0.00     0.049 A 
ATOM     55  H   UNL A   1      40.036  29.529  30.631  1.00  0.00     0.167 HD
ATOM     56  C   UNL A   1      39.627  31.330  34.591  1.00  0.00     0.031 A 
ATOM     57  C   UNL A   1      41.240  27.872  28.737  1.00  0.00     0.031 A 
ATOM     58  C   UNL A   1      40.749  30.439  34.708  1.00  0.00     0.049 A 
ATOM     59  C   UNL A   1      42.045  27.719  30.001  1.00  0.00     0.074 A 
ATOM     60  C   UNL A   1      41.525  30.169  35.822  1.00  0.00     0.029 A 
ATOM     61  N   UNL A   1      41.255  29.671  33.672  1.00  0.00    -0.354 N 
ATOM     62  N   UNL A   1      41.855  28.269  31.176  1.00  0.00    -0.248 NA
ATOM     63  C   UNL A   1      43.210  26.822  29.939  1.00  0.00     0.031 C 
ATOM     64  C   UNL A   1      42.526  29.267  35.449  1.00  0.00     0.029 A 
ATOM     65  C   UNL A   1      42.341  28.939  34.115  1.00  0.00     0.049 A 
ATOM     66  H   UNL A   1      40.894  29.651  32.755  1.00  0.00     0.167 HD
ATOM     67  C   UNL A   1      42.855  27.762  31.998  1.00  0.00     0.074 A 
ATOM     68  C   UNL A   1      43.640  26.850  31.193  1.00  0.00     0.031 C 
ATOM     69  C   UNL A   1      43.102  28.028  33.303  1.00  0.00     0.031 A 
BRANCH  56  70
ATOM     70  C   UNL A   1      39.192  32.086  35.814  1.00  0.00    -0.014 A 
ATOM     71  C   UNL A   1      39.718  33.355  36.101  1.00  0.00     0.009 A 
ATOM     72  C   UNL A   1      38.209  31.548  36.658  1.00  0.00     0.009 A 
ATOM     73  C   UNL A   1      39.283  34.061  37.225  1.00  0.00     0.001 A 
ATOM     74  C   UNL A   1      37.760  32.266  37.768  1.00  0.00     0.001 A 
ATOM     75  C   UNL A   1      38.300  33.520  38.053  1.00  0.00     0.000 A 
ENDBRANCH  56  70
BRANCH  57  76
ATOM     76  C   UNL A   1      41.636  27.140  27.505  1.00  0.00    -0.014 A 
ATOM     77  C   UNL A   1      41.311  25.785  27.339  1.00  0.00     0.009 A 
ATOM     78  C   UNL A   1      42.388  27.785  26.511  1.00  0.00     0.009 A 
ATOM     79  C   UNL A   1      41.762  25.082  26.219  1.00  0.00     0.001 A 
ATOM     80  C   UNL A   1      42.812  27.088  25.378  1.00  0.00     0.001 A 
ATOM     81  C   UNL A   1      42.510  25.734  25.239  1.00  0.00     0.000 A 
ENDBRANCH  57  76
BRANCH  69  82
ATOM     82  C   UNL A   1      44.239  27.291  33.952  1.00  0.00    -0.014 A 
ATOM     83  C   UNL A   1      44.032  26.073  34.618  1.00  0.00     0.009 A 
ATOM     84  C   UNL A   1      45.542  27.806  33.861  1.00  0.00     0.009 A 
ATOM     85  C   UNL A   1      45.105  25.401  35.209  1.00  0.00     0.001 A 
ATOM     86  C   UNL A   1      46.615  27.120  34.431  1.00  0.00     0.001 A 
ATOM     87  C   UNL A   1      46.395  25.923  35.111  1.00  0.00     0.000 A 
ENDBRANCH  69  82
ENDBRANCH  43  44
ENDBRANCH  36  38
ENDBRANCH  35  36
ENDBRANCH  34  35
ENDBRANCH  33  34
ENDBRANCH  32  33
ENDBRANCH   1  32
TORSDOF 19
ENDMDL
MODEL 2
REMARK VINA RESULT:     -11.0      4.115      8.818
REMARK SMILES [NH3+][C@H]1CN(C(=O)OCC2c3ccccc3-c3ccccc32)C[C@@H]1C(=O)OCCOCCOC(=O)c1ccc(-c2c3nc(c(-c4ccccc4)c4ccc([nH]4)c(-c4ccccc4)c4nc(c(-c5ccccc5)c5ccc2[nH]5)C=C4)C=C3)cc1
REMARK SMILES IDX 28 1 27 2 26 3 24 4 25 5 23 6 2 7 3 8 4 9 22 10 1 11 5 15
REMARK SMILES IDX 6 16 7 17 8 18 9 19 10 20 21 21 11 22 15 23 16 24 20 25
REMARK SMILES IDX 12 26 14 27 17 28 19 29 13 30 18 31 29 32 30 33 31 34 32 35
REMARK SMILES IDX 33 36 34 37 35 38 36 39 82 40 37 41 81 42 38 43 39 44 40 45
REMARK SMILES IDX 75 46 41 47 80 48 74 49 76 50 42 51 79 52 73 53 72 54 43 56
REMARK SMILES IDX 65 57 50 58 64 59 51 60 54 61 63 62 77 63 52 64 53 65 62 67
REMARK SMILES IDX 78 68 55 69 44 70 45 71 49 72 46 73 48 74 47 75 66 76 67 77
REMARK SMILES IDX 71 78 68 79 70 80 69 81 56 82 57 83 61 84 58 85 60 86 59 87
REMARK H PARENT 1 12 1 13 1 14 76 55 54 66
REMARK Flexibility Score: inf
ROOT
ATOM      1  C   UNL A   1      36.629  21.424  24.870  1.00  0.00     0.202 C 
ENDROOT
BRANCH   1   2
ATOM      2  C   UNL A   1      36.171  22.819  24.438  1.00  0.00     0.261 C 
BRANCH   2   3
ATOM      3  O   UNL A   1      34.748  22.962  24.541  1.00  0.00    -0.463 OA
BRANCH   3   4
ATOM      4  C   UNL A   1      34.281  23.345  25.763  1.00  0.00     0.316 C 
ATOM      5  O   UNL A   1      34.195  24.500  26.156  1.00  0.00    -0.252 OA
BRANCH   4   6
ATOM      6  C   UNL A   1      33.775  22.141  26.536  1.00  0.00     0.178 C 
ATOM      7  C   UNL A   1      33.083  21.145  25.587  1.00  0.00     0.216 C 
ATOM      8  C   UNL A   1      31.666  21.756  25.426  1.00  0.00     0.188 C 
ATOM      9  N   UNL A   1      31.541  22.697  26.533  1.00  0.00    -0.301 N 
ATOM     10  C   UNL A   1      32.649  22.570  27.450  1.00  0.00     0.145 C 
BRANCH   7  11
ATOM     11  N   UNL A   1      33.046  19.801  26.194  1.00  0.00    -0.353 N 
ATOM     12  H   UNL A   1      33.645  19.171  25.660  1.00  0.00     0.344 HD
ATOM     13  H   UNL A   1      32.089  19.449  26.184  1.00  0.00     0.344 HD
ATOM     14  H   UNL A   1      33.378  19.853  27.157  1.00  0.00     0.344 HD
ENDBRANCH   7  11
BRANCH   9  15
ATOM     15  C   UNL A   1      30.758  23.818  26.511  1.00  0.00     0.410 C 
ATOM     16  O   UNL A   1      29.806  23.984  27.261  1.00  0.00    -0.224 OA
BRANCH  15  17
ATOM     17  O   UNL A   1      31.130  24.674  25.532  1.00  0.00    -0.448 OA
BRANCH  17  18
ATOM     18  C   UNL A   1      30.425  25.933  25.528  1.00  0.00     0.248 C 
BRANCH  18  19
ATOM     19  C   UNL A   1      31.225  26.967  24.715  1.00  0.00     0.088 C 
ATOM     20  C   UNL A   1      30.373  27.989  23.960  1.00  0.00    -0.029 A 
ATOM     21  C   UNL A   1      32.047  27.876  25.624  1.00  0.00    -0.029 A 
ATOM     22  C   UNL A   1      29.480  27.789  22.918  1.00  0.00     0.005 A 
ATOM     23  C   UNL A   1      30.641  29.292  24.431  1.00  0.00    -0.014 A 
ATOM     24  C   UNL A   1      31.675  29.223  25.440  1.00  0.00    -0.014 A 
ATOM     25  C   UNL A   1      33.054  27.519  26.510  1.00  0.00     0.005 A 
ATOM     26  C   UNL A   1      28.798  28.890  22.394  1.00  0.00     0.000 A 
ATOM     27  C   UNL A   1      29.974  30.388  23.905  1.00  0.00     0.009 A 
ATOM     28  C   UNL A   1      32.308  30.230  26.149  1.00  0.00     0.009 A 
ATOM     29  C   UNL A   1      33.688  28.534  27.227  1.00  0.00     0.000 A 
ATOM     30  C   UNL A   1      29.038  30.179  22.888  1.00  0.00     0.001 A 
ATOM     31  C   UNL A   1      33.319  29.877  27.048  1.00  0.00     0.001 A 
ENDBRANCH  18  19
ENDBRANCH  17  18
ENDBRANCH  15  17
ENDBRANCH   9  15
ENDBRANCH   4   6
ENDBRANCH   3   4
ENDBRANCH   2   3
ENDBRANCH   1   2
BRANCH   1  32
ATOM     32  O   UNL A   1      38.034  21.199  24.964  1.00  0.00    -0.374 OA
BRANCH  32  33
ATOM     33  C   UNL A   1      38.505  19.853  24.935  1.00  0.00     0.202 C 
BRANCH  33  34
ATOM     34  C   UNL A   1      39.629  19.467  25.904  1.00  0.00     0.261 C 
BRANCH  34  35
ATOM     35  O   UNL A   1      40.904  19.335  25.249  1.00  0.00    -0.460 OA
BRANCH  35  36
ATOM     36  C   UNL A   1      41.971  19.493  26.069  1.00  0.00     0.338 C 
ATOM     37  O   UNL A   1      42.881  18.703  26.262  1.00  0.00    -0.246 OA
BRANCH  36  38
ATOM     38  C   UNL A   1      42.002  20.862  26.612  1.00  0.00     0.060 A 
ATOM     39  C   UNL A   1      42.149  21.915  25.700  1.00  0.00     0.016 A 
ATOM     40  C   UNL A   1      42.004  21.105  27.987  1.00  0.00     0.016 A 
ATOM     41  C   UNL A   1      42.351  23.213  26.160  1.00  0.00     0.010 A 
ATOM     42  C   UNL A   1      42.220  22.409  28.448  1.00  0.00     0.010 A 
ATOM     43  C   UNL A   1      42.431  23.460  27.537  1.00  0.00    -0.014 A 
BRANCH  43  44
ATOM     44  C   UNL A   1      42.889  24.788  28.009  1.00  0.00     0.031 A 
ATOM     45  C   UNL A   1      41.865  25.857  28.284  1.00  0.00     0.074 A 
ATOM     46  C   UNL A   1      44.192  25.027  28.237  1.00  0.00     0.049 A 
ATOM     47  N   UNL A   1      42.042  27.090  28.685  1.00  0.00    -0.248 NA
ATOM     48  C   UNL A   1      40.454  25.484  28.088  1.00  0.00     0.031 C 
ATOM     49  C   UNL A   1      45.274  24.059  28.062  1.00  0.00     0.029 A 
ATOM     50  N   UNL A   1      44.824  26.166  28.669  1.00  0.00    -0.354 N 
ATOM     51  C   UNL A   1      40.769  27.637  28.794  1.00  0.00     0.074 A 
ATOM     52  C   UNL A   1      39.830  26.614  28.388  1.00  0.00     0.031 C 
ATOM     53  C   UNL A   1      46.441  24.650  28.376  1.00  0.00     0.029 A 
ATOM     54  C   UNL A   1      46.189  26.041  28.744  1.00  0.00     0.049 A 
ATOM     55  H   UNL A   1      44.344  26.993  28.903  1.00  0.00     0.167 HD
ATOM     56  C   UNL A   1      40.412  28.876  29.206  1.00  0.00     0.031 A 
ATOM     57  C   UNL A   1      47.129  26.954  29.056  1.00  0.00     0.031 A 
ATOM     58  C   UNL A   1      41.341  29.903  29.590  1.00  0.00     0.049 A 
ATOM     59  C   UNL A   1      46.708  28.354  29.420  1.00  0.00     0.074 A 
ATOM     60  C   UNL A   1      41.075  31.199  29.999  1.00  0.00     0.029 A 
ATOM     61  N   UNL A   1      42.718  29.750  29.614  1.00  0.00    -0.354 N 
ATOM     62  N   UNL A   1      45.501  28.856  29.522  1.00  0.00    -0.248 NA
ATOM     63  C   UNL A   1      47.784  29.312  29.719  1.00  0.00     0.031 C 
ATOM     64  C   UNL A   1      42.295  31.842  30.233  1.00  0.00     0.029 A 
ATOM     65  C   UNL A   1      43.316  30.931  30.016  1.00  0.00     0.049 A 
ATOM     66  H   UNL A   1      43.199  28.923  29.378  1.00  0.00     0.167 HD
ATOM     67  C   UNL A   1      45.672  30.175  29.925  1.00  0.00     0.074 A 
ATOM     68  C   UNL A   1      47.097  30.392  30.064  1.00  0.00     0.031 C 
ATOM     69  C   UNL A   1      44.734  31.124  30.159  1.00  0.00     0.031 A 
BRANCH  56  70
ATOM     70  C   UNL A   1      38.945  29.196  29.244  1.00  0.00    -0.014 A 
ATOM     71  C   UNL A   1      38.199  29.012  30.418  1.00  0.00     0.009 A 
ATOM     72  C   UNL A   1      38.315  29.735  28.112  1.00  0.00     0.009 A 
ATOM     73  C   UNL A   1      36.842  29.343  30.451  1.00  0.00     0.001 A 
ATOM     74  C   UNL A   1      36.965  30.086  28.155  1.00  0.00     0.001 A 
ATOM     75  C   UNL A   1      36.228  29.885  29.322  1.00  0.00     0.000 A 
ENDBRANCH  56  70
BRANCH  57  76
ATOM     76  C   UNL A   1      48.571  26.596  29.007  1.00  0.00    -0.014 A 
ATOM     77  C   UNL A   1      49.232  26.122  30.151  1.00  0.00     0.009 A 
ATOM     78  C   UNL A   1      49.305  26.775  27.825  1.00  0.00     0.009 A 
ATOM     79  C   UNL A   1      50.606  25.871  30.120  1.00  0.00     0.001 A 
ATOM     80  C   UNL A   1      50.671  26.495  27.788  1.00  0.00     0.001 A 
ATOM     81  C   UNL A   1      51.324  26.055  28.939  1.00  0.00     0.000 A 
ENDBRANCH  57  76
BRANCH  69  82
ATOM     82  C   UNL A   1      45.215  32.465  30.633  1.00  0.00    -0.014 A 
ATOM     83  C   UNL A   1      45.500  33.500  29.728  1.00  0.00     0.009 A 
ATOM     84  C   UNL A   1      45.349  32.708  32.010  1.00  0.00     0.009 A 
ATOM     85  C   UNL A   1      45.940  34.741  30.191  1.00  0.00     0.001 A 
ATOM     86  C   UNL A   1      45.764  33.958  32.471  1.00  0.00     0.001 A 
ATOM     87  C   UNL A   1      46.068  34.970  31.561  1.00  0.00     0.000 A 
ENDBRANCH  69  82
ENDBRANCH  43  44
ENDBRANCH  36  38
ENDBRANCH  35  36
ENDBRANCH  34  35
ENDBRANCH  33  34
ENDBRANCH  32  33
ENDBRANCH   1  32
TORSDOF 19
ENDMDL
MODEL 3
REMARK VINA RESULT:     -11.0      1.863      6.002
REMARK SMILES [NH3+][C@H]1CN(C(=O)OCC2c3ccccc3-c3ccccc32)C[C@@H]1C(=O)OCCOCCOC(=O)c1ccc(-c2c3nc(c(-c4ccccc4)c4ccc([nH]4)c(-c4ccccc4)c4nc(c(-c5ccccc5)c5ccc2[nH]5)C=C4)C=C3)cc1
REMARK SMILES IDX 28 1 27 2 26 3 24 4 25 5 23 6 2 7 3 8 4 9 22 10 1 11 5 15
REMARK SMILES IDX 6 16 7 17 8 18 9 19 10 20 21 21 11 22 15 23 16 24 20 25
REMARK SMILES IDX 12 26 14 27 17 28 19 29 13 30 18 31 29 32 30 33 31 34 32 35
REMARK SMILES IDX 33 36 34 37 35 38 36 39 82 40 37 41 81 42 38 43 39 44 40 45
REMARK SMILES IDX 75 46 41 47 80 48 74 49 76 50 42 51 79 52 73 53 72 54 43 56
REMARK SMILES IDX 65 57 50 58 64 59 51 60 54 61 63 62 77 63 52 64 53 65 62 67
REMARK SMILES IDX 78 68 55 69 44 70 45 71 49 72 46 73 48 74 47 75 66 76 67 77
REMARK SMILES IDX 71 78 68 79 70 80 69 81 56 82 57 83 61 84 58 85 60 86 59 87
REMARK H PARENT 1 12 1 13 1 14 76 55 54 66
REMARK Flexibility Score: inf
ROOT
ATOM      1  C   UNL A   1      33.191  29.650  27.549  1.00  0.00     0.202 C 
ENDROOT
BRANCH   1   2
ATOM      2  C   UNL A   1      33.339  28.370  26.721  1.00  0.00     0.261 C 
BRANCH   2   3
ATOM      3  O   UNL A   1      32.884  28.559  25.375  1.00  0.00    -0.463 OA
BRANCH   3   4
ATOM      4  C   UNL A   1      33.449  27.741  24.442  1.00  0.00     0.316 C 
ATOM      5  O   UNL A   1      34.039  26.696  24.682  1.00  0.00    -0.252 OA
BRANCH   4   6
ATOM      6  C   UNL A   1      33.150  28.249  23.044  1.00  0.00     0.178 C 
ATOM      7  C   UNL A   1      31.716  28.806  22.970  1.00  0.00     0.216 C 
ATOM      8  C   UNL A   1      30.861  27.524  22.790  1.00  0.00     0.188 C 
ATOM      9  N   UNL A   1      31.811  26.503  22.368  1.00  0.00    -0.301 N 
ATOM     10  C   UNL A   1      33.104  27.081  22.085  1.00  0.00     0.145 C 
BRANCH   7  11
ATOM     11  N   UNL A   1      31.584  29.732  21.828  1.00  0.00    -0.353 N 
ATOM     12  H   UNL A   1      31.503  30.688  22.174  1.00  0.00     0.344 HD
ATOM     13  H   UNL A   1      30.750  29.493  21.292  1.00  0.00     0.344 HD
ATOM     14  H   UNL A   1      32.406  29.653  21.231  1.00  0.00     0.344 HD
ENDBRANCH   7  11
BRANCH   9  15
ATOM     15  C   UNL A   1      31.665  25.164  22.606  1.00  0.00     0.410 C 
ATOM     16  O   UNL A   1      30.587  24.642  22.856  1.00  0.00    -0.224 OA
BRANCH  15  17
ATOM     17  O   UNL A   1      32.852  24.515  22.586  1.00  0.00    -0.448 OA
BRANCH  17  18
ATOM     18  C   UNL A   1      32.766  23.101  22.316  1.00  0.00     0.248 C 
BRANCH  18  19
ATOM     19  C   UNL A   1      33.344  22.315  23.506  1.00  0.00     0.088 C 
ATOM     20  C   UNL A   1      34.736  22.765  23.958  1.00  0.00    -0.029 A 
ATOM     21  C   UNL A   1      32.529  22.545  24.776  1.00  0.00    -0.029 A 
ATOM     22  C   UNL A   1      35.941  22.710  23.275  1.00  0.00     0.005 A 
ATOM     23  C   UNL A   1      34.688  23.242  25.286  1.00  0.00    -0.014 A 
ATOM     24  C   UNL A   1      33.340  23.095  25.790  1.00  0.00    -0.014 A 
ATOM     25  C   UNL A   1      31.190  22.257  24.999  1.00  0.00     0.005 A 
ATOM     26  C   UNL A   1      37.091  23.203  23.896  1.00  0.00     0.000 A 
ATOM     27  C   UNL A   1      35.831  23.720  25.909  1.00  0.00     0.009 A 
ATOM     28  C   UNL A   1      32.814  23.366  27.040  1.00  0.00     0.009 A 
ATOM     29  C   UNL A   1      30.659  22.536  26.259  1.00  0.00     0.000 A 
ATOM     30  C   UNL A   1      37.036  23.710  25.201  1.00  0.00     0.001 A 
ATOM     31  C   UNL A   1      31.463  23.085  27.270  1.00  0.00     0.001 A 
ENDBRANCH  18  19
ENDBRANCH  17  18
ENDBRANCH  15  17
ENDBRANCH   9  15
ENDBRANCH   4   6
ENDBRANCH   3   4
ENDBRANCH   2   3
ENDBRANCH   1   2
BRANCH   1  32
ATOM     32  O   UNL A   1      33.124  30.883  26.836  1.00  0.00    -0.374 OA
BRANCH  32  33
ATOM     33  C   UNL A   1      31.886  31.591  26.829  1.00  0.00     0.202 C 
BRANCH  33  34
ATOM     34  C   UNL A   1      31.934  33.118  26.954  1.00  0.00     0.261 C 
BRANCH  34  35
ATOM     35  O   UNL A   1      32.113  33.558  28.312  1.00  0.00    -0.460 OA
BRANCH  35  36
ATOM     36  C   UNL A   1      33.166  34.393  28.494  1.00  0.00     0.338 C 
ATOM     37  O   UNL A   1      33.140  35.610  28.584  1.00  0.00    -0.246 OA
BRANCH  36  38
ATOM     38  C   UNL A   1      34.394  33.620  28.746  1.00  0.00     0.060 A 
ATOM     39  C   UNL A   1      34.385  32.726  29.824  1.00  0.00     0.016 A 
ATOM     40  C   UNL A   1      35.565  33.847  28.019  1.00  0.00     0.016 A 
ATOM     41  C   UNL A   1      35.561  32.092  30.214  1.00  0.00     0.010 A 
ATOM     42  C   UNL A   1      36.749  33.219  28.421  1.00  0.00     0.010 A 
ATOM     43  C   UNL A   1      36.759  32.369  29.541  1.00  0.00    -0.014 A 
BRANCH  43  44
ATOM     44  C   UNL A   1      38.039  31.886  30.112  1.00  0.00     0.031 A 
ATOM     45  C   UNL A   1      38.619  30.592  29.611  1.00  0.00     0.074 A 
ATOM     46  C   UNL A   1      38.701  32.613  31.029  1.00  0.00     0.049 A 
ATOM     47  N   UNL A   1      39.713  29.975  29.981  1.00  0.00    -0.248 NA
ATOM     48  C   UNL A   1      37.870  29.902  28.547  1.00  0.00     0.031 C 
ATOM     49  C   UNL A   1      38.273  33.909  31.555  1.00  0.00     0.029 A 
ATOM     50  N   UNL A   1      39.883  32.359  31.678  1.00  0.00    -0.354 N 
ATOM     51  C   UNL A   1      39.785  28.833  29.193  1.00  0.00     0.074 A 
ATOM     52  C   UNL A   1      38.612  28.823  28.348  1.00  0.00     0.031 C 
ATOM     53  C   UNL A   1      39.177  34.333  32.456  1.00  0.00     0.029 A 
ATOM     54  C   UNL A   1      40.228  33.326  32.589  1.00  0.00     0.049 A 
ATOM     55  H   UNL A   1      40.431  31.559  31.508  1.00  0.00     0.167 HD
ATOM     56  C   UNL A   1      40.749  27.882  29.168  1.00  0.00     0.031 A 
ATOM     57  C   UNL A   1      41.265  33.382  33.447  1.00  0.00     0.031 A 
ATOM     58  C   UNL A   1      41.907  27.876  30.020  1.00  0.00     0.049 A 
ATOM     59  C   UNL A   1      42.273  32.263  33.463  1.00  0.00     0.074 A 
ATOM     60  C   UNL A   1      42.927  26.942  30.084  1.00  0.00     0.029 A 
ATOM     61  N   UNL A   1      42.199  28.853  30.957  1.00  0.00    -0.354 N 
ATOM     62  N   UNL A   1      42.331  31.190  32.711  1.00  0.00    -0.248 NA
ATOM     63  C   UNL A   1      43.363  32.368  34.444  1.00  0.00     0.031 C 
ATOM     64  C   UNL A   1      43.816  27.335  31.089  1.00  0.00     0.029 A 
ATOM     65  C   UNL A   1      43.375  28.538  31.615  1.00  0.00     0.049 A 
ATOM     66  H   UNL A   1      41.650  29.653  31.130  1.00  0.00     0.167 HD
ATOM     67  C   UNL A   1      43.478  30.511  33.107  1.00  0.00     0.074 A 
ATOM     68  C   UNL A   1      44.092  31.299  34.154  1.00  0.00     0.031 C 
ATOM     69  C   UNL A   1      43.977  29.340  32.646  1.00  0.00     0.031 A 
BRANCH  56  70
ATOM     70  C   UNL A   1      40.581  26.753  28.192  1.00  0.00    -0.014 A 
ATOM     71  C   UNL A   1      39.839  25.611  28.533  1.00  0.00     0.009 A 
ATOM     72  C   UNL A   1      41.125  26.853  26.902  1.00  0.00     0.009 A 
ATOM     73  C   UNL A   1      39.664  24.581  27.606  1.00  0.00     0.001 A 
ATOM     74  C   UNL A   1      40.928  25.833  25.971  1.00  0.00     0.001 A 
ATOM     75  C   UNL A   1      40.203  24.696  26.325  1.00  0.00     0.000 A 
ENDBRANCH  56  70
BRANCH  57  76
ATOM     76  C   UNL A   1      41.396  34.519  34.396  1.00  0.00    -0.014 A 
ATOM     77  C   UNL A   1      40.776  34.480  35.654  1.00  0.00     0.009 A 
ATOM     78  C   UNL A   1      42.103  35.673  34.023  1.00  0.00     0.009 A 
ATOM     79  C   UNL A   1      40.831  35.588  36.504  1.00  0.00     0.001 A 
ATOM     80  C   UNL A   1      42.182  36.767  34.887  1.00  0.00     0.001 A 
ATOM     81  C   UNL A   1      41.535  36.729  36.121  1.00  0.00     0.000 A 
ENDBRANCH  57  76
BRANCH  69  82
ATOM     82  C   UNL A   1      45.272  28.863  33.239  1.00  0.00    -0.014 A 
ATOM     83  C   UNL A   1      46.508  29.260  32.705  1.00  0.00     0.009 A 
ATOM     84  C   UNL A   1      45.253  28.034  34.372  1.00  0.00     0.009 A 
ATOM     85  C   UNL A   1      47.700  28.810  33.276  1.00  0.00     0.001 A 
ATOM     86  C   UNL A   1      46.447  27.607  34.956  1.00  0.00     0.001 A 
ATOM     87  C   UNL A   1      47.668  27.987  34.403  1.00  0.00     0.000 A 
ENDBRANCH  69  82
ENDBRANCH  43  44
ENDBRANCH  36  38
ENDBRANCH  35  36
ENDBRANCH  34  35
ENDBRANCH  33  34
ENDBRANCH  32  33
ENDBRANCH   1  32
TORSDOF 19
ENDMDL
