MODEL 1
REMARK VINA RESULT:     -11.0      0.000      0.000
REMARK SMILES Cc1ccc2oc(C(=O)N[C@@H]3C=C[C@H](C(=O)OCCOCCOC(=O)c4ccc(-c5c6nc(c(-c7ccccc7)c7ccc([nH]7)c(-c7ccccc7)c7nc(c(-c8ccccc8)c8ccc5[nH]8)C=C7)C=C6)cc4)C3)cc2c1
REMARK SMILES IDX 20 1 19 2 18 3 17 4 15 5 16 6 14 7 11 8 12 9 74 10 13 11
REMARK SMILES IDX 10 12 8 13 9 14 7 16 1 17 2 18 3 19 77 20 4 21 76 22 5 23
REMARK SMILES IDX 75 24 6 25 21 26 22 27 23 28 24 29 25 30 26 31 27 32 73 33
REMARK SMILES IDX 28 34 72 35 29 36 30 37 31 38 66 39 32 40 71 41 65 42 67 43
REMARK SMILES IDX 33 44 70 45 64 46 63 47 34 49 56 50 41 51 55 52 42 53 45 54
REMARK SMILES IDX 54 55 68 56 43 57 44 58 53 60 69 61 46 62 35 63 36 64 40 65
REMARK SMILES IDX 37 66 39 67 38 68 57 69 58 70 62 71 59 72 61 73 60 74 47 75
REMARK SMILES IDX 48 76 52 77 49 78 51 79 50 80
REMARK H PARENT 10 15 67 48 45 59
REMARK Flexibility Score: inf
ROOT
ATOM      1  O   UNL A   1      33.824  30.665  27.605  1.00  0.00    -0.374 OA
ENDROOT
BRANCH   1   2
ATOM      2  C   UNL A   1      34.366  29.431  27.152  1.00  0.00     0.202 C 
BRANCH   2   3
ATOM      3  C   UNL A   1      33.462  28.241  26.784  1.00  0.00     0.261 C 
BRANCH   3   4
ATOM      4  O   UNL A   1      33.886  27.494  25.638  1.00  0.00    -0.463 OA
BRANCH   4   5
ATOM      5  C   UNL A   1      33.351  27.973  24.479  1.00  0.00     0.312 C 
ATOM      6  O   UNL A   1      33.978  28.097  23.434  1.00  0.00    -0.252 OA
BRANCH   5   7
ATOM      7  C   UNL A   1      31.839  28.174  24.591  1.00  0.00     0.124 C 
ATOM      8  C   UNL A   1      30.826  27.173  22.616  1.00  0.00     0.106 C 
ATOM      9  C   UNL A   1      30.617  28.639  22.639  1.00  0.00    -0.006 C 
ATOM     10  C   UNL A   1      31.152  26.892  24.089  1.00  0.00     0.048 C 
ATOM     11  C   UNL A   1      31.204  29.201  23.708  1.00  0.00    -0.014 C 
BRANCH   8  12
ATOM     12  N   UNL A   1      31.804  26.707  21.632  1.00  0.00    -0.343 N 
ATOM     13  C   UNL A   1      32.558  25.591  21.318  1.00  0.00     0.287 C 
ATOM     14  O   UNL A   1      33.037  25.622  20.178  1.00  0.00    -0.266 OA
ATOM     15  H   UNL A   1      31.983  27.422  20.980  1.00  0.00     0.164 HD
BRANCH  13  16
ATOM     16  C   UNL A   1      32.813  24.477  22.219  1.00  0.00     0.192 A 
ATOM     17  C   UNL A   1      33.728  19.226  25.009  1.00  0.00     0.044 C 
ATOM     18  C   UNL A   1      33.858  20.647  24.539  1.00  0.00    -0.050 A 
ATOM     19  C   UNL A   1      35.079  21.334  24.626  1.00  0.00     0.007 A 
ATOM     20  C   UNL A   1      32.750  21.269  23.941  1.00  0.00     0.015 A 
ATOM     21  C   UNL A   1      35.252  22.609  24.062  1.00  0.00     0.048 A 
ATOM     22  C   UNL A   1      32.903  22.554  23.399  1.00  0.00     0.021 A 
ATOM     23  C   UNL A   1      34.148  23.156  23.415  1.00  0.00     0.135 A 
ATOM     24  C   UNL A   1      32.038  23.499  22.809  1.00  0.00     0.065 A 
ATOM     25  O   UNL A   1      34.105  24.320  22.702  1.00  0.00    -0.451 OA
ENDBRANCH  13  16
ENDBRANCH   8  12
ENDBRANCH   5   7
ENDBRANCH   4   5
ENDBRANCH   3   4
ENDBRANCH   2   3
ENDBRANCH   1   2
BRANCH   1  26
ATOM     26  C   UNL A   1      32.546  31.096  27.165  1.00  0.00     0.202 C 
BRANCH  26  27
ATOM     27  C   UNL A   1      32.119  32.568  27.250  1.00  0.00     0.261 C 
BRANCH  27  28
ATOM     28  O   UNL A   1      33.194  33.512  27.232  1.00  0.00    -0.460 OA
BRANCH  28  29
ATOM     29  C   UNL A   1      33.303  34.239  28.369  1.00  0.00     0.338 C 
ATOM     30  O   UNL A   1      32.528  35.094  28.783  1.00  0.00    -0.246 OA
BRANCH  29  31
ATOM     31  C   UNL A   1      34.433  33.759  29.173  1.00  0.00     0.060 A 
ATOM     32  C   UNL A   1      35.723  34.105  28.754  1.00  0.00     0.016 A 
ATOM     33  C   UNL A   1      34.237  32.898  30.255  1.00  0.00     0.016 A 
ATOM     34  C   UNL A   1      36.830  33.552  29.387  1.00  0.00     0.010 A 
ATOM     35  C   UNL A   1      35.350  32.334  30.881  1.00  0.00     0.010 A 
ATOM     36  C   UNL A   1      36.647  32.628  30.423  1.00  0.00    -0.014 A 
BRANCH  36  37
ATOM     37  C   UNL A   1      37.808  31.856  30.917  1.00  0.00     0.031 A 
ATOM     38  C   UNL A   1      38.369  32.177  32.274  1.00  0.00     0.074 A 
ATOM     39  C   UNL A   1      38.331  30.861  30.182  1.00  0.00     0.049 A 
ATOM     40  N   UNL A   1      39.377  31.631  32.904  1.00  0.00    -0.248 NA
ATOM     41  C   UNL A   1      37.704  33.257  33.021  1.00  0.00     0.031 C 
ATOM     42  C   UNL A   1      37.837  30.422  28.879  1.00  0.00     0.029 A 
ATOM     43  N   UNL A   1      39.394  30.035  30.440  1.00  0.00    -0.354 N 
ATOM     44  C   UNL A   1      39.476  32.308  34.114  1.00  0.00     0.074 A 
ATOM     45  C   UNL A   1      38.442  33.321  34.118  1.00  0.00     0.031 C 
ATOM     46  C   UNL A   1      38.594  29.396  28.452  1.00  0.00     0.029 A 
ATOM     47  C   UNL A   1      39.643  29.133  29.436  1.00  0.00     0.049 A 
ATOM     48  H   UNL A   1      39.928  30.084  31.266  1.00  0.00     0.167 HD
ATOM     49  C   UNL A   1      40.347  32.105  35.130  1.00  0.00     0.031 A 
ATOM     50  C   UNL A   1      40.614  28.208  29.324  1.00  0.00     0.031 A 
ATOM     51  C   UNL A   1      41.380  31.104  35.120  1.00  0.00     0.049 A 
ATOM     52  C   UNL A   1      41.624  28.060  30.429  1.00  0.00     0.074 A 
ATOM     53  C   UNL A   1      42.295  30.798  36.112  1.00  0.00     0.029 A 
ATOM     54  N   UNL A   1      41.642  30.255  34.056  1.00  0.00    -0.354 N 
ATOM     55  N   UNL A   1      41.691  28.686  31.579  1.00  0.00    -0.248 NA
ATOM     56  C   UNL A   1      42.693  27.073  30.217  1.00  0.00     0.031 C 
ATOM     57  C   UNL A   1      43.150  29.803  35.622  1.00  0.00     0.029 A 
ATOM     58  C   UNL A   1      42.729  29.449  34.350  1.00  0.00     0.049 A 
ATOM     59  H   UNL A   1      41.131  30.228  33.215  1.00  0.00     0.167 HD
ATOM     60  C   UNL A   1      42.789  28.149  32.240  1.00  0.00     0.074 A 
ATOM     61  C   UNL A   1      43.352  27.140  31.365  1.00  0.00     0.031 C 
ATOM     62  C   UNL A   1      43.282  28.456  33.465  1.00  0.00     0.031 A 
BRANCH  49  63
ATOM     63  C   UNL A   1      40.246  33.023  36.316  1.00  0.00    -0.014 A 
ATOM     64  C   UNL A   1      40.987  34.212  36.393  1.00  0.00     0.009 A 
ATOM     65  C   UNL A   1      39.385  32.690  37.375  1.00  0.00     0.009 A 
ATOM     66  C   UNL A   1      40.901  35.027  37.524  1.00  0.00     0.001 A 
ATOM     67  C   UNL A   1      39.279  33.522  38.491  1.00  0.00     0.001 A 
ATOM     68  C   UNL A   1      40.046  34.683  38.569  1.00  0.00     0.000 A 
ENDBRANCH  49  63
BRANCH  50  69
ATOM     69  C   UNL A   1      40.679  27.348  28.116  1.00  0.00    -0.014 A 
ATOM     70  C   UNL A   1      39.961  26.144  28.062  1.00  0.00     0.009 A 
ATOM     71  C   UNL A   1      41.462  27.722  27.013  1.00  0.00     0.009 A 
ATOM     72  C   UNL A   1      40.040  25.324  26.934  1.00  0.00     0.001 A 
ATOM     73  C   UNL A   1      41.518  26.913  25.876  1.00  0.00     0.001 A 
ATOM     74  C   UNL A   1      40.813  25.712  25.841  1.00  0.00     0.000 A 
ENDBRANCH  50  69
BRANCH  62  75
ATOM     75  C   UNL A   1      44.470  27.672  33.945  1.00  0.00    -0.014 A 
ATOM     76  C   UNL A   1      44.315  26.457  34.631  1.00  0.00     0.009 A 
ATOM     77  C   UNL A   1      45.765  28.138  33.671  1.00  0.00     0.009 A 
ATOM     78  C   UNL A   1      45.435  25.742  35.061  1.00  0.00     0.001 A 
ATOM     79  C   UNL A   1      46.883  27.406  34.077  1.00  0.00     0.001 A 
ATOM     80  C   UNL A   1      46.716  26.214  34.780  1.00  0.00     0.000 A 
ENDBRANCH  62  75
ENDBRANCH  36  37
ENDBRANCH  29  31
ENDBRANCH  28  29
ENDBRANCH  27  28
ENDBRANCH  26  27
ENDBRANCH   1  26
TORSDOF 16
ENDMDL
MODEL 2
REMARK VINA RESULT:     -10.9      3.928      8.669
REMARK SMILES Cc1ccc2oc(C(=O)N[C@@H]3C=C[C@H](C(=O)OCCOCCOC(=O)c4ccc(-c5c6nc(c(-c7ccccc7)c7ccc([nH]7)c(-c7ccccc7)c7nc(c(-c8ccccc8)c8ccc5[nH]8)C=C7)C=C6)cc4)C3)cc2c1
REMARK SMILES IDX 20 1 19 2 18 3 17 4 15 5 16 6 14 7 11 8 12 9 74 10 13 11
REMARK SMILES IDX 10 12 8 13 9 14 7 16 1 17 2 18 3 19 77 20 4 21 76 22 5 23
REMARK SMILES IDX 75 24 6 25 21 26 22 27 23 28 24 29 25 30 26 31 27 32 73 33
REMARK SMILES IDX 28 34 72 35 29 36 30 37 31 38 66 39 32 40 71 41 65 42 67 43
REMARK SMILES IDX 33 44 70 45 64 46 63 47 34 49 56 50 41 51 55 52 42 53 45 54
REMARK SMILES IDX 54 55 68 56 43 57 44 58 53 60 69 61 46 62 35 63 36 64 40 65
REMARK SMILES IDX 37 66 39 67 38 68 57 69 58 70 62 71 59 72 61 73 60 74 47 75
REMARK SMILES IDX 48 76 52 77 49 78 51 79 50 80
REMARK H PARENT 10 15 67 48 45 59
REMARK Flexibility Score: inf
ROOT
ATOM      1  O   UNL A   1      35.871  22.354  24.965  1.00  0.00    -0.374 OA
ENDROOT
BRANCH   1   2
ATOM      2  C   UNL A   1      35.423  23.265  25.960  1.00  0.00     0.202 C 
BRANCH   2   3
ATOM      3  C   UNL A   1      34.644  24.540  25.593  1.00  0.00     0.261 C 
BRANCH   3   4
ATOM      4  O   UNL A   1      33.246  24.503  25.904  1.00  0.00    -0.463 OA
BRANCH   4   5
ATOM      5  C   UNL A   1      32.710  25.750  26.035  1.00  0.00     0.312 C 
ATOM      6  O   UNL A   1      33.373  26.776  26.121  1.00  0.00    -0.252 OA
BRANCH   5   7
ATOM      7  C   UNL A   1      31.188  25.732  25.889  1.00  0.00     0.124 C 
ATOM      8  C   UNL A   1      30.674  24.645  23.772  1.00  0.00     0.106 C 
ATOM      9  C   UNL A   1      30.257  26.066  23.758  1.00  0.00    -0.006 C 
ATOM     10  C   UNL A   1      30.785  24.379  25.279  1.00  0.00     0.048 C 
ATOM     11  C   UNL A   1      30.569  26.680  24.910  1.00  0.00    -0.014 C 
BRANCH   8  12
ATOM     12  N   UNL A   1      31.860  24.345  22.968  1.00  0.00    -0.343 N 
ATOM     13  C   UNL A   1      32.583  23.269  22.487  1.00  0.00     0.287 C 
ATOM     14  O   UNL A   1      33.379  23.569  21.589  1.00  0.00    -0.266 OA
ATOM     15  H   UNL A   1      32.280  25.185  22.673  1.00  0.00     0.164 HD
BRANCH  13  16
ATOM     16  C   UNL A   1      32.470  21.903  22.977  1.00  0.00     0.192 A 
ATOM     17  C   UNL A   1      32.991  16.093  24.451  1.00  0.00     0.044 C 
ATOM     18  C   UNL A   1      32.769  17.578  24.510  1.00  0.00    -0.050 A 
ATOM     19  C   UNL A   1      32.863  18.281  25.722  1.00  0.00     0.007 A 
ATOM     20  C   UNL A   1      32.532  18.278  23.316  1.00  0.00     0.015 A 
ATOM     21  C   UNL A   1      32.800  19.684  25.770  1.00  0.00     0.048 A 
ATOM     22  C   UNL A   1      32.438  19.677  23.356  1.00  0.00     0.021 A 
ATOM     23  C   UNL A   1      32.637  20.340  24.553  1.00  0.00     0.135 A 
ATOM     24  C   UNL A   1      32.143  20.686  22.415  1.00  0.00     0.065 A 
ATOM     25  O   UNL A   1      32.660  21.687  24.336  1.00  0.00    -0.451 OA
ENDBRANCH  13  16
ENDBRANCH   8  12
ENDBRANCH   5   7
ENDBRANCH   4   5
ENDBRANCH   3   4
ENDBRANCH   2   3
ENDBRANCH   1   2
BRANCH   1  26
ATOM     26  C   UNL A   1      36.171  21.009  25.300  1.00  0.00     0.202 C 
BRANCH  26  27
ATOM     27  C   UNL A   1      37.573  20.419  25.089  1.00  0.00     0.261 C 
BRANCH  27  28
ATOM     28  O   UNL A   1      38.643  21.368  25.143  1.00  0.00    -0.460 OA
BRANCH  28  29
ATOM     29  C   UNL A   1      39.508  21.159  26.163  1.00  0.00     0.338 C 
ATOM     30  O   UNL A   1      40.052  20.104  26.474  1.00  0.00    -0.246 OA
BRANCH  29  31
ATOM     31  C   UNL A   1      39.863  22.434  26.798  1.00  0.00     0.060 A 
ATOM     32  C   UNL A   1      39.173  23.580  26.386  1.00  0.00     0.016 A 
ATOM     33  C   UNL A   1      40.924  22.521  27.702  1.00  0.00     0.016 A 
ATOM     34  C   UNL A   1      39.572  24.831  26.840  1.00  0.00     0.010 A 
ATOM     35  C   UNL A   1      41.332  23.780  28.147  1.00  0.00     0.010 A 
ATOM     36  C   UNL A   1      40.682  24.940  27.687  1.00  0.00    -0.014 A 
BRANCH  36  37
ATOM     37  C   UNL A   1      41.255  26.276  27.960  1.00  0.00     0.031 A 
ATOM     38  C   UNL A   1      42.577  26.640  27.344  1.00  0.00     0.074 A 
ATOM     39  C   UNL A   1      40.589  27.164  28.716  1.00  0.00     0.049 A 
ATOM     40  N   UNL A   1      43.262  27.750  27.447  1.00  0.00    -0.248 NA
ATOM     41  C   UNL A   1      43.211  25.615  26.498  1.00  0.00     0.031 C 
ATOM     42  C   UNL A   1      39.276  26.946  29.319  1.00  0.00     0.029 A 
ATOM     43  N   UNL A   1      40.932  28.436  29.096  1.00  0.00    -0.354 N 
ATOM     44  C   UNL A   1      44.412  27.553  26.692  1.00  0.00     0.074 A 
ATOM     45  C   UNL A   1      44.344  26.209  26.158  1.00  0.00     0.031 C 
ATOM     46  C   UNL A   1      38.918  28.056  29.990  1.00  0.00     0.029 A 
ATOM     47  C   UNL A   1      39.992  29.043  29.890  1.00  0.00     0.049 A 
ATOM     48  H   UNL A   1      41.773  28.872  28.826  1.00  0.00     0.167 HD
ATOM     49  C   UNL A   1      45.432  28.413  26.462  1.00  0.00     0.031 A 
ATOM     50  C   UNL A   1      40.004  30.254  30.476  1.00  0.00     0.031 A 
ATOM     51  C   UNL A   1      45.502  29.745  27.001  1.00  0.00     0.049 A 
ATOM     52  C   UNL A   1      41.190  31.159  30.277  1.00  0.00     0.074 A 
ATOM     53  C   UNL A   1      46.478  30.705  26.803  1.00  0.00     0.029 A 
ATOM     54  N   UNL A   1      44.562  30.297  27.856  1.00  0.00    -0.354 N 
ATOM     55  N   UNL A   1      42.258  30.973  29.540  1.00  0.00    -0.248 NA
ATOM     56  C   UNL A   1      41.166  32.442  30.993  1.00  0.00     0.031 C 
ATOM     57  C   UNL A   1      46.158  31.818  27.589  1.00  0.00     0.029 A 
ATOM     58  C   UNL A   1      44.952  31.573  28.227  1.00  0.00     0.049 A 
ATOM     59  H   UNL A   1      43.737  29.850  28.155  1.00  0.00     0.167 HD
ATOM     60  C   UNL A   1      43.019  32.128  29.678  1.00  0.00     0.074 A 
ATOM     61  C   UNL A   1      42.285  33.009  30.563  1.00  0.00     0.031 C 
ATOM     62  C   UNL A   1      44.214  32.434  29.116  1.00  0.00     0.031 A 
BRANCH  49  63
ATOM     63  C   UNL A   1      46.578  27.913  25.627  1.00  0.00    -0.014 A 
ATOM     64  C   UNL A   1      47.685  27.273  26.206  1.00  0.00     0.009 A 
ATOM     65  C   UNL A   1      46.543  28.082  24.235  1.00  0.00     0.009 A 
ATOM     66  C   UNL A   1      48.753  26.851  25.410  1.00  0.00     0.001 A 
ATOM     67  C   UNL A   1      47.599  27.633  23.438  1.00  0.00     0.001 A 
ATOM     68  C   UNL A   1      48.708  27.029  24.029  1.00  0.00     0.000 A 
ENDBRANCH  49  63
BRANCH  50  69
ATOM     69  C   UNL A   1      38.855  30.683  31.311  1.00  0.00    -0.014 A 
ATOM     70  C   UNL A   1      38.876  30.495  32.702  1.00  0.00     0.009 A 
ATOM     71  C   UNL A   1      37.728  31.280  30.725  1.00  0.00     0.009 A 
ATOM     72  C   UNL A   1      37.786  30.880  33.484  1.00  0.00     0.001 A 
ATOM     73  C   UNL A   1      36.650  31.688  31.513  1.00  0.00     0.001 A 
ATOM     74  C   UNL A   1      36.677  31.480  32.890  1.00  0.00     0.000 A 
ENDBRANCH  50  69
BRANCH  62  75
ATOM     75  C   UNL A   1      44.787  33.790  29.415  1.00  0.00    -0.014 A 
ATOM     76  C   UNL A   1      44.429  34.918  28.660  1.00  0.00     0.009 A 
ATOM     77  C   UNL A   1      45.671  33.947  30.495  1.00  0.00     0.009 A 
ATOM     78  C   UNL A   1      44.970  36.170  28.963  1.00  0.00     0.001 A 
ATOM     79  C   UNL A   1      46.187  35.204  30.812  1.00  0.00     0.001 A 
ATOM     80  C   UNL A   1      45.844  36.312  30.040  1.00  0.00     0.000 A 
ENDBRANCH  62  75
ENDBRANCH  36  37
ENDBRANCH  29  31
ENDBRANCH  28  29
ENDBRANCH  27  28
ENDBRANCH  26  27
ENDBRANCH   1  26
TORSDOF 16
ENDMDL
MODEL 3
REMARK VINA RESULT:     -10.7      4.051      9.163
REMARK SMILES Cc1ccc2oc(C(=O)N[C@@H]3C=C[C@H](C(=O)OCCOCCOC(=O)c4ccc(-c5c6nc(c(-c7ccccc7)c7ccc([nH]7)c(-c7ccccc7)c7nc(c(-c8ccccc8)c8ccc5[nH]8)C=C7)C=C6)cc4)C3)cc2c1
REMARK SMILES IDX 20 1 19 2 18 3 17 4 15 5 16 6 14 7 11 8 12 9 74 10 13 11
REMARK SMILES IDX 10 12 8 13 9 14 7 16 1 17 2 18 3 19 77 20 4 21 76 22 5 23
REMARK SMILES IDX 75 24 6 25 21 26 22 27 23 28 24 29 25 30 26 31 27 32 73 33
REMARK SMILES IDX 28 34 72 35 29 36 30 37 31 38 66 39 32 40 71 41 65 42 67 43
REMARK SMILES IDX 33 44 70 45 64 46 63 47 34 49 56 50 41 51 55 52 42 53 45 54
REMARK SMILES IDX 54 55 68 56 43 57 44 58 53 60 69 61 46 62 35 63 36 64 40 65
REMARK SMILES IDX 37 66 39 67 38 68 57 69 58 70 62 71 59 72 61 73 60 74 47 75
REMARK SMILES IDX 48 76 52 77 49 78 51 79 50 80
REMARK H PARENT 10 15 67 48 45 59
REMARK Flexibility Score: inf
ROOT
ATOM      1  O   UNL A   1      37.740  22.313  25.358  1.00  0.00    -0.374 OA
ENDROOT
BRANCH   1   2
ATOM      2  C   UNL A   1      37.075  23.458  25.876  1.00  0.00     0.202 C 
BRANCH   2   3
ATOM      3  C   UNL A   1      35.844  24.059  25.176  1.00  0.00     0.261 C 
BRANCH   3   4
ATOM      4  O   UNL A   1      34.588  23.503  25.581  1.00  0.00    -0.463 OA
BRANCH   4   5
ATOM      5  C   UNL A   1      34.073  22.650  24.651  1.00  0.00     0.312 C 
ATOM      6  O   UNL A   1      34.745  22.057  23.817  1.00  0.00    -0.252 OA
BRANCH   5   7
ATOM      7  C   UNL A   1      32.583  22.390  24.882  1.00  0.00     0.124 C 
ATOM      8  C   UNL A   1      31.359  23.615  23.170  1.00  0.00     0.106 C 
ATOM      9  C   UNL A   1      31.064  24.146  24.521  1.00  0.00    -0.006 C 
ATOM     10  C   UNL A   1      31.912  22.224  23.508  1.00  0.00     0.048 C 
ATOM     11  C   UNL A   1      31.764  23.497  25.466  1.00  0.00    -0.014 C 
BRANCH   8  12
ATOM     12  N   UNL A   1      32.211  24.473  22.346  1.00  0.00    -0.343 N 
ATOM     13  C   UNL A   1      32.975  25.623  22.431  1.00  0.00     0.287 C 
ATOM     14  O   UNL A   1      33.749  25.774  21.478  1.00  0.00    -0.266 OA
ATOM     15  H   UNL A   1      32.256  24.113  21.431  1.00  0.00     0.164 HD
BRANCH  13  16
ATOM     16  C   UNL A   1      32.891  26.601  23.505  1.00  0.00     0.192 A 
ATOM     17  C   UNL A   1      33.463  31.109  27.448  1.00  0.00     0.044 C 
ATOM     18  C   UNL A   1      32.901  30.110  26.476  1.00  0.00    -0.050 A 
ATOM     19  C   UNL A   1      31.679  30.338  25.824  1.00  0.00     0.007 A 
ATOM     20  C   UNL A   1      33.652  28.964  26.168  1.00  0.00     0.015 A 
ATOM     21  C   UNL A   1      31.212  29.484  24.810  1.00  0.00     0.048 A 
ATOM     22  C   UNL A   1      33.182  28.090  25.178  1.00  0.00     0.021 A 
ATOM     23  C   UNL A   1      32.025  28.400  24.488  1.00  0.00     0.135 A 
ATOM     24  C   UNL A   1      33.600  26.845  24.664  1.00  0.00     0.065 A 
ATOM     25  O   UNL A   1      31.840  27.508  23.473  1.00  0.00    -0.451 OA
ENDBRANCH  13  16
ENDBRANCH   8  12
ENDBRANCH   5   7
ENDBRANCH   4   5
ENDBRANCH   3   4
ENDBRANCH   2   3
ENDBRANCH   1   2
BRANCH   1  26
ATOM     26  C   UNL A   1      38.886  21.788  26.010  1.00  0.00     0.202 C 
BRANCH  26  27
ATOM     27  C   UNL A   1      39.450  20.405  25.657  1.00  0.00     0.261 C 
BRANCH  27  28
ATOM     28  O   UNL A   1      40.457  19.917  26.549  1.00  0.00    -0.460 OA
BRANCH  28  29
ATOM     29  C   UNL A   1      41.717  20.029  26.066  1.00  0.00     0.338 C 
ATOM     30  O   UNL A   1      42.284  19.276  25.281  1.00  0.00    -0.246 OA
BRANCH  29  31
ATOM     31  C   UNL A   1      42.312  21.303  26.488  1.00  0.00     0.060 A 
ATOM     32  C   UNL A   1      42.360  21.575  27.861  1.00  0.00     0.016 A 
ATOM     33  C   UNL A   1      42.714  22.259  25.553  1.00  0.00     0.016 A 
ATOM     34  C   UNL A   1      42.770  22.826  28.307  1.00  0.00     0.010 A 
ATOM     35  C   UNL A   1      43.113  23.519  26.002  1.00  0.00     0.010 A 
ATOM     36  C   UNL A   1      43.104  23.818  27.377  1.00  0.00    -0.014 A 
BRANCH  36  37
ATOM     37  C   UNL A   1      43.291  25.210  27.841  1.00  0.00     0.031 A 
ATOM     38  C   UNL A   1      44.688  25.735  28.019  1.00  0.00     0.074 A 
ATOM     39  C   UNL A   1      42.231  26.004  28.065  1.00  0.00     0.049 A 
ATOM     40  N   UNL A   1      45.084  26.918  28.413  1.00  0.00    -0.248 NA
ATOM     41  C   UNL A   1      45.784  24.803  27.710  1.00  0.00     0.031 C 
ATOM     42  C   UNL A   1      40.833  25.625  27.873  1.00  0.00     0.029 A 
ATOM     43  N   UNL A   1      42.176  27.303  28.498  1.00  0.00    -0.354 N 
ATOM     44  C   UNL A   1      46.474  26.868  28.413  1.00  0.00     0.074 A 
ATOM     45  C   UNL A   1      46.850  25.532  28.004  1.00  0.00     0.031 C 
ATOM     46  C   UNL A   1      40.053  26.676  28.180  1.00  0.00     0.029 A 
ATOM     47  C   UNL A   1      40.896  27.785  28.622  1.00  0.00     0.049 A 
ATOM     48  H   UNL A   1      42.976  27.840  28.702  1.00  0.00     0.167 HD
ATOM     49  C   UNL A   1      47.357  27.846  28.723  1.00  0.00     0.031 A 
ATOM     50  C   UNL A   1      40.460  28.983  29.052  1.00  0.00     0.031 A 
ATOM     51  C   UNL A   1      46.980  29.171  29.138  1.00  0.00     0.049 A 
ATOM     52  C   UNL A   1      41.459  30.025  29.476  1.00  0.00     0.074 A 
ATOM     53  C   UNL A   1      47.799  30.243  29.447  1.00  0.00     0.029 A 
ATOM     54  N   UNL A   1      45.674  29.599  29.316  1.00  0.00    -0.354 N 
ATOM     55  N   UNL A   1      42.769  29.977  29.445  1.00  0.00    -0.248 NA
ATOM     56  C   UNL A   1      40.914  31.289  29.991  1.00  0.00     0.031 C 
ATOM     57  C   UNL A   1      46.986  31.302  29.870  1.00  0.00     0.029 A 
ATOM     58  C   UNL A   1      45.662  30.908  29.767  1.00  0.00     0.049 A 
ATOM     59  H   UNL A   1      44.872  29.053  29.146  1.00  0.00     0.167 HD
ATOM     60  C   UNL A   1      43.205  31.212  29.908  1.00  0.00     0.074 A 
ATOM     61  C   UNL A   1      42.019  31.990  30.204  1.00  0.00     0.031 C 
ATOM     62  C   UNL A   1      44.473  31.665  30.065  1.00  0.00     0.031 A 
BRANCH  49  63
ATOM     63  C   UNL A   1      48.817  27.496  28.671  1.00  0.00    -0.014 A 
ATOM     64  C   UNL A   1      49.567  27.637  27.493  1.00  0.00     0.009 A 
ATOM     65  C   UNL A   1      49.454  27.020  29.828  1.00  0.00     0.009 A 
ATOM     66  C   UNL A   1      50.914  27.269  27.463  1.00  0.00     0.001 A 
ATOM     67  C   UNL A   1      50.809  26.681  29.804  1.00  0.00     0.001 A 
ATOM     68  C   UNL A   1      51.534  26.794  28.618  1.00  0.00     0.000 A 
ENDBRANCH  49  63
BRANCH  50  69
ATOM     69  C   UNL A   1      39.003  29.263  29.107  1.00  0.00    -0.014 A 
ATOM     70  C   UNL A   1      38.284  29.061  30.295  1.00  0.00     0.009 A 
ATOM     71  C   UNL A   1      38.321  29.730  27.972  1.00  0.00     0.009 A 
ATOM     72  C   UNL A   1      36.910  29.304  30.340  1.00  0.00     0.001 A 
ATOM     73  C   UNL A   1      36.952  29.998  28.028  1.00  0.00     0.001 A 
ATOM     74  C   UNL A   1      36.247  29.778  29.209  1.00  0.00     0.000 A 
ENDBRANCH  50  69
BRANCH  62  75
ATOM     75  C   UNL A   1      44.644  33.077  30.550  1.00  0.00    -0.014 A 
ATOM     76  C   UNL A   1      44.785  33.368  31.916  1.00  0.00     0.009 A 
ATOM     77  C   UNL A   1      44.703  34.127  29.621  1.00  0.00     0.009 A 
ATOM     78  C   UNL A   1      44.950  34.688  32.342  1.00  0.00     0.001 A 
ATOM     79  C   UNL A   1      44.897  35.442  30.048  1.00  0.00     0.001 A 
ATOM     80  C   UNL A   1      45.010  35.722  31.409  1.00  0.00     0.000 A 
ENDBRANCH  62  75
ENDBRANCH  36  37
ENDBRANCH  29  31
ENDBRANCH  28  29
ENDBRANCH  27  28
ENDBRANCH  26  27
ENDBRANCH   1  26
TORSDOF 16
ENDMDL
