MODEL 1
REMARK VINA RESULT:     -11.7      0.000      0.000
REMARK SMILES CCc1ccc(S(=O)(=O)c2nnn(-c3ccc(C(=O)OCCOCCOC(=O)c4ccc(-c5c6nc(c(-c7ccccc7)c7ccc([nH]7)c(-c7ccccc7)c7nc(c(-c8ccccc8)c8ccc5[nH]8)C=C7)C=C6)cc4)cc3)c2C)cc1
REMARK SMILES IDX 22 1 21 2 20 3 18 4 19 5 17 6 14 7 15 8 78 9 16 10 77 11
REMARK SMILES IDX 13 12 10 13 11 14 79 15 12 16 80 17 7 18 8 19 9 20 6 21 3 22
REMARK SMILES IDX 4 23 82 24 5 25 81 26 2 27 1 28 23 29 24 30 25 31 26 32
REMARK SMILES IDX 27 33 28 34 29 35 30 36 76 37 31 38 75 39 32 40 33 41 34 42
REMARK SMILES IDX 69 43 35 44 74 45 68 46 70 47 36 48 73 49 67 50 66 51 37 53
REMARK SMILES IDX 59 54 44 55 58 56 45 57 48 58 57 59 71 60 46 61 47 62 56 64
REMARK SMILES IDX 72 65 49 66 38 67 39 68 43 69 40 70 42 71 41 72 60 73 61 74
REMARK SMILES IDX 65 75 62 76 64 77 63 78 50 79 51 80 55 81 52 82 54 83 53 84
REMARK H PARENT 70 52 48 63
REMARK Flexibility Score: inf
ROOT
ATOM      1  C   UNL A   1      35.980  18.921  24.778  1.00  0.00     0.202 C 
ENDROOT
BRANCH   1   2
ATOM      2  C   UNL A   1      34.868  17.889  24.585  1.00  0.00     0.261 C 
BRANCH   2   3
ATOM      3  O   UNL A   1      33.770  18.401  23.819  1.00  0.00    -0.460 OA
BRANCH   3   4
ATOM      4  C   UNL A   1      32.749  18.882  24.567  1.00  0.00     0.338 C 
ATOM      5  O   UNL A   1      32.157  18.309  25.465  1.00  0.00    -0.246 OA
BRANCH   4   6
ATOM      6  C   UNL A   1      32.517  20.305  24.251  1.00  0.00     0.060 A 
ATOM      7  C   UNL A   1      32.516  22.959  23.487  1.00  0.00     0.067 A 
ATOM      8  C   UNL A   1      32.234  21.986  22.527  1.00  0.00     0.029 A 
ATOM      9  C   UNL A   1      32.633  22.625  24.844  1.00  0.00     0.029 A 
ATOM     10  C   UNL A   1      32.268  20.648  22.912  1.00  0.00     0.018 A 
ATOM     11  C   UNL A   1      32.627  21.289  25.232  1.00  0.00     0.018 A 
BRANCH   7  12
ATOM     12  N   UNL A   1      32.876  24.254  23.065  1.00  0.00    -0.216 N 
ATOM     13  C   UNL A   1      33.308  26.382  22.966  1.00  0.00     0.205 A 
ATOM     14  N   UNL A   1      33.715  25.799  21.797  1.00  0.00    -0.117 NA
ATOM     15  C   UNL A   1      32.846  25.407  23.833  1.00  0.00     0.081 A 
ATOM     16  N   UNL A   1      33.529  24.489  21.905  1.00  0.00    -0.061 NA
ATOM     17  C   UNL A   1      32.555  25.442  25.289  1.00  0.00     0.070 C 
BRANCH  13  18
ATOM     18  S   UNL A   1      33.520  28.063  23.299  1.00  0.00     0.227 S 
ATOM     19  O   UNL A   1      34.214  28.557  22.122  1.00  0.00    -0.217 OA
ATOM     20  O   UNL A   1      34.087  28.144  24.627  1.00  0.00    -0.217 OA
BRANCH  18  21
ATOM     21  C   UNL A   1      31.920  28.824  23.333  1.00  0.00     0.073 A 
ATOM     22  C   UNL A   1      29.453  30.166  23.456  1.00  0.00    -0.048 A 
ATOM     23  C   UNL A   1      30.356  30.234  24.525  1.00  0.00     0.005 A 
ATOM     24  C   UNL A   1      29.805  29.404  22.328  1.00  0.00     0.005 A 
ATOM     25  C   UNL A   1      31.588  29.578  24.463  1.00  0.00     0.021 A 
ATOM     26  C   UNL A   1      31.026  28.727  22.266  1.00  0.00     0.021 A 
BRANCH  22  27
ATOM     27  C   UNL A   1      28.093  30.829  23.468  1.00  0.00     0.032 C 
ATOM     28  C   UNL A   1      27.900  32.018  22.535  1.00  0.00     0.009 C 
ENDBRANCH  22  27
ENDBRANCH  18  21
ENDBRANCH  13  18
ENDBRANCH   7  12
ENDBRANCH   4   6
ENDBRANCH   3   4
ENDBRANCH   2   3
ENDBRANCH   1   2
BRANCH   1  29
ATOM     29  O   UNL A   1      35.683  20.155  25.429  1.00  0.00    -0.374 OA
BRANCH  29  30
ATOM     30  C   UNL A   1      36.342  21.362  25.061  1.00  0.00     0.202 C 
BRANCH  30  31
ATOM     31  C   UNL A   1      37.808  21.312  24.658  1.00  0.00     0.261 C 
BRANCH  31  32
ATOM     32  O   UNL A   1      38.662  21.345  25.788  1.00  0.00    -0.460 OA
BRANCH  32  33
ATOM     33  C   UNL A   1      39.609  20.379  25.778  1.00  0.00     0.338 C 
ATOM     34  O   UNL A   1      39.469  19.206  25.491  1.00  0.00    -0.246 OA
BRANCH  33  35
ATOM     35  C   UNL A   1      40.855  20.949  26.308  1.00  0.00     0.060 A 
ATOM     36  C   UNL A   1      41.046  20.749  27.675  1.00  0.00     0.016 A 
ATOM     37  C   UNL A   1      41.487  21.981  25.600  1.00  0.00     0.016 A 
ATOM     38  C   UNL A   1      41.547  21.801  28.395  1.00  0.00     0.010 A 
ATOM     39  C   UNL A   1      41.998  23.027  26.321  1.00  0.00     0.010 A 
ATOM     40  C   UNL A   1      41.880  22.971  27.704  1.00  0.00    -0.014 A 
BRANCH  40  41
ATOM     41  C   UNL A   1      42.123  24.162  28.472  1.00  0.00     0.031 A 
ATOM     42  C   UNL A   1      41.107  25.194  28.229  1.00  0.00     0.074 A 
ATOM     43  C   UNL A   1      43.140  24.276  29.344  1.00  0.00     0.049 A 
ATOM     44  N   UNL A   1      41.254  26.250  27.508  1.00  0.00    -0.248 NA
ATOM     45  C   UNL A   1      39.725  24.912  28.639  1.00  0.00     0.031 C 
ATOM     46  C   UNL A   1      44.075  23.263  29.837  1.00  0.00     0.029 A 
ATOM     47  N   UNL A   1      43.483  25.373  30.061  1.00  0.00    -0.354 N 
ATOM     48  C   UNL A   1      40.019  26.876  27.521  1.00  0.00     0.074 A 
ATOM     49  C   UNL A   1      39.079  25.919  28.050  1.00  0.00     0.031 C 
ATOM     50  C   UNL A   1      44.694  23.736  30.946  1.00  0.00     0.029 A 
ATOM     51  C   UNL A   1      44.298  25.121  31.151  1.00  0.00     0.049 A 
ATOM     52  H   UNL A   1      43.175  26.279  29.825  1.00  0.00     0.167 HD
ATOM     53  C   UNL A   1      39.913  28.218  27.343  1.00  0.00     0.031 A 
ATOM     54  C   UNL A   1      44.545  25.985  32.168  1.00  0.00     0.031 A 
ATOM     55  C   UNL A   1      41.143  28.795  26.865  1.00  0.00     0.049 A 
ATOM     56  C   UNL A   1      44.234  27.352  31.669  1.00  0.00     0.074 A 
ATOM     57  C   UNL A   1      41.900  28.648  25.719  1.00  0.00     0.029 A 
ATOM     58  N   UNL A   1      41.980  29.341  27.810  1.00  0.00    -0.354 N 
ATOM     59  N   UNL A   1      44.941  27.935  30.743  1.00  0.00    -0.248 NA
ATOM     60  C   UNL A   1      42.869  27.846  31.807  1.00  0.00     0.031 C 
ATOM     61  C   UNL A   1      43.253  28.667  26.169  1.00  0.00     0.029 A 
ATOM     62  C   UNL A   1      43.252  28.897  27.546  1.00  0.00     0.049 A 
ATOM     63  H   UNL A   1      41.716  29.942  28.544  1.00  0.00     0.167 HD
ATOM     64  C   UNL A   1      44.007  28.522  29.897  1.00  0.00     0.074 A 
ATOM     65  C   UNL A   1      42.755  28.519  30.655  1.00  0.00     0.031 C 
ATOM     66  C   UNL A   1      44.257  28.668  28.561  1.00  0.00     0.031 A 
BRANCH  53  67
ATOM     67  C   UNL A   1      38.852  29.042  28.007  1.00  0.00    -0.014 A 
ATOM     68  C   UNL A   1      38.764  29.022  29.406  1.00  0.00     0.009 A 
ATOM     69  C   UNL A   1      37.770  29.607  27.302  1.00  0.00     0.009 A 
ATOM     70  C   UNL A   1      37.619  29.484  30.062  1.00  0.00     0.001 A 
ATOM     71  C   UNL A   1      36.646  30.106  27.954  1.00  0.00     0.001 A 
ATOM     72  C   UNL A   1      36.559  30.018  29.335  1.00  0.00     0.000 A 
ENDBRANCH  53  67
BRANCH  54  73
ATOM     73  C   UNL A   1      44.702  25.669  33.606  1.00  0.00    -0.014 A 
ATOM     74  C   UNL A   1      43.607  25.290  34.398  1.00  0.00     0.009 A 
ATOM     75  C   UNL A   1      45.989  25.486  34.147  1.00  0.00     0.009 A 
ATOM     76  C   UNL A   1      43.796  24.725  35.670  1.00  0.00     0.001 A 
ATOM     77  C   UNL A   1      46.179  24.921  35.413  1.00  0.00     0.001 A 
ATOM     78  C   UNL A   1      45.082  24.529  36.170  1.00  0.00     0.000 A 
ENDBRANCH  54  73
BRANCH  66  79
ATOM     79  C   UNL A   1      45.640  28.310  28.067  1.00  0.00    -0.014 A 
ATOM     80  C   UNL A   1      46.038  26.985  27.801  1.00  0.00     0.009 A 
ATOM     81  C   UNL A   1      46.511  29.347  27.706  1.00  0.00     0.009 A 
ATOM     82  C   UNL A   1      47.283  26.709  27.225  1.00  0.00     0.001 A 
ATOM     83  C   UNL A   1      47.746  29.072  27.114  1.00  0.00     0.001 A 
ATOM     84  C   UNL A   1      48.135  27.754  26.879  1.00  0.00     0.000 A 
ENDBRANCH  66  79
ENDBRANCH  40  41
ENDBRANCH  33  35
ENDBRANCH  32  33
ENDBRANCH  31  32
ENDBRANCH  30  31
ENDBRANCH  29  30
ENDBRANCH   1  29
TORSDOF 18
ENDMDL
MODEL 2
REMARK VINA RESULT:     -11.7      3.303      5.358
REMARK SMILES CCc1ccc(S(=O)(=O)c2nnn(-c3ccc(C(=O)OCCOCCOC(=O)c4ccc(-c5c6nc(c(-c7ccccc7)c7ccc([nH]7)c(-c7ccccc7)c7nc(c(-c8ccccc8)c8ccc5[nH]8)C=C7)C=C6)cc4)cc3)c2C)cc1
REMARK SMILES IDX 22 1 21 2 20 3 18 4 19 5 17 6 14 7 15 8 78 9 16 10 77 11
REMARK SMILES IDX 13 12 10 13 11 14 79 15 12 16 80 17 7 18 8 19 9 20 6 21 3 22
REMARK SMILES IDX 4 23 82 24 5 25 81 26 2 27 1 28 23 29 24 30 25 31 26 32
REMARK SMILES IDX 27 33 28 34 29 35 30 36 76 37 31 38 75 39 32 40 33 41 34 42
REMARK SMILES IDX 69 43 35 44 74 45 68 46 70 47 36 48 73 49 67 50 66 51 37 53
REMARK SMILES IDX 59 54 44 55 58 56 45 57 48 58 57 59 71 60 46 61 47 62 56 64
REMARK SMILES IDX 72 65 49 66 38 67 39 68 43 69 40 70 42 71 41 72 60 73 61 74
REMARK SMILES IDX 65 75 62 76 64 77 63 78 50 79 51 80 55 81 52 82 54 83 53 84
REMARK H PARENT 70 52 48 63
REMARK Flexibility Score: inf
ROOT
ATOM      1  C   UNL A   1      41.011  22.171  26.063  1.00  0.00     0.202 C 
ENDROOT
BRANCH   1   2
ATOM      2  C   UNL A   1      39.659  21.594  26.485  1.00  0.00     0.261 C 
BRANCH   2   3
ATOM      3  O   UNL A   1      38.589  22.017  25.631  1.00  0.00    -0.460 OA
BRANCH   3   4
ATOM      4  C   UNL A   1      37.897  21.000  25.065  1.00  0.00     0.338 C 
ATOM      5  O   UNL A   1      38.182  19.816  25.076  1.00  0.00    -0.246 OA
BRANCH   4   6
ATOM      6  C   UNL A   1      36.616  21.499  24.529  1.00  0.00     0.060 A 
ATOM      7  C   UNL A   1      34.233  22.734  23.877  1.00  0.00     0.067 A 
ATOM      8  C   UNL A   1      35.428  23.325  23.462  1.00  0.00     0.029 A 
ATOM      9  C   UNL A   1      34.219  21.460  24.463  1.00  0.00     0.029 A 
ATOM     10  C   UNL A   1      36.626  22.713  23.823  1.00  0.00     0.018 A 
ATOM     11  C   UNL A   1      35.418  20.833  24.785  1.00  0.00     0.018 A 
BRANCH   7  12
ATOM     12  N   UNL A   1      33.054  23.506  23.881  1.00  0.00    -0.216 N 
ATOM     13  C   UNL A   1      31.382  24.775  24.444  1.00  0.00     0.205 A 
ATOM     14  N   UNL A   1      31.361  24.601  23.087  1.00  0.00    -0.117 NA
ATOM     15  C   UNL A   1      32.503  24.158  24.972  1.00  0.00     0.081 A 
ATOM     16  N   UNL A   1      32.436  23.900  22.746  1.00  0.00    -0.061 NA
ATOM     17  C   UNL A   1      33.150  24.265  26.305  1.00  0.00     0.070 C 
BRANCH  13  18
ATOM     18  S   UNL A   1      30.239  25.763  25.281  1.00  0.00     0.227 S 
ATOM     19  O   UNL A   1      29.915  24.981  26.462  1.00  0.00    -0.217 OA
ATOM     20  O   UNL A   1      29.244  26.146  24.304  1.00  0.00    -0.217 OA
BRANCH  18  21
ATOM     21  C   UNL A   1      31.073  27.229  25.824  1.00  0.00     0.073 A 
ATOM     22  C   UNL A   1      32.294  29.644  26.587  1.00  0.00    -0.048 A 
ATOM     23  C   UNL A   1      31.947  29.412  25.250  1.00  0.00     0.005 A 
ATOM     24  C   UNL A   1      32.028  28.638  27.533  1.00  0.00     0.005 A 
ATOM     25  C   UNL A   1      31.329  28.218  24.869  1.00  0.00     0.021 A 
ATOM     26  C   UNL A   1      31.430  27.433  27.158  1.00  0.00     0.021 A 
BRANCH  22  27
ATOM     27  C   UNL A   1      32.988  30.901  27.064  1.00  0.00     0.032 C 
ATOM     28  C   UNL A   1      34.434  30.756  27.520  1.00  0.00     0.009 C 
ENDBRANCH  22  27
ENDBRANCH  18  21
ENDBRANCH  13  18
ENDBRANCH   7  12
ENDBRANCH   4   6
ENDBRANCH   3   4
ENDBRANCH   2   3
ENDBRANCH   1   2
BRANCH   1  29
ATOM     29  O   UNL A   1      41.965  22.522  27.064  1.00  0.00    -0.374 OA
BRANCH  29  30
ATOM     30  C   UNL A   1      43.026  23.430  26.789  1.00  0.00     0.202 C 
BRANCH  30  31
ATOM     31  C   UNL A   1      43.109  24.077  25.414  1.00  0.00     0.261 C 
BRANCH  31  32
ATOM     32  O   UNL A   1      42.075  25.027  25.222  1.00  0.00    -0.460 OA
BRANCH  32  33
ATOM     33  C   UNL A   1      42.503  26.309  25.274  1.00  0.00     0.338 C 
ATOM     34  O   UNL A   1      43.592  26.740  24.949  1.00  0.00    -0.246 OA
BRANCH  33  35
ATOM     35  C   UNL A   1      41.465  27.116  25.928  1.00  0.00     0.060 A 
ATOM     36  C   UNL A   1      41.772  28.472  26.040  1.00  0.00     0.016 A 
ATOM     37  C   UNL A   1      40.533  26.481  26.761  1.00  0.00     0.016 A 
ATOM     38  C   UNL A   1      41.447  29.090  27.220  1.00  0.00     0.010 A 
ATOM     39  C   UNL A   1      40.200  27.104  27.934  1.00  0.00     0.010 A 
ATOM     40  C   UNL A   1      40.789  28.335  28.196  1.00  0.00    -0.014 A 
BRANCH  40  41
ATOM     41  C   UNL A   1      40.708  28.876  29.526  1.00  0.00     0.031 A 
ATOM     42  C   UNL A   1      39.524  29.725  29.707  1.00  0.00     0.074 A 
ATOM     43  C   UNL A   1      41.596  28.582  30.491  1.00  0.00     0.049 A 
ATOM     44  N   UNL A   1      39.510  31.012  29.739  1.00  0.00    -0.248 NA
ATOM     45  C   UNL A   1      38.201  29.094  29.614  1.00  0.00     0.031 C 
ATOM     46  C   UNL A   1      42.676  27.592  30.507  1.00  0.00     0.029 A 
ATOM     47  N   UNL A   1      41.637  29.089  31.746  1.00  0.00    -0.354 N 
ATOM     48  C   UNL A   1      38.175  31.360  29.858  1.00  0.00     0.074 A 
ATOM     49  C   UNL A   1      37.414  30.169  29.572  1.00  0.00     0.031 C 
ATOM     50  C   UNL A   1      43.081  27.402  31.787  1.00  0.00     0.029 A 
ATOM     51  C   UNL A   1      42.387  28.350  32.645  1.00  0.00     0.049 A 
ATOM     52  H   UNL A   1      41.169  29.917  32.000  1.00  0.00     0.167 HD
ATOM     53  C   UNL A   1      37.806  32.531  30.439  1.00  0.00     0.031 A 
ATOM     54  C   UNL A   1      42.355  28.483  33.996  1.00  0.00     0.031 A 
ATOM     55  C   UNL A   1      38.926  33.420  30.611  1.00  0.00     0.049 A 
ATOM     56  C   UNL A   1      41.811  29.835  34.291  1.00  0.00     0.074 A 
ATOM     57  C   UNL A   1      39.796  34.059  29.750  1.00  0.00     0.029 A 
ATOM     58  N   UNL A   1      39.543  33.410  31.842  1.00  0.00    -0.354 N 
ATOM     59  N   UNL A   1      42.459  30.928  34.004  1.00  0.00    -0.248 NA
ATOM     60  C   UNL A   1      40.366  29.989  34.415  1.00  0.00     0.031 C 
ATOM     61  C   UNL A   1      41.070  33.975  30.386  1.00  0.00     0.029 A 
ATOM     62  C   UNL A   1      40.898  33.359  31.627  1.00  0.00     0.049 A 
ATOM     63  H   UNL A   1      39.094  33.435  32.718  1.00  0.00     0.167 HD
ATOM     64  C   UNL A   1      41.502  31.780  33.465  1.00  0.00     0.074 A 
ATOM     65  C   UNL A   1      40.216  31.187  33.835  1.00  0.00     0.031 C 
ATOM     66  C   UNL A   1      41.834  32.704  32.515  1.00  0.00     0.031 A 
BRANCH  53  67
ATOM     67  C   UNL A   1      36.542  32.680  31.229  1.00  0.00    -0.014 A 
ATOM     68  C   UNL A   1      35.501  33.450  30.691  1.00  0.00     0.009 A 
ATOM     69  C   UNL A   1      36.447  32.330  32.591  1.00  0.00     0.009 A 
ATOM     70  C   UNL A   1      34.451  33.902  31.495  1.00  0.00     0.001 A 
ATOM     71  C   UNL A   1      35.380  32.745  33.386  1.00  0.00     0.001 A 
ATOM     72  C   UNL A   1      34.395  33.555  32.842  1.00  0.00     0.000 A 
ENDBRANCH  53  67
BRANCH  54  73
ATOM     73  C   UNL A   1      42.447  27.411  35.013  1.00  0.00    -0.014 A 
ATOM     74  C   UNL A   1      43.220  27.564  36.174  1.00  0.00     0.009 A 
ATOM     75  C   UNL A   1      41.555  26.322  34.967  1.00  0.00     0.009 A 
ATOM     76  C   UNL A   1      43.084  26.679  37.255  1.00  0.00     0.001 A 
ATOM     77  C   UNL A   1      41.416  25.440  36.044  1.00  0.00     0.001 A 
ATOM     78  C   UNL A   1      42.173  25.626  37.195  1.00  0.00     0.000 A 
ENDBRANCH  54  73
BRANCH  66  79
ATOM     79  C   UNL A   1      43.300  32.870  32.184  1.00  0.00    -0.014 A 
ATOM     80  C   UNL A   1      44.123  33.822  32.814  1.00  0.00     0.009 A 
ATOM     81  C   UNL A   1      43.904  31.935  31.332  1.00  0.00     0.009 A 
ATOM     82  C   UNL A   1      45.501  33.858  32.571  1.00  0.00     0.001 A 
ATOM     83  C   UNL A   1      45.281  31.958  31.105  1.00  0.00     0.001 A 
ATOM     84  C   UNL A   1      46.079  32.922  31.718  1.00  0.00     0.000 A 
ENDBRANCH  66  79
ENDBRANCH  40  41
ENDBRANCH  33  35
ENDBRANCH  32  33
ENDBRANCH  31  32
ENDBRANCH  30  31
ENDBRANCH  29  30
ENDBRANCH   1  29
TORSDOF 18
ENDMDL
MODEL 3
REMARK VINA RESULT:     -11.4      2.768      4.510
REMARK SMILES CCc1ccc(S(=O)(=O)c2nnn(-c3ccc(C(=O)OCCOCCOC(=O)c4ccc(-c5c6nc(c(-c7ccccc7)c7ccc([nH]7)c(-c7ccccc7)c7nc(c(-c8ccccc8)c8ccc5[nH]8)C=C7)C=C6)cc4)cc3)c2C)cc1
REMARK SMILES IDX 22 1 21 2 20 3 18 4 19 5 17 6 14 7 15 8 78 9 16 10 77 11
REMARK SMILES IDX 13 12 10 13 11 14 79 15 12 16 80 17 7 18 8 19 9 20 6 21 3 22
REMARK SMILES IDX 4 23 82 24 5 25 81 26 2 27 1 28 23 29 24 30 25 31 26 32
REMARK SMILES IDX 27 33 28 34 29 35 30 36 76 37 31 38 75 39 32 40 33 41 34 42
REMARK SMILES IDX 69 43 35 44 74 45 68 46 70 47 36 48 73 49 67 50 66 51 37 53
REMARK SMILES IDX 59 54 44 55 58 56 45 57 48 58 57 59 71 60 46 61 47 62 56 64
REMARK SMILES IDX 72 65 49 66 38 67 39 68 43 69 40 70 42 71 41 72 60 73 61 74
REMARK SMILES IDX 65 75 62 76 64 77 63 78 50 79 51 80 55 81 52 82 54 83 53 84
REMARK H PARENT 70 52 48 63
REMARK Flexibility Score: inf
ROOT
ATOM      1  C   UNL A   1      42.313  18.909  26.068  1.00  0.00     0.202 C 
ENDROOT
BRANCH   1   2
ATOM      2  C   UNL A   1      41.828  20.078  26.925  1.00  0.00     0.261 C 
BRANCH   2   3
ATOM      3  O   UNL A   1      40.493  20.483  26.597  1.00  0.00    -0.460 OA
BRANCH   3   4
ATOM      4  C   UNL A   1      40.398  21.751  26.128  1.00  0.00     0.338 C 
ATOM      5  O   UNL A   1      41.312  22.491  25.809  1.00  0.00    -0.246 OA
BRANCH   4   6
ATOM      6  C   UNL A   1      38.983  22.100  25.901  1.00  0.00     0.060 A 
ATOM      7  C   UNL A   1      36.281  22.676  25.930  1.00  0.00     0.067 A 
ATOM      8  C   UNL A   1      37.182  23.671  26.314  1.00  0.00     0.029 A 
ATOM      9  C   UNL A   1      36.730  21.466  25.380  1.00  0.00     0.029 A 
ATOM     10  C   UNL A   1      38.540  23.362  26.328  1.00  0.00     0.018 A 
ATOM     11  C   UNL A   1      38.090  21.177  25.358  1.00  0.00     0.018 A 
BRANCH   7  12
ATOM     12  N   UNL A   1      34.922  22.812  26.276  1.00  0.00    -0.216 N 
ATOM     13  C   UNL A   1      32.818  23.353  26.332  1.00  0.00     0.205 A 
ATOM     14  N   UNL A   1      33.048  22.395  27.281  1.00  0.00    -0.117 NA
ATOM     15  C   UNL A   1      33.978  23.580  25.613  1.00  0.00     0.081 A 
ATOM     16  N   UNL A   1      34.314  22.009  27.176  1.00  0.00    -0.061 NA
ATOM     17  C   UNL A   1      34.219  24.287  24.328  1.00  0.00     0.070 C 
BRANCH  13  18
ATOM     18  S   UNL A   1      31.252  24.016  26.028  1.00  0.00     0.227 S 
ATOM     19  O   UNL A   1      30.526  23.747  27.257  1.00  0.00    -0.217 OA
ATOM     20  O   UNL A   1      30.834  23.491  24.746  1.00  0.00    -0.217 OA
BRANCH  18  21
ATOM     21  C   UNL A   1      31.418  25.774  25.878  1.00  0.00     0.073 A 
ATOM     22  C   UNL A   1      31.839  28.546  25.686  1.00  0.00    -0.048 A 
ATOM     23  C   UNL A   1      32.374  27.816  26.756  1.00  0.00     0.005 A 
ATOM     24  C   UNL A   1      31.080  27.862  24.720  1.00  0.00     0.005 A 
ATOM     25  C   UNL A   1      32.176  26.436  26.848  1.00  0.00     0.021 A 
ATOM     26  C   UNL A   1      30.860  26.486  24.816  1.00  0.00     0.021 A 
BRANCH  22  27
ATOM     27  C   UNL A   1      31.992  30.044  25.539  1.00  0.00     0.032 C 
ATOM     28  C   UNL A   1      32.058  30.857  26.825  1.00  0.00     0.009 C 
ENDBRANCH  22  27
ENDBRANCH  18  21
ENDBRANCH  13  18
ENDBRANCH   7  12
ENDBRANCH   4   6
ENDBRANCH   3   4
ENDBRANCH   2   3
ENDBRANCH   1   2
BRANCH   1  29
ATOM     29  O   UNL A   1      42.981  19.175  24.836  1.00  0.00    -0.374 OA
BRANCH  29  30
ATOM     30  C   UNL A   1      44.402  19.192  24.753  1.00  0.00     0.202 C 
BRANCH  30  31
ATOM     31  C   UNL A   1      45.105  20.483  24.360  1.00  0.00     0.261 C 
BRANCH  31  32
ATOM     32  O   UNL A   1      44.457  21.618  24.909  1.00  0.00    -0.460 OA
BRANCH  32  33
ATOM     33  C   UNL A   1      45.188  22.753  24.820  1.00  0.00     0.338 C 
ATOM     34  O   UNL A   1      45.545  23.327  23.810  1.00  0.00    -0.246 OA
BRANCH  33  35
ATOM     35  C   UNL A   1      45.615  23.134  26.173  1.00  0.00     0.060 A 
ATOM     36  C   UNL A   1      44.861  22.565  27.198  1.00  0.00     0.016 A 
ATOM     37  C   UNL A   1      46.359  24.310  26.346  1.00  0.00     0.016 A 
ATOM     38  C   UNL A   1      44.541  23.371  28.260  1.00  0.00     0.010 A 
ATOM     39  C   UNL A   1      46.047  25.110  27.412  1.00  0.00     0.010 A 
ATOM     40  C   UNL A   1      45.036  24.679  28.262  1.00  0.00    -0.014 A 
BRANCH  40  41
ATOM     41  C   UNL A   1      44.474  25.611  29.203  1.00  0.00     0.031 A 
ATOM     42  C   UNL A   1      43.205  26.177  28.731  1.00  0.00     0.074 A 
ATOM     43  C   UNL A   1      45.037  25.877  30.394  1.00  0.00     0.049 A 
ATOM     44  N   UNL A   1      43.032  27.357  28.247  1.00  0.00    -0.248 NA
ATOM     45  C   UNL A   1      42.062  25.269  28.568  1.00  0.00     0.031 C 
ATOM     46  C   UNL A   1      46.162  25.226  31.070  1.00  0.00     0.029 A 
ATOM     47  N   UNL A   1      44.618  26.778  31.313  1.00  0.00    -0.354 N 
ATOM     48  C   UNL A   1      41.698  27.411  27.881  1.00  0.00     0.074 A 
ATOM     49  C   UNL A   1      41.210  26.055  27.909  1.00  0.00     0.031 C 
ATOM     50  C   UNL A   1      46.158  25.584  32.378  1.00  0.00     0.029 A 
ATOM     51  C   UNL A   1      45.123  26.585  32.588  1.00  0.00     0.049 A 
ATOM     52  H   UNL A   1      44.001  27.514  31.093  1.00  0.00     0.167 HD
ATOM     53  C   UNL A   1      41.031  28.593  27.839  1.00  0.00     0.031 A 
ATOM     54  C   UNL A   1      44.649  27.162  33.721  1.00  0.00     0.031 A 
ATOM     55  C   UNL A   1      41.928  29.718  27.919  1.00  0.00     0.049 A 
ATOM     56  C   UNL A   1      43.886  28.372  33.311  1.00  0.00     0.074 A 
ATOM     57  C   UNL A   1      42.946  30.202  27.123  1.00  0.00     0.029 A 
ATOM     58  N   UNL A   1      42.118  30.272  29.165  1.00  0.00    -0.354 N 
ATOM     59  N   UNL A   1      44.461  29.417  32.787  1.00  0.00    -0.248 NA
ATOM     60  C   UNL A   1      42.469  28.225  32.998  1.00  0.00     0.031 C 
ATOM     61  C   UNL A   1      43.952  30.635  28.037  1.00  0.00     0.029 A 
ATOM     62  C   UNL A   1      43.467  30.461  29.334  1.00  0.00     0.049 A 
ATOM     63  H   UNL A   1      41.414  30.493  29.817  1.00  0.00     0.167 HD
ATOM     64  C   UNL A   1      43.634  29.790  31.735  1.00  0.00     0.074 A 
ATOM     65  C   UNL A   1      42.374  29.083  31.974  1.00  0.00     0.031 C 
ATOM     66  C   UNL A   1      44.141  30.382  30.612  1.00  0.00     0.031 A 
BRANCH  53  67
ATOM     67  C   UNL A   1      39.573  28.712  28.162  1.00  0.00    -0.014 A 
ATOM     68  C   UNL A   1      38.735  29.371  27.251  1.00  0.00     0.009 A 
ATOM     69  C   UNL A   1      39.051  28.453  29.445  1.00  0.00     0.009 A 
ATOM     70  C   UNL A   1      37.462  29.807  27.630  1.00  0.00     0.001 A 
ATOM     71  C   UNL A   1      37.767  28.850  29.813  1.00  0.00     0.001 A 
ATOM     72  C   UNL A   1      36.983  29.553  28.912  1.00  0.00     0.000 A 
ENDBRANCH  53  67
BRANCH  54  73
ATOM     73  C   UNL A   1      44.535  26.556  35.066  1.00  0.00    -0.014 A 
ATOM     74  C   UNL A   1      44.700  27.320  36.232  1.00  0.00     0.009 A 
ATOM     75  C   UNL A   1      44.001  25.261  35.209  1.00  0.00     0.009 A 
ATOM     76  C   UNL A   1      44.318  26.815  37.487  1.00  0.00     0.001 A 
ATOM     77  C   UNL A   1      43.618  24.758  36.458  1.00  0.00     0.001 A 
ATOM     78  C   UNL A   1      43.766  25.540  37.596  1.00  0.00     0.000 A 
ENDBRANCH  54  73
BRANCH  66  79
ATOM     79  C   UNL A   1      45.607  30.753  30.620  1.00  0.00    -0.014 A 
ATOM     80  C   UNL A   1      46.629  29.841  30.291  1.00  0.00     0.009 A 
ATOM     81  C   UNL A   1      45.956  32.097  30.808  1.00  0.00     0.009 A 
ATOM     82  C   UNL A   1      47.961  30.258  30.188  1.00  0.00     0.001 A 
ATOM     83  C   UNL A   1      47.283  32.517  30.686  1.00  0.00     0.001 A 
ATOM     84  C   UNL A   1      48.286  31.597  30.383  1.00  0.00     0.000 A 
ENDBRANCH  66  79
ENDBRANCH  40  41
ENDBRANCH  33  35
ENDBRANCH  32  33
ENDBRANCH  31  32
ENDBRANCH  30  31
ENDBRANCH  29  30
ENDBRANCH   1  29
TORSDOF 18
ENDMDL
