MODEL 1
REMARK VINA RESULT:      -9.8      0.000      0.000
REMARK SMILES CC[C@@](C)(NS(=O)(=O)c1ccc(Cl)s1)C(=O)OCCOCCOC(=O)c1ccc(-c2c3nc(c(-c4ccccc4)c4ccc([nH]4)c(-c4ccccc4)c4nc(c(-c5ccccc5)c5ccc2[nH]5)C=C4)C=C3)cc1
REMARK SMILES IDX 19 1 18 2 17 3 15 4 16 5 3 6 4 7 2 8 1 9 5 10 6 12 7 13 8 14
REMARK SMILES IDX 9 15 10 16 14 17 11 18 12 19 13 20 20 21 21 22 22 23 23 24
REMARK SMILES IDX 24 25 25 26 26 27 27 28 73 29 28 30 72 31 29 32 30 33 31 34
REMARK SMILES IDX 66 35 32 36 71 37 65 38 67 39 33 40 70 41 64 42 63 43 34 45
REMARK SMILES IDX 56 46 41 47 55 48 42 49 45 50 54 51 68 52 43 53 44 54 53 56
REMARK SMILES IDX 69 57 46 58 35 59 36 60 40 61 37 62 39 63 38 64 57 65 58 66
REMARK SMILES IDX 62 67 59 68 61 69 60 70 47 71 48 72 52 73 49 74 51 75 50 76
REMARK H PARENT 5 11 67 44 45 55
REMARK Flexibility Score: inf
ROOT
ATOM      1  C   UNL A   1      32.714  26.274  25.295  1.00  0.00     0.202 C 
ENDROOT
BRANCH   1   2
ATOM      2  C   UNL A   1      34.152  25.747  25.194  1.00  0.00     0.261 C 
BRANCH   2   3
ATOM      3  O   UNL A   1      34.103  24.313  25.111  1.00  0.00    -0.462 OA
BRANCH   3   4
ATOM      4  C   UNL A   1      35.228  23.619  25.398  1.00  0.00     0.327 C 
ATOM      5  O   UNL A   1      36.023  23.941  26.273  1.00  0.00    -0.250 OA
BRANCH   4   6
ATOM      6  C   UNL A   1      35.345  22.346  24.531  1.00  0.00     0.127 C 
ATOM      7  C   UNL A   1      36.062  22.724  23.235  1.00  0.00     0.042 C 
BRANCH   6   8
ATOM      8  C   UNL A   1      36.170  21.286  25.331  1.00  0.00     0.032 C 
ATOM      9  C   UNL A   1      37.535  20.889  24.782  1.00  0.00     0.006 C 
ENDBRANCH   6   8
BRANCH   6  10
ATOM     10  N   UNL A   1      34.026  21.663  24.275  1.00  0.00    -0.193 NA
ATOM     11  H   UNL A   1      34.179  21.113  23.429  1.00  0.00     0.142 HD
BRANCH  10  12
ATOM     12  S   UNL A   1      33.192  20.641  25.301  1.00  0.00     0.251 S 
ATOM     13  O   UNL A   1      33.616  20.890  26.660  1.00  0.00    -0.206 OA
ATOM     14  O   UNL A   1      31.801  20.785  24.931  1.00  0.00    -0.206 OA
BRANCH  12  15
ATOM     15  C   UNL A   1      33.572  18.940  25.005  1.00  0.00     0.136 A 
ATOM     16  C   UNL A   1      34.581  18.304  24.302  1.00  0.00     0.035 A 
ATOM     17  S   UNL A   1      32.578  17.802  25.790  1.00  0.00    -0.110 S 
ATOM     18  C   UNL A   1      34.436  16.882  24.308  1.00  0.00     0.034 A 
ATOM     19  C   UNL A   1      33.328  16.509  25.021  1.00  0.00     0.094 A 
ATOM     20  Cl  UNL A   1      32.684  14.928  25.193  1.00  0.00    -0.072 Cl
ENDBRANCH  12  15
ENDBRANCH  10  12
ENDBRANCH   6  10
ENDBRANCH   4   6
ENDBRANCH   3   4
ENDBRANCH   2   3
ENDBRANCH   1   2
BRANCH   1  21
ATOM     21  O   UNL A   1      32.618  27.407  26.164  1.00  0.00    -0.374 OA
BRANCH  21  22
ATOM     22  C   UNL A   1      31.864  28.514  25.656  1.00  0.00     0.202 C 
BRANCH  22  23
ATOM     23  C   UNL A   1      32.583  29.854  25.804  1.00  0.00     0.261 C 
BRANCH  23  24
ATOM     24  O   UNL A   1      32.785  30.156  27.201  1.00  0.00    -0.460 OA
BRANCH  24  25
ATOM     25  C   UNL A   1      33.451  31.301  27.474  1.00  0.00     0.338 C 
ATOM     26  O   UNL A   1      32.976  32.423  27.530  1.00  0.00    -0.246 OA
BRANCH  25  27
ATOM     27  C   UNL A   1      34.869  31.012  27.810  1.00  0.00     0.060 A 
ATOM     28  C   UNL A   1      35.224  29.669  27.977  1.00  0.00     0.016 A 
ATOM     29  C   UNL A   1      35.838  32.012  27.974  1.00  0.00     0.016 A 
ATOM     30  C   UNL A   1      36.527  29.324  28.333  1.00  0.00     0.010 A 
ATOM     31  C   UNL A   1      37.155  31.664  28.317  1.00  0.00     0.010 A 
ATOM     32  C   UNL A   1      37.495  30.319  28.534  1.00  0.00    -0.014 A 
BRANCH  32  33
ATOM     33  C   UNL A   1      38.764  29.926  29.198  1.00  0.00     0.031 A 
ATOM     34  C   UNL A   1      38.959  30.339  30.630  1.00  0.00     0.074 A 
ATOM     35  C   UNL A   1      39.669  29.122  28.610  1.00  0.00     0.049 A 
ATOM     36  N   UNL A   1      39.829  29.907  31.506  1.00  0.00    -0.248 NA
ATOM     37  C   UNL A   1      38.034  31.360  31.146  1.00  0.00     0.031 C 
ATOM     38  C   UNL A   1      39.609  28.635  27.236  1.00  0.00     0.029 A 
ATOM     39  N   UNL A   1      40.810  28.547  29.119  1.00  0.00    -0.354 N 
ATOM     40  C   UNL A   1      39.521  30.568  32.688  1.00  0.00     0.074 A 
ATOM     41  C   UNL A   1      38.431  31.472  32.402  1.00  0.00     0.031 C 
ATOM     42  C   UNL A   1      40.650  27.810  27.015  1.00  0.00     0.029 A 
ATOM     43  C   UNL A   1      41.451  27.714  28.234  1.00  0.00     0.049 A 
ATOM     44  H   UNL A   1      41.137  28.718  30.031  1.00  0.00     0.167 HD
ATOM     45  C   UNL A   1      40.078  30.422  33.912  1.00  0.00     0.031 A 
ATOM     46  C   UNL A   1      42.544  26.943  28.399  1.00  0.00     0.031 A 
ATOM     47  C   UNL A   1      41.203  29.578  34.198  1.00  0.00     0.049 A 
ATOM     48  C   UNL A   1      43.214  26.878  29.748  1.00  0.00     0.074 A 
ATOM     49  C   UNL A   1      41.852  29.383  35.404  1.00  0.00     0.029 A 
ATOM     50  N   UNL A   1      41.863  28.808  33.254  1.00  0.00    -0.354 N 
ATOM     51  N   UNL A   1      42.858  27.435  30.881  1.00  0.00    -0.248 NA
ATOM     52  C   UNL A   1      44.427  26.049  29.845  1.00  0.00     0.031 C 
ATOM     53  C   UNL A   1      42.940  28.533  35.178  1.00  0.00     0.029 A 
ATOM     54  C   UNL A   1      42.933  28.158  33.843  1.00  0.00     0.049 A 
ATOM     55  H   UNL A   1      41.609  28.734  32.307  1.00  0.00     0.167 HD
ATOM     56  C   UNL A   1      43.773  26.991  31.828  1.00  0.00     0.074 A 
ATOM     57  C   UNL A   1      44.697  26.114  31.141  1.00  0.00     0.031 C 
ATOM     58  C   UNL A   1      43.837  27.278  33.151  1.00  0.00     0.031 A 
BRANCH  45  59
ATOM     59  C   UNL A   1      39.475  31.233  35.020  1.00  0.00    -0.014 A 
ATOM     60  C   UNL A   1      38.449  30.703  35.821  1.00  0.00     0.009 A 
ATOM     61  C   UNL A   1      39.913  32.544  35.248  1.00  0.00     0.009 A 
ATOM     62  C   UNL A   1      37.846  31.489  36.803  1.00  0.00     0.001 A 
ATOM     63  C   UNL A   1      39.323  33.320  36.246  1.00  0.00     0.001 A 
ATOM     64  C   UNL A   1      38.283  32.797  37.015  1.00  0.00     0.000 A 
ENDBRANCH  45  59
BRANCH  46  65
ATOM     65  C   UNL A   1      43.080  26.137  27.270  1.00  0.00    -0.014 A 
ATOM     66  C   UNL A   1      44.029  26.680  26.388  1.00  0.00     0.009 A 
ATOM     67  C   UNL A   1      42.592  24.844  27.026  1.00  0.00     0.009 A 
ATOM     68  C   UNL A   1      44.448  25.961  25.267  1.00  0.00     0.001 A 
ATOM     69  C   UNL A   1      43.032  24.118  25.917  1.00  0.00     0.001 A 
ATOM     70  C   UNL A   1      43.950  24.680  25.031  1.00  0.00     0.000 A 
ENDBRANCH  46  65
BRANCH  58  71
ATOM     71  C   UNL A   1      44.910  26.602  33.959  1.00  0.00    -0.014 A 
ATOM     72  C   UNL A   1      44.704  25.346  34.548  1.00  0.00     0.009 A 
ATOM     73  C   UNL A   1      46.168  27.215  34.085  1.00  0.00     0.009 A 
ATOM     74  C   UNL A   1      45.726  24.731  35.274  1.00  0.00     0.001 A 
ATOM     75  C   UNL A   1      47.196  26.585  34.787  1.00  0.00     0.001 A 
ATOM     76  C   UNL A   1      46.972  25.348  35.388  1.00  0.00     0.000 A 
ENDBRANCH  58  71
ENDBRANCH  32  33
ENDBRANCH  25  27
ENDBRANCH  24  25
ENDBRANCH  23  24
ENDBRANCH  22  23
ENDBRANCH  21  22
ENDBRANCH   1  21
TORSDOF 18
ENDMDL
MODEL 2
REMARK VINA RESULT:      -9.2      5.100      8.940
REMARK SMILES CC[C@@](C)(NS(=O)(=O)c1ccc(Cl)s1)C(=O)OCCOCCOC(=O)c1ccc(-c2c3nc(c(-c4ccccc4)c4ccc([nH]4)c(-c4ccccc4)c4nc(c(-c5ccccc5)c5ccc2[nH]5)C=C4)C=C3)cc1
REMARK SMILES IDX 19 1 18 2 17 3 15 4 16 5 3 6 4 7 2 8 1 9 5 10 6 12 7 13 8 14
REMARK SMILES IDX 9 15 10 16 14 17 11 18 12 19 13 20 20 21 21 22 22 23 23 24
REMARK SMILES IDX 24 25 25 26 26 27 27 28 73 29 28 30 72 31 29 32 30 33 31 34
REMARK SMILES IDX 66 35 32 36 71 37 65 38 67 39 33 40 70 41 64 42 63 43 34 45
REMARK SMILES IDX 56 46 41 47 55 48 42 49 45 50 54 51 68 52 43 53 44 54 53 56
REMARK SMILES IDX 69 57 46 58 35 59 36 60 40 61 37 62 39 63 38 64 57 65 58 66
REMARK SMILES IDX 62 67 59 68 61 69 60 70 47 71 48 72 52 73 49 74 51 75 50 76
REMARK H PARENT 5 11 67 44 45 55
REMARK Flexibility Score: inf
ROOT
ATOM      1  C   UNL A   1      40.911  19.484  26.171  1.00  0.00     0.202 C 
ENDROOT
BRANCH   1   2
ATOM      2  C   UNL A   1      42.437  19.319  26.169  1.00  0.00     0.261 C 
BRANCH   2   3
ATOM      3  O   UNL A   1      42.977  20.114  25.099  1.00  0.00    -0.462 OA
BRANCH   3   4
ATOM      4  C   UNL A   1      43.946  21.008  25.396  1.00  0.00     0.327 C 
ATOM      5  O   UNL A   1      43.931  21.725  26.390  1.00  0.00    -0.250 OA
BRANCH   4   6
ATOM      6  C   UNL A   1      45.094  20.963  24.364  1.00  0.00     0.127 C 
ATOM      7  C   UNL A   1      46.251  20.179  24.981  1.00  0.00     0.042 C 
BRANCH   6   8
ATOM      8  C   UNL A   1      44.565  20.248  23.078  1.00  0.00     0.032 C 
ATOM      9  C   UNL A   1      45.185  18.906  22.708  1.00  0.00     0.006 C 
ENDBRANCH   6   8
BRANCH   6  10
ATOM     10  N   UNL A   1      45.523  22.322  23.873  1.00  0.00    -0.193 NA
ATOM     11  H   UNL A   1      44.663  22.763  23.546  1.00  0.00     0.142 HD
BRANCH  10  12
ATOM     12  S   UNL A   1      46.313  23.515  24.737  1.00  0.00     0.251 S 
ATOM     13  O   UNL A   1      46.730  22.975  26.012  1.00  0.00    -0.206 OA
ATOM     14  O   UNL A   1      47.288  24.064  23.821  1.00  0.00    -0.206 OA
BRANCH  12  15
ATOM     15  C   UNL A   1      45.246  24.867  25.137  1.00  0.00     0.136 A 
ATOM     16  C   UNL A   1      43.886  25.077  24.986  1.00  0.00     0.035 A 
ATOM     17  S   UNL A   1      45.968  26.174  25.956  1.00  0.00    -0.110 S 
ATOM     18  C   UNL A   1      43.483  26.377  25.425  1.00  0.00     0.034 A 
ATOM     19  C   UNL A   1      44.556  27.086  25.893  1.00  0.00     0.094 A 
ATOM     20  Cl  UNL A   1      44.580  28.725  26.399  1.00  0.00    -0.072 Cl
ENDBRANCH  12  15
ENDBRANCH  10  12
ENDBRANCH   6  10
ENDBRANCH   4   6
ENDBRANCH   3   4
ENDBRANCH   2   3
ENDBRANCH   1   2
BRANCH   1  21
ATOM     21  O   UNL A   1      40.440  20.091  27.379  1.00  0.00    -0.374 OA
BRANCH  21  22
ATOM     22  C   UNL A   1      40.916  21.418  27.630  1.00  0.00     0.202 C 
BRANCH  22  23
ATOM     23  C   UNL A   1      40.416  22.443  26.613  1.00  0.00     0.261 C 
BRANCH  23  24
ATOM     24  O   UNL A   1      38.974  22.420  26.556  1.00  0.00    -0.460 OA
BRANCH  24  25
ATOM     25  C   UNL A   1      38.368  23.601  26.298  1.00  0.00     0.338 C 
ATOM     26  O   UNL A   1      37.294  23.763  25.741  1.00  0.00    -0.246 OA
BRANCH  25  27
ATOM     27  C   UNL A   1      39.143  24.724  26.884  1.00  0.00     0.060 A 
ATOM     28  C   UNL A   1      39.018  24.935  28.261  1.00  0.00     0.016 A 
ATOM     29  C   UNL A   1      39.966  25.569  26.125  1.00  0.00     0.016 A 
ATOM     30  C   UNL A   1      39.685  25.995  28.876  1.00  0.00     0.010 A 
ATOM     31  C   UNL A   1      40.650  26.627  26.745  1.00  0.00     0.010 A 
ATOM     32  C   UNL A   1      40.482  26.866  28.119  1.00  0.00    -0.014 A 
BRANCH  32  33
ATOM     33  C   UNL A   1      40.917  28.135  28.755  1.00  0.00     0.031 A 
ATOM     34  C   UNL A   1      39.908  29.245  28.858  1.00  0.00     0.074 A 
ATOM     35  C   UNL A   1      42.119  28.275  29.342  1.00  0.00     0.049 A 
ATOM     36  N   UNL A   1      39.939  30.329  29.589  1.00  0.00    -0.248 NA
ATOM     37  C   UNL A   1      38.692  29.099  28.041  1.00  0.00     0.031 C 
ATOM     38  C   UNL A   1      43.191  27.285  29.334  1.00  0.00     0.029 A 
ATOM     39  N   UNL A   1      42.626  29.310  30.093  1.00  0.00    -0.354 N 
ATOM     40  C   UNL A   1      38.727  30.966  29.357  1.00  0.00     0.074 A 
ATOM     41  C   UNL A   1      38.013  30.184  28.373  1.00  0.00     0.031 C 
ATOM     42  C   UNL A   1      44.220  27.744  30.070  1.00  0.00     0.029 A 
ATOM     43  C   UNL A   1      43.880  29.064  30.599  1.00  0.00     0.049 A 
ATOM     44  H   UNL A   1      42.136  30.149  30.252  1.00  0.00     0.167 HD
ATOM     45  C   UNL A   1      38.237  32.090  29.926  1.00  0.00     0.031 A 
ATOM     46  C   UNL A   1      44.651  29.808  31.416  1.00  0.00     0.031 A 
ATOM     47  C   UNL A   1      38.958  32.913  30.854  1.00  0.00     0.049 A 
ATOM     48  C   UNL A   1      44.124  31.113  31.956  1.00  0.00     0.074 A 
ATOM     49  C   UNL A   1      38.552  34.085  31.467  1.00  0.00     0.029 A 
ATOM     50  N   UNL A   1      40.252  32.661  31.281  1.00  0.00    -0.354 N 
ATOM     51  N   UNL A   1      42.941  31.658  31.803  1.00  0.00    -0.248 NA
ATOM     52  C   UNL A   1      45.035  31.893  32.808  1.00  0.00     0.031 C 
ATOM     53  C   UNL A   1      39.622  34.571  32.226  1.00  0.00     0.029 A 
ATOM     54  C   UNL A   1      40.672  33.672  32.127  1.00  0.00     0.049 A 
ATOM     55  H   UNL A   1      40.791  31.880  31.022  1.00  0.00     0.167 HD
ATOM     56  C   UNL A   1      42.953  32.816  32.571  1.00  0.00     0.074 A 
ATOM     57  C   UNL A   1      44.257  32.894  33.195  1.00  0.00     0.031 C 
ATOM     58  C   UNL A   1      41.968  33.730  32.751  1.00  0.00     0.031 A 
BRANCH  45  59
ATOM     59  C   UNL A   1      36.851  32.494  29.519  1.00  0.00    -0.014 A 
ATOM     60  C   UNL A   1      36.642  33.307  28.392  1.00  0.00     0.009 A 
ATOM     61  C   UNL A   1      35.749  32.084  30.281  1.00  0.00     0.009 A 
ATOM     62  C   UNL A   1      35.355  33.736  28.062  1.00  0.00     0.001 A 
ATOM     63  C   UNL A   1      34.461  32.496  29.935  1.00  0.00     0.001 A 
ATOM     64  C   UNL A   1      34.267  33.329  28.833  1.00  0.00     0.000 A 
ENDBRANCH  45  59
BRANCH  46  65
ATOM     65  C   UNL A   1      46.007  29.341  31.810  1.00  0.00    -0.014 A 
ATOM     66  C   UNL A   1      46.196  28.600  32.988  1.00  0.00     0.009 A 
ATOM     67  C   UNL A   1      47.130  29.696  31.047  1.00  0.00     0.009 A 
ATOM     68  C   UNL A   1      47.482  28.258  33.412  1.00  0.00     0.001 A 
ATOM     69  C   UNL A   1      48.413  29.331  31.461  1.00  0.00     0.001 A 
ATOM     70  C   UNL A   1      48.590  28.623  32.649  1.00  0.00     0.000 A 
ENDBRANCH  46  65
BRANCH  58  71
ATOM     71  C   UNL A   1      42.239  34.868  33.696  1.00  0.00    -0.014 A 
ATOM     72  C   UNL A   1      42.857  36.050  33.262  1.00  0.00     0.009 A 
ATOM     73  C   UNL A   1      41.817  34.771  35.032  1.00  0.00     0.009 A 
ATOM     74  C   UNL A   1      43.076  37.101  34.156  1.00  0.00     0.001 A 
ATOM     75  C   UNL A   1      42.011  35.834  35.916  1.00  0.00     0.001 A 
ATOM     76  C   UNL A   1      42.648  36.994  35.479  1.00  0.00     0.000 A 
ENDBRANCH  58  71
ENDBRANCH  32  33
ENDBRANCH  25  27
ENDBRANCH  24  25
ENDBRANCH  23  24
ENDBRANCH  22  23
ENDBRANCH  21  22
ENDBRANCH   1  21
TORSDOF 18
ENDMDL
MODEL 3
REMARK VINA RESULT:      -9.2      5.421      9.830
REMARK SMILES CC[C@@](C)(NS(=O)(=O)c1ccc(Cl)s1)C(=O)OCCOCCOC(=O)c1ccc(-c2c3nc(c(-c4ccccc4)c4ccc([nH]4)c(-c4ccccc4)c4nc(c(-c5ccccc5)c5ccc2[nH]5)C=C4)C=C3)cc1
REMARK SMILES IDX 19 1 18 2 17 3 15 4 16 5 3 6 4 7 2 8 1 9 5 10 6 12 7 13 8 14
REMARK SMILES IDX 9 15 10 16 14 17 11 18 12 19 13 20 20 21 21 22 22 23 23 24
REMARK SMILES IDX 24 25 25 26 26 27 27 28 73 29 28 30 72 31 29 32 30 33 31 34
REMARK SMILES IDX 66 35 32 36 71 37 65 38 67 39 33 40 70 41 64 42 63 43 34 45
REMARK SMILES IDX 56 46 41 47 55 48 42 49 45 50 54 51 68 52 43 53 44 54 53 56
REMARK SMILES IDX 69 57 46 58 35 59 36 60 40 61 37 62 39 63 38 64 57 65 58 66
REMARK SMILES IDX 62 67 59 68 61 69 60 70 47 71 48 72 52 73 49 74 51 75 50 76
REMARK H PARENT 5 11 67 44 45 55
REMARK Flexibility Score: inf
ROOT
ATOM      1  C   UNL A   1      41.052  19.309  26.071  1.00  0.00     0.202 C 
ENDROOT
BRANCH   1   2
ATOM      2  C   UNL A   1      42.580  19.397  26.189  1.00  0.00     0.261 C 
BRANCH   2   3
ATOM      3  O   UNL A   1      43.071  20.213  25.113  1.00  0.00    -0.462 OA
BRANCH   3   4
ATOM      4  C   UNL A   1      44.038  21.116  25.388  1.00  0.00     0.327 C 
ATOM      5  O   UNL A   1      44.033  21.841  26.376  1.00  0.00    -0.250 OA
BRANCH   4   6
ATOM      6  C   UNL A   1      45.171  21.071  24.339  1.00  0.00     0.127 C 
ATOM      7  C   UNL A   1      46.339  20.290  24.941  1.00  0.00     0.042 C 
BRANCH   6   8
ATOM      8  C   UNL A   1      44.624  20.352  23.062  1.00  0.00     0.032 C 
ATOM      9  C   UNL A   1      45.119  18.939  22.779  1.00  0.00     0.006 C 
ENDBRANCH   6   8
BRANCH   6  10
ATOM     10  N   UNL A   1      45.590  22.430  23.840  1.00  0.00    -0.193 NA
ATOM     11  H   UNL A   1      44.729  22.857  23.496  1.00  0.00     0.142 HD
BRANCH  10  12
ATOM     12  S   UNL A   1      46.353  23.642  24.701  1.00  0.00     0.251 S 
ATOM     13  O   UNL A   1      46.788  23.112  25.973  1.00  0.00    -0.206 OA
ATOM     14  O   UNL A   1      47.311  24.216  23.781  1.00  0.00    -0.206 OA
BRANCH  12  15
ATOM     15  C   UNL A   1      45.255  24.967  25.106  1.00  0.00     0.136 A 
ATOM     16  C   UNL A   1      43.885  25.129  24.992  1.00  0.00     0.035 A 
ATOM     17  S   UNL A   1      45.957  26.314  25.874  1.00  0.00    -0.110 S 
ATOM     18  C   UNL A   1      43.452  26.425  25.416  1.00  0.00     0.034 A 
ATOM     19  C   UNL A   1      44.515  27.178  25.837  1.00  0.00     0.094 A 
ATOM     20  Cl  UNL A   1      44.500  28.828  26.307  1.00  0.00    -0.072 Cl
ENDBRANCH  12  15
ENDBRANCH  10  12
ENDBRANCH   6  10
ENDBRANCH   4   6
ENDBRANCH   3   4
ENDBRANCH   2   3
ENDBRANCH   1   2
BRANCH   1  21
ATOM     21  O   UNL A   1      40.392  19.942  27.172  1.00  0.00    -0.374 OA
BRANCH  21  22
ATOM     22  C   UNL A   1      40.926  21.211  27.566  1.00  0.00     0.202 C 
BRANCH  22  23
ATOM     23  C   UNL A   1      40.550  22.347  26.616  1.00  0.00     0.261 C 
BRANCH  23  24
ATOM     24  O   UNL A   1      39.211  22.150  26.113  1.00  0.00    -0.460 OA
BRANCH  24  25
ATOM     25  C   UNL A   1      38.429  23.250  26.052  1.00  0.00     0.338 C 
ATOM     26  O   UNL A   1      37.298  23.315  25.598  1.00  0.00    -0.246 OA
BRANCH  25  27
ATOM     27  C   UNL A   1      39.091  24.399  26.721  1.00  0.00     0.060 A 
ATOM     28  C   UNL A   1      38.894  24.534  28.099  1.00  0.00     0.016 A 
ATOM     29  C   UNL A   1      39.876  25.338  26.037  1.00  0.00     0.016 A 
ATOM     30  C   UNL A   1      39.452  25.611  28.789  1.00  0.00     0.010 A 
ATOM     31  C   UNL A   1      40.451  26.414  26.733  1.00  0.00     0.010 A 
ATOM     32  C   UNL A   1      40.210  26.574  28.107  1.00  0.00    -0.014 A 
BRANCH  32  33
ATOM     33  C   UNL A   1      40.519  27.841  28.817  1.00  0.00     0.031 A 
ATOM     34  C   UNL A   1      41.943  28.076  29.236  1.00  0.00     0.074 A 
ATOM     35  C   UNL A   1      39.610  28.820  28.981  1.00  0.00     0.049 A 
ATOM     36  N   UNL A   1      42.524  29.184  29.617  1.00  0.00    -0.248 NA
ATOM     37  C   UNL A   1      42.836  26.906  29.198  1.00  0.00     0.031 C 
ATOM     38  C   UNL A   1      38.199  28.740  28.615  1.00  0.00     0.029 A 
ATOM     39  N   UNL A   1      39.756  30.095  29.474  1.00  0.00    -0.354 N 
ATOM     40  C   UNL A   1      43.858  28.854  29.816  1.00  0.00     0.074 A 
ATOM     41  C   UNL A   1      43.988  27.434  29.575  1.00  0.00     0.031 C 
ATOM     42  C   UNL A   1      37.611  29.924  28.869  1.00  0.00     0.029 A 
ATOM     43  C   UNL A   1      38.605  30.844  29.418  1.00  0.00     0.049 A 
ATOM     44  H   UNL A   1      40.605  30.437  29.835  1.00  0.00     0.167 HD
ATOM     45  C   UNL A   1      44.892  29.660  30.146  1.00  0.00     0.031 A 
ATOM     46  C   UNL A   1      38.389  32.133  29.747  1.00  0.00     0.031 A 
ATOM     47  C   UNL A   1      44.769  31.056  30.452  1.00  0.00     0.049 A 
ATOM     48  C   UNL A   1      39.539  32.987  30.216  1.00  0.00     0.074 A 
ATOM     49  C   UNL A   1      45.758  31.951  30.820  1.00  0.00     0.029 A 
ATOM     50  N   UNL A   1      43.573  31.755  30.451  1.00  0.00    -0.354 N 
ATOM     51  N   UNL A   1      40.812  32.687  30.310  1.00  0.00    -0.248 NA
ATOM     52  C   UNL A   1      39.222  34.372  30.598  1.00  0.00     0.031 C 
ATOM     53  C   UNL A   1      45.151  33.181  31.094  1.00  0.00     0.029 A 
ATOM     54  C   UNL A   1      43.792  33.064  30.842  1.00  0.00     0.049 A 
ATOM     55  H   UNL A   1      42.698  31.377  30.208  1.00  0.00     0.167 HD
ATOM     56  C   UNL A   1      41.449  33.853  30.718  1.00  0.00     0.074 A 
ATOM     57  C   UNL A   1      40.425  34.868  30.849  1.00  0.00     0.031 C 
ATOM     58  C   UNL A   1      42.767  34.067  30.955  1.00  0.00     0.031 A 
BRANCH  45  59
ATOM     59  C   UNL A   1      46.244  29.015  30.217  1.00  0.00    -0.014 A 
ATOM     60  C   UNL A   1      46.822  28.692  31.456  1.00  0.00     0.009 A 
ATOM     61  C   UNL A   1      46.958  28.754  29.040  1.00  0.00     0.009 A 
ATOM     62  C   UNL A   1      48.110  28.157  31.514  1.00  0.00     0.001 A 
ATOM     63  C   UNL A   1      48.237  28.198  29.100  1.00  0.00     0.001 A 
ATOM     64  C   UNL A   1      48.815  27.910  30.337  1.00  0.00     0.000 A 
ENDBRANCH  45  59
BRANCH  46  65
ATOM     65  C   UNL A   1      37.030  32.727  29.628  1.00  0.00    -0.014 A 
ATOM     66  C   UNL A   1      36.124  32.665  30.699  1.00  0.00     0.009 A 
ATOM     67  C   UNL A   1      36.607  33.296  28.417  1.00  0.00     0.009 A 
ATOM     68  C   UNL A   1      34.814  33.125  30.548  1.00  0.00     0.001 A 
ATOM     69  C   UNL A   1      35.304  33.778  28.276  1.00  0.00     0.001 A 
ATOM     70  C   UNL A   1      34.404  33.681  29.337  1.00  0.00     0.000 A 
ENDBRANCH  46  65
BRANCH  58  71
ATOM     71  C   UNL A   1      43.189  35.459  31.332  1.00  0.00    -0.014 A 
ATOM     72  C   UNL A   1      43.224  35.879  32.670  1.00  0.00     0.009 A 
ATOM     73  C   UNL A   1      43.610  36.348  30.329  1.00  0.00     0.009 A 
ATOM     74  C   UNL A   1      43.643  37.171  32.994  1.00  0.00     0.001 A 
ATOM     75  C   UNL A   1      44.055  37.629  30.658  1.00  0.00     0.001 A 
ATOM     76  C   UNL A   1      44.063  38.042  31.989  1.00  0.00     0.000 A 
ENDBRANCH  58  71
ENDBRANCH  32  33
ENDBRANCH  25  27
ENDBRANCH  24  25
ENDBRANCH  23  24
ENDBRANCH  22  23
ENDBRANCH  21  22
ENDBRANCH   1  21
TORSDOF 18
ENDMDL
