MODEL 1
REMARK VINA RESULT:     -11.1      0.000      0.000
REMARK SMILES O=C(N[C@H](C(=O)OCCOCCOC(=O)c1ccc(-c2c3nc(c(-c4ccccc4)c4ccc([nH]4)c(-c4ccccc4)c4nc(c(-c5ccccc5)c5ccc2[nH]5)C=C4)C=C3)cc1)c1ccccc1F)c1ccc(C[NH+]2CCCCC2)cc1
REMARK SMILES IDX 9 1 8 2 7 3 5 4 6 5 4 6 3 7 1 8 2 9 71 11 72 12 83 13 73 14
REMARK SMILES IDX 82 15 74 16 75 17 76 18 77 19 81 20 78 22 80 23 79 24 64 25
REMARK SMILES IDX 65 26 69 27 66 28 68 29 70 30 67 31 10 32 11 33 12 34 13 35
REMARK SMILES IDX 14 36 15 37 16 38 17 39 63 40 18 41 62 42 19 43 20 44 21 45
REMARK SMILES IDX 56 46 22 47 61 48 55 49 57 50 23 51 60 52 54 53 53 54 24 56
REMARK SMILES IDX 46 57 31 58 45 59 32 60 35 61 44 62 58 63 33 64 34 65 43 67
REMARK SMILES IDX 59 68 36 69 25 70 26 71 30 72 27 73 29 74 28 75 47 76 48 77
REMARK SMILES IDX 52 78 49 79 51 80 50 81 37 82 38 83 42 84 39 85 41 86 40 87
REMARK H PARENT 3 10 76 21 57 55 35 66
REMARK Flexibility Score: inf
ROOT
ATOM      1  C   UNL A   1      31.374  30.688  25.702  1.00  0.00     0.202 C 
ENDROOT
BRANCH   1   2
ATOM      2  C   UNL A   1      31.878  29.322  25.240  1.00  0.00     0.261 C 
BRANCH   2   3
ATOM      3  O   UNL A   1      31.825  28.271  26.211  1.00  0.00    -0.461 OA
BRANCH   3   4
ATOM      4  C   UNL A   1      32.967  27.509  26.262  1.00  0.00     0.333 C 
ATOM      5  O   UNL A   1      34.082  27.967  26.482  1.00  0.00    -0.249 OA
BRANCH   4   6
ATOM      6  C   UNL A   1      32.635  25.999  26.114  1.00  0.00     0.226 C 
BRANCH   6   7
ATOM      7  N   UNL A   1      31.244  25.668  26.479  1.00  0.00    -0.335 N 
ATOM      8  O   UNL A   1      29.483  24.362  27.044  1.00  0.00    -0.269 OA
ATOM      9  C   UNL A   1      30.651  24.441  26.682  1.00  0.00     0.252 C 
ATOM     10  H   UNL A   1      30.648  26.443  26.595  1.00  0.00     0.165 HD
BRANCH   9  11
ATOM     11  C   UNL A   1      31.413  23.211  26.392  1.00  0.00     0.039 A 
ATOM     12  C   UNL A   1      32.419  22.789  27.256  1.00  0.00     0.014 A 
ATOM     13  C   UNL A   1      31.173  22.523  25.202  1.00  0.00     0.014 A 
ATOM     14  C   UNL A   1      33.298  21.787  26.853  1.00  0.00     0.010 A 
ATOM     15  C   UNL A   1      32.049  21.507  24.805  1.00  0.00     0.010 A 
ATOM     16  C   UNL A   1      33.157  21.172  25.599  1.00  0.00     0.006 A 
BRANCH  16  17
ATOM     17  C   UNL A   1      34.205  20.183  25.122  1.00  0.00     0.299 C 
BRANCH  17  18
ATOM     18  N   UNL A   1      33.744  18.828  24.765  1.00  0.00    -0.331 N 
ATOM     19  C   UNL A   1      34.830  17.944  24.336  1.00  0.00     0.262 C 
ATOM     20  C   UNL A   1      32.919  18.194  25.802  1.00  0.00     0.262 C 
ATOM     21  H   UNL A   1      33.137  18.971  23.957  1.00  0.00     0.348 HD
ATOM     22  C   UNL A   1      34.306  16.609  23.806  1.00  0.00     0.062 C 
ATOM     23  C   UNL A   1      32.330  16.867  25.316  1.00  0.00     0.062 C 
ATOM     24  C   UNL A   1      33.418  15.916  24.833  1.00  0.00     0.012 C 
ENDBRANCH  17  18
ENDBRANCH  16  17
ENDBRANCH   9  11
ENDBRANCH   6   7
BRANCH   6  25
ATOM     25  C   UNL A   1      33.153  25.391  24.819  1.00  0.00     0.021 A 
ATOM     26  C   UNL A   1      34.340  24.657  24.711  1.00  0.00     0.009 A 
ATOM     27  C   UNL A   1      32.383  25.548  23.655  1.00  0.00     0.129 A 
ATOM     28  C   UNL A   1      34.648  23.971  23.529  1.00  0.00     0.001 A 
ATOM     29  C   UNL A   1      32.687  24.880  22.473  1.00  0.00     0.039 A 
ATOM     30  F   UNL A   1      31.320  26.366  23.669  1.00  0.00    -0.207 F 
ATOM     31  C   UNL A   1      33.808  24.061  22.419  1.00  0.00     0.003 A 
ENDBRANCH   6  25
ENDBRANCH   4   6
ENDBRANCH   3   4
ENDBRANCH   2   3
ENDBRANCH   1   2
BRANCH   1  32
ATOM     32  O   UNL A   1      31.970  31.273  26.848  1.00  0.00    -0.374 OA
BRANCH  32  33
ATOM     33  C   UNL A   1      31.814  32.677  27.049  1.00  0.00     0.202 C 
BRANCH  33  34
ATOM     34  C   UNL A   1      33.006  33.431  27.648  1.00  0.00     0.261 C 
BRANCH  34  35
ATOM     35  O   UNL A   1      32.596  34.607  28.377  1.00  0.00    -0.460 OA
BRANCH  35  36
ATOM     36  C   UNL A   1      33.311  34.854  29.499  1.00  0.00     0.338 C 
ATOM     37  O   UNL A   1      32.988  35.575  30.438  1.00  0.00    -0.246 OA
BRANCH  36  38
ATOM     38  C   UNL A   1      34.503  33.991  29.564  1.00  0.00     0.060 A 
ATOM     39  C   UNL A   1      34.532  33.004  30.558  1.00  0.00     0.016 A 
ATOM     40  C   UNL A   1      35.621  34.228  28.764  1.00  0.00     0.016 A 
ATOM     41  C   UNL A   1      35.707  32.296  30.803  1.00  0.00     0.010 A 
ATOM     42  C   UNL A   1      36.804  33.523  29.020  1.00  0.00     0.010 A 
ATOM     43  C   UNL A   1      36.863  32.591  30.071  1.00  0.00    -0.014 A 
BRANCH  43  44
ATOM     44  C   UNL A   1      38.163  32.049  30.535  1.00  0.00     0.031 A 
ATOM     45  C   UNL A   1      38.659  30.750  29.958  1.00  0.00     0.074 A 
ATOM     46  C   UNL A   1      38.922  32.730  31.411  1.00  0.00     0.049 A 
ATOM     47  N   UNL A   1      39.782  30.116  30.188  1.00  0.00    -0.248 NA
ATOM     48  C   UNL A   1      37.775  30.079  28.992  1.00  0.00     0.031 C 
ATOM     49  C   UNL A   1      38.575  34.016  32.012  1.00  0.00     0.029 A 
ATOM     50  N   UNL A   1      40.152  32.428  31.941  1.00  0.00    -0.354 N 
ATOM     51  C   UNL A   1      39.738  28.976  29.395  1.00  0.00     0.074 A 
ATOM     52  C   UNL A   1      38.468  28.987  28.703  1.00  0.00     0.031 C 
ATOM     53  C   UNL A   1      39.573  34.397  32.828  1.00  0.00     0.029 A 
ATOM     54  C   UNL A   1      40.614  33.372  32.824  1.00  0.00     0.049 A 
ATOM     55  H   UNL A   1      40.654  31.614  31.709  1.00  0.00     0.167 HD
ATOM     56  C   UNL A   1      40.674  28.007  29.249  1.00  0.00     0.031 A 
ATOM     57  C   UNL A   1      41.747  33.399  33.552  1.00  0.00     0.031 A 
ATOM     58  C   UNL A   1      41.932  27.980  29.944  1.00  0.00     0.049 A 
ATOM     59  C   UNL A   1      42.740  32.275  33.424  1.00  0.00     0.074 A 
ATOM     60  C   UNL A   1      42.948  27.045  29.854  1.00  0.00     0.029 A 
ATOM     61  N   UNL A   1      42.341  28.930  30.866  1.00  0.00    -0.354 N 
ATOM     62  N   UNL A   1      42.699  31.217  32.650  1.00  0.00    -0.248 NA
ATOM     63  C   UNL A   1      43.943  32.359  34.266  1.00  0.00     0.031 C 
ATOM     64  C   UNL A   1      43.955  27.405  30.758  1.00  0.00     0.029 A 
ATOM     65  C   UNL A   1      43.584  28.592  31.371  1.00  0.00     0.049 A 
ATOM     66  H   UNL A   1      41.824  29.728  31.123  1.00  0.00     0.167 HD
ATOM     67  C   UNL A   1      43.877  30.524  32.894  1.00  0.00     0.074 A 
ATOM     68  C   UNL A   1      44.620  31.288  33.875  1.00  0.00     0.031 C 
ATOM     69  C   UNL A   1      44.309  29.359  32.350  1.00  0.00     0.031 A 
BRANCH  56  70
ATOM     70  C   UNL A   1      40.351  26.875  28.315  1.00  0.00    -0.014 A 
ATOM     71  C   UNL A   1      39.574  25.784  28.735  1.00  0.00     0.009 A 
ATOM     72  C   UNL A   1      40.811  26.913  26.989  1.00  0.00     0.009 A 
ATOM     73  C   UNL A   1      39.289  24.739  27.853  1.00  0.00     0.001 A 
ATOM     74  C   UNL A   1      40.504  25.879  26.104  1.00  0.00     0.001 A 
ATOM     75  C   UNL A   1      39.751  24.789  26.538  1.00  0.00     0.000 A 
ENDBRANCH  56  70
BRANCH  57  76
ATOM     76  C   UNL A   1      42.006  34.529  34.480  1.00  0.00    -0.014 A 
ATOM     77  C   UNL A   1      41.532  34.497  35.799  1.00  0.00     0.009 A 
ATOM     78  C   UNL A   1      42.717  35.657  34.040  1.00  0.00     0.009 A 
ATOM     79  C   UNL A   1      41.745  35.582  36.653  1.00  0.00     0.001 A 
ATOM     80  C   UNL A   1      42.950  36.728  34.903  1.00  0.00     0.001 A 
ATOM     81  C   UNL A   1      42.457  36.693  36.207  1.00  0.00     0.000 A 
ENDBRANCH  57  76
BRANCH  69  82
ATOM     82  C   UNL A   1      45.656  28.858  32.783  1.00  0.00    -0.014 A 
ATOM     83  C   UNL A   1      46.812  29.138  32.037  1.00  0.00     0.009 A 
ATOM     84  C   UNL A   1      45.776  28.121  33.972  1.00  0.00     0.009 A 
ATOM     85  C   UNL A   1      48.056  28.661  32.456  1.00  0.00     0.001 A 
ATOM     86  C   UNL A   1      47.024  27.667  34.401  1.00  0.00     0.001 A 
ATOM     87  C   UNL A   1      48.160  27.930  33.639  1.00  0.00     0.000 A 
ENDBRANCH  69  82
ENDBRANCH  43  44
ENDBRANCH  36  38
ENDBRANCH  35  36
ENDBRANCH  34  35
ENDBRANCH  33  34
ENDBRANCH  32  33
ENDBRANCH   1  32
TORSDOF 19
ENDMDL
MODEL 2
REMARK VINA RESULT:     -11.0      3.133      4.426
REMARK SMILES O=C(N[C@H](C(=O)OCCOCCOC(=O)c1ccc(-c2c3nc(c(-c4ccccc4)c4ccc([nH]4)c(-c4ccccc4)c4nc(c(-c5ccccc5)c5ccc2[nH]5)C=C4)C=C3)cc1)c1ccccc1F)c1ccc(C[NH+]2CCCCC2)cc1
REMARK SMILES IDX 9 1 8 2 7 3 5 4 6 5 4 6 3 7 1 8 2 9 71 11 72 12 83 13 73 14
REMARK SMILES IDX 82 15 74 16 75 17 76 18 77 19 81 20 78 22 80 23 79 24 64 25
REMARK SMILES IDX 65 26 69 27 66 28 68 29 70 30 67 31 10 32 11 33 12 34 13 35
REMARK SMILES IDX 14 36 15 37 16 38 17 39 63 40 18 41 62 42 19 43 20 44 21 45
REMARK SMILES IDX 56 46 22 47 61 48 55 49 57 50 23 51 60 52 54 53 53 54 24 56
REMARK SMILES IDX 46 57 31 58 45 59 32 60 35 61 44 62 58 63 33 64 34 65 43 67
REMARK SMILES IDX 59 68 36 69 25 70 26 71 30 72 27 73 29 74 28 75 47 76 48 77
REMARK SMILES IDX 52 78 49 79 51 80 50 81 37 82 38 83 42 84 39 85 41 86 40 87
REMARK H PARENT 3 10 76 21 57 55 35 66
REMARK Flexibility Score: inf
ROOT
ATOM      1  C   UNL A   1      32.449  30.250  26.615  1.00  0.00     0.202 C 
ENDROOT
BRANCH   1   2
ATOM      2  C   UNL A   1      31.743  28.902  26.754  1.00  0.00     0.261 C 
BRANCH   2   3
ATOM      3  O   UNL A   1      32.564  27.800  27.153  1.00  0.00    -0.461 OA
BRANCH   3   4
ATOM      4  C   UNL A   1      33.228  27.199  26.111  1.00  0.00     0.333 C 
ATOM      5  O   UNL A   1      34.046  27.775  25.404  1.00  0.00    -0.249 OA
BRANCH   4   6
ATOM      6  C   UNL A   1      32.884  25.687  26.030  1.00  0.00     0.226 C 
BRANCH   6   7
ATOM      7  N   UNL A   1      31.520  25.372  26.497  1.00  0.00    -0.335 N 
ATOM      8  O   UNL A   1      29.791  24.087  27.195  1.00  0.00    -0.269 OA
ATOM      9  C   UNL A   1      30.931  24.152  26.749  1.00  0.00     0.252 C 
ATOM     10  H   UNL A   1      30.942  26.153  26.653  1.00  0.00     0.165 HD
BRANCH   9  11
ATOM     11  C   UNL A   1      31.657  22.913  26.410  1.00  0.00     0.039 A 
ATOM     12  C   UNL A   1      32.713  22.479  27.205  1.00  0.00     0.014 A 
ATOM     13  C   UNL A   1      31.330  22.227  25.239  1.00  0.00     0.014 A 
ATOM     14  C   UNL A   1      33.552  21.466  26.746  1.00  0.00     0.010 A 
ATOM     15  C   UNL A   1      32.166  21.202  24.786  1.00  0.00     0.010 A 
ATOM     16  C   UNL A   1      33.320  20.853  25.505  1.00  0.00     0.006 A 
BRANCH  16  17
ATOM     17  C   UNL A   1      34.323  19.852  24.960  1.00  0.00     0.299 C 
BRANCH  17  18
ATOM     18  N   UNL A   1      33.844  18.477  24.722  1.00  0.00    -0.331 N 
ATOM     19  C   UNL A   1      34.926  17.531  24.443  1.00  0.00     0.262 C 
ATOM     20  C   UNL A   1      32.954  17.972  25.776  1.00  0.00     0.262 C 
ATOM     21  H   UNL A   1      33.281  18.548  23.874  1.00  0.00     0.348 HD
ATOM     22  C   UNL A   1      34.394  16.159  24.027  1.00  0.00     0.062 C 
ATOM     23  C   UNL A   1      32.354  16.614  25.400  1.00  0.00     0.062 C 
ATOM     24  C   UNL A   1      33.440  15.596  25.073  1.00  0.00     0.012 C 
ENDBRANCH  17  18
ENDBRANCH  16  17
ENDBRANCH   9  11
ENDBRANCH   6   7
BRANCH   6  25
ATOM     25  C   UNL A   1      33.312  25.040  24.722  1.00  0.00     0.021 A 
ATOM     26  C   UNL A   1      34.469  24.268  24.564  1.00  0.00     0.009 A 
ATOM     27  C   UNL A   1      32.485  25.198  23.598  1.00  0.00     0.129 A 
ATOM     28  C   UNL A   1      34.692  23.552  23.382  1.00  0.00     0.001 A 
ATOM     29  C   UNL A   1      32.705  24.500  22.414  1.00  0.00     0.039 A 
ATOM     30  F   UNL A   1      31.449  26.049  23.653  1.00  0.00    -0.207 F 
ATOM     31  C   UNL A   1      33.797  23.646  22.317  1.00  0.00     0.003 A 
ENDBRANCH   6  25
ENDBRANCH   4   6
ENDBRANCH   3   4
ENDBRANCH   2   3
ENDBRANCH   1   2
BRANCH   1  32
ATOM     32  O   UNL A   1      33.333  30.655  27.648  1.00  0.00    -0.374 OA
BRANCH  32  33
ATOM     33  C   UNL A   1      33.781  32.009  27.661  1.00  0.00     0.202 C 
BRANCH  33  34
ATOM     34  C   UNL A   1      34.156  32.606  29.021  1.00  0.00     0.261 C 
BRANCH  34  35
ATOM     35  O   UNL A   1      35.568  32.497  29.294  1.00  0.00    -0.460 OA
BRANCH  35  36
ATOM     36  C   UNL A   1      35.883  31.686  30.330  1.00  0.00     0.338 C 
ATOM     37  O   UNL A   1      35.274  31.566  31.389  1.00  0.00    -0.246 OA
BRANCH  36  38
ATOM     38  C   UNL A   1      36.994  30.786  29.975  1.00  0.00     0.060 A 
ATOM     39  C   UNL A   1      37.756  30.255  31.024  1.00  0.00     0.016 A 
ATOM     40  C   UNL A   1      37.367  30.575  28.647  1.00  0.00     0.016 A 
ATOM     41  C   UNL A   1      38.937  29.569  30.749  1.00  0.00     0.010 A 
ATOM     42  C   UNL A   1      38.560  29.894  28.374  1.00  0.00     0.010 A 
ATOM     43  C   UNL A   1      39.372  29.432  29.425  1.00  0.00    -0.014 A 
BRANCH  43  44
ATOM     44  C   UNL A   1      40.757  28.967  29.170  1.00  0.00     0.031 A 
ATOM     45  C   UNL A   1      40.980  27.539  28.749  1.00  0.00     0.074 A 
ATOM     46  C   UNL A   1      41.796  29.815  29.250  1.00  0.00     0.049 A 
ATOM     47  N   UNL A   1      42.097  26.932  28.435  1.00  0.00    -0.248 NA
ATOM     48  C   UNL A   1      39.786  26.683  28.667  1.00  0.00     0.031 C 
ATOM     49  C   UNL A   1      41.709  31.230  29.607  1.00  0.00     0.029 A 
ATOM     50  N   UNL A   1      43.133  29.603  29.029  1.00  0.00    -0.354 N 
ATOM     51  C   UNL A   1      41.740  25.627  28.119  1.00  0.00     0.074 A 
ATOM     52  C   UNL A   1      40.310  25.520  28.308  1.00  0.00     0.031 C 
ATOM     53  C   UNL A   1      42.943  31.762  29.576  1.00  0.00     0.029 A 
ATOM     54  C   UNL A   1      43.905  30.720  29.222  1.00  0.00     0.049 A 
ATOM     55  H   UNL A   1      43.503  28.732  28.756  1.00  0.00     0.167 HD
ATOM     56  C   UNL A   1      42.529  24.609  27.700  1.00  0.00     0.031 A 
ATOM     57  C   UNL A   1      45.240  30.882  29.131  1.00  0.00     0.031 A 
ATOM     58  C   UNL A   1      43.953  24.703  27.525  1.00  0.00     0.049 A 
ATOM     59  C   UNL A   1      46.103  29.716  28.731  1.00  0.00     0.074 A 
ATOM     60  C   UNL A   1      44.836  23.728  27.096  1.00  0.00     0.029 A 
ATOM     61  N   UNL A   1      44.703  25.840  27.778  1.00  0.00    -0.354 N 
ATOM     62  N   UNL A   1      45.749  28.495  28.408  1.00  0.00    -0.248 NA
ATOM     63  C   UNL A   1      47.553  29.958  28.674  1.00  0.00     0.031 C 
ATOM     64  C   UNL A   1      46.129  24.262  27.133  1.00  0.00     0.029 A 
ATOM     65  C   UNL A   1      46.042  25.585  27.537  1.00  0.00     0.049 A 
ATOM     66  H   UNL A   1      44.338  26.702  28.082  1.00  0.00     0.167 HD
ATOM     67  C   UNL A   1      46.927  27.832  28.087  1.00  0.00     0.074 A 
ATOM     68  C   UNL A   1      48.004  28.789  28.240  1.00  0.00     0.031 C 
ATOM     69  C   UNL A   1      47.101  26.545  27.697  1.00  0.00     0.031 A 
BRANCH  56  70
ATOM     70  C   UNL A   1      41.863  23.289  27.432  1.00  0.00    -0.014 A 
ATOM     71  C   UNL A   1      41.015  23.113  26.327  1.00  0.00     0.009 A 
ATOM     72  C   UNL A   1      42.106  22.200  28.283  1.00  0.00     0.009 A 
ATOM     73  C   UNL A   1      40.401  21.880  26.097  1.00  0.00     0.001 A 
ATOM     74  C   UNL A   1      41.510  20.962  28.037  1.00  0.00     0.001 A 
ATOM     75  C   UNL A   1      40.651  20.805  26.950  1.00  0.00     0.000 A 
ENDBRANCH  56  70
BRANCH  57  76
ATOM     76  C   UNL A   1      45.850  32.202  29.431  1.00  0.00    -0.014 A 
ATOM     77  C   UNL A   1      45.944  33.190  28.441  1.00  0.00     0.009 A 
ATOM     78  C   UNL A   1      46.357  32.472  30.712  1.00  0.00     0.009 A 
ATOM     79  C   UNL A   1      46.555  34.415  28.720  1.00  0.00     0.001 A 
ATOM     80  C   UNL A   1      46.944  33.706  30.995  1.00  0.00     0.001 A 
ATOM     81  C   UNL A   1      47.050  34.673  29.997  1.00  0.00     0.000 A 
ENDBRANCH  57  76
BRANCH  69  82
ATOM     82  C   UNL A   1      48.503  26.108  27.380  1.00  0.00    -0.014 A 
ATOM     83  C   UNL A   1      49.025  26.221  26.082  1.00  0.00     0.009 A 
ATOM     84  C   UNL A   1      49.323  25.606  28.402  1.00  0.00     0.009 A 
ATOM     85  C   UNL A   1      50.330  25.809  25.807  1.00  0.00     0.001 A 
ATOM     86  C   UNL A   1      50.636  25.217  28.130  1.00  0.00     0.001 A 
ATOM     87  C   UNL A   1      51.135  25.310  26.832  1.00  0.00     0.000 A 
ENDBRANCH  69  82
ENDBRANCH  43  44
ENDBRANCH  36  38
ENDBRANCH  35  36
ENDBRANCH  34  35
ENDBRANCH  33  34
ENDBRANCH  32  33
ENDBRANCH   1  32
TORSDOF 19
ENDMDL
MODEL 3
REMARK VINA RESULT:     -10.9      3.579      9.147
REMARK SMILES O=C(N[C@H](C(=O)OCCOCCOC(=O)c1ccc(-c2c3nc(c(-c4ccccc4)c4ccc([nH]4)c(-c4ccccc4)c4nc(c(-c5ccccc5)c5ccc2[nH]5)C=C4)C=C3)cc1)c1ccccc1F)c1ccc(C[NH+]2CCCCC2)cc1
REMARK SMILES IDX 9 1 8 2 7 3 5 4 6 5 4 6 3 7 1 8 2 9 71 11 72 12 83 13 73 14
REMARK SMILES IDX 82 15 74 16 75 17 76 18 77 19 81 20 78 22 80 23 79 24 64 25
REMARK SMILES IDX 65 26 69 27 66 28 68 29 70 30 67 31 10 32 11 33 12 34 13 35
REMARK SMILES IDX 14 36 15 37 16 38 17 39 63 40 18 41 62 42 19 43 20 44 21 45
REMARK SMILES IDX 56 46 22 47 61 48 55 49 57 50 23 51 60 52 54 53 53 54 24 56
REMARK SMILES IDX 46 57 31 58 45 59 32 60 35 61 44 62 58 63 33 64 34 65 43 67
REMARK SMILES IDX 59 68 36 69 25 70 26 71 30 72 27 73 29 74 28 75 47 76 48 77
REMARK SMILES IDX 52 78 49 79 51 80 50 81 37 82 38 83 42 84 39 85 41 86 40 87
REMARK H PARENT 3 10 76 21 57 55 35 66
REMARK Flexibility Score: inf
ROOT
ATOM      1  C   UNL A   1      34.907  21.023  25.474  1.00  0.00     0.202 C 
ENDROOT
BRANCH   1   2
ATOM      2  C   UNL A   1      33.765  20.820  24.480  1.00  0.00     0.261 C 
BRANCH   2   3
ATOM      3  O   UNL A   1      33.572  21.865  23.520  1.00  0.00    -0.461 OA
BRANCH   3   4
ATOM      4  C   UNL A   1      32.259  22.048  23.160  1.00  0.00     0.333 C 
ATOM      5  O   UNL A   1      31.614  21.239  22.504  1.00  0.00    -0.249 OA
BRANCH   4   6
ATOM      6  C   UNL A   1      31.688  23.350  23.786  1.00  0.00     0.226 C 
BRANCH   6   7
ATOM      7  N   UNL A   1      31.185  23.165  25.161  1.00  0.00    -0.335 N 
ATOM      8  O   UNL A   1      30.133  23.698  27.094  1.00  0.00    -0.269 OA
ATOM      9  C   UNL A   1      30.534  24.052  25.991  1.00  0.00     0.252 C 
ATOM     10  H   UNL A   1      31.338  22.272  25.544  1.00  0.00     0.165 HD
BRANCH   9  11
ATOM     11  C   UNL A   1      30.383  25.458  25.573  1.00  0.00     0.039 A 
ATOM     12  C   UNL A   1      29.640  25.778  24.441  1.00  0.00     0.014 A 
ATOM     13  C   UNL A   1      31.061  26.457  26.274  1.00  0.00     0.014 A 
ATOM     14  C   UNL A   1      29.713  27.063  23.908  1.00  0.00     0.010 A 
ATOM     15  C   UNL A   1      31.122  27.750  25.744  1.00  0.00     0.010 A 
ATOM     16  C   UNL A   1      30.499  28.049  24.523  1.00  0.00     0.006 A 
BRANCH  16  17
ATOM     17  C   UNL A   1      30.677  29.399  23.851  1.00  0.00     0.299 C 
BRANCH  17  18
ATOM     18  N   UNL A   1      29.479  30.018  23.250  1.00  0.00    -0.331 N 
ATOM     19  C   UNL A   1      29.170  31.335  23.809  1.00  0.00     0.262 C 
ATOM     20  C   UNL A   1      29.510  30.055  21.782  1.00  0.00     0.262 C 
ATOM     21  H   UNL A   1      28.714  29.394  23.509  1.00  0.00     0.348 HD
ATOM     22  C   UNL A   1      27.832  31.873  23.299  1.00  0.00     0.062 C 
ATOM     23  C   UNL A   1      28.179  30.550  21.206  1.00  0.00     0.062 C 
ATOM     24  C   UNL A   1      27.795  31.910  21.776  1.00  0.00     0.012 C 
ENDBRANCH  17  18
ENDBRANCH  16  17
ENDBRANCH   9  11
ENDBRANCH   6   7
BRANCH   6  25
ATOM     25  C   UNL A   1      32.565  24.569  23.549  1.00  0.00     0.021 A 
ATOM     26  C   UNL A   1      32.489  25.389  22.417  1.00  0.00     0.009 A 
ATOM     27  C   UNL A   1      33.498  24.921  24.538  1.00  0.00     0.129 A 
ATOM     28  C   UNL A   1      33.196  26.597  22.363  1.00  0.00     0.001 A 
ATOM     29  C   UNL A   1      34.214  26.113  24.488  1.00  0.00     0.039 A 
ATOM     30  F   UNL A   1      33.718  24.089  25.567  1.00  0.00    -0.207 F 
ATOM     31  C   UNL A   1      34.037  26.972  23.410  1.00  0.00     0.003 A 
ENDBRANCH   6  25
ENDBRANCH   4   6
ENDBRANCH   3   4
ENDBRANCH   2   3
ENDBRANCH   1   2
BRANCH   1  32
ATOM     32  O   UNL A   1      36.148  20.388  25.211  1.00  0.00    -0.374 OA
BRANCH  32  33
ATOM     33  C   UNL A   1      37.338  21.170  25.294  1.00  0.00     0.202 C 
BRANCH  33  34
ATOM     34  C   UNL A   1      38.666  20.445  25.055  1.00  0.00     0.261 C 
BRANCH  34  35
ATOM     35  O   UNL A   1      39.313  20.070  26.288  1.00  0.00    -0.460 OA
BRANCH  35  36
ATOM     36  C   UNL A   1      40.647  19.872  26.191  1.00  0.00     0.338 C 
ATOM     37  O   UNL A   1      41.219  18.935  25.643  1.00  0.00    -0.246 OA
BRANCH  36  38
ATOM     38  C   UNL A   1      41.389  21.045  26.684  1.00  0.00     0.060 A 
ATOM     39  C   UNL A   1      41.412  21.260  28.068  1.00  0.00     0.016 A 
ATOM     40  C   UNL A   1      41.934  21.986  25.809  1.00  0.00     0.016 A 
ATOM     41  C   UNL A   1      41.917  22.453  28.580  1.00  0.00     0.010 A 
ATOM     42  C   UNL A   1      42.432  23.189  26.326  1.00  0.00     0.010 A 
ATOM     43  C   UNL A   1      42.379  23.446  27.707  1.00  0.00    -0.014 A 
BRANCH  43  44
ATOM     44  C   UNL A   1      42.635  24.806  28.239  1.00  0.00     0.031 A 
ATOM     45  C   UNL A   1      44.046  25.201  28.586  1.00  0.00     0.074 A 
ATOM     46  C   UNL A   1      41.638  25.700  28.355  1.00  0.00     0.049 A 
ATOM     47  N   UNL A   1      44.502  26.347  29.024  1.00  0.00    -0.248 NA
ATOM     48  C   UNL A   1      45.079  24.168  28.411  1.00  0.00     0.031 C 
ATOM     49  C   UNL A   1      40.238  25.457  28.014  1.00  0.00     0.029 A 
ATOM     50  N   UNL A   1      41.661  27.002  28.789  1.00  0.00    -0.354 N 
ATOM     51  C   UNL A   1      45.872  26.173  29.177  1.00  0.00     0.074 A 
ATOM     52  C   UNL A   1      46.169  24.804  28.814  1.00  0.00     0.031 C 
ATOM     53  C   UNL A   1      39.533  26.577  28.250  1.00  0.00     0.029 A 
ATOM     54  C   UNL A   1      40.428  27.605  28.778  1.00  0.00     0.049 A 
ATOM     55  H   UNL A   1      42.482  27.459  29.079  1.00  0.00     0.167 HD
ATOM     56  C   UNL A   1      46.803  27.072  29.575  1.00  0.00     0.031 A 
ATOM     57  C   UNL A   1      40.063  28.844  29.160  1.00  0.00     0.031 A 
ATOM     58  C   UNL A   1      46.514  28.429  29.951  1.00  0.00     0.049 A 
ATOM     59  C   UNL A   1      41.107  29.804  29.665  1.00  0.00     0.074 A 
ATOM     60  C   UNL A   1      47.392  29.418  30.359  1.00  0.00     0.029 A 
ATOM     61  N   UNL A   1      45.245  28.986  29.972  1.00  0.00    -0.354 N 
ATOM     62  N   UNL A   1      42.402  29.634  29.777  1.00  0.00    -0.248 NA
ATOM     63  C   UNL A   1      40.633  31.131  30.086  1.00  0.00     0.031 C 
ATOM     64  C   UNL A   1      46.649  30.561  30.672  1.00  0.00     0.029 A 
ATOM     65  C   UNL A   1      45.313  30.297  30.409  1.00  0.00     0.049 A 
ATOM     66  H   UNL A   1      44.418  28.518  29.714  1.00  0.00     0.167 HD
ATOM     67  C   UNL A   1      42.901  30.838  30.258  1.00  0.00     0.074 A 
ATOM     68  C   UNL A   1      41.772  31.734  30.401  1.00  0.00     0.031 C 
ATOM     69  C   UNL A   1      44.181  31.175  30.551  1.00  0.00     0.031 A 
BRANCH  56  70
ATOM     70  C   UNL A   1      48.227  26.599  29.652  1.00  0.00    -0.014 A 
ATOM     71  C   UNL A   1      48.718  25.951  30.796  1.00  0.00     0.009 A 
ATOM     72  C   UNL A   1      49.083  26.783  28.554  1.00  0.00     0.009 A 
ATOM     73  C   UNL A   1      50.046  25.522  30.850  1.00  0.00     0.001 A 
ATOM     74  C   UNL A   1      50.403  26.332  28.602  1.00  0.00     0.001 A 
ATOM     75  C   UNL A   1      50.886  25.710  29.753  1.00  0.00     0.000 A 
ENDBRANCH  56  70
BRANCH  57  76
ATOM     76  C   UNL A   1      38.637  29.253  29.087  1.00  0.00    -0.014 A 
ATOM     77  C   UNL A   1      38.113  29.824  27.919  1.00  0.00     0.009 A 
ATOM     78  C   UNL A   1      37.796  29.087  30.199  1.00  0.00     0.009 A 
ATOM     79  C   UNL A   1      36.782  30.243  27.872  1.00  0.00     0.001 A 
ATOM     80  C   UNL A   1      36.459  29.483  30.141  1.00  0.00     0.001 A 
ATOM     81  C   UNL A   1      35.955  30.068  28.980  1.00  0.00     0.000 A 
ENDBRANCH  57  76
BRANCH  69  82
ATOM     82  C   UNL A   1      44.431  32.577  31.027  1.00  0.00    -0.014 A 
ATOM     83  C   UNL A   1      44.396  32.899  32.392  1.00  0.00     0.009 A 
ATOM     84  C   UNL A   1      44.737  33.583  30.097  1.00  0.00     0.009 A 
ATOM     85  C   UNL A   1      44.630  34.210  32.814  1.00  0.00     0.001 A 
ATOM     86  C   UNL A   1      44.996  34.887  30.524  1.00  0.00     0.001 A 
ATOM     87  C   UNL A   1      44.933  35.201  31.880  1.00  0.00     0.000 A 
ENDBRANCH  69  82
ENDBRANCH  43  44
ENDBRANCH  36  38
ENDBRANCH  35  36
ENDBRANCH  34  35
ENDBRANCH  33  34
ENDBRANCH  32  33
ENDBRANCH   1  32
TORSDOF 19
ENDMDL
