MODEL 1
REMARK VINA RESULT:      -9.0      0.000      0.000
REMARK SMILES Cc1ccc(Cl)c(Nc2ccccc2C(=O)OCCOCCOC(=O)c2ccc(-c3c4nc(c(-c5ccccc5)c5ccc([nH]5)c(-c5ccccc5)c5nc(c(-c6ccccc6)c6ccc3[nH]6)C=C5)C=C4)cc2)c1Cl
REMARK SMILES IDX 20 1 19 2 18 3 17 4 15 5 16 6 14 7 9 8 10 9 11 10 13 11
REMARK SMILES IDX 12 12 8 13 7 15 1 16 2 17 3 18 74 19 4 20 75 21 5 22 6 23
REMARK SMILES IDX 21 24 22 25 23 26 24 27 25 28 26 29 27 30 73 31 28 32 72 33
REMARK SMILES IDX 29 34 30 35 31 36 66 37 32 38 71 39 65 40 67 41 33 42 70 43
REMARK SMILES IDX 64 44 63 45 34 47 56 48 41 49 55 50 42 51 45 52 54 53 68 54
REMARK SMILES IDX 43 55 44 56 53 58 69 59 46 60 35 61 36 62 40 63 37 64 39 65
REMARK SMILES IDX 38 66 57 67 58 68 62 69 59 70 61 71 60 72 47 73 48 74 52 75
REMARK SMILES IDX 49 76 51 77 50 78
REMARK H PARENT 8 14 67 46 45 57
REMARK Flexibility Score: inf
ROOT
ATOM      1  O   UNL A   1      35.045  35.875  32.953  1.00  0.00    -0.374 OA
ENDROOT
BRANCH   1   2
ATOM      2  C   UNL A   1      34.715  34.844  33.883  1.00  0.00     0.202 C 
BRANCH   2   3
ATOM      3  C   UNL A   1      35.883  34.063  34.485  1.00  0.00     0.261 C 
BRANCH   3   4
ATOM      4  O   UNL A   1      37.149  34.537  33.998  1.00  0.00    -0.460 OA
BRANCH   4   5
ATOM      5  C   UNL A   1      38.148  34.551  34.917  1.00  0.00     0.340 C 
ATOM      6  O   UNL A   1      38.950  35.457  35.091  1.00  0.00    -0.246 OA
BRANCH   5   7
ATOM      7  C   UNL A   1      38.057  33.391  35.837  1.00  0.00     0.083 A 
ATOM      8  C   UNL A   1      38.336  32.049  35.507  1.00  0.00     0.053 A 
ATOM      9  C   UNL A   1      38.161  31.084  36.523  1.00  0.00     0.027 A 
ATOM     10  C   UNL A   1      37.742  31.430  37.812  1.00  0.00     0.002 A 
ATOM     11  C   UNL A   1      37.641  33.731  37.140  1.00  0.00     0.018 A 
ATOM     12  C   UNL A   1      37.486  32.758  38.123  1.00  0.00     0.001 A 
BRANCH   8  13
ATOM     13  N   UNL A   1      38.876  31.567  34.295  1.00  0.00    -0.352 N 
ATOM     14  H   UNL A   1      38.966  32.259  33.601  1.00  0.00     0.167 HD
BRANCH  13  15
ATOM     15  C   UNL A   1      39.314  30.288  33.876  1.00  0.00     0.077 A 
ATOM     16  C   UNL A   1      42.516  28.197  33.543  1.00  0.00     0.046 C 
ATOM     17  C   UNL A   1      41.076  28.626  33.456  1.00  0.00    -0.030 A 
ATOM     18  C   UNL A   1      40.205  27.916  32.621  1.00  0.00     0.006 A 
ATOM     19  C   UNL A   1      40.600  29.766  34.137  1.00  0.00     0.069 A 
ATOM     20  C   UNL A   1      38.892  28.340  32.458  1.00  0.00     0.023 A 
ATOM     21  Cl  UNL A   1      41.585  30.447  35.403  1.00  0.00    -0.082 Cl
ATOM     22  C   UNL A   1      38.460  29.524  33.054  1.00  0.00     0.066 A 
ATOM     23  Cl  UNL A   1      36.836  30.039  32.736  1.00  0.00    -0.082 Cl
ENDBRANCH  13  15
ENDBRANCH   8  13
ENDBRANCH   5   7
ENDBRANCH   4   5
ENDBRANCH   3   4
ENDBRANCH   2   3
ENDBRANCH   1   2
BRANCH   1  24
ATOM     24  C   UNL A   1      34.017  36.797  32.593  1.00  0.00     0.202 C 
BRANCH  24  25
ATOM     25  C   UNL A   1      33.385  36.626  31.205  1.00  0.00     0.261 C 
BRANCH  25  26
ATOM     26  O   UNL A   1      33.044  35.263  30.891  1.00  0.00    -0.460 OA
BRANCH  26  27
ATOM     27  C   UNL A   1      33.334  34.887  29.624  1.00  0.00     0.338 C 
ATOM     28  O   UNL A   1      32.787  35.256  28.594  1.00  0.00    -0.246 OA
BRANCH  27  29
ATOM     29  C   UNL A   1      34.534  34.032  29.597  1.00  0.00     0.060 A 
ATOM     30  C   UNL A   1      34.737  33.160  30.675  1.00  0.00     0.016 A 
ATOM     31  C   UNL A   1      35.505  34.171  28.604  1.00  0.00     0.016 A 
ATOM     32  C   UNL A   1      35.936  32.457  30.787  1.00  0.00     0.010 A 
ATOM     33  C   UNL A   1      36.710  33.471  28.724  1.00  0.00     0.010 A 
ATOM     34  C   UNL A   1      36.944  32.638  29.833  1.00  0.00    -0.014 A 
BRANCH  34  35
ATOM     35  C   UNL A   1      38.286  32.045  30.057  1.00  0.00     0.031 A 
ATOM     36  C   UNL A   1      39.321  32.823  30.816  1.00  0.00     0.074 A 
ATOM     37  C   UNL A   1      38.578  30.817  29.597  1.00  0.00     0.049 A 
ATOM     38  N   UNL A   1      40.553  32.493  31.107  1.00  0.00    -0.248 NA
ATOM     39  C   UNL A   1      38.913  34.145  31.317  1.00  0.00     0.031 C 
ATOM     40  C   UNL A   1      37.650  29.948  28.883  1.00  0.00     0.029 A 
ATOM     41  N   UNL A   1      39.741  30.092  29.654  1.00  0.00    -0.354 N 
ATOM     42  C   UNL A   1      41.070  33.565  31.822  1.00  0.00     0.074 A 
ATOM     43  C   UNL A   1      40.028  34.567  31.895  1.00  0.00     0.031 C 
ATOM     44  C   UNL A   1      38.283  28.814  28.540  1.00  0.00     0.029 A 
ATOM     45  C   UNL A   1      39.667  28.886  29.001  1.00  0.00     0.049 A 
ATOM     46  H   UNL A   1      40.551  30.406  30.119  1.00  0.00     0.167 HD
ATOM     47  C   UNL A   1      42.300  33.701  32.371  1.00  0.00     0.031 A 
ATOM     48  C   UNL A   1      40.614  27.954  28.784  1.00  0.00     0.031 A 
ATOM     49  C   UNL A   1      43.343  32.715  32.286  1.00  0.00     0.049 A 
ATOM     50  C   UNL A   1      41.995  28.160  29.339  1.00  0.00     0.074 A 
ATOM     51  C   UNL A   1      44.610  32.748  32.840  1.00  0.00     0.029 A 
ATOM     52  N   UNL A   1      43.244  31.522  31.586  1.00  0.00    -0.354 N 
ATOM     53  N   UNL A   1      42.457  29.157  30.052  1.00  0.00    -0.248 NA
ATOM     54  C   UNL A   1      42.982  27.104  29.069  1.00  0.00     0.031 C 
ATOM     55  C   UNL A   1      45.297  31.599  32.431  1.00  0.00     0.029 A 
ATOM     56  C   UNL A   1      44.439  30.827  31.665  1.00  0.00     0.049 A 
ATOM     57  H   UNL A   1      42.442  31.215  31.104  1.00  0.00     0.167 HD
ATOM     58  C   UNL A   1      43.780  28.842  30.336  1.00  0.00     0.074 A 
ATOM     59  C   UNL A   1      44.042  27.553  29.726  1.00  0.00     0.031 C 
ATOM     60  C   UNL A   1      44.691  29.554  31.042  1.00  0.00     0.031 A 
BRANCH  47  61
ATOM     61  C   UNL A   1      42.590  34.991  33.086  1.00  0.00    -0.014 A 
ATOM     62  C   UNL A   1      43.080  36.112  32.397  1.00  0.00     0.009 A 
ATOM     63  C   UNL A   1      42.358  35.086  34.466  1.00  0.00     0.009 A 
ATOM     64  C   UNL A   1      43.367  37.293  33.086  1.00  0.00     0.001 A 
ATOM     65  C   UNL A   1      42.624  36.275  35.147  1.00  0.00     0.001 A 
ATOM     66  C   UNL A   1      43.138  37.373  34.459  1.00  0.00     0.000 A 
ENDBRANCH  47  61
BRANCH  48  67
ATOM     67  C   UNL A   1      40.286  26.745  27.987  1.00  0.00    -0.014 A 
ATOM     68  C   UNL A   1      39.548  25.695  28.551  1.00  0.00     0.009 A 
ATOM     69  C   UNL A   1      40.706  26.642  26.651  1.00  0.00     0.009 A 
ATOM     70  C   UNL A   1      39.250  24.557  27.795  1.00  0.00     0.001 A 
ATOM     71  C   UNL A   1      40.388  25.514  25.893  1.00  0.00     0.001 A 
ATOM     72  C   UNL A   1      39.666  24.470  26.467  1.00  0.00     0.000 A 
ENDBRANCH  48  67
BRANCH  60  73
ATOM     73  C   UNL A   1      46.055  28.946  31.208  1.00  0.00    -0.014 A 
ATOM     74  C   UNL A   1      47.120  29.309  30.370  1.00  0.00     0.009 A 
ATOM     75  C   UNL A   1      46.286  28.028  32.245  1.00  0.00     0.009 A 
ATOM     76  C   UNL A   1      48.384  28.742  30.549  1.00  0.00     0.001 A 
ATOM     77  C   UNL A   1      47.557  27.482  32.437  1.00  0.00     0.001 A 
ATOM     78  C   UNL A   1      48.602  27.833  31.584  1.00  0.00     0.000 A 
ENDBRANCH  60  73
ENDBRANCH  34  35
ENDBRANCH  27  29
ENDBRANCH  26  27
ENDBRANCH  25  26
ENDBRANCH  24  25
ENDBRANCH   1  24
TORSDOF 16
ENDMDL
MODEL 2
REMARK VINA RESULT:      -8.8      0.316      5.927
REMARK SMILES Cc1ccc(Cl)c(Nc2ccccc2C(=O)OCCOCCOC(=O)c2ccc(-c3c4nc(c(-c5ccccc5)c5ccc([nH]5)c(-c5ccccc5)c5nc(c(-c6ccccc6)c6ccc3[nH]6)C=C5)C=C4)cc2)c1Cl
REMARK SMILES IDX 20 1 19 2 18 3 17 4 15 5 16 6 14 7 9 8 10 9 11 10 13 11
REMARK SMILES IDX 12 12 8 13 7 15 1 16 2 17 3 18 74 19 4 20 75 21 5 22 6 23
REMARK SMILES IDX 21 24 22 25 23 26 24 27 25 28 26 29 27 30 73 31 28 32 72 33
REMARK SMILES IDX 29 34 30 35 31 36 66 37 32 38 71 39 65 40 67 41 33 42 70 43
REMARK SMILES IDX 64 44 63 45 34 47 56 48 41 49 55 50 42 51 45 52 54 53 68 54
REMARK SMILES IDX 43 55 44 56 53 58 69 59 46 60 35 61 36 62 40 63 37 64 39 65
REMARK SMILES IDX 38 66 57 67 58 68 62 69 59 70 61 71 60 72 47 73 48 74 52 75
REMARK SMILES IDX 49 76 51 77 50 78
REMARK H PARENT 8 14 67 46 45 57
REMARK Flexibility Score: inf
ROOT
ATOM      1  O   UNL A   1      34.768  35.876  32.526  1.00  0.00    -0.374 OA
ENDROOT
BRANCH   1   2
ATOM      2  C   UNL A   1      34.367  35.017  33.592  1.00  0.00     0.202 C 
BRANCH   2   3
ATOM      3  C   UNL A   1      35.485  34.397  34.431  1.00  0.00     0.261 C 
BRANCH   3   4
ATOM      4  O   UNL A   1      36.752  34.453  33.757  1.00  0.00    -0.460 OA
BRANCH   4   5
ATOM      5  C   UNL A   1      37.835  34.507  34.574  1.00  0.00     0.340 C 
ATOM      6  O   UNL A   1      38.644  35.421  34.633  1.00  0.00    -0.246 OA
BRANCH   5   7
ATOM      7  C   UNL A   1      37.839  33.386  35.546  1.00  0.00     0.083 A 
ATOM      8  C   UNL A   1      38.196  32.051  35.267  1.00  0.00     0.053 A 
ATOM      9  C   UNL A   1      38.106  31.124  36.329  1.00  0.00     0.027 A 
ATOM     10  C   UNL A   1      37.696  31.499  37.611  1.00  0.00     0.002 A 
ATOM     11  C   UNL A   1      37.432  33.757  36.844  1.00  0.00     0.018 A 
ATOM     12  C   UNL A   1      37.362  32.822  37.871  1.00  0.00     0.001 A 
BRANCH   8  13
ATOM     13  N   UNL A   1      38.737  31.550  34.065  1.00  0.00    -0.352 N 
ATOM     14  H   UNL A   1      38.768  32.215  33.339  1.00  0.00     0.167 HD
BRANCH  13  15
ATOM     15  C   UNL A   1      39.244  30.283  33.689  1.00  0.00     0.077 A 
ATOM     16  C   UNL A   1      42.548  28.340  33.477  1.00  0.00     0.046 C 
ATOM     17  C   UNL A   1      41.092  28.697  33.351  1.00  0.00    -0.030 A 
ATOM     18  C   UNL A   1      40.274  27.924  32.518  1.00  0.00     0.006 A 
ATOM     19  C   UNL A   1      40.548  29.831  33.990  1.00  0.00     0.069 A 
ATOM     20  C   UNL A   1      38.946  28.279  32.318  1.00  0.00     0.023 A 
ATOM     21  Cl  UNL A   1      41.472  30.592  35.256  1.00  0.00    -0.082 Cl
ATOM     22  C   UNL A   1      38.445  29.457  32.872  1.00  0.00     0.066 A 
ATOM     23  Cl  UNL A   1      36.806  29.885  32.508  1.00  0.00    -0.082 Cl
ENDBRANCH  13  15
ENDBRANCH   8  13
ENDBRANCH   5   7
ENDBRANCH   4   5
ENDBRANCH   3   4
ENDBRANCH   2   3
ENDBRANCH   1   2
BRANCH   1  24
ATOM     24  C   UNL A   1      33.806  36.800  32.021  1.00  0.00     0.202 C 
BRANCH  24  25
ATOM     25  C   UNL A   1      33.010  36.368  30.783  1.00  0.00     0.261 C 
BRANCH  25  26
ATOM     26  O   UNL A   1      32.937  34.940  30.614  1.00  0.00    -0.460 OA
BRANCH  26  27
ATOM     27  C   UNL A   1      33.245  34.501  29.371  1.00  0.00     0.338 C 
ATOM     28  O   UNL A   1      32.665  34.760  28.326  1.00  0.00    -0.246 OA
BRANCH  27  29
ATOM     29  C   UNL A   1      34.506  33.738  29.387  1.00  0.00     0.060 A 
ATOM     30  C   UNL A   1      34.809  33.006  30.541  1.00  0.00     0.016 A 
ATOM     31  C   UNL A   1      35.430  33.839  28.346  1.00  0.00     0.016 A 
ATOM     32  C   UNL A   1      36.062  32.408  30.680  1.00  0.00     0.010 A 
ATOM     33  C   UNL A   1      36.689  33.245  28.491  1.00  0.00     0.010 A 
ATOM     34  C   UNL A   1      37.022  32.556  29.671  1.00  0.00    -0.014 A 
BRANCH  34  35
ATOM     35  C   UNL A   1      38.411  32.090  29.903  1.00  0.00     0.031 A 
ATOM     36  C   UNL A   1      38.832  30.741  29.397  1.00  0.00     0.074 A 
ATOM     37  C   UNL A   1      39.296  32.867  30.550  1.00  0.00     0.049 A 
ATOM     38  N   UNL A   1      39.991  30.143  29.508  1.00  0.00    -0.248 NA
ATOM     39  C   UNL A   1      37.816  29.965  28.669  1.00  0.00     0.031 C 
ATOM     40  C   UNL A   1      39.021  34.208  31.052  1.00  0.00     0.029 A 
ATOM     41  N   UNL A   1      40.601  32.635  30.903  1.00  0.00    -0.354 N 
ATOM     42  C   UNL A   1      39.844  28.920  28.866  1.00  0.00     0.074 A 
ATOM     43  C   UNL A   1      38.477  28.850  28.395  1.00  0.00     0.031 C 
ATOM     44  C   UNL A   1      40.115  34.677  31.675  1.00  0.00     0.029 A 
ATOM     45  C   UNL A   1      41.162  33.659  31.627  1.00  0.00     0.049 A 
ATOM     46  H   UNL A   1      41.089  31.815  30.661  1.00  0.00     0.167 HD
ATOM     47  C   UNL A   1      40.766  27.945  28.682  1.00  0.00     0.031 A 
ATOM     48  C   UNL A   1      42.376  33.757  32.200  1.00  0.00     0.031 A 
ATOM     49  C   UNL A   1      42.120  28.004  29.163  1.00  0.00     0.049 A 
ATOM     50  C   UNL A   1      43.359  32.631  32.046  1.00  0.00     0.074 A 
ATOM     51  C   UNL A   1      43.137  27.082  28.995  1.00  0.00     0.029 A 
ATOM     52  N   UNL A   1      42.641  29.041  29.923  1.00  0.00    -0.354 N 
ATOM     53  N   UNL A   1      43.223  31.500  31.398  1.00  0.00    -0.248 NA
ATOM     54  C   UNL A   1      44.667  32.801  32.694  1.00  0.00     0.031 C 
ATOM     55  C   UNL A   1      44.259  27.535  29.699  1.00  0.00     0.029 A 
ATOM     56  C   UNL A   1      43.955  28.764  30.261  1.00  0.00     0.049 A 
ATOM     57  H   UNL A   1      42.150  29.854  30.183  1.00  0.00     0.167 HD
ATOM     58  C   UNL A   1      44.433  30.832  31.540  1.00  0.00     0.074 A 
ATOM     59  C   UNL A   1      45.295  31.691  32.327  1.00  0.00     0.031 C 
ATOM     60  C   UNL A   1      44.797  29.620  31.056  1.00  0.00     0.031 A 
BRANCH  47  61
ATOM     61  C   UNL A   1      40.318  26.710  27.953  1.00  0.00    -0.014 A 
ATOM     62  C   UNL A   1      40.753  26.436  26.647  1.00  0.00     0.009 A 
ATOM     63  C   UNL A   1      39.458  25.803  28.589  1.00  0.00     0.009 A 
ATOM     64  C   UNL A   1      40.304  25.295  25.978  1.00  0.00     0.001 A 
ATOM     65  C   UNL A   1      39.029  24.651  27.927  1.00  0.00     0.001 A 
ATOM     66  C   UNL A   1      39.445  24.404  26.620  1.00  0.00     0.000 A 
ENDBRANCH  47  61
BRANCH  48  67
ATOM     67  C   UNL A   1      42.721  34.967  32.988  1.00  0.00    -0.014 A 
ATOM     68  C   UNL A   1      43.406  36.036  32.394  1.00  0.00     0.009 A 
ATOM     69  C   UNL A   1      42.358  35.058  34.341  1.00  0.00     0.009 A 
ATOM     70  C   UNL A   1      43.734  37.168  33.145  1.00  0.00     0.001 A 
ATOM     71  C   UNL A   1      42.667  36.200  35.083  1.00  0.00     0.001 A 
ATOM     72  C   UNL A   1      43.361  37.251  34.486  1.00  0.00     0.000 A 
ENDBRANCH  48  67
BRANCH  60  73
ATOM     73  C   UNL A   1      46.195  29.157  31.351  1.00  0.00    -0.014 A 
ATOM     74  C   UNL A   1      46.472  28.335  32.454  1.00  0.00     0.009 A 
ATOM     75  C   UNL A   1      47.243  29.515  30.488  1.00  0.00     0.009 A 
ATOM     76  C   UNL A   1      47.776  27.904  32.704  1.00  0.00     0.001 A 
ATOM     77  C   UNL A   1      48.543  29.063  30.727  1.00  0.00     0.001 A 
ATOM     78  C   UNL A   1      48.809  28.265  31.838  1.00  0.00     0.000 A 
ENDBRANCH  60  73
ENDBRANCH  34  35
ENDBRANCH  27  29
ENDBRANCH  26  27
ENDBRANCH  25  26
ENDBRANCH  24  25
ENDBRANCH   1  24
TORSDOF 16
ENDMDL
MODEL 3
REMARK VINA RESULT:      -8.5      4.246      6.884
REMARK SMILES Cc1ccc(Cl)c(Nc2ccccc2C(=O)OCCOCCOC(=O)c2ccc(-c3c4nc(c(-c5ccccc5)c5ccc([nH]5)c(-c5ccccc5)c5nc(c(-c6ccccc6)c6ccc3[nH]6)C=C5)C=C4)cc2)c1Cl
REMARK SMILES IDX 20 1 19 2 18 3 17 4 15 5 16 6 14 7 9 8 10 9 11 10 13 11
REMARK SMILES IDX 12 12 8 13 7 15 1 16 2 17 3 18 74 19 4 20 75 21 5 22 6 23
REMARK SMILES IDX 21 24 22 25 23 26 24 27 25 28 26 29 27 30 73 31 28 32 72 33
REMARK SMILES IDX 29 34 30 35 31 36 66 37 32 38 71 39 65 40 67 41 33 42 70 43
REMARK SMILES IDX 64 44 63 45 34 47 56 48 41 49 55 50 42 51 45 52 54 53 68 54
REMARK SMILES IDX 43 55 44 56 53 58 69 59 46 60 35 61 36 62 40 63 37 64 39 65
REMARK SMILES IDX 38 66 57 67 58 68 62 69 59 70 61 71 60 72 47 73 48 74 52 75
REMARK SMILES IDX 49 76 51 77 50 78
REMARK H PARENT 8 14 67 46 45 57
REMARK Flexibility Score: inf
ROOT
ATOM      1  O   UNL A   1      33.261  34.589  31.373  1.00  0.00    -0.374 OA
ENDROOT
BRANCH   1   2
ATOM      2  C   UNL A   1      34.157  34.294  30.303  1.00  0.00     0.202 C 
BRANCH   2   3
ATOM      3  C   UNL A   1      33.619  34.481  28.884  1.00  0.00     0.261 C 
BRANCH   3   4
ATOM      4  O   UNL A   1      34.240  33.579  27.955  1.00  0.00    -0.460 OA
BRANCH   4   5
ATOM      5  C   UNL A   1      33.497  32.491  27.628  1.00  0.00     0.340 C 
ATOM      6  O   UNL A   1      32.323  32.500  27.290  1.00  0.00    -0.246 OA
BRANCH   5   7
ATOM      7  C   UNL A   1      34.332  31.266  27.551  1.00  0.00     0.083 A 
ATOM      8  C   UNL A   1      33.992  30.075  26.879  1.00  0.00     0.053 A 
ATOM      9  C   UNL A   1      34.916  29.008  26.949  1.00  0.00     0.027 A 
ATOM     10  C   UNL A   1      36.127  29.118  27.638  1.00  0.00     0.002 A 
ATOM     11  C   UNL A   1      35.558  31.371  28.239  1.00  0.00     0.018 A 
ATOM     12  C   UNL A   1      36.452  30.305  28.281  1.00  0.00     0.001 A 
BRANCH   8  13
ATOM     13  N   UNL A   1      32.871  29.856  26.051  1.00  0.00    -0.352 N 
ATOM     14  H   UNL A   1      32.391  30.682  25.811  1.00  0.00     0.167 HD
BRANCH  13  15
ATOM     15  C   UNL A   1      32.296  28.688  25.494  1.00  0.00     0.077 A 
ATOM     16  C   UNL A   1      31.451  27.114  22.096  1.00  0.00     0.046 C 
ATOM     17  C   UNL A   1      31.551  27.335  23.581  1.00  0.00    -0.030 A 
ATOM     18  C   UNL A   1      30.750  26.570  24.437  1.00  0.00     0.006 A 
ATOM     19  C   UNL A   1      32.376  28.341  24.127  1.00  0.00     0.069 A 
ATOM     20  C   UNL A   1      30.761  26.810  25.806  1.00  0.00     0.023 A 
ATOM     21  Cl  UNL A   1      33.591  29.062  23.107  1.00  0.00    -0.082 Cl
ATOM     22  C   UNL A   1      31.501  27.872  26.324  1.00  0.00     0.066 A 
ATOM     23  Cl  UNL A   1      31.399  28.169  28.028  1.00  0.00    -0.082 Cl
ENDBRANCH  13  15
ENDBRANCH   8  13
ENDBRANCH   5   7
ENDBRANCH   4   5
ENDBRANCH   3   4
ENDBRANCH   2   3
ENDBRANCH   1   2
BRANCH   1  24
ATOM     24  C   UNL A   1      33.807  34.691  32.686  1.00  0.00     0.202 C 
BRANCH  24  25
ATOM     25  C   UNL A   1      34.598  33.483  33.206  1.00  0.00     0.261 C 
BRANCH  25  26
ATOM     26  O   UNL A   1      36.025  33.641  33.103  1.00  0.00    -0.460 OA
BRANCH  26  27
ATOM     27  C   UNL A   1      36.746  32.693  33.746  1.00  0.00     0.338 C 
ATOM     28  O   UNL A   1      36.682  32.383  34.928  1.00  0.00    -0.246 OA
BRANCH  27  29
ATOM     29  C   UNL A   1      37.576  31.936  32.793  1.00  0.00     0.060 A 
ATOM     30  C   UNL A   1      38.512  31.035  33.316  1.00  0.00     0.016 A 
ATOM     31  C   UNL A   1      37.528  32.193  31.422  1.00  0.00     0.016 A 
ATOM     32  C   UNL A   1      39.438  30.422  32.473  1.00  0.00     0.010 A 
ATOM     33  C   UNL A   1      38.463  31.583  30.579  1.00  0.00     0.010 A 
ATOM     34  C   UNL A   1      39.443  30.722  31.105  1.00  0.00    -0.014 A 
BRANCH  34  35
ATOM     35  C   UNL A   1      40.546  30.225  30.246  1.00  0.00     0.031 A 
ATOM     36  C   UNL A   1      41.726  31.111  29.970  1.00  0.00     0.074 A 
ATOM     37  C   UNL A   1      40.503  28.988  29.722  1.00  0.00     0.049 A 
ATOM     38  N   UNL A   1      42.783  30.874  29.237  1.00  0.00    -0.248 NA
ATOM     39  C   UNL A   1      41.714  32.437  30.607  1.00  0.00     0.031 C 
ATOM     40  C   UNL A   1      39.435  28.021  29.948  1.00  0.00     0.029 A 
ATOM     41  N   UNL A   1      41.375  28.338  28.887  1.00  0.00    -0.354 N 
ATOM     42  C   UNL A   1      43.563  32.020  29.321  1.00  0.00     0.074 A 
ATOM     43  C   UNL A   1      42.843  32.961  30.152  1.00  0.00     0.031 C 
ATOM     44  C   UNL A   1      39.696  26.906  29.246  1.00  0.00     0.029 A 
ATOM     45  C   UNL A   1      40.945  27.090  28.511  1.00  0.00     0.049 A 
ATOM     46  H   UNL A   1      42.228  28.729  28.586  1.00  0.00     0.167 HD
ATOM     47  C   UNL A   1      44.770  32.264  28.760  1.00  0.00     0.031 A 
ATOM     48  C   UNL A   1      41.488  26.202  27.657  1.00  0.00     0.031 A 
ATOM     49  C   UNL A   1      45.480  31.337  27.921  1.00  0.00     0.049 A 
ATOM     50  C   UNL A   1      42.794  26.525  26.986  1.00  0.00     0.074 A 
ATOM     51  C   UNL A   1      46.726  31.481  27.335  1.00  0.00     0.029 A 
ATOM     52  N   UNL A   1      44.997  30.097  27.533  1.00  0.00    -0.354 N 
ATOM     53  N   UNL A   1      43.542  27.593  27.111  1.00  0.00    -0.248 NA
ATOM     54  C   UNL A   1      43.334  25.513  26.067  1.00  0.00     0.031 C 
ATOM     55  C   UNL A   1      46.973  30.350  26.549  1.00  0.00     0.029 A 
ATOM     56  C   UNL A   1      45.904  29.480  26.688  1.00  0.00     0.049 A 
ATOM     57  H   UNL A   1      44.136  29.712  27.817  1.00  0.00     0.167 HD
ATOM     58  C   UNL A   1      44.653  27.375  26.305  1.00  0.00     0.074 A 
ATOM     59  C   UNL A   1      44.484  26.067  25.705  1.00  0.00     0.031 C 
ATOM     60  C   UNL A   1      45.717  28.184  26.087  1.00  0.00     0.031 A 
BRANCH  47  61
ATOM     61  C   UNL A   1      45.382  33.613  29.015  1.00  0.00    -0.014 A 
ATOM     62  C   UNL A   1      46.234  33.833  30.108  1.00  0.00     0.009 A 
ATOM     63  C   UNL A   1      45.109  34.675  28.139  1.00  0.00     0.009 A 
ATOM     64  C   UNL A   1      46.771  35.101  30.341  1.00  0.00     0.001 A 
ATOM     65  C   UNL A   1      45.666  35.935  28.361  1.00  0.00     0.001 A 
ATOM     66  C   UNL A   1      46.488  36.150  29.466  1.00  0.00     0.000 A 
ENDBRANCH  47  61
BRANCH  48  67
ATOM     67  C   UNL A   1      40.783  24.926  27.377  1.00  0.00    -0.014 A 
ATOM     68  C   UNL A   1      39.548  24.921  26.714  1.00  0.00     0.009 A 
ATOM     69  C   UNL A   1      41.352  23.703  27.766  1.00  0.00     0.009 A 
ATOM     70  C   UNL A   1      38.888  23.715  26.461  1.00  0.00     0.001 A 
ATOM     71  C   UNL A   1      40.701  22.499  27.492  1.00  0.00     0.001 A 
ATOM     72  C   UNL A   1      39.467  22.506  26.846  1.00  0.00     0.000 A 
ENDBRANCH  48  67
BRANCH  60  73
ATOM     73  C   UNL A   1      46.793  27.670  25.173  1.00  0.00    -0.014 A 
ATOM     74  C   UNL A   1      46.834  28.038  23.819  1.00  0.00     0.009 A 
ATOM     75  C   UNL A   1      47.802  26.838  25.684  1.00  0.00     0.009 A 
ATOM     76  C   UNL A   1      47.849  27.560  22.988  1.00  0.00     0.001 A 
ATOM     77  C   UNL A   1      48.830  26.382  24.856  1.00  0.00     0.001 A 
ATOM     78  C   UNL A   1      48.848  26.736  23.508  1.00  0.00     0.000 A 
ENDBRANCH  60  73
ENDBRANCH  34  35
ENDBRANCH  27  29
ENDBRANCH  26  27
ENDBRANCH  25  26
ENDBRANCH  24  25
ENDBRANCH   1  24
TORSDOF 16
ENDMDL
