MODEL 1
REMARK VINA RESULT:      -9.1      0.000      0.000
REMARK SMILES COc1ccc([C@@H]([NH3+])CC(=O)OCCOCCOC(=O)c2ccc(-c3c4nc(c(-c5ccccc5)c5ccc([nH]5)c(-c5ccccc5)c5nc(c(-c6ccccc6)c6ccc3[nH]6)C=C5)C=C4)cc2)cc1
REMARK SMILES IDX 14 1 13 2 12 3 10 4 11 5 9 6 7 7 6 8 3 9 4 10 70 11 5 12
REMARK SMILES IDX 69 13 2 14 1 15 8 16 15 20 16 21 17 22 18 23 19 24 20 25
REMARK SMILES IDX 21 26 22 27 68 28 23 29 67 30 24 31 25 32 26 33 61 34 27 35
REMARK SMILES IDX 66 36 60 37 62 38 28 39 65 40 59 41 58 42 29 44 51 45 36 46
REMARK SMILES IDX 50 47 37 48 40 49 49 50 63 51 38 52 39 53 48 55 64 56 41 57
REMARK SMILES IDX 30 58 31 59 35 60 32 61 34 62 33 63 52 64 53 65 57 66 54 67
REMARK SMILES IDX 56 68 55 69 42 70 43 71 47 72 44 73 46 74 45 75
REMARK H PARENT 8 17 8 18 8 19 62 43 40 54
REMARK Flexibility Score: inf
ROOT
ATOM      1  C   UNL A   1      38.652  20.559  25.529  1.00  0.00     0.202 C 
ENDROOT
BRANCH   1   2
ATOM      2  C   UNL A   1      37.526  21.108  24.651  1.00  0.00     0.261 C 
BRANCH   2   3
ATOM      3  O   UNL A   1      37.408  22.534  24.816  1.00  0.00    -0.463 OA
BRANCH   3   4
ATOM      4  C   UNL A   1      36.543  23.169  23.991  1.00  0.00     0.312 C 
ATOM      5  O   UNL A   1      36.615  23.160  22.767  1.00  0.00    -0.252 OA
BRANCH   4   6
ATOM      6  C   UNL A   1      35.473  23.953  24.716  1.00  0.00     0.192 C 
BRANCH   6   7
ATOM      7  C   UNL A   1      34.456  23.150  25.545  1.00  0.00     0.223 C 
BRANCH   7   8
ATOM      8  C   UNL A   1      33.870  21.915  24.881  1.00  0.00     0.010 A 
ATOM      9  C   UNL A   1      32.677  19.660  23.687  1.00  0.00     0.118 A 
ATOM     10  C   UNL A   1      33.559  19.506  24.750  1.00  0.00     0.047 A 
ATOM     11  C   UNL A   1      32.359  20.939  23.232  1.00  0.00     0.047 A 
ATOM     12  C   UNL A   1      34.149  20.622  25.346  1.00  0.00     0.014 A 
ATOM     13  C   UNL A   1      32.957  22.058  23.821  1.00  0.00     0.014 A 
BRANCH   9  14
ATOM     14  O   UNL A   1      32.128  18.504  23.202  1.00  0.00    -0.497 OA
ATOM     15  C   UNL A   1      32.909  17.345  23.462  1.00  0.00     0.278 C 
ENDBRANCH   9  14
ENDBRANCH   7   8
BRANCH   7  16
ATOM     16  N   UNL A   1      35.100  22.737  26.803  1.00  0.00    -0.351 N 
ATOM     17  H   UNL A   1      34.805  21.791  27.042  1.00  0.00     0.345 HD
ATOM     18  H   UNL A   1      34.828  23.377  27.549  1.00  0.00     0.345 HD
ATOM     19  H   UNL A   1      36.114  22.759  26.690  1.00  0.00     0.345 HD
ENDBRANCH   7  16
ENDBRANCH   6   7
ENDBRANCH   4   6
ENDBRANCH   3   4
ENDBRANCH   2   3
ENDBRANCH   1   2
BRANCH   1  20
ATOM     20  O   UNL A   1      39.724  21.469  25.783  1.00  0.00    -0.374 OA
BRANCH  20  21
ATOM     21  C   UNL A   1      40.765  20.997  26.635  1.00  0.00     0.202 C 
BRANCH  21  22
ATOM     22  C   UNL A   1      42.193  21.220  26.122  1.00  0.00     0.261 C 
BRANCH  22  23
ATOM     23  O   UNL A   1      42.809  22.376  26.715  1.00  0.00    -0.460 OA
BRANCH  23  24
ATOM     24  C   UNL A   1      42.809  23.486  25.938  1.00  0.00     0.338 C 
ATOM     25  O   UNL A   1      43.047  23.553  24.740  1.00  0.00    -0.246 OA
BRANCH  24  26
ATOM     26  C   UNL A   1      42.321  24.642  26.714  1.00  0.00     0.060 A 
ATOM     27  C   UNL A   1      43.029  25.849  26.625  1.00  0.00     0.016 A 
ATOM     28  C   UNL A   1      41.225  24.532  27.567  1.00  0.00     0.016 A 
ATOM     29  C   UNL A   1      42.666  26.943  27.417  1.00  0.00     0.010 A 
ATOM     30  C   UNL A   1      40.865  25.625  28.358  1.00  0.00     0.010 A 
ATOM     31  C   UNL A   1      41.598  26.831  28.313  1.00  0.00    -0.014 A 
BRANCH  31  32
ATOM     32  C   UNL A   1      41.320  27.882  29.331  1.00  0.00     0.031 A 
ATOM     33  C   UNL A   1      42.099  27.845  30.621  1.00  0.00     0.074 A 
ATOM     34  C   UNL A   1      40.369  28.821  29.161  1.00  0.00     0.049 A 
ATOM     35  N   UNL A   1      41.904  28.508  31.732  1.00  0.00    -0.248 NA
ATOM     36  C   UNL A   1      43.240  26.915  30.664  1.00  0.00     0.031 C 
ATOM     37  C   UNL A   1      39.567  29.024  27.955  1.00  0.00     0.029 A 
ATOM     38  N   UNL A   1      39.885  29.758  30.045  1.00  0.00    -0.354 N 
ATOM     39  C   UNL A   1      42.879  28.053  32.612  1.00  0.00     0.074 A 
ATOM     40  C   UNL A   1      43.628  27.024  31.924  1.00  0.00     0.031 C 
ATOM     41  C   UNL A   1      38.657  29.986  28.191  1.00  0.00     0.029 A 
ATOM     42  C   UNL A   1      38.798  30.453  29.569  1.00  0.00     0.049 A 
ATOM     43  H   UNL A   1      40.279  29.917  30.932  1.00  0.00     0.167 HD
ATOM     44  C   UNL A   1      43.147  28.466  33.873  1.00  0.00     0.031 A 
ATOM     45  C   UNL A   1      37.990  31.342  30.180  1.00  0.00     0.031 A 
ATOM     46  C   UNL A   1      42.432  29.509  34.553  1.00  0.00     0.049 A 
ATOM     47  C   UNL A   1      38.257  31.737  31.610  1.00  0.00     0.074 A 
ATOM     48  C   UNL A   1      42.665  30.031  35.813  1.00  0.00     0.029 A 
ATOM     49  N   UNL A   1      41.349  30.192  34.027  1.00  0.00    -0.354 N 
ATOM     50  N   UNL A   1      39.198  31.322  32.421  1.00  0.00    -0.248 NA
ATOM     51  C   UNL A   1      37.359  32.744  32.201  1.00  0.00     0.031 C 
ATOM     52  C   UNL A   1      41.694  31.004  36.068  1.00  0.00     0.029 A 
ATOM     53  C   UNL A   1      40.893  31.123  34.944  1.00  0.00     0.049 A 
ATOM     54  H   UNL A   1      40.962  30.039  33.135  1.00  0.00     0.167 HD
ATOM     55  C   UNL A   1      39.042  32.056  33.592  1.00  0.00     0.074 A 
ATOM     56  C   UNL A   1      37.909  32.933  33.393  1.00  0.00     0.031 C 
ATOM     57  C   UNL A   1      39.785  32.016  34.724  1.00  0.00     0.031 A 
BRANCH  44  58
ATOM     58  C   UNL A   1      44.265  27.773  34.600  1.00  0.00    -0.014 A 
ATOM     59  C   UNL A   1      44.029  26.626  35.375  1.00  0.00     0.009 A 
ATOM     60  C   UNL A   1      45.575  28.264  34.492  1.00  0.00     0.009 A 
ATOM     61  C   UNL A   1      45.076  26.013  36.066  1.00  0.00     0.001 A 
ATOM     62  C   UNL A   1      46.625  27.629  35.157  1.00  0.00     0.001 A 
ATOM     63  C   UNL A   1      46.373  26.513  35.953  1.00  0.00     0.000 A 
ENDBRANCH  44  58
BRANCH  45  64
ATOM     64  C   UNL A   1      36.833  31.927  29.450  1.00  0.00    -0.014 A 
ATOM     65  C   UNL A   1      35.591  31.275  29.444  1.00  0.00     0.009 A 
ATOM     66  C   UNL A   1      36.978  33.119  28.723  1.00  0.00     0.009 A 
ATOM     67  C   UNL A   1      34.525  31.790  28.701  1.00  0.00     0.001 A 
ATOM     68  C   UNL A   1      35.903  33.644  28.002  1.00  0.00     0.001 A 
ATOM     69  C   UNL A   1      34.682  32.974  27.983  1.00  0.00     0.000 A 
ENDBRANCH  45  64
BRANCH  57  70
ATOM     70  C   UNL A   1      39.468  33.002  35.812  1.00  0.00    -0.014 A 
ATOM     71  C   UNL A   1      38.596  32.686  36.863  1.00  0.00     0.009 A 
ATOM     72  C   UNL A   1      40.129  34.242  35.825  1.00  0.00     0.009 A 
ATOM     73  C   UNL A   1      38.381  33.599  37.899  1.00  0.00     0.001 A 
ATOM     74  C   UNL A   1      39.933  35.141  36.874  1.00  0.00     0.001 A 
ATOM     75  C   UNL A   1      39.055  34.821  37.908  1.00  0.00     0.000 A 
ENDBRANCH  57  70
ENDBRANCH  31  32
ENDBRANCH  24  26
ENDBRANCH  23  24
ENDBRANCH  22  23
ENDBRANCH  21  22
ENDBRANCH  20  21
ENDBRANCH   1  20
TORSDOF 18
ENDMDL
MODEL 2
REMARK VINA RESULT:      -9.1      1.992      2.809
REMARK SMILES COc1ccc([C@@H]([NH3+])CC(=O)OCCOCCOC(=O)c2ccc(-c3c4nc(c(-c5ccccc5)c5ccc([nH]5)c(-c5ccccc5)c5nc(c(-c6ccccc6)c6ccc3[nH]6)C=C5)C=C4)cc2)cc1
REMARK SMILES IDX 14 1 13 2 12 3 10 4 11 5 9 6 7 7 6 8 3 9 4 10 70 11 5 12
REMARK SMILES IDX 69 13 2 14 1 15 8 16 15 20 16 21 17 22 18 23 19 24 20 25
REMARK SMILES IDX 21 26 22 27 68 28 23 29 67 30 24 31 25 32 26 33 61 34 27 35
REMARK SMILES IDX 66 36 60 37 62 38 28 39 65 40 59 41 58 42 29 44 51 45 36 46
REMARK SMILES IDX 50 47 37 48 40 49 49 50 63 51 38 52 39 53 48 55 64 56 41 57
REMARK SMILES IDX 30 58 31 59 35 60 32 61 34 62 33 63 52 64 53 65 57 66 54 67
REMARK SMILES IDX 56 68 55 69 42 70 43 71 47 72 44 73 46 74 45 75
REMARK H PARENT 8 17 8 18 8 19 62 43 40 54
REMARK Flexibility Score: inf
ROOT
ATOM      1  C   UNL A   1      40.565  20.358  26.488  1.00  0.00     0.202 C 
ENDROOT
BRANCH   1   2
ATOM      2  C   UNL A   1      39.934  21.741  26.318  1.00  0.00     0.261 C 
BRANCH   2   3
ATOM      3  O   UNL A   1      38.663  21.637  25.649  1.00  0.00    -0.463 OA
BRANCH   3   4
ATOM      4  C   UNL A   1      37.817  22.685  25.790  1.00  0.00     0.312 C 
ATOM      5  O   UNL A   1      38.160  23.817  26.113  1.00  0.00    -0.252 OA
BRANCH   4   6
ATOM      6  C   UNL A   1      36.367  22.332  25.555  1.00  0.00     0.192 C 
BRANCH   6   7
ATOM      7  C   UNL A   1      35.755  22.744  24.205  1.00  0.00     0.223 C 
BRANCH   7   8
ATOM      8  C   UNL A   1      34.878  23.984  24.212  1.00  0.00     0.010 A 
ATOM      9  C   UNL A   1      33.325  26.334  24.143  1.00  0.00     0.118 A 
ATOM     10  C   UNL A   1      34.020  25.985  25.296  1.00  0.00     0.047 A 
ATOM     11  C   UNL A   1      33.424  25.531  23.008  1.00  0.00     0.047 A 
ATOM     12  C   UNL A   1      34.793  24.824  25.332  1.00  0.00     0.014 A 
ATOM     13  C   UNL A   1      34.190  24.361  23.044  1.00  0.00     0.014 A 
BRANCH   9  14
ATOM     14  O   UNL A   1      32.628  27.509  24.204  1.00  0.00    -0.497 OA
ATOM     15  C   UNL A   1      33.156  28.441  25.139  1.00  0.00     0.278 C 
ENDBRANCH   9  14
ENDBRANCH   7   8
BRANCH   7  16
ATOM     16  N   UNL A   1      36.848  22.956  23.242  1.00  0.00    -0.351 N 
ATOM     17  H   UNL A   1      37.217  22.053  22.942  1.00  0.00     0.345 HD
ATOM     18  H   UNL A   1      37.591  23.496  23.685  1.00  0.00     0.345 HD
ATOM     19  H   UNL A   1      36.495  23.465  22.432  1.00  0.00     0.345 HD
ENDBRANCH   7  16
ENDBRANCH   6   7
ENDBRANCH   4   6
ENDBRANCH   3   4
ENDBRANCH   2   3
ENDBRANCH   1   2
BRANCH   1  20
ATOM     20  O   UNL A   1      41.926  20.358  26.922  1.00  0.00    -0.374 OA
BRANCH  20  21
ATOM     21  C   UNL A   1      42.877  19.796  26.021  1.00  0.00     0.202 C 
BRANCH  21  22
ATOM     22  C   UNL A   1      43.758  20.805  25.274  1.00  0.00     0.261 C 
BRANCH  22  23
ATOM     23  O   UNL A   1      44.070  21.954  26.081  1.00  0.00    -0.460 OA
BRANCH  23  24
ATOM     24  C   UNL A   1      43.650  23.139  25.576  1.00  0.00     0.338 C 
ATOM     25  O   UNL A   1      43.372  23.392  24.411  1.00  0.00    -0.246 OA
BRANCH  24  26
ATOM     26  C   UNL A   1      43.415  24.098  26.672  1.00  0.00     0.060 A 
ATOM     27  C   UNL A   1      42.654  23.677  27.772  1.00  0.00     0.016 A 
ATOM     28  C   UNL A   1      43.876  25.410  26.598  1.00  0.00     0.016 A 
ATOM     29  C   UNL A   1      42.319  24.576  28.788  1.00  0.00     0.010 A 
ATOM     30  C   UNL A   1      43.538  26.309  27.613  1.00  0.00     0.010 A 
ATOM     31  C   UNL A   1      42.734  25.910  28.703  1.00  0.00    -0.014 A 
BRANCH  31  32
ATOM     32  C   UNL A   1      42.216  26.950  29.635  1.00  0.00     0.031 A 
ATOM     33  C   UNL A   1      42.870  27.081  30.986  1.00  0.00     0.074 A 
ATOM     34  C   UNL A   1      41.161  27.731  29.334  1.00  0.00     0.049 A 
ATOM     35  N   UNL A   1      42.482  27.754  32.039  1.00  0.00    -0.248 NA
ATOM     36  C   UNL A   1      44.124  26.332  31.177  1.00  0.00     0.031 C 
ATOM     37  C   UNL A   1      40.454  27.764  28.054  1.00  0.00     0.029 A 
ATOM     38  N   UNL A   1      40.469  28.622  30.120  1.00  0.00    -0.354 N 
ATOM     39  C   UNL A   1      43.426  27.484  33.023  1.00  0.00     0.074 A 
ATOM     40  C   UNL A   1      44.374  26.549  32.458  1.00  0.00     0.031 C 
ATOM     41  C   UNL A   1      39.398  28.591  28.159  1.00  0.00     0.029 A 
ATOM     42  C   UNL A   1      39.342  29.130  29.516  1.00  0.00     0.049 A 
ATOM     43  H   UNL A   1      40.753  28.874  31.028  1.00  0.00     0.167 HD
ATOM     44  C   UNL A   1      43.515  27.984  34.277  1.00  0.00     0.031 A 
ATOM     45  C   UNL A   1      38.363  29.915  30.007  1.00  0.00     0.031 A 
ATOM     46  C   UNL A   1      42.598  28.938  34.837  1.00  0.00     0.049 A 
ATOM     47  C   UNL A   1      38.437  30.404  31.431  1.00  0.00     0.074 A 
ATOM     48  C   UNL A   1      42.637  29.540  36.081  1.00  0.00     0.029 A 
ATOM     49  N   UNL A   1      41.482  29.432  34.184  1.00  0.00    -0.354 N 
ATOM     50  N   UNL A   1      39.350  30.165  32.341  1.00  0.00    -0.248 NA
ATOM     51  C   UNL A   1      37.354  31.291  31.888  1.00  0.00     0.031 C 
ATOM     52  C   UNL A   1      41.518  30.369  36.199  1.00  0.00     0.029 A 
ATOM     53  C   UNL A   1      40.815  30.323  35.006  1.00  0.00     0.049 A 
ATOM     54  H   UNL A   1      41.205  29.187  33.271  1.00  0.00     0.167 HD
ATOM     55  C   UNL A   1      38.983  30.916  33.452  1.00  0.00     0.074 A 
ATOM     56  C   UNL A   1      37.760  31.608  33.110  1.00  0.00     0.031 C 
ATOM     57  C   UNL A   1      39.616  31.034  34.644  1.00  0.00     0.031 A 
BRANCH  44  58
ATOM     58  C   UNL A   1      44.648  27.494  35.133  1.00  0.00    -0.014 A 
ATOM     59  C   UNL A   1      44.546  26.297  35.862  1.00  0.00     0.009 A 
ATOM     60  C   UNL A   1      45.841  28.230  35.197  1.00  0.00     0.009 A 
ATOM     61  C   UNL A   1      45.599  25.874  36.674  1.00  0.00     0.001 A 
ATOM     62  C   UNL A   1      46.905  27.785  35.984  1.00  0.00     0.001 A 
ATOM     63  C   UNL A   1      46.779  26.616  36.731  1.00  0.00     0.000 A 
ENDBRANCH  44  58
BRANCH  45  64
ATOM     64  C   UNL A   1      37.207  30.292  29.150  1.00  0.00    -0.014 A 
ATOM     65  C   UNL A   1      37.068  31.607  28.680  1.00  0.00     0.009 A 
ATOM     66  C   UNL A   1      36.217  29.349  28.832  1.00  0.00     0.009 A 
ATOM     67  C   UNL A   1      35.946  31.978  27.934  1.00  0.00     0.001 A 
ATOM     68  C   UNL A   1      35.109  29.717  28.064  1.00  0.00     0.001 A 
ATOM     69  C   UNL A   1      34.970  31.032  27.625  1.00  0.00     0.000 A 
ENDBRANCH  45  64
BRANCH  57  70
ATOM     70  C   UNL A   1      39.063  32.006  35.646  1.00  0.00    -0.014 A 
ATOM     71  C   UNL A   1      38.141  31.612  36.626  1.00  0.00     0.009 A 
ATOM     72  C   UNL A   1      39.546  33.326  35.657  1.00  0.00     0.009 A 
ATOM     73  C   UNL A   1      37.703  32.525  37.589  1.00  0.00     0.001 A 
ATOM     74  C   UNL A   1      39.127  34.228  36.635  1.00  0.00     0.001 A 
ATOM     75  C   UNL A   1      38.202  33.828  37.598  1.00  0.00     0.000 A 
ENDBRANCH  57  70
ENDBRANCH  31  32
ENDBRANCH  24  26
ENDBRANCH  23  24
ENDBRANCH  22  23
ENDBRANCH  21  22
ENDBRANCH  20  21
ENDBRANCH   1  20
TORSDOF 18
ENDMDL
MODEL 3
REMARK VINA RESULT:      -9.0      4.454      9.033
REMARK SMILES COc1ccc([C@@H]([NH3+])CC(=O)OCCOCCOC(=O)c2ccc(-c3c4nc(c(-c5ccccc5)c5ccc([nH]5)c(-c5ccccc5)c5nc(c(-c6ccccc6)c6ccc3[nH]6)C=C5)C=C4)cc2)cc1
REMARK SMILES IDX 14 1 13 2 12 3 10 4 11 5 9 6 7 7 6 8 3 9 4 10 70 11 5 12
REMARK SMILES IDX 69 13 2 14 1 15 8 16 15 20 16 21 17 22 18 23 19 24 20 25
REMARK SMILES IDX 21 26 22 27 68 28 23 29 67 30 24 31 25 32 26 33 61 34 27 35
REMARK SMILES IDX 66 36 60 37 62 38 28 39 65 40 59 41 58 42 29 44 51 45 36 46
REMARK SMILES IDX 50 47 37 48 40 49 49 50 63 51 38 52 39 53 48 55 64 56 41 57
REMARK SMILES IDX 30 58 31 59 35 60 32 61 34 62 33 63 52 64 53 65 57 66 54 67
REMARK SMILES IDX 56 68 55 69 42 70 43 71 47 72 44 73 46 74 45 75
REMARK H PARENT 8 17 8 18 8 19 62 43 40 54
REMARK Flexibility Score: inf
ROOT
ATOM      1  C   UNL A   1      32.313  29.216  27.172  1.00  0.00     0.202 C 
ENDROOT
BRANCH   1   2
ATOM      2  C   UNL A   1      32.784  27.862  26.639  1.00  0.00     0.261 C 
BRANCH   2   3
ATOM      3  O   UNL A   1      32.019  27.484  25.478  1.00  0.00    -0.463 OA
BRANCH   3   4
ATOM      4  C   UNL A   1      30.982  26.639  25.686  1.00  0.00     0.312 C 
ATOM      5  O   UNL A   1      30.453  26.441  26.775  1.00  0.00    -0.252 OA
BRANCH   4   6
ATOM      6  C   UNL A   1      30.539  25.901  24.443  1.00  0.00     0.192 C 
BRANCH   6   7
ATOM      7  C   UNL A   1      30.450  26.714  23.140  1.00  0.00     0.223 C 
BRANCH   7   8
ATOM      8  C   UNL A   1      29.614  27.981  23.191  1.00  0.00     0.010 A 
ATOM      9  C   UNL A   1      28.019  30.303  23.179  1.00  0.00     0.118 A 
ATOM     10  C   UNL A   1      29.407  30.404  23.162  1.00  0.00     0.047 A 
ATOM     11  C   UNL A   1      27.418  29.046  23.169  1.00  0.00     0.047 A 
ATOM     12  C   UNL A   1      30.199  29.255  23.165  1.00  0.00     0.014 A 
ATOM     13  C   UNL A   1      28.210  27.893  23.182  1.00  0.00     0.014 A 
BRANCH   9  14
ATOM     14  O   UNL A   1      27.340  31.490  23.137  1.00  0.00    -0.497 OA
ATOM     15  C   UNL A   1      27.950  32.473  22.311  1.00  0.00     0.278 C 
ENDBRANCH   9  14
ENDBRANCH   7   8
BRANCH   7  16
ATOM     16  N   UNL A   1      31.815  27.076  22.721  1.00  0.00    -0.351 N 
ATOM     17  H   UNL A   1      32.125  27.894  23.245  1.00  0.00     0.345 HD
ATOM     18  H   UNL A   1      31.818  27.289  21.724  1.00  0.00     0.345 HD
ATOM     19  H   UNL A   1      32.445  26.295  22.904  1.00  0.00     0.345 HD
ENDBRANCH   7  16
ENDBRANCH   6   7
ENDBRANCH   4   6
ENDBRANCH   3   4
ENDBRANCH   2   3
ENDBRANCH   1   2
BRANCH   1  20
ATOM     20  O   UNL A   1      32.439  30.308  26.258  1.00  0.00    -0.374 OA
BRANCH  20  21
ATOM     21  C   UNL A   1      31.362  31.241  26.238  1.00  0.00     0.202 C 
BRANCH  21  22
ATOM     22  C   UNL A   1      31.608  32.553  26.994  1.00  0.00     0.261 C 
BRANCH  22  23
ATOM     23  O   UNL A   1      32.991  32.722  27.351  1.00  0.00    -0.460 OA
BRANCH  23  24
ATOM     24  C   UNL A   1      33.242  33.749  28.197  1.00  0.00     0.338 C 
ATOM     25  O   UNL A   1      32.509  34.696  28.453  1.00  0.00    -0.246 OA
BRANCH  24  26
ATOM     26  C   UNL A   1      34.504  33.507  28.922  1.00  0.00     0.060 A 
ATOM     27  C   UNL A   1      35.678  34.091  28.427  1.00  0.00     0.016 A 
ATOM     28  C   UNL A   1      34.550  32.667  30.033  1.00  0.00     0.016 A 
ATOM     29  C   UNL A   1      36.913  33.810  29.019  1.00  0.00     0.010 A 
ATOM     30  C   UNL A   1      35.785  32.386  30.622  1.00  0.00     0.010 A 
ATOM     31  C   UNL A   1      36.981  32.931  30.106  1.00  0.00    -0.014 A 
BRANCH  31  32
ATOM     32  C   UNL A   1      38.284  32.427  30.621  1.00  0.00     0.031 A 
ATOM     33  C   UNL A   1      38.838  31.157  30.029  1.00  0.00     0.074 A 
ATOM     34  C   UNL A   1      38.948  33.032  31.625  1.00  0.00     0.049 A 
ATOM     35  N   UNL A   1      39.832  30.410  30.438  1.00  0.00    -0.248 NA
ATOM     36  C   UNL A   1      38.162  30.654  28.821  1.00  0.00     0.031 C 
ATOM     37  C   UNL A   1      38.575  34.292  32.266  1.00  0.00     0.029 A 
ATOM     38  N   UNL A   1      40.068  32.627  32.313  1.00  0.00    -0.354 N 
ATOM     39  C   UNL A   1      39.879  29.337  29.556  1.00  0.00     0.074 A 
ATOM     40  C   UNL A   1      38.785  29.504  28.624  1.00  0.00     0.031 C 
ATOM     41  C   UNL A   1      39.417  34.530  33.288  1.00  0.00     0.029 A 
ATOM     42  C   UNL A   1      40.377  33.432  33.385  1.00  0.00     0.049 A 
ATOM     43  H   UNL A   1      40.599  31.837  32.063  1.00  0.00     0.167 HD
ATOM     44  C   UNL A   1      40.764  28.314  29.506  1.00  0.00     0.031 A 
ATOM     45  C   UNL A   1      41.305  33.287  34.351  1.00  0.00     0.031 A 
ATOM     46  C   UNL A   1      41.873  28.157  30.405  1.00  0.00     0.049 A 
ATOM     47  C   UNL A   1      42.237  32.103  34.324  1.00  0.00     0.074 A 
ATOM     48  C   UNL A   1      42.852  27.180  30.400  1.00  0.00     0.029 A 
ATOM     49  N   UNL A   1      42.152  29.003  31.464  1.00  0.00    -0.354 N 
ATOM     50  N   UNL A   1      42.289  31.111  33.469  1.00  0.00    -0.248 NA
ATOM     51  C   UNL A   1      43.253  32.030  35.387  1.00  0.00     0.031 C 
ATOM     52  C   UNL A   1      43.703  27.411  31.485  1.00  0.00     0.029 A 
ATOM     53  C   UNL A   1      43.282  28.563  32.130  1.00  0.00     0.049 A 
ATOM     54  H   UNL A   1      41.626  29.799  31.707  1.00  0.00     0.167 HD
ATOM     55  C   UNL A   1      43.375  30.334  33.855  1.00  0.00     0.074 A 
ATOM     56  C   UNL A   1      43.947  30.959  35.028  1.00  0.00     0.031 C 
ATOM     57  C   UNL A   1      43.864  29.211  33.276  1.00  0.00     0.031 A 
BRANCH  44  58
ATOM     58  C   UNL A   1      40.555  27.277  28.439  1.00  0.00    -0.014 A 
ATOM     59  C   UNL A   1      39.772  26.135  28.675  1.00  0.00     0.009 A 
ATOM     60  C   UNL A   1      41.135  27.453  27.174  1.00  0.00     0.009 A 
ATOM     61  C   UNL A   1      39.614  25.169  27.681  1.00  0.00     0.001 A 
ATOM     62  C   UNL A   1      40.947  26.502  26.170  1.00  0.00     0.001 A 
ATOM     63  C   UNL A   1      40.198  25.355  26.428  1.00  0.00     0.000 A 
ENDBRANCH  44  58
BRANCH  45  64
ATOM     64  C   UNL A   1      41.408  34.290  35.445  1.00  0.00    -0.014 A 
ATOM     65  C   UNL A   1      40.650  34.146  36.617  1.00  0.00     0.009 A 
ATOM     66  C   UNL A   1      42.236  35.415  35.306  1.00  0.00     0.009 A 
ATOM     67  C   UNL A   1      40.694  35.124  37.614  1.00  0.00     0.001 A 
ATOM     68  C   UNL A   1      42.297  36.378  36.316  1.00  0.00     0.001 A 
ATOM     69  C   UNL A   1      41.520  36.237  37.463  1.00  0.00     0.000 A 
ENDBRANCH  45  64
BRANCH  57  70
ATOM     70  C   UNL A   1      45.128  28.621  33.834  1.00  0.00    -0.014 A 
ATOM     71  C   UNL A   1      46.393  29.028  33.385  1.00  0.00     0.009 A 
ATOM     72  C   UNL A   1      45.044  27.700  34.893  1.00  0.00     0.009 A 
ATOM     73  C   UNL A   1      47.549  28.513  33.978  1.00  0.00     0.001 A 
ATOM     74  C   UNL A   1      46.200  27.208  35.499  1.00  0.00     0.001 A 
ATOM     75  C   UNL A   1      47.452  27.611  35.038  1.00  0.00     0.000 A 
ENDBRANCH  57  70
ENDBRANCH  31  32
ENDBRANCH  24  26
ENDBRANCH  23  24
ENDBRANCH  22  23
ENDBRANCH  21  22
ENDBRANCH  20  21
ENDBRANCH   1  20
TORSDOF 18
ENDMDL
