MODEL 1
REMARK VINA RESULT:     -12.0      0.000      0.000
REMARK SMILES Cc1ccc(C)c(N2C(=O)S[C@H](CC(=O)Nc3ccc(C(=O)OCCOCCOC(=O)c4ccc(-c5c6nc(c(-c7ccccc7)c7ccc([nH]7)c(-c7ccccc7)c7nc(c(-c8ccccc8)c8ccc5[nH]8)C=C7)C=C6)cc4)c(O)c3)C2=O)c1
REMARK SMILES IDX 25 1 24 2 23 3 21 4 22 5 20 6 17 7 18 8 82 9 19 10 80 11
REMARK SMILES IDX 16 12 14 13 15 14 13 16 12 17 8 18 9 19 83 20 10 21 11 22
REMARK SMILES IDX 84 23 7 24 1 25 2 26 3 27 85 28 4 29 5 30 6 31 81 32 26 34
REMARK SMILES IDX 27 35 28 36 29 37 30 38 31 39 32 40 33 41 79 42 34 43 78 44
REMARK SMILES IDX 35 45 36 46 37 47 72 48 38 49 77 50 71 51 73 52 39 53 76 54
REMARK SMILES IDX 70 55 69 56 40 58 62 59 47 60 61 61 48 62 51 63 60 64 74 65
REMARK SMILES IDX 49 66 50 67 59 69 75 70 52 71 41 72 42 73 46 74 43 75 45 76
REMARK SMILES IDX 44 77 63 78 64 79 68 80 65 81 67 82 66 83 53 84 54 85 58 86
REMARK SMILES IDX 55 87 57 88 56 89
REMARK H PARENT 16 15 81 33 73 57 51 68
REMARK Flexibility Score: inf
ROOT
ATOM      1  C   UNL A   1      31.918  29.850  25.377  1.00  0.00     0.202 C 
ENDROOT
BRANCH   1   2
ATOM      2  C   UNL A   1      31.028  28.602  25.279  1.00  0.00     0.261 C 
BRANCH   2   3
ATOM      3  O   UNL A   1      30.339  28.669  24.009  1.00  0.00    -0.460 OA
BRANCH   3   4
ATOM      4  C   UNL A   1      29.945  27.427  23.626  1.00  0.00     0.341 C 
ATOM      5  O   UNL A   1      28.800  27.084  23.499  1.00  0.00    -0.246 OA
BRANCH   4   6
ATOM      6  C   UNL A   1      31.086  26.554  23.264  1.00  0.00     0.101 A 
ATOM      7  C   UNL A   1      33.182  24.723  22.870  1.00  0.00     0.044 A 
ATOM      8  C   UNL A   1      32.111  24.435  23.689  1.00  0.00     0.027 A 
ATOM      9  C   UNL A   1      33.274  26.008  22.337  1.00  0.00     0.073 A 
ATOM     10  C   UNL A   1      31.013  25.264  23.770  1.00  0.00     0.022 A 
ATOM     11  C   UNL A   1      32.226  26.928  22.553  1.00  0.00     0.132 A 
BRANCH   7  12
ATOM     12  N   UNL A   1      34.144  23.716  22.666  1.00  0.00    -0.326 N 
ATOM     13  C   UNL A   1      35.300  23.522  23.412  1.00  0.00     0.226 C 
ATOM     14  O   UNL A   1      36.272  22.959  22.909  1.00  0.00    -0.275 OA
ATOM     15  H   UNL A   1      33.981  23.090  21.925  1.00  0.00     0.169 HD
BRANCH  13  16
ATOM     16  C   UNL A   1      35.274  23.839  24.921  1.00  0.00     0.125 C 
BRANCH  16  17
ATOM     17  C   UNL A   1      35.043  22.656  25.867  1.00  0.00     0.156 C 
ATOM     18  N   UNL A   1      33.512  20.986  25.031  1.00  0.00    -0.240 N 
ATOM     19  C   UNL A   1      32.624  21.733  25.749  1.00  0.00     0.293 C 
ATOM     20  C   UNL A   1      34.852  21.345  25.101  1.00  0.00     0.248 C 
ATOM     21  O   UNL A   1      31.407  21.686  25.752  1.00  0.00    -0.261 OA
ATOM     22  S   UNL A   1      33.515  22.776  26.805  1.00  0.00    -0.050 SA
ATOM     23  O   UNL A   1      35.793  20.723  24.622  1.00  0.00    -0.273 OA
BRANCH  18  24
ATOM     24  C   UNL A   1      33.067  19.741  24.543  1.00  0.00     0.056 A 
ATOM     25  C   UNL A   1      33.605  16.057  25.376  1.00  0.00     0.044 C 
ATOM     26  C   UNL A   1      33.180  17.316  24.677  1.00  0.00    -0.049 A 
ATOM     27  C   UNL A   1      32.519  17.233  23.446  1.00  0.00     0.004 A 
ATOM     28  C   UNL A   1      33.436  18.576  25.231  1.00  0.00     0.030 A 
ATOM     29  C   UNL A   1      32.167  18.389  22.752  1.00  0.00     0.006 A 
ATOM     30  C   UNL A   1      32.466  19.656  23.270  1.00  0.00    -0.027 A 
ATOM     31  C   UNL A   1      32.153  20.852  22.411  1.00  0.00     0.046 C 
ENDBRANCH  18  24
ENDBRANCH  16  17
ENDBRANCH  13  16
ENDBRANCH   7  12
BRANCH  11  32
ATOM     32  O   UNL A   1      32.384  28.183  22.033  1.00  0.00    -0.507 OA
ATOM     33  H   UNL A   1      33.184  28.415  21.604  1.00  0.00     0.293 HD
ENDBRANCH  11  32
ENDBRANCH   4   6
ENDBRANCH   3   4
ENDBRANCH   2   3
ENDBRANCH   1   2
BRANCH   1  34
ATOM     34  O   UNL A   1      31.540  30.591  26.535  1.00  0.00    -0.374 OA
BRANCH  34  35
ATOM     35  C   UNL A   1      32.516  31.446  27.109  1.00  0.00     0.202 C 
BRANCH  35  36
ATOM     36  C   UNL A   1      33.922  30.836  27.164  1.00  0.00     0.261 C 
BRANCH  36  37
ATOM     37  O   UNL A   1      34.619  31.104  28.400  1.00  0.00    -0.460 OA
BRANCH  37  38
ATOM     38  C   UNL A   1      35.838  31.697  28.259  1.00  0.00     0.338 C 
ATOM     39  O   UNL A   1      36.030  32.760  27.695  1.00  0.00    -0.246 OA
BRANCH  38  40
ATOM     40  C   UNL A   1      36.895  30.755  28.724  1.00  0.00     0.060 A 
ATOM     41  C   UNL A   1      38.145  31.255  29.113  1.00  0.00     0.016 A 
ATOM     42  C   UNL A   1      36.733  29.388  28.488  1.00  0.00     0.016 A 
ATOM     43  C   UNL A   1      39.256  30.398  29.134  1.00  0.00     0.010 A 
ATOM     44  C   UNL A   1      37.853  28.574  28.403  1.00  0.00     0.010 A 
ATOM     45  C   UNL A   1      39.133  29.065  28.703  1.00  0.00    -0.014 A 
BRANCH  45  46
ATOM     46  C   UNL A   1      40.159  28.041  29.006  1.00  0.00     0.031 A 
ATOM     47  C   UNL A   1      40.456  28.104  30.443  1.00  0.00     0.074 A 
ATOM     48  C   UNL A   1      40.776  27.091  28.257  1.00  0.00     0.049 A 
ATOM     49  N   UNL A   1      41.541  28.627  30.910  1.00  0.00    -0.248 NA
ATOM     50  C   UNL A   1      39.427  27.822  31.455  1.00  0.00     0.031 C 
ATOM     51  C   UNL A   1      40.807  26.957  26.815  1.00  0.00     0.029 A 
ATOM     52  N   UNL A   1      41.473  25.958  28.633  1.00  0.00    -0.354 N 
ATOM     53  C   UNL A   1      41.446  28.443  32.270  1.00  0.00     0.074 A 
ATOM     54  C   UNL A   1      40.051  28.234  32.560  1.00  0.00     0.031 C 
ATOM     55  C   UNL A   1      41.152  25.710  26.431  1.00  0.00     0.029 A 
ATOM     56  C   UNL A   1      41.592  25.002  27.614  1.00  0.00     0.049 A 
ATOM     57  H   UNL A   1      41.851  25.833  29.534  1.00  0.00     0.167 HD
ATOM     58  C   UNL A   1      42.544  28.010  32.939  1.00  0.00     0.031 A 
ATOM     59  C   UNL A   1      42.211  23.793  27.608  1.00  0.00     0.031 A 
ATOM     60  C   UNL A   1      43.756  28.187  32.174  1.00  0.00     0.049 A 
ATOM     61  C   UNL A   1      43.396  23.945  28.450  1.00  0.00     0.074 A 
ATOM     62  C   UNL A   1      44.519  29.251  31.740  1.00  0.00     0.029 A 
ATOM     63  N   UNL A   1      44.090  27.112  31.390  1.00  0.00    -0.354 N 
ATOM     64  N   UNL A   1      44.423  24.655  28.083  1.00  0.00    -0.248 NA
ATOM     65  C   UNL A   1      43.325  23.599  29.860  1.00  0.00     0.031 C 
ATOM     66  C   UNL A   1      45.262  28.795  30.610  1.00  0.00     0.029 A 
ATOM     67  C   UNL A   1      44.963  27.455  30.388  1.00  0.00     0.049 A 
ATOM     68  H   UNL A   1      43.745  26.201  31.529  1.00  0.00     0.167 HD
ATOM     69  C   UNL A   1      44.803  25.266  29.258  1.00  0.00     0.074 A 
ATOM     70  C   UNL A   1      44.263  24.428  30.322  1.00  0.00     0.031 C 
ATOM     71  C   UNL A   1      45.193  26.571  29.266  1.00  0.00     0.031 A 
BRANCH  58  72
ATOM     72  C   UNL A   1      42.432  26.954  34.005  1.00  0.00    -0.014 A 
ATOM     73  C   UNL A   1      41.901  27.310  35.249  1.00  0.00     0.009 A 
ATOM     74  C   UNL A   1      43.062  25.692  33.916  1.00  0.00     0.009 A 
ATOM     75  C   UNL A   1      41.997  26.447  36.345  1.00  0.00     0.001 A 
ATOM     76  C   UNL A   1      43.122  24.811  34.993  1.00  0.00     0.001 A 
ATOM     77  C   UNL A   1      42.600  25.197  36.215  1.00  0.00     0.000 A 
ENDBRANCH  58  72
BRANCH  59  78
ATOM     78  C   UNL A   1      41.942  22.542  26.868  1.00  0.00    -0.014 A 
ATOM     79  C   UNL A   1      42.939  21.707  26.353  1.00  0.00     0.009 A 
ATOM     80  C   UNL A   1      40.660  21.998  26.970  1.00  0.00     0.009 A 
ATOM     81  C   UNL A   1      42.656  20.375  25.998  1.00  0.00     0.001 A 
ATOM     82  C   UNL A   1      40.357  20.683  26.603  1.00  0.00     0.001 A 
ATOM     83  C   UNL A   1      41.368  19.860  26.134  1.00  0.00     0.000 A 
ENDBRANCH  59  78
BRANCH  71  84
ATOM     84  C   UNL A   1      45.737  27.139  27.984  1.00  0.00    -0.014 A 
ATOM     85  C   UNL A   1      44.949  27.778  27.012  1.00  0.00     0.009 A 
ATOM     86  C   UNL A   1      47.119  27.052  27.767  1.00  0.00     0.009 A 
ATOM     87  C   UNL A   1      45.530  28.291  25.845  1.00  0.00     0.001 A 
ATOM     88  C   UNL A   1      47.701  27.579  26.613  1.00  0.00     0.001 A 
ATOM     89  C   UNL A   1      46.907  28.194  25.649  1.00  0.00     0.000 A 
ENDBRANCH  71  84
ENDBRANCH  45  46
ENDBRANCH  38  40
ENDBRANCH  37  38
ENDBRANCH  36  37
ENDBRANCH  35  36
ENDBRANCH  34  35
ENDBRANCH   1  34
TORSDOF 19
ENDMDL
MODEL 2
REMARK VINA RESULT:     -11.9      3.905      9.324
REMARK SMILES Cc1ccc(C)c(N2C(=O)S[C@H](CC(=O)Nc3ccc(C(=O)OCCOCCOC(=O)c4ccc(-c5c6nc(c(-c7ccccc7)c7ccc([nH]7)c(-c7ccccc7)c7nc(c(-c8ccccc8)c8ccc5[nH]8)C=C7)C=C6)cc4)c(O)c3)C2=O)c1
REMARK SMILES IDX 25 1 24 2 23 3 21 4 22 5 20 6 17 7 18 8 82 9 19 10 80 11
REMARK SMILES IDX 16 12 14 13 15 14 13 16 12 17 8 18 9 19 83 20 10 21 11 22
REMARK SMILES IDX 84 23 7 24 1 25 2 26 3 27 85 28 4 29 5 30 6 31 81 32 26 34
REMARK SMILES IDX 27 35 28 36 29 37 30 38 31 39 32 40 33 41 79 42 34 43 78 44
REMARK SMILES IDX 35 45 36 46 37 47 72 48 38 49 77 50 71 51 73 52 39 53 76 54
REMARK SMILES IDX 70 55 69 56 40 58 62 59 47 60 61 61 48 62 51 63 60 64 74 65
REMARK SMILES IDX 49 66 50 67 59 69 75 70 52 71 41 72 42 73 46 74 43 75 45 76
REMARK SMILES IDX 44 77 63 78 64 79 68 80 65 81 67 82 66 83 53 84 54 85 58 86
REMARK SMILES IDX 55 87 57 88 56 89
REMARK H PARENT 16 15 81 33 73 57 51 68
REMARK Flexibility Score: inf
ROOT
ATOM      1  C   UNL A   1      42.279  21.053  27.053  1.00  0.00     0.202 C 
ENDROOT
BRANCH   1   2
ATOM      2  C   UNL A   1      40.761  21.163  27.259  1.00  0.00     0.261 C 
BRANCH   2   3
ATOM      3  O   UNL A   1      40.164  21.313  25.950  1.00  0.00    -0.460 OA
BRANCH   3   4
ATOM      4  C   UNL A   1      39.130  22.192  26.006  1.00  0.00     0.341 C 
ATOM      5  O   UNL A   1      39.252  23.378  26.155  1.00  0.00    -0.246 OA
BRANCH   4   6
ATOM      6  C   UNL A   1      37.821  21.548  25.749  1.00  0.00     0.101 A 
ATOM      7  C   UNL A   1      35.495  20.158  25.001  1.00  0.00     0.044 A 
ATOM      8  C   UNL A   1      36.753  19.702  24.668  1.00  0.00     0.027 A 
ATOM      9  C   UNL A   1      35.391  21.407  25.612  1.00  0.00     0.073 A 
ATOM     10  C   UNL A   1      37.896  20.297  25.155  1.00  0.00     0.022 A 
ATOM     11  C   UNL A   1      36.562  22.108  25.969  1.00  0.00     0.132 A 
BRANCH   7  12
ATOM     12  N   UNL A   1      34.391  19.356  24.657  1.00  0.00    -0.326 N 
ATOM     13  C   UNL A   1      33.077  19.784  24.515  1.00  0.00     0.226 C 
ATOM     14  O   UNL A   1      32.148  18.993  24.677  1.00  0.00    -0.275 OA
ATOM     15  H   UNL A   1      34.567  18.401  24.502  1.00  0.00     0.169 HD
BRANCH  13  16
ATOM     16  C   UNL A   1      32.812  21.199  23.962  1.00  0.00     0.125 C 
BRANCH  16  17
ATOM     17  C   UNL A   1      31.818  22.067  24.741  1.00  0.00     0.156 C 
ATOM     18  N   UNL A   1      32.293  24.434  24.681  1.00  0.00    -0.240 N 
ATOM     19  C   UNL A   1      32.936  24.128  25.845  1.00  0.00     0.293 C 
ATOM     20  C   UNL A   1      31.585  23.416  24.056  1.00  0.00     0.248 C 
ATOM     21  O   UNL A   1      33.703  24.809  26.501  1.00  0.00    -0.261 OA
ATOM     22  S   UNL A   1      32.414  22.561  26.363  1.00  0.00    -0.050 SA
ATOM     23  O   UNL A   1      30.858  23.537  23.076  1.00  0.00    -0.273 OA
BRANCH  18  24
ATOM     24  C   UNL A   1      32.124  25.799  24.373  1.00  0.00     0.056 A 
ATOM     25  C   UNL A   1      34.186  28.579  22.766  1.00  0.00     0.044 C 
ATOM     26  C   UNL A   1      33.096  27.848  23.495  1.00  0.00    -0.049 A 
ATOM     27  C   UNL A   1      32.022  28.568  24.032  1.00  0.00     0.004 A 
ATOM     28  C   UNL A   1      33.132  26.458  23.653  1.00  0.00     0.030 A 
ATOM     29  C   UNL A   1      31.028  27.919  24.762  1.00  0.00     0.006 A 
ATOM     30  C   UNL A   1      31.082  26.534  24.974  1.00  0.00    -0.027 A 
ATOM     31  C   UNL A   1      30.032  25.924  25.864  1.00  0.00     0.046 C 
ENDBRANCH  18  24
ENDBRANCH  16  17
ENDBRANCH  13  16
ENDBRANCH   7  12
BRANCH  11  32
ATOM     32  O   UNL A   1      36.400  23.341  26.537  1.00  0.00    -0.507 OA
ATOM     33  H   UNL A   1      37.089  23.715  27.049  1.00  0.00     0.293 HD
ENDBRANCH  11  32
ENDBRANCH   4   6
ENDBRANCH   3   4
ENDBRANCH   2   3
ENDBRANCH   1   2
BRANCH   1  34
ATOM     34  O   UNL A   1      42.871  22.319  27.334  1.00  0.00    -0.374 OA
BRANCH  34  35
ATOM     35  C   UNL A   1      42.661  22.866  28.626  1.00  0.00     0.202 C 
BRANCH  35  36
ATOM     36  C   UNL A   1      43.916  22.881  29.508  1.00  0.00     0.261 C 
BRANCH  36  37
ATOM     37  O   UNL A   1      44.079  24.103  30.259  1.00  0.00    -0.460 OA
BRANCH  37  38
ATOM     38  C   UNL A   1      44.912  25.022  29.694  1.00  0.00     0.338 C 
ATOM     39  O   UNL A   1      46.088  24.828  29.444  1.00  0.00    -0.246 OA
BRANCH  38  40
ATOM     40  C   UNL A   1      44.211  26.334  29.619  1.00  0.00     0.060 A 
ATOM     41  C   UNL A   1      44.419  27.289  30.623  1.00  0.00     0.016 A 
ATOM     42  C   UNL A   1      43.145  26.481  28.727  1.00  0.00     0.016 A 
ATOM     43  C   UNL A   1      43.479  28.314  30.808  1.00  0.00     0.010 A 
ATOM     44  C   UNL A   1      42.166  27.429  28.986  1.00  0.00     0.010 A 
ATOM     45  C   UNL A   1      42.303  28.346  30.038  1.00  0.00    -0.014 A 
BRANCH  45  46
ATOM     46  C   UNL A   1      41.450  29.553  29.951  1.00  0.00     0.031 A 
ATOM     47  C   UNL A   1      42.298  30.683  29.544  1.00  0.00     0.074 A 
ATOM     48  C   UNL A   1      40.119  29.767  30.112  1.00  0.00     0.049 A 
ATOM     49  N   UNL A   1      42.677  31.604  30.365  1.00  0.00    -0.248 NA
ATOM     50  C   UNL A   1      42.989  30.695  28.245  1.00  0.00     0.031 C 
ATOM     51  C   UNL A   1      39.126  28.887  30.693  1.00  0.00     0.029 A 
ATOM     52  N   UNL A   1      39.319  30.821  29.710  1.00  0.00    -0.354 N 
ATOM     53  C   UNL A   1      43.400  32.475  29.584  1.00  0.00     0.074 A 
ATOM     54  C   UNL A   1      43.802  31.740  28.413  1.00  0.00     0.031 C 
ATOM     55  C   UNL A   1      37.872  29.230  30.331  1.00  0.00     0.029 A 
ATOM     56  C   UNL A   1      37.953  30.509  29.660  1.00  0.00     0.049 A 
ATOM     57  H   UNL A   1      39.676  31.710  29.479  1.00  0.00     0.167 HD
ATOM     58  C   UNL A   1      43.191  33.806  29.741  1.00  0.00     0.031 A 
ATOM     59  C   UNL A   1      36.884  31.282  29.331  1.00  0.00     0.031 A 
ATOM     60  C   UNL A   1      42.523  34.112  30.985  1.00  0.00     0.049 A 
ATOM     61  C   UNL A   1      37.192  32.622  29.826  1.00  0.00     0.074 A 
ATOM     62  C   UNL A   1      42.838  34.068  32.326  1.00  0.00     0.029 A 
ATOM     63  N   UNL A   1      41.154  34.138  30.898  1.00  0.00    -0.354 N 
ATOM     64  N   UNL A   1      37.213  32.908  31.095  1.00  0.00    -0.248 NA
ATOM     65  C   UNL A   1      37.819  33.588  28.939  1.00  0.00     0.031 C 
ATOM     66  C   UNL A   1      41.605  33.983  33.040  1.00  0.00     0.029 A 
ATOM     67  C   UNL A   1      40.557  34.004  32.127  1.00  0.00     0.049 A 
ATOM     68  H   UNL A   1      40.658  34.242  30.055  1.00  0.00     0.167 HD
ATOM     69  C   UNL A   1      38.284  33.769  31.192  1.00  0.00     0.074 A 
ATOM     70  C   UNL A   1      38.462  34.317  29.853  1.00  0.00     0.031 C 
ATOM     71  C   UNL A   1      39.151  33.683  32.239  1.00  0.00     0.031 A 
BRANCH  58  72
ATOM     72  C   UNL A   1      43.092  34.718  28.549  1.00  0.00    -0.014 A 
ATOM     73  C   UNL A   1      44.272  35.180  27.958  1.00  0.00     0.009 A 
ATOM     74  C   UNL A   1      41.889  35.341  28.146  1.00  0.00     0.009 A 
ATOM     75  C   UNL A   1      44.248  36.212  27.014  1.00  0.00     0.001 A 
ATOM     76  C   UNL A   1      41.854  36.339  27.174  1.00  0.00     0.001 A 
ATOM     77  C   UNL A   1      43.040  36.785  26.618  1.00  0.00     0.000 A 
ENDBRANCH  58  72
BRANCH  59  78
ATOM     78  C   UNL A   1      35.576  30.960  28.723  1.00  0.00    -0.014 A 
ATOM     79  C   UNL A   1      34.554  31.895  28.526  1.00  0.00     0.009 A 
ATOM     80  C   UNL A   1      35.473  29.760  28.017  1.00  0.00     0.009 A 
ATOM     81  C   UNL A   1      33.503  31.639  27.626  1.00  0.00     0.001 A 
ATOM     82  C   UNL A   1      34.425  29.482  27.134  1.00  0.00     0.001 A 
ATOM     83  C   UNL A   1      33.445  30.437  26.922  1.00  0.00     0.000 A 
ENDBRANCH  59  78
BRANCH  71  84
ATOM     84  C   UNL A   1      38.638  33.071  33.514  1.00  0.00    -0.014 A 
ATOM     85  C   UNL A   1      38.685  31.697  33.799  1.00  0.00     0.009 A 
ATOM     86  C   UNL A   1      38.112  33.935  34.486  1.00  0.00     0.009 A 
ATOM     87  C   UNL A   1      38.195  31.201  35.015  1.00  0.00     0.001 A 
ATOM     88  C   UNL A   1      37.640  33.444  35.704  1.00  0.00     0.001 A 
ATOM     89  C   UNL A   1      37.676  32.077  35.967  1.00  0.00     0.000 A 
ENDBRANCH  71  84
ENDBRANCH  45  46
ENDBRANCH  38  40
ENDBRANCH  37  38
ENDBRANCH  36  37
ENDBRANCH  35  36
ENDBRANCH  34  35
ENDBRANCH   1  34
TORSDOF 19
ENDMDL
MODEL 3
REMARK VINA RESULT:     -11.9      1.957      3.986
REMARK SMILES Cc1ccc(C)c(N2C(=O)S[C@H](CC(=O)Nc3ccc(C(=O)OCCOCCOC(=O)c4ccc(-c5c6nc(c(-c7ccccc7)c7ccc([nH]7)c(-c7ccccc7)c7nc(c(-c8ccccc8)c8ccc5[nH]8)C=C7)C=C6)cc4)c(O)c3)C2=O)c1
REMARK SMILES IDX 25 1 24 2 23 3 21 4 22 5 20 6 17 7 18 8 82 9 19 10 80 11
REMARK SMILES IDX 16 12 14 13 15 14 13 16 12 17 8 18 9 19 83 20 10 21 11 22
REMARK SMILES IDX 84 23 7 24 1 25 2 26 3 27 85 28 4 29 5 30 6 31 81 32 26 34
REMARK SMILES IDX 27 35 28 36 29 37 30 38 31 39 32 40 33 41 79 42 34 43 78 44
REMARK SMILES IDX 35 45 36 46 37 47 72 48 38 49 77 50 71 51 73 52 39 53 76 54
REMARK SMILES IDX 70 55 69 56 40 58 62 59 47 60 61 61 48 62 51 63 60 64 74 65
REMARK SMILES IDX 49 66 50 67 59 69 75 70 52 71 41 72 42 73 46 74 43 75 45 76
REMARK SMILES IDX 44 77 63 78 64 79 68 80 65 81 67 82 66 83 53 84 54 85 58 86
REMARK SMILES IDX 55 87 57 88 56 89
REMARK H PARENT 16 15 81 33 73 57 51 68
REMARK Flexibility Score: inf
ROOT
ATOM      1  C   UNL A   1      35.239  33.584  28.746  1.00  0.00     0.202 C 
ENDROOT
BRANCH   1   2
ATOM      2  C   UNL A   1      35.946  32.335  28.199  1.00  0.00     0.261 C 
BRANCH   2   3
ATOM      3  O   UNL A   1      35.115  31.198  28.525  1.00  0.00    -0.460 OA
BRANCH   3   4
ATOM      4  C   UNL A   1      35.308  30.204  27.621  1.00  0.00     0.341 C 
ATOM      5  O   UNL A   1      36.384  29.849  27.217  1.00  0.00    -0.246 OA
BRANCH   4   6
ATOM      6  C   UNL A   1      34.051  29.509  27.260  1.00  0.00     0.101 A 
ATOM      7  C   UNL A   1      31.864  27.965  26.403  1.00  0.00     0.044 A 
ATOM      8  C   UNL A   1      33.141  27.448  26.460  1.00  0.00     0.027 A 
ATOM      9  C   UNL A   1      31.696  29.325  26.657  1.00  0.00     0.073 A 
ATOM     10  C   UNL A   1      34.187  28.151  27.016  1.00  0.00     0.022 A 
ATOM     11  C   UNL A   1      32.801  30.099  27.069  1.00  0.00     0.132 A 
BRANCH   7  12
ATOM     12  N   UNL A   1      30.817  27.097  26.041  1.00  0.00    -0.326 N 
ATOM     13  C   UNL A   1      30.380  26.830  24.750  1.00  0.00     0.226 C 
ATOM     14  O   UNL A   1      29.223  26.459  24.553  1.00  0.00    -0.275 OA
ATOM     15  H   UNL A   1      30.351  26.633  26.774  1.00  0.00     0.169 HD
BRANCH  13  16
ATOM     16  C   UNL A   1      31.413  26.814  23.604  1.00  0.00     0.125 C 
BRANCH  16  17
ATOM     17  C   UNL A   1      31.463  25.548  22.742  1.00  0.00     0.156 C 
ATOM     18  N   UNL A   1      32.852  23.784  23.633  1.00  0.00    -0.240 N 
ATOM     19  C   UNL A   1      33.773  24.375  22.818  1.00  0.00     0.293 C 
ATOM     20  C   UNL A   1      31.556  24.282  23.598  1.00  0.00     0.248 C 
ATOM     21  O   UNL A   1      34.976  24.194  22.760  1.00  0.00    -0.261 OA
ATOM     22  S   UNL A   1      32.941  25.430  21.727  1.00  0.00    -0.050 SA
ATOM     23  O   UNL A   1      30.582  23.804  24.168  1.00  0.00    -0.273 OA
BRANCH  18  24
ATOM     24  C   UNL A   1      33.189  22.536  24.195  1.00  0.00     0.056 A 
ATOM     25  C   UNL A   1      32.488  18.858  23.460  1.00  0.00     0.044 C 
ATOM     26  C   UNL A   1      32.940  20.118  24.140  1.00  0.00    -0.049 A 
ATOM     27  C   UNL A   1      33.512  20.046  25.415  1.00  0.00     0.004 A 
ATOM     28  C   UNL A   1      32.798  21.367  23.525  1.00  0.00     0.030 A 
ATOM     29  C   UNL A   1      33.886  21.207  26.090  1.00  0.00     0.006 A 
ATOM     30  C   UNL A   1      33.699  22.468  25.507  1.00  0.00    -0.027 A 
ATOM     31  C   UNL A   1      34.026  23.677  26.342  1.00  0.00     0.046 C 
ENDBRANCH  18  24
ENDBRANCH  16  17
ENDBRANCH  13  16
ENDBRANCH   7  12
BRANCH  11  32
ATOM     32  O   UNL A   1      32.583  31.434  27.274  1.00  0.00    -0.507 OA
ATOM     33  H   UNL A   1      32.173  31.725  28.064  1.00  0.00     0.293 HD
ENDBRANCH  11  32
ENDBRANCH   4   6
ENDBRANCH   3   4
ENDBRANCH   2   3
ENDBRANCH   1   2
BRANCH   1  34
ATOM     34  O   UNL A   1      35.991  34.090  29.846  1.00  0.00    -0.374 OA
BRANCH  34  35
ATOM     35  C   UNL A   1      35.917  33.378  31.071  1.00  0.00     0.202 C 
BRANCH  35  36
ATOM     36  C   UNL A   1      37.285  33.021  31.666  1.00  0.00     0.261 C 
BRANCH  36  37
ATOM     37  O   UNL A   1      38.314  33.989  31.368  1.00  0.00    -0.460 OA
BRANCH  37  38
ATOM     38  C   UNL A   1      39.051  33.724  30.252  1.00  0.00     0.338 C 
ATOM     39  O   UNL A   1      39.115  34.451  29.276  1.00  0.00    -0.246 OA
BRANCH  38  40
ATOM     40  C   UNL A   1      39.592  32.339  30.342  1.00  0.00     0.060 A 
ATOM     41  C   UNL A   1      40.905  32.136  30.784  1.00  0.00     0.016 A 
ATOM     42  C   UNL A   1      38.900  31.301  29.713  1.00  0.00     0.016 A 
ATOM     43  C   UNL A   1      41.562  30.935  30.474  1.00  0.00     0.010 A 
ATOM     44  C   UNL A   1      39.589  30.165  29.315  1.00  0.00     0.010 A 
ATOM     45  C   UNL A   1      40.933  29.970  29.668  1.00  0.00    -0.014 A 
BRANCH  45  46
ATOM     46  C   UNL A   1      41.423  28.575  29.581  1.00  0.00     0.031 A 
ATOM     47  C   UNL A   1      41.995  28.210  30.884  1.00  0.00     0.074 A 
ATOM     48  C   UNL A   1      41.384  27.633  28.603  1.00  0.00     0.049 A 
ATOM     49  N   UNL A   1      43.267  28.129  31.091  1.00  0.00    -0.248 NA
ATOM     50  C   UNL A   1      41.171  28.175  32.102  1.00  0.00     0.031 C 
ATOM     51  C   UNL A   1      41.064  27.801  27.200  1.00  0.00     0.029 A 
ATOM     52  N   UNL A   1      41.552  26.262  28.664  1.00  0.00    -0.354 N 
ATOM     53  C   UNL A   1      43.371  27.722  32.401  1.00  0.00     0.074 A 
ATOM     54  C   UNL A   1      42.119  28.053  33.034  1.00  0.00     0.031 C 
ATOM     55  C   UNL A   1      40.726  26.632  26.617  1.00  0.00     0.029 A 
ATOM     56  C   UNL A   1      41.023  25.577  27.561  1.00  0.00     0.049 A 
ATOM     57  H   UNL A   1      42.003  25.808  29.412  1.00  0.00     0.167 HD
ATOM     58  C   UNL A   1      44.262  26.746  32.704  1.00  0.00     0.031 A 
ATOM     59  C   UNL A   1      41.015  24.250  27.269  1.00  0.00     0.031 A 
ATOM     60  C   UNL A   1      45.245  26.562  31.662  1.00  0.00     0.049 A 
ATOM     61  C   UNL A   1      42.281  23.722  27.772  1.00  0.00     0.074 A 
ATOM     62  C   UNL A   1      46.304  27.280  31.147  1.00  0.00     0.029 A 
ATOM     63  N   UNL A   1      44.896  25.633  30.715  1.00  0.00    -0.354 N 
ATOM     64  N   UNL A   1      43.423  24.003  27.214  1.00  0.00    -0.248 NA
ATOM     65  C   UNL A   1      42.342  23.152  29.108  1.00  0.00     0.031 C 
ATOM     66  C   UNL A   1      46.521  26.804  29.819  1.00  0.00     0.029 A 
ATOM     67  C   UNL A   1      45.612  25.786  29.554  1.00  0.00     0.049 A 
ATOM     68  H   UNL A   1      44.212  24.939  30.851  1.00  0.00     0.167 HD
ATOM     69  C   UNL A   1      44.261  24.144  28.298  1.00  0.00     0.074 A 
ATOM     70  C   UNL A   1      43.624  23.403  29.379  1.00  0.00     0.031 C 
ATOM     71  C   UNL A   1      45.191  25.139  28.330  1.00  0.00     0.031 A 
BRANCH  58  72
ATOM     72  C   UNL A   1      43.899  25.635  33.650  1.00  0.00    -0.014 A 
ATOM     73  C   UNL A   1      44.042  24.312  33.216  1.00  0.00     0.009 A 
ATOM     74  C   UNL A   1      43.184  25.840  34.852  1.00  0.00     0.009 A 
ATOM     75  C   UNL A   1      43.496  23.253  33.949  1.00  0.00     0.001 A 
ATOM     76  C   UNL A   1      42.677  24.785  35.608  1.00  0.00     0.001 A 
ATOM     77  C   UNL A   1      42.822  23.489  35.146  1.00  0.00     0.000 A 
ENDBRANCH  58  72
BRANCH  59  78
ATOM     78  C   UNL A   1      40.070  23.406  26.508  1.00  0.00    -0.014 A 
ATOM     79  C   UNL A   1      40.235  22.032  26.308  1.00  0.00     0.009 A 
ATOM     80  C   UNL A   1      38.798  23.928  26.261  1.00  0.00     0.009 A 
ATOM     81  C   UNL A   1      39.152  21.222  25.915  1.00  0.00     0.001 A 
ATOM     82  C   UNL A   1      37.717  23.141  25.851  1.00  0.00     0.001 A 
ATOM     83  C   UNL A   1      37.891  21.775  25.699  1.00  0.00     0.000 A 
ENDBRANCH  59  78
BRANCH  71  84
ATOM     84  C   UNL A   1      45.668  25.685  27.012  1.00  0.00    -0.014 A 
ATOM     85  C   UNL A   1      45.053  26.752  26.336  1.00  0.00     0.009 A 
ATOM     86  C   UNL A   1      46.814  25.110  26.445  1.00  0.00     0.009 A 
ATOM     87  C   UNL A   1      45.561  27.211  25.113  1.00  0.00     0.001 A 
ATOM     88  C   UNL A   1      47.331  25.580  25.236  1.00  0.00     0.001 A 
ATOM     89  C   UNL A   1      46.702  26.626  24.567  1.00  0.00     0.000 A 
ENDBRANCH  71  84
ENDBRANCH  45  46
ENDBRANCH  38  40
ENDBRANCH  37  38
ENDBRANCH  36  37
ENDBRANCH  35  36
ENDBRANCH  34  35
ENDBRANCH   1  34
TORSDOF 19
ENDMDL
