MODEL 1
REMARK VINA RESULT:     -10.9      0.000      0.000
REMARK SMILES Cc1ccc(C(C)(C)C)c(OCC(=O)c2nc(C)c(C(=O)OCCOCCOC(=O)c3ccc(-c4c5nc(c(-c6ccccc6)c6ccc([nH]6)c(-c6ccccc6)c6nc(c(-c7ccccc7)c7ccc4[nH]7)C=C6)C=C5)cc3)s2)c1
REMARK SMILES IDX 23 1 22 2 20 3 21 4 19 5 15 6 16 7 79 8 17 9 18 10 13 11
REMARK SMILES IDX 14 12 12 13 11 14 10 15 1 16 2 17 3 18 80 19 4 20 5 21 6 22
REMARK SMILES IDX 7 23 8 24 9 25 24 26 25 27 26 28 27 29 28 30 29 31 30 32
REMARK SMILES IDX 31 33 32 34 78 35 33 36 77 37 34 38 35 39 36 40 71 41 37 42
REMARK SMILES IDX 76 43 70 44 72 45 38 46 75 47 69 48 68 49 39 51 61 52 46 53
REMARK SMILES IDX 60 54 47 55 50 56 59 57 73 58 48 59 49 60 58 62 74 63 51 64
REMARK SMILES IDX 40 65 41 66 45 67 42 68 44 69 43 70 62 71 63 72 67 73 64 74
REMARK SMILES IDX 66 75 65 76 52 77 53 78 57 79 54 80 56 81 55 82
REMARK H PARENT 72 50 50 61
REMARK Flexibility Score: inf
ROOT
ATOM      1  C   UNL A   1      32.294  30.144  26.929  1.00  0.00     0.261 C 
ENDROOT
BRANCH   1   2
ATOM      2  O   UNL A   1      31.423  29.176  26.357  1.00  0.00    -0.459 OA
BRANCH   2   3
ATOM      3  C   UNL A   1      31.828  28.628  25.174  1.00  0.00     0.350 C 
ATOM      4  O   UNL A   1      32.547  29.165  24.361  1.00  0.00    -0.245 OA
BRANCH   3   5
ATOM      5  C   UNL A   1      31.391  27.252  25.170  1.00  0.00     0.136 A 
ATOM      6  C   UNL A   1      31.049  24.979  25.895  1.00  0.00     0.164 A 
ATOM      7  N   UNL A   1      30.106  25.313  25.038  1.00  0.00    -0.237 NA
ATOM      8  S   UNL A   1      32.285  26.131  26.094  1.00  0.00    -0.103 S 
ATOM      9  C   UNL A   1      30.285  26.625  24.616  1.00  0.00     0.064 A 
ATOM     10  C   UNL A   1      29.249  27.171  23.693  1.00  0.00     0.068 C 
BRANCH   6  11
ATOM     11  C   UNL A   1      31.052  23.700  26.584  1.00  0.00     0.228 C 
ATOM     12  O   UNL A   1      30.093  23.293  27.251  1.00  0.00    -0.288 OA
BRANCH  11  13
ATOM     13  C   UNL A   1      32.367  22.891  26.607  1.00  0.00     0.313 C 
BRANCH  13  14
ATOM     14  O   UNL A   1      32.874  22.182  25.495  1.00  0.00    -0.485 OA
BRANCH  14  15
ATOM     15  C   UNL A   1      34.216  21.949  25.379  1.00  0.00     0.123 A 
ATOM     16  C   UNL A   1      37.527  23.741  26.024  1.00  0.00     0.044 C 
ATOM     17  C   UNL A   1      36.537  22.677  25.658  1.00  0.00    -0.047 A 
ATOM     18  C   UNL A   1      36.964  21.394  25.340  1.00  0.00     0.004 A 
ATOM     19  C   UNL A   1      35.169  22.956  25.619  1.00  0.00     0.050 A 
ATOM     20  C   UNL A   1      36.031  20.401  25.035  1.00  0.00     0.008 A 
ATOM     21  C   UNL A   1      34.634  20.632  25.073  1.00  0.00    -0.000 A 
BRANCH  21  22
ATOM     22  C   UNL A   1      33.703  19.427  24.765  1.00  0.00    -0.010 C 
ATOM     23  C   UNL A   1      32.724  19.844  23.644  1.00  0.00     0.016 C 
ATOM     24  C   UNL A   1      34.536  18.213  24.274  1.00  0.00     0.016 C 
ATOM     25  C   UNL A   1      32.842  18.891  25.931  1.00  0.00     0.016 C 
ENDBRANCH  21  22
ENDBRANCH  14  15
ENDBRANCH  13  14
ENDBRANCH  11  13
ENDBRANCH   6  11
ENDBRANCH   3   5
ENDBRANCH   2   3
ENDBRANCH   1   2
BRANCH   1  26
ATOM     26  C   UNL A   1      33.591  29.517  27.335  1.00  0.00     0.202 C 
BRANCH  26  27
ATOM     27  O   UNL A   1      34.573  30.535  27.232  1.00  0.00    -0.374 OA
BRANCH  27  28
ATOM     28  C   UNL A   1      34.234  31.750  27.885  1.00  0.00     0.202 C 
BRANCH  28  29
ATOM     29  C   UNL A   1      35.445  32.642  28.214  1.00  0.00     0.261 C 
BRANCH  29  30
ATOM     30  O   UNL A   1      36.654  31.859  28.120  1.00  0.00    -0.460 OA
BRANCH  30  31
ATOM     31  C   UNL A   1      37.150  31.346  29.281  1.00  0.00     0.338 C 
ATOM     32  O   UNL A   1      37.283  31.953  30.330  1.00  0.00    -0.246 OA
BRANCH  31  33
ATOM     33  C   UNL A   1      37.810  30.037  28.993  1.00  0.00     0.060 A 
ATOM     34  C   UNL A   1      38.422  29.317  30.038  1.00  0.00     0.016 A 
ATOM     35  C   UNL A   1      38.115  29.723  27.671  1.00  0.00     0.016 A 
ATOM     36  C   UNL A   1      39.459  28.408  29.761  1.00  0.00     0.010 A 
ATOM     37  C   UNL A   1      39.190  28.893  27.411  1.00  0.00     0.010 A 
ATOM     38  C   UNL A   1      39.901  28.260  28.446  1.00  0.00    -0.014 A 
BRANCH  38  39
ATOM     39  C   UNL A   1      41.175  27.650  28.034  1.00  0.00     0.031 A 
ATOM     40  C   UNL A   1      41.353  26.185  28.134  1.00  0.00     0.074 A 
ATOM     41  C   UNL A   1      42.118  28.349  27.355  1.00  0.00     0.049 A 
ATOM     42  N   UNL A   1      42.507  25.606  28.135  1.00  0.00    -0.248 NA
ATOM     43  C   UNL A   1      40.250  25.243  28.290  1.00  0.00     0.031 C 
ATOM     44  C   UNL A   1      43.138  27.837  26.438  1.00  0.00     0.029 A 
ATOM     45  N   UNL A   1      42.381  29.706  27.381  1.00  0.00    -0.354 N 
ATOM     46  C   UNL A   1      42.292  24.265  27.932  1.00  0.00     0.074 A 
ATOM     47  C   UNL A   1      40.878  24.074  28.151  1.00  0.00     0.031 C 
ATOM     48  C   UNL A   1      44.006  28.818  26.125  1.00  0.00     0.029 A 
ATOM     49  C   UNL A   1      43.665  29.983  26.919  1.00  0.00     0.049 A 
ATOM     50  H   UNL A   1      41.741  30.389  27.686  1.00  0.00     0.167 HD
ATOM     51  C   UNL A   1      43.301  23.494  27.440  1.00  0.00     0.031 A 
ATOM     52  C   UNL A   1      44.493  30.781  27.649  1.00  0.00     0.031 A 
ATOM     53  C   UNL A   1      44.515  24.288  27.194  1.00  0.00     0.049 A 
ATOM     54  C   UNL A   1      45.599  29.920  28.185  1.00  0.00     0.074 A 
ATOM     55  C   UNL A   1      45.082  24.780  26.029  1.00  0.00     0.029 A 
ATOM     56  N   UNL A   1      45.139  24.960  28.245  1.00  0.00    -0.354 N 
ATOM     57  N   UNL A   1      45.494  28.621  28.217  1.00  0.00    -0.248 NA
ATOM     58  C   UNL A   1      46.894  30.387  28.671  1.00  0.00     0.031 C 
ATOM     59  C   UNL A   1      46.000  25.806  26.388  1.00  0.00     0.029 A 
ATOM     60  C   UNL A   1      46.026  25.911  27.769  1.00  0.00     0.049 A 
ATOM     61  H   UNL A   1      44.971  24.783  29.199  1.00  0.00     0.167 HD
ATOM     62  C   UNL A   1      46.661  28.076  28.629  1.00  0.00     0.074 A 
ATOM     63  C   UNL A   1      47.500  29.218  28.952  1.00  0.00     0.031 C 
ATOM     64  C   UNL A   1      46.827  26.728  28.678  1.00  0.00     0.031 A 
BRANCH  51  65
ATOM     65  C   UNL A   1      43.098  22.088  26.909  1.00  0.00    -0.014 A 
ATOM     66  C   UNL A   1      43.986  21.569  25.949  1.00  0.00     0.009 A 
ATOM     67  C   UNL A   1      42.051  21.230  27.289  1.00  0.00     0.009 A 
ATOM     68  C   UNL A   1      43.793  20.311  25.357  1.00  0.00     0.001 A 
ATOM     69  C   UNL A   1      41.825  19.990  26.675  1.00  0.00     0.001 A 
ATOM     70  C   UNL A   1      42.697  19.530  25.701  1.00  0.00     0.000 A 
ENDBRANCH  51  65
BRANCH  52  71
ATOM     71  C   UNL A   1      43.735  31.868  28.352  1.00  0.00    -0.014 A 
ATOM     72  C   UNL A   1      43.446  31.651  29.719  1.00  0.00     0.009 A 
ATOM     73  C   UNL A   1      43.777  33.194  27.890  1.00  0.00     0.009 A 
ATOM     74  C   UNL A   1      43.358  32.721  30.619  1.00  0.00     0.001 A 
ATOM     75  C   UNL A   1      43.686  34.262  28.797  1.00  0.00     0.001 A 
ATOM     76  C   UNL A   1      43.519  34.026  30.162  1.00  0.00     0.000 A 
ENDBRANCH  52  71
BRANCH  64  77
ATOM     77  C   UNL A   1      47.837  26.088  29.568  1.00  0.00    -0.014 A 
ATOM     78  C   UNL A   1      49.078  25.643  29.089  1.00  0.00     0.009 A 
ATOM     79  C   UNL A   1      47.635  26.095  30.959  1.00  0.00     0.009 A 
ATOM     80  C   UNL A   1      50.057  25.167  29.960  1.00  0.00     0.001 A 
ATOM     81  C   UNL A   1      48.631  25.666  31.834  1.00  0.00     0.001 A 
ATOM     82  C   UNL A   1      49.835  25.187  31.333  1.00  0.00     0.000 A 
ENDBRANCH  64  77
ENDBRANCH  38  39
ENDBRANCH  31  33
ENDBRANCH  30  31
ENDBRANCH  29  30
ENDBRANCH  28  29
ENDBRANCH  27  28
ENDBRANCH  26  27
ENDBRANCH   1  26
TORSDOF 19
ENDMDL
MODEL 2
REMARK VINA RESULT:     -10.9      2.806      3.637
REMARK SMILES Cc1ccc(C(C)(C)C)c(OCC(=O)c2nc(C)c(C(=O)OCCOCCOC(=O)c3ccc(-c4c5nc(c(-c6ccccc6)c6ccc([nH]6)c(-c6ccccc6)c6nc(c(-c7ccccc7)c7ccc4[nH]7)C=C6)C=C5)cc3)s2)c1
REMARK SMILES IDX 23 1 22 2 20 3 21 4 19 5 15 6 16 7 79 8 17 9 18 10 13 11
REMARK SMILES IDX 14 12 12 13 11 14 10 15 1 16 2 17 3 18 80 19 4 20 5 21 6 22
REMARK SMILES IDX 7 23 8 24 9 25 24 26 25 27 26 28 27 29 28 30 29 31 30 32
REMARK SMILES IDX 31 33 32 34 78 35 33 36 77 37 34 38 35 39 36 40 71 41 37 42
REMARK SMILES IDX 76 43 70 44 72 45 38 46 75 47 69 48 68 49 39 51 61 52 46 53
REMARK SMILES IDX 60 54 47 55 50 56 59 57 73 58 48 59 49 60 58 62 74 63 51 64
REMARK SMILES IDX 40 65 41 66 45 67 42 68 44 69 43 70 62 71 63 72 67 73 64 74
REMARK SMILES IDX 66 75 65 76 52 77 53 78 57 79 54 80 56 81 55 82
REMARK H PARENT 72 50 50 61
REMARK Flexibility Score: inf
ROOT
ATOM      1  C   UNL A   1      31.291  28.787  26.203  1.00  0.00     0.261 C 
ENDROOT
BRANCH   1   2
ATOM      2  O   UNL A   1      31.448  29.611  25.055  1.00  0.00    -0.459 OA
BRANCH   2   3
ATOM      3  C   UNL A   1      30.561  29.399  24.038  1.00  0.00     0.350 C 
ATOM      4  O   UNL A   1      29.763  30.209  23.623  1.00  0.00    -0.245 OA
BRANCH   3   5
ATOM      5  C   UNL A   1      30.878  28.116  23.455  1.00  0.00     0.136 A 
ATOM      6  C   UNL A   1      32.174  26.252  22.647  1.00  0.00     0.164 A 
ATOM      7  N   UNL A   1      30.964  25.841  22.966  1.00  0.00    -0.237 NA
ATOM      8  S   UNL A   1      32.407  27.935  22.720  1.00  0.00    -0.103 S 
ATOM      9  C   UNL A   1      30.207  26.904  23.442  1.00  0.00     0.064 A 
ATOM     10  C   UNL A   1      28.829  26.579  23.910  1.00  0.00     0.068 C 
BRANCH   6  11
ATOM     11  C   UNL A   1      33.217  25.334  22.223  1.00  0.00     0.228 C 
ATOM     12  O   UNL A   1      33.227  24.793  21.111  1.00  0.00    -0.288 OA
BRANCH  11  13
ATOM     13  C   UNL A   1      34.271  24.902  23.267  1.00  0.00     0.313 C 
BRANCH  13  14
ATOM     14  O   UNL A   1      33.996  24.041  24.353  1.00  0.00    -0.485 OA
BRANCH  14  15
ATOM     15  C   UNL A   1      34.780  22.944  24.579  1.00  0.00     0.123 A 
ATOM     16  C   UNL A   1      38.306  22.112  25.787  1.00  0.00     0.044 C 
ATOM     17  C   UNL A   1      36.893  21.951  25.314  1.00  0.00    -0.047 A 
ATOM     18  C   UNL A   1      36.312  20.692  25.243  1.00  0.00     0.004 A 
ATOM     19  C   UNL A   1      36.139  23.061  24.927  1.00  0.00     0.050 A 
ATOM     20  C   UNL A   1      34.983  20.557  24.835  1.00  0.00     0.008 A 
ATOM     21  C   UNL A   1      34.167  21.670  24.520  1.00  0.00    -0.000 A 
BRANCH  21  22
ATOM     22  C   UNL A   1      32.690  21.385  24.132  1.00  0.00    -0.010 C 
ATOM     23  C   UNL A   1      32.421  19.874  24.321  1.00  0.00     0.016 C 
ATOM     24  C   UNL A   1      31.726  22.182  25.052  1.00  0.00     0.016 C 
ATOM     25  C   UNL A   1      32.265  21.735  22.688  1.00  0.00     0.016 C 
ENDBRANCH  21  22
ENDBRANCH  14  15
ENDBRANCH  13  14
ENDBRANCH  11  13
ENDBRANCH   6  11
ENDBRANCH   3   5
ENDBRANCH   2   3
ENDBRANCH   1   2
BRANCH   1  26
ATOM     26  C   UNL A   1      32.411  29.008  27.172  1.00  0.00     0.202 C 
BRANCH  26  27
ATOM     27  O   UNL A   1      33.580  28.504  26.549  1.00  0.00    -0.374 OA
BRANCH  27  28
ATOM     28  C   UNL A   1      34.710  29.362  26.632  1.00  0.00     0.202 C 
BRANCH  28  29
ATOM     29  C   UNL A   1      34.575  30.471  27.693  1.00  0.00     0.261 C 
BRANCH  29  30
ATOM     30  O   UNL A   1      35.751  31.307  27.660  1.00  0.00    -0.460 OA
BRANCH  30  31
ATOM     31  C   UNL A   1      36.598  31.226  28.724  1.00  0.00     0.338 C 
ATOM     32  O   UNL A   1      36.897  32.145  29.468  1.00  0.00    -0.246 OA
BRANCH  31  33
ATOM     33  C   UNL A   1      37.357  29.942  28.648  1.00  0.00     0.060 A 
ATOM     34  C   UNL A   1      37.381  29.077  29.761  1.00  0.00     0.016 A 
ATOM     35  C   UNL A   1      38.298  29.785  27.633  1.00  0.00     0.016 A 
ATOM     36  C   UNL A   1      38.446  28.175  29.933  1.00  0.00     0.010 A 
ATOM     37  C   UNL A   1      39.384  28.957  27.851  1.00  0.00     0.010 A 
ATOM     38  C   UNL A   1      39.496  28.177  29.015  1.00  0.00    -0.014 A 
BRANCH  38  39
ATOM     39  C   UNL A   1      40.824  27.579  29.229  1.00  0.00     0.031 A 
ATOM     40  C   UNL A   1      41.141  26.262  28.636  1.00  0.00     0.074 A 
ATOM     41  C   UNL A   1      41.850  28.287  29.764  1.00  0.00     0.049 A 
ATOM     42  N   UNL A   1      42.112  25.514  29.040  1.00  0.00    -0.248 NA
ATOM     43  C   UNL A   1      40.364  25.648  27.564  1.00  0.00     0.031 C 
ATOM     44  C   UNL A   1      43.287  28.080  29.574  1.00  0.00     0.029 A 
ATOM     45  N   UNL A   1      41.806  29.350  30.646  1.00  0.00    -0.354 N 
ATOM     46  C   UNL A   1      42.301  24.541  28.089  1.00  0.00     0.074 A 
ATOM     47  C   UNL A   1      41.123  24.595  27.258  1.00  0.00     0.031 C 
ATOM     48  C   UNL A   1      43.978  28.858  30.428  1.00  0.00     0.029 A 
ATOM     49  C   UNL A   1      43.025  29.518  31.299  1.00  0.00     0.049 A 
ATOM     50  H   UNL A   1      41.014  29.917  30.793  1.00  0.00     0.167 HD
ATOM     51  C   UNL A   1      43.504  23.909  28.011  1.00  0.00     0.031 A 
ATOM     52  C   UNL A   1      43.058  29.635  32.656  1.00  0.00     0.031 A 
ATOM     53  C   UNL A   1      44.447  24.418  29.019  1.00  0.00     0.049 A 
ATOM     54  C   UNL A   1      43.703  28.395  33.204  1.00  0.00     0.074 A 
ATOM     55  C   UNL A   1      45.529  25.280  28.927  1.00  0.00     0.029 A 
ATOM     56  N   UNL A   1      44.145  24.317  30.378  1.00  0.00    -0.354 N 
ATOM     57  N   UNL A   1      43.821  27.315  32.482  1.00  0.00    -0.248 NA
ATOM     58  C   UNL A   1      44.300  28.250  34.528  1.00  0.00     0.031 C 
ATOM     59  C   UNL A   1      45.828  25.751  30.235  1.00  0.00     0.029 A 
ATOM     60  C   UNL A   1      44.958  25.147  31.130  1.00  0.00     0.049 A 
ATOM     61  H   UNL A   1      43.446  23.733  30.752  1.00  0.00     0.167 HD
ATOM     62  C   UNL A   1      44.536  26.389  33.158  1.00  0.00     0.074 A 
ATOM     63  C   UNL A   1      44.778  26.992  34.457  1.00  0.00     0.031 C 
ATOM     64  C   UNL A   1      44.856  25.197  32.587  1.00  0.00     0.031 A 
BRANCH  51  65
ATOM     65  C   UNL A   1      43.921  23.041  26.839  1.00  0.00    -0.014 A 
ATOM     66  C   UNL A   1      43.237  21.839  26.581  1.00  0.00     0.009 A 
ATOM     67  C   UNL A   1      44.982  23.331  25.963  1.00  0.00     0.009 A 
ATOM     68  C   UNL A   1      43.638  20.955  25.568  1.00  0.00     0.001 A 
ATOM     69  C   UNL A   1      45.416  22.436  24.975  1.00  0.00     0.001 A 
ATOM     70  C   UNL A   1      44.745  21.241  24.779  1.00  0.00     0.000 A 
ENDBRANCH  51  65
BRANCH  52  71
ATOM     71  C   UNL A   1      41.859  30.369  33.178  1.00  0.00    -0.014 A 
ATOM     72  C   UNL A   1      40.918  29.603  33.904  1.00  0.00     0.009 A 
ATOM     73  C   UNL A   1      41.906  31.753  33.416  1.00  0.00     0.009 A 
ATOM     74  C   UNL A   1      40.164  30.173  34.938  1.00  0.00     0.001 A 
ATOM     75  C   UNL A   1      41.146  32.318  34.454  1.00  0.00     0.001 A 
ATOM     76  C   UNL A   1      40.309  31.523  35.239  1.00  0.00     0.000 A 
ENDBRANCH  52  71
BRANCH  64  77
ATOM     77  C   UNL A   1      45.167  23.988  33.402  1.00  0.00    -0.014 A 
ATOM     78  C   UNL A   1      46.398  23.826  34.056  1.00  0.00     0.009 A 
ATOM     79  C   UNL A   1      44.146  23.067  33.690  1.00  0.00     0.009 A 
ATOM     80  C   UNL A   1      46.620  22.752  34.916  1.00  0.00     0.001 A 
ATOM     81  C   UNL A   1      44.350  22.022  34.588  1.00  0.00     0.001 A 
ATOM     82  C   UNL A   1      45.592  21.855  35.188  1.00  0.00     0.000 A 
ENDBRANCH  64  77
ENDBRANCH  38  39
ENDBRANCH  31  33
ENDBRANCH  30  31
ENDBRANCH  29  30
ENDBRANCH  28  29
ENDBRANCH  27  28
ENDBRANCH  26  27
ENDBRANCH   1  26
TORSDOF 19
ENDMDL
MODEL 3
REMARK VINA RESULT:     -10.6      3.900      8.176
REMARK SMILES Cc1ccc(C(C)(C)C)c(OCC(=O)c2nc(C)c(C(=O)OCCOCCOC(=O)c3ccc(-c4c5nc(c(-c6ccccc6)c6ccc([nH]6)c(-c6ccccc6)c6nc(c(-c7ccccc7)c7ccc4[nH]7)C=C6)C=C5)cc3)s2)c1
REMARK SMILES IDX 23 1 22 2 20 3 21 4 19 5 15 6 16 7 79 8 17 9 18 10 13 11
REMARK SMILES IDX 14 12 12 13 11 14 10 15 1 16 2 17 3 18 80 19 4 20 5 21 6 22
REMARK SMILES IDX 7 23 8 24 9 25 24 26 25 27 26 28 27 29 28 30 29 31 30 32
REMARK SMILES IDX 31 33 32 34 78 35 33 36 77 37 34 38 35 39 36 40 71 41 37 42
REMARK SMILES IDX 76 43 70 44 72 45 38 46 75 47 69 48 68 49 39 51 61 52 46 53
REMARK SMILES IDX 60 54 47 55 50 56 59 57 73 58 48 59 49 60 58 62 74 63 51 64
REMARK SMILES IDX 40 65 41 66 45 67 42 68 44 69 43 70 62 71 63 72 67 73 64 74
REMARK SMILES IDX 66 75 65 76 52 77 53 78 57 79 54 80 56 81 55 82
REMARK H PARENT 72 50 50 61
REMARK Flexibility Score: inf
ROOT
ATOM      1  C   UNL A   1      35.094  20.029  25.241  1.00  0.00     0.261 C 
ENDROOT
BRANCH   1   2
ATOM      2  O   UNL A   1      34.050  20.619  24.477  1.00  0.00    -0.459 OA
BRANCH   2   3
ATOM      3  C   UNL A   1      33.352  21.621  25.087  1.00  0.00     0.350 C 
ATOM      4  O   UNL A   1      32.724  21.512  26.117  1.00  0.00    -0.245 OA
BRANCH   3   5
ATOM      5  C   UNL A   1      33.651  22.843  24.378  1.00  0.00     0.136 A 
ATOM      6  C   UNL A   1      33.365  24.763  22.951  1.00  0.00     0.164 A 
ATOM      7  N   UNL A   1      34.310  25.010  23.835  1.00  0.00    -0.237 NA
ATOM      8  S   UNL A   1      32.773  23.169  22.952  1.00  0.00    -0.103 S 
ATOM      9  C   UNL A   1      34.481  23.914  24.671  1.00  0.00     0.064 A 
ATOM     10  C   UNL A   1      35.473  24.070  25.773  1.00  0.00     0.068 C 
BRANCH   6  11
ATOM     11  C   UNL A   1      32.898  25.772  22.016  1.00  0.00     0.228 C 
ATOM     12  O   UNL A   1      33.640  26.324  21.194  1.00  0.00    -0.288 OA
BRANCH  11  13
ATOM     13  C   UNL A   1      31.447  26.281  22.164  1.00  0.00     0.313 C 
BRANCH  13  14
ATOM     14  O   UNL A   1      30.908  26.782  23.370  1.00  0.00    -0.485 OA
BRANCH  14  15
ATOM     15  C   UNL A   1      30.502  28.084  23.456  1.00  0.00     0.123 A 
ATOM     16  C   UNL A   1      27.745  30.349  22.094  1.00  0.00     0.044 C 
ATOM     17  C   UNL A   1      28.935  29.871  22.870  1.00  0.00    -0.047 A 
ATOM     18  C   UNL A   1      29.551  30.699  23.799  1.00  0.00     0.004 A 
ATOM     19  C   UNL A   1      29.453  28.590  22.667  1.00  0.00     0.050 A 
ATOM     20  C   UNL A   1      30.637  30.231  24.542  1.00  0.00     0.008 A 
ATOM     21  C   UNL A   1      31.129  28.909  24.421  1.00  0.00    -0.000 A 
BRANCH  21  22
ATOM     22  C   UNL A   1      32.308  28.498  25.345  1.00  0.00    -0.010 C 
ATOM     23  C   UNL A   1      31.989  27.114  25.953  1.00  0.00     0.016 C 
ATOM     24  C   UNL A   1      33.623  28.394  24.527  1.00  0.00     0.016 C 
ATOM     25  C   UNL A   1      32.632  29.440  26.527  1.00  0.00     0.016 C 
ENDBRANCH  21  22
ENDBRANCH  14  15
ENDBRANCH  13  14
ENDBRANCH  11  13
ENDBRANCH   6  11
ENDBRANCH   3   5
ENDBRANCH   2   3
ENDBRANCH   1   2
BRANCH   1  26
ATOM     26  C   UNL A   1      36.434  20.405  24.690  1.00  0.00     0.202 C 
BRANCH  26  27
ATOM     27  O   UNL A   1      37.106  21.107  25.723  1.00  0.00    -0.374 OA
BRANCH  27  28
ATOM     28  C   UNL A   1      38.356  21.664  25.342  1.00  0.00     0.202 C 
BRANCH  28  29
ATOM     29  C   UNL A   1      39.500  21.368  26.329  1.00  0.00     0.261 C 
BRANCH  29  30
ATOM     30  O   UNL A   1      40.183  22.598  26.651  1.00  0.00    -0.460 OA
BRANCH  30  31
ATOM     31  C   UNL A   1      41.490  22.694  26.282  1.00  0.00     0.338 C 
ATOM     32  O   UNL A   1      42.048  22.006  25.444  1.00  0.00    -0.246 OA
BRANCH  31  33
ATOM     33  C   UNL A   1      42.219  23.533  27.282  1.00  0.00     0.060 A 
ATOM     34  C   UNL A   1      42.503  24.882  26.989  1.00  0.00     0.016 A 
ATOM     35  C   UNL A   1      42.903  22.893  28.313  1.00  0.00     0.016 A 
ATOM     36  C   UNL A   1      43.584  25.529  27.613  1.00  0.00     0.010 A 
ATOM     37  C   UNL A   1      44.014  23.508  28.860  1.00  0.00     0.010 A 
ATOM     38  C   UNL A   1      44.394  24.810  28.491  1.00  0.00    -0.014 A 
BRANCH  38  39
ATOM     39  C   UNL A   1      45.739  25.208  28.937  1.00  0.00     0.031 A 
ATOM     40  C   UNL A   1      46.900  25.001  28.045  1.00  0.00     0.074 A 
ATOM     41  C   UNL A   1      45.931  25.963  30.048  1.00  0.00     0.049 A 
ATOM     42  N   UNL A   1      48.123  24.987  28.460  1.00  0.00    -0.248 NA
ATOM     43  C   UNL A   1      46.787  24.745  26.614  1.00  0.00     0.031 C 
ATOM     44  C   UNL A   1      47.045  26.865  30.347  1.00  0.00     0.029 A 
ATOM     45  N   UNL A   1      45.152  26.048  31.186  1.00  0.00    -0.354 N 
ATOM     46  C   UNL A   1      48.930  25.081  27.352  1.00  0.00     0.074 A 
ATOM     47  C   UNL A   1      48.063  24.810  26.231  1.00  0.00     0.031 C 
ATOM     48  C   UNL A   1      46.971  27.275  31.627  1.00  0.00     0.029 A 
ATOM     49  C   UNL A   1      45.876  26.564  32.259  1.00  0.00     0.049 A 
ATOM     50  H   UNL A   1      44.206  25.778  31.233  1.00  0.00     0.167 HD
ATOM     51  C   UNL A   1      50.205  25.539  27.493  1.00  0.00     0.031 A 
ATOM     52  C   UNL A   1      45.866  25.918  33.459  1.00  0.00     0.031 A 
ATOM     53  C   UNL A   1      50.505  25.877  28.893  1.00  0.00     0.049 A 
ATOM     54  C   UNL A   1      47.236  25.348  33.680  1.00  0.00     0.074 A 
ATOM     55  C   UNL A   1      50.596  27.091  29.556  1.00  0.00     0.029 A 
ATOM     56  N   UNL A   1      50.430  24.897  29.884  1.00  0.00    -0.354 N 
ATOM     57  N   UNL A   1      48.083  25.215  32.698  1.00  0.00    -0.248 NA
ATOM     58  C   UNL A   1      47.798  24.934  34.962  1.00  0.00     0.031 C 
ATOM     59  C   UNL A   1      50.502  26.836  30.952  1.00  0.00     0.029 A 
ATOM     60  C   UNL A   1      50.396  25.468  31.144  1.00  0.00     0.049 A 
ATOM     61  H   UNL A   1      50.403  23.929  29.710  1.00  0.00     0.167 HD
ATOM     62  C   UNL A   1      49.275  24.793  33.174  1.00  0.00     0.074 A 
ATOM     63  C   UNL A   1      49.045  24.581  34.594  1.00  0.00     0.031 C 
ATOM     64  C   UNL A   1      50.347  24.646  32.352  1.00  0.00     0.031 A 
BRANCH  51  65
ATOM     65  C   UNL A   1      51.079  25.956  26.326  1.00  0.00    -0.014 A 
ATOM     66  C   UNL A   1      52.160  25.145  25.938  1.00  0.00     0.009 A 
ATOM     67  C   UNL A   1      50.912  27.136  25.579  1.00  0.00     0.009 A 
ATOM     68  C   UNL A   1      53.055  25.527  24.926  1.00  0.00     0.001 A 
ATOM     69  C   UNL A   1      51.822  27.547  24.595  1.00  0.00     0.001 A 
ATOM     70  C   UNL A   1      52.901  26.741  24.270  1.00  0.00     0.000 A 
ENDBRANCH  51  65
BRANCH  52  71
ATOM     71  C   UNL A   1      44.537  25.281  33.733  1.00  0.00    -0.014 A 
ATOM     72  C   UNL A   1      44.487  23.869  33.657  1.00  0.00     0.009 A 
ATOM     73  C   UNL A   1      43.570  25.932  34.517  1.00  0.00     0.009 A 
ATOM     74  C   UNL A   1      43.605  23.132  34.458  1.00  0.00     0.001 A 
ATOM     75  C   UNL A   1      42.688  25.187  35.317  1.00  0.00     0.001 A 
ATOM     76  C   UNL A   1      42.733  23.792  35.318  1.00  0.00     0.000 A 
ENDBRANCH  52  71
BRANCH  64  77
ATOM     77  C   UNL A   1      51.481  23.736  32.685  1.00  0.00    -0.014 A 
ATOM     78  C   UNL A   1      51.305  22.354  32.848  1.00  0.00     0.009 A 
ATOM     79  C   UNL A   1      52.796  24.230  32.652  1.00  0.00     0.009 A 
ATOM     80  C   UNL A   1      52.396  21.506  33.031  1.00  0.00     0.001 A 
ATOM     81  C   UNL A   1      53.890  23.378  32.784  1.00  0.00     0.001 A 
ATOM     82  C   UNL A   1      53.689  22.018  32.990  1.00  0.00     0.000 A 
ENDBRANCH  64  77
ENDBRANCH  38  39
ENDBRANCH  31  33
ENDBRANCH  30  31
ENDBRANCH  29  30
ENDBRANCH  28  29
ENDBRANCH  27  28
ENDBRANCH  26  27
ENDBRANCH   1  26
TORSDOF 19
ENDMDL
