MODEL 1
REMARK VINA RESULT:     -11.0      0.000      0.000
REMARK SMILES Cc1cccc(C(=O)OCCOCCOC(=O)c2ccc(-c3c4nc(c(-c5ccccc5)c5ccc([nH]5)c(-c5ccccc5)c5nc(c(-c6ccccc6)c6ccc3[nH]6)C=C5)C=C4)cc2)c1OC[C@@H]1C[C@H]2CC[C@@H]1C2
REMARK SMILES IDX 11 1 10 2 9 3 7 4 8 5 6 6 1 7 2 8 3 9 66 10 4 11 5 12 67 13
REMARK SMILES IDX 68 14 69 15 70 16 74 17 71 18 73 19 75 20 72 21 12 22 13 23
REMARK SMILES IDX 14 24 15 25 16 26 17 27 18 28 19 29 65 30 20 31 64 32 21 33
REMARK SMILES IDX 22 34 23 35 58 36 24 37 63 38 57 39 59 40 25 41 62 42 56 43
REMARK SMILES IDX 55 44 26 46 48 47 33 48 47 49 34 50 37 51 46 52 60 53 35 54
REMARK SMILES IDX 36 55 45 57 61 58 38 59 27 60 28 61 32 62 29 63 31 64 30 65
REMARK SMILES IDX 49 66 50 67 54 68 51 69 53 70 52 71 39 72 40 73 44 74 41 75
REMARK SMILES IDX 43 76 42 77
REMARK H PARENT 59 45 37 56
REMARK Flexibility Score: inf
ROOT
ATOM      1  C   UNL A   1      32.677  30.234  26.959  1.00  0.00     0.202 C 
ENDROOT
BRANCH   1   2
ATOM      2  C   UNL A   1      32.161  28.872  27.350  1.00  0.00     0.261 C 
BRANCH   2   3
ATOM      3  O   UNL A   1      32.957  27.790  26.830  1.00  0.00    -0.460 OA
BRANCH   3   4
ATOM      4  C   UNL A   1      32.325  26.678  26.383  1.00  0.00     0.342 C 
ATOM      5  O   UNL A   1      31.343  26.157  26.871  1.00  0.00    -0.246 OA
BRANCH   4   6
ATOM      6  C   UNL A   1      32.972  26.188  25.143  1.00  0.00     0.102 A 
ATOM      7  C   UNL A   1      32.366  25.738  21.407  1.00  0.00     0.048 C 
ATOM      8  C   UNL A   1      32.992  25.705  22.772  1.00  0.00    -0.008 A 
ATOM      9  C   UNL A   1      34.032  24.780  22.988  1.00  0.00     0.007 A 
ATOM     10  C   UNL A   1      32.489  26.460  23.844  1.00  0.00     0.136 A 
ATOM     11  C   UNL A   1      34.531  24.544  24.264  1.00  0.00     0.001 A 
ATOM     12  C   UNL A   1      33.997  25.239  25.341  1.00  0.00     0.019 A 
BRANCH  10  13
ATOM     13  O   UNL A   1      31.330  27.155  23.633  1.00  0.00    -0.492 OA
BRANCH  13  14
ATOM     14  C   UNL A   1      31.265  28.594  23.668  1.00  0.00     0.233 C 
BRANCH  14  15
ATOM     15  C   UNL A   1      29.932  29.339  23.812  1.00  0.00     0.030 C 
ATOM     16  C   UNL A   1      28.737  28.522  23.234  1.00  0.00     0.011 C 
ATOM     17  C   UNL A   1      29.843  30.627  22.958  1.00  0.00    -0.004 C 
ATOM     18  C   UNL A   1      28.035  29.523  22.296  1.00  0.00    -0.010 C 
ATOM     19  C   UNL A   1      28.705  31.486  23.523  1.00  0.00     0.004 C 
ATOM     20  C   UNL A   1      29.242  30.165  21.628  1.00  0.00     0.007 C 
ATOM     21  C   UNL A   1      27.457  30.694  23.112  1.00  0.00     0.004 C 
ENDBRANCH  14  15
ENDBRANCH  13  14
ENDBRANCH  10  13
ENDBRANCH   4   6
ENDBRANCH   3   4
ENDBRANCH   2   3
ENDBRANCH   1   2
BRANCH   1  22
ATOM     22  O   UNL A   1      34.061  30.263  27.267  1.00  0.00    -0.374 OA
BRANCH  22  23
ATOM     23  C   UNL A   1      34.558  31.487  27.775  1.00  0.00     0.202 C 
BRANCH  23  24
ATOM     24  C   UNL A   1      33.451  32.532  27.969  1.00  0.00     0.261 C 
BRANCH  24  25
ATOM     25  O   UNL A   1      34.026  33.805  28.345  1.00  0.00    -0.460 OA
BRANCH  25  26
ATOM     26  C   UNL A   1      33.958  34.127  29.668  1.00  0.00     0.338 C 
ATOM     27  O   UNL A   1      33.010  34.668  30.214  1.00  0.00    -0.246 OA
BRANCH  26  28
ATOM     28  C   UNL A   1      35.302  33.973  30.300  1.00  0.00     0.060 A 
ATOM     29  C   UNL A   1      36.472  34.234  29.560  1.00  0.00     0.016 A 
ATOM     30  C   UNL A   1      35.381  33.238  31.477  1.00  0.00     0.016 A 
ATOM     31  C   UNL A   1      37.681  33.604  29.904  1.00  0.00     0.010 A 
ATOM     32  C   UNL A   1      36.523  32.510  31.716  1.00  0.00     0.010 A 
ATOM     33  C   UNL A   1      37.676  32.660  30.923  1.00  0.00    -0.014 A 
BRANCH  33  34
ATOM     34  C   UNL A   1      38.753  31.728  31.284  1.00  0.00     0.031 A 
ATOM     35  C   UNL A   1      38.742  30.408  30.612  1.00  0.00     0.074 A 
ATOM     36  C   UNL A   1      39.894  32.168  31.874  1.00  0.00     0.049 A 
ATOM     37  N   UNL A   1      39.631  29.500  30.792  1.00  0.00    -0.248 NA
ATOM     38  C   UNL A   1      37.692  29.976  29.680  1.00  0.00     0.031 C 
ATOM     39  C   UNL A   1      41.261  31.661  31.694  1.00  0.00     0.029 A 
ATOM     40  N   UNL A   1      40.080  33.206  32.787  1.00  0.00    -0.354 N 
ATOM     41  C   UNL A   1      39.509  28.598  29.766  1.00  0.00     0.074 A 
ATOM     42  C   UNL A   1      38.217  28.851  29.188  1.00  0.00     0.031 C 
ATOM     43  C   UNL A   1      42.070  32.183  32.633  1.00  0.00     0.029 A 
ATOM     44  C   UNL A   1      41.228  32.926  33.551  1.00  0.00     0.049 A 
ATOM     45  H   UNL A   1      39.506  34.001  32.880  1.00  0.00     0.167 HD
ATOM     46  C   UNL A   1      40.594  27.846  29.445  1.00  0.00     0.031 A 
ATOM     47  C   UNL A   1      41.138  32.774  34.900  1.00  0.00     0.031 A 
ATOM     48  C   UNL A   1      41.651  27.996  30.450  1.00  0.00     0.049 A 
ATOM     49  C   UNL A   1      41.483  31.350  35.229  1.00  0.00     0.074 A 
ATOM     50  C   UNL A   1      42.880  28.633  30.456  1.00  0.00     0.029 A 
ATOM     51  N   UNL A   1      41.338  27.736  31.786  1.00  0.00    -0.354 N 
ATOM     52  N   UNL A   1      41.359  30.382  34.361  1.00  0.00    -0.248 NA
ATOM     53  C   UNL A   1      42.093  30.909  36.478  1.00  0.00     0.031 C 
ATOM     54  C   UNL A   1      43.243  28.851  31.820  1.00  0.00     0.029 A 
ATOM     55  C   UNL A   1      42.266  28.303  32.638  1.00  0.00     0.049 A 
ATOM     56  H   UNL A   1      40.557  27.216  32.082  1.00  0.00     0.167 HD
ATOM     57  C   UNL A   1      41.965  29.265  34.840  1.00  0.00     0.074 A 
ATOM     58  C   UNL A   1      42.354  29.618  36.196  1.00  0.00     0.031 C 
ATOM     59  C   UNL A   1      42.138  28.144  34.085  1.00  0.00     0.031 A 
BRANCH  46  60
ATOM     60  C   UNL A   1      40.771  27.114  28.137  1.00  0.00    -0.014 A 
ATOM     61  C   UNL A   1      40.035  25.939  27.903  1.00  0.00     0.009 A 
ATOM     62  C   UNL A   1      41.701  27.464  27.137  1.00  0.00     0.009 A 
ATOM     63  C   UNL A   1      40.201  25.177  26.737  1.00  0.00     0.001 A 
ATOM     64  C   UNL A   1      41.852  26.724  25.955  1.00  0.00     0.001 A 
ATOM     65  C   UNL A   1      41.103  25.575  25.757  1.00  0.00     0.000 A 
ENDBRANCH  46  60
BRANCH  47  66
ATOM     66  C   UNL A   1      40.067  33.650  35.475  1.00  0.00    -0.014 A 
ATOM     67  C   UNL A   1      39.051  32.997  36.212  1.00  0.00     0.009 A 
ATOM     68  C   UNL A   1      40.346  34.991  35.785  1.00  0.00     0.009 A 
ATOM     69  C   UNL A   1      38.477  33.598  37.339  1.00  0.00     0.001 A 
ATOM     70  C   UNL A   1      39.761  35.589  36.913  1.00  0.00     0.001 A 
ATOM     71  C   UNL A   1      38.870  34.877  37.718  1.00  0.00     0.000 A 
ENDBRANCH  47  66
BRANCH  59  72
ATOM     72  C   UNL A   1      42.249  26.774  34.688  1.00  0.00    -0.014 A 
ATOM     73  C   UNL A   1      41.218  26.181  35.430  1.00  0.00     0.009 A 
ATOM     74  C   UNL A   1      43.345  25.956  34.348  1.00  0.00     0.009 A 
ATOM     75  C   UNL A   1      41.308  24.860  35.872  1.00  0.00     0.001 A 
ATOM     76  C   UNL A   1      43.408  24.618  34.731  1.00  0.00     0.001 A 
ATOM     77  C   UNL A   1      42.397  24.076  35.512  1.00  0.00     0.000 A 
ENDBRANCH  59  72
ENDBRANCH  33  34
ENDBRANCH  26  28
ENDBRANCH  25  26
ENDBRANCH  24  25
ENDBRANCH  23  24
ENDBRANCH  22  23
ENDBRANCH   1  22
TORSDOF 17
ENDMDL
MODEL 2
REMARK VINA RESULT:     -10.9      5.341     10.356
REMARK SMILES Cc1cccc(C(=O)OCCOCCOC(=O)c2ccc(-c3c4nc(c(-c5ccccc5)c5ccc([nH]5)c(-c5ccccc5)c5nc(c(-c6ccccc6)c6ccc3[nH]6)C=C5)C=C4)cc2)c1OC[C@@H]1C[C@H]2CC[C@@H]1C2
REMARK SMILES IDX 11 1 10 2 9 3 7 4 8 5 6 6 1 7 2 8 3 9 66 10 4 11 5 12 67 13
REMARK SMILES IDX 68 14 69 15 70 16 74 17 71 18 73 19 75 20 72 21 12 22 13 23
REMARK SMILES IDX 14 24 15 25 16 26 17 27 18 28 19 29 65 30 20 31 64 32 21 33
REMARK SMILES IDX 22 34 23 35 58 36 24 37 63 38 57 39 59 40 25 41 62 42 56 43
REMARK SMILES IDX 55 44 26 46 48 47 33 48 47 49 34 50 37 51 46 52 60 53 35 54
REMARK SMILES IDX 36 55 45 57 61 58 38 59 27 60 28 61 32 62 29 63 31 64 30 65
REMARK SMILES IDX 49 66 50 67 54 68 51 69 53 70 52 71 39 72 40 73 44 74 41 75
REMARK SMILES IDX 43 76 42 77
REMARK H PARENT 59 45 37 56
REMARK Flexibility Score: inf
ROOT
ATOM      1  C   UNL A   1      40.494  20.093  26.684  1.00  0.00     0.202 C 
ENDROOT
BRANCH   1   2
ATOM      2  C   UNL A   1      39.924  21.305  25.991  1.00  0.00     0.261 C 
BRANCH   2   3
ATOM      3  O   UNL A   1      38.698  21.033  25.283  1.00  0.00    -0.460 OA
BRANCH   3   4
ATOM      4  C   UNL A   1      37.623  21.823  25.523  1.00  0.00     0.342 C 
ATOM      5  O   UNL A   1      37.638  22.947  25.981  1.00  0.00    -0.246 OA
BRANCH   4   6
ATOM      6  C   UNL A   1      36.382  21.139  25.088  1.00  0.00     0.102 A 
ATOM      7  C   UNL A   1      32.585  21.470  25.149  1.00  0.00     0.048 C 
ATOM      8  C   UNL A   1      33.976  20.943  24.931  1.00  0.00    -0.008 A 
ATOM      9  C   UNL A   1      34.120  19.559  24.718  1.00  0.00     0.007 A 
ATOM     10  C   UNL A   1      35.112  21.757  25.063  1.00  0.00     0.136 A 
ATOM     11  C   UNL A   1      35.376  18.961  24.705  1.00  0.00     0.001 A 
ATOM     12  C   UNL A   1      36.504  19.747  24.899  1.00  0.00     0.019 A 
BRANCH  10  13
ATOM     13  O   UNL A   1      34.920  23.037  25.508  1.00  0.00    -0.492 OA
BRANCH  13  14
ATOM     14  C   UNL A   1      34.791  24.161  24.617  1.00  0.00     0.233 C 
BRANCH  14  15
ATOM     15  C   UNL A   1      33.534  25.039  24.602  1.00  0.00     0.030 C 
ATOM     16  C   UNL A   1      33.757  26.370  23.822  1.00  0.00     0.011 C 
ATOM     17  C   UNL A   1      33.136  25.583  25.996  1.00  0.00    -0.004 C 
ATOM     18  C   UNL A   1      33.270  27.452  24.806  1.00  0.00    -0.010 C 
ATOM     19  C   UNL A   1      31.672  26.035  25.922  1.00  0.00     0.004 C 
ATOM     20  C   UNL A   1      33.862  26.927  26.105  1.00  0.00     0.007 C 
ATOM     21  C   UNL A   1      31.757  27.297  25.054  1.00  0.00     0.004 C 
ENDBRANCH  14  15
ENDBRANCH  13  14
ENDBRANCH  10  13
ENDBRANCH   4   6
ENDBRANCH   3   4
ENDBRANCH   2   3
ENDBRANCH   1   2
BRANCH   1  22
ATOM     22  O   UNL A   1      41.426  19.500  25.794  1.00  0.00    -0.374 OA
BRANCH  22  23
ATOM     23  C   UNL A   1      42.467  18.753  26.394  1.00  0.00     0.202 C 
BRANCH  23  24
ATOM     24  C   UNL A   1      43.677  18.584  25.466  1.00  0.00     0.261 C 
BRANCH  24  25
ATOM     25  O   UNL A   1      43.840  19.759  24.638  1.00  0.00    -0.460 OA
BRANCH  25  26
ATOM     26  C   UNL A   1      44.709  20.703  25.099  1.00  0.00     0.338 C 
ATOM     27  O   UNL A   1      45.843  20.484  25.494  1.00  0.00    -0.246 OA
BRANCH  26  28
ATOM     28  C   UNL A   1      43.994  21.997  25.305  1.00  0.00     0.060 A 
ATOM     29  C   UNL A   1      44.054  23.009  24.326  1.00  0.00     0.016 A 
ATOM     30  C   UNL A   1      43.588  22.312  26.597  1.00  0.00     0.016 A 
ATOM     31  C   UNL A   1      43.886  24.356  24.690  1.00  0.00     0.010 A 
ATOM     32  C   UNL A   1      43.576  23.635  26.971  1.00  0.00     0.010 A 
ATOM     33  C   UNL A   1      43.749  24.672  26.037  1.00  0.00    -0.014 A 
BRANCH  33  34
ATOM     34  C   UNL A   1      43.796  26.005  26.651  1.00  0.00     0.031 A 
ATOM     35  C   UNL A   1      42.511  26.736  26.750  1.00  0.00     0.074 A 
ATOM     36  C   UNL A   1      44.841  26.383  27.432  1.00  0.00     0.049 A 
ATOM     37  N   UNL A   1      42.379  27.893  27.292  1.00  0.00    -0.248 NA
ATOM     38  C   UNL A   1      41.242  26.230  26.212  1.00  0.00     0.031 C 
ATOM     39  C   UNL A   1      44.819  27.244  28.622  1.00  0.00     0.029 A 
ATOM     40  N   UNL A   1      46.193  26.056  27.326  1.00  0.00    -0.354 N 
ATOM     41  C   UNL A   1      41.042  28.084  27.528  1.00  0.00     0.074 A 
ATOM     42  C   UNL A   1      40.368  27.102  26.721  1.00  0.00     0.031 C 
ATOM     43  C   UNL A   1      46.074  27.586  28.962  1.00  0.00     0.029 A 
ATOM     44  C   UNL A   1      46.947  27.086  27.916  1.00  0.00     0.049 A 
ATOM     45  H   UNL A   1      46.557  25.241  26.911  1.00  0.00     0.167 HD
ATOM     46  C   UNL A   1      40.685  28.962  28.501  1.00  0.00     0.031 A 
ATOM     47  C   UNL A   1      47.843  27.796  27.178  1.00  0.00     0.031 A 
ATOM     48  C   UNL A   1      41.846  29.728  28.966  1.00  0.00     0.049 A 
ATOM     49  C   UNL A   1      47.355  29.214  27.095  1.00  0.00     0.074 A 
ATOM     50  C   UNL A   1      42.595  29.714  30.130  1.00  0.00     0.029 A 
ATOM     51  N   UNL A   1      42.601  30.428  28.023  1.00  0.00    -0.354 N 
ATOM     52  N   UNL A   1      46.096  29.530  27.245  1.00  0.00    -0.248 NA
ATOM     53  C   UNL A   1      48.216  30.383  26.964  1.00  0.00     0.031 C 
ATOM     54  C   UNL A   1      43.856  30.316  29.836  1.00  0.00     0.029 A 
ATOM     55  C   UNL A   1      43.853  30.741  28.515  1.00  0.00     0.049 A 
ATOM     56  H   UNL A   1      42.282  30.667  27.124  1.00  0.00     0.167 HD
ATOM     57  C   UNL A   1      45.980  30.878  27.366  1.00  0.00     0.074 A 
ATOM     58  C   UNL A   1      47.323  31.379  27.119  1.00  0.00     0.031 C 
ATOM     59  C   UNL A   1      44.806  31.485  27.695  1.00  0.00     0.031 A 
BRANCH  46  60
ATOM     60  C   UNL A   1      39.326  29.008  29.157  1.00  0.00    -0.014 A 
ATOM     61  C   UNL A   1      38.260  29.630  28.483  1.00  0.00     0.009 A 
ATOM     62  C   UNL A   1      39.044  28.547  30.459  1.00  0.00     0.009 A 
ATOM     63  C   UNL A   1      36.990  29.764  29.065  1.00  0.00     0.001 A 
ATOM     64  C   UNL A   1      37.769  28.649  31.035  1.00  0.00     0.001 A 
ATOM     65  C   UNL A   1      36.741  29.263  30.337  1.00  0.00     0.000 A 
ENDBRANCH  46  60
BRANCH  47  66
ATOM     66  C   UNL A   1      48.467  26.942  26.116  1.00  0.00    -0.014 A 
ATOM     67  C   UNL A   1      48.035  27.176  24.789  1.00  0.00     0.009 A 
ATOM     68  C   UNL A   1      49.754  26.412  26.306  1.00  0.00     0.009 A 
ATOM     69  C   UNL A   1      48.924  27.069  23.711  1.00  0.00     0.001 A 
ATOM     70  C   UNL A   1      50.636  26.302  25.220  1.00  0.00     0.001 A 
ATOM     71  C   UNL A   1      50.240  26.679  23.936  1.00  0.00     0.000 A 
ENDBRANCH  47  66
BRANCH  59  72
ATOM     72  C   UNL A   1      44.485  32.894  27.289  1.00  0.00    -0.014 A 
ATOM     73  C   UNL A   1      44.199  33.261  25.967  1.00  0.00     0.009 A 
ATOM     74  C   UNL A   1      44.269  33.868  28.285  1.00  0.00     0.009 A 
ATOM     75  C   UNL A   1      43.787  34.555  25.645  1.00  0.00     0.001 A 
ATOM     76  C   UNL A   1      43.794  35.140  27.975  1.00  0.00     0.001 A 
ATOM     77  C   UNL A   1      43.572  35.490  26.651  1.00  0.00     0.000 A 
ENDBRANCH  59  72
ENDBRANCH  33  34
ENDBRANCH  26  28
ENDBRANCH  25  26
ENDBRANCH  24  25
ENDBRANCH  23  24
ENDBRANCH  22  23
ENDBRANCH   1  22
TORSDOF 17
ENDMDL
MODEL 3
REMARK VINA RESULT:     -10.7      3.354      8.800
REMARK SMILES Cc1cccc(C(=O)OCCOCCOC(=O)c2ccc(-c3c4nc(c(-c5ccccc5)c5ccc([nH]5)c(-c5ccccc5)c5nc(c(-c6ccccc6)c6ccc3[nH]6)C=C5)C=C4)cc2)c1OC[C@@H]1C[C@H]2CC[C@@H]1C2
REMARK SMILES IDX 11 1 10 2 9 3 7 4 8 5 6 6 1 7 2 8 3 9 66 10 4 11 5 12 67 13
REMARK SMILES IDX 68 14 69 15 70 16 74 17 71 18 73 19 75 20 72 21 12 22 13 23
REMARK SMILES IDX 14 24 15 25 16 26 17 27 18 28 19 29 65 30 20 31 64 32 21 33
REMARK SMILES IDX 22 34 23 35 58 36 24 37 63 38 57 39 59 40 25 41 62 42 56 43
REMARK SMILES IDX 55 44 26 46 48 47 33 48 47 49 34 50 37 51 46 52 60 53 35 54
REMARK SMILES IDX 36 55 45 57 61 58 38 59 27 60 28 61 32 62 29 63 31 64 30 65
REMARK SMILES IDX 49 66 50 67 54 68 51 69 53 70 52 71 39 72 40 73 44 74 41 75
REMARK SMILES IDX 43 76 42 77
REMARK H PARENT 59 45 37 56
REMARK Flexibility Score: inf
ROOT
ATOM      1  C   UNL A   1      30.038  25.304  23.782  1.00  0.00     0.202 C 
ENDROOT
BRANCH   1   2
ATOM      2  C   UNL A   1      31.002  24.654  22.821  1.00  0.00     0.261 C 
BRANCH   2   3
ATOM      3  O   UNL A   1      31.478  23.370  23.272  1.00  0.00    -0.460 OA
BRANCH   3   4
ATOM      4  C   UNL A   1      31.832  23.232  24.572  1.00  0.00     0.342 C 
ATOM      5  O   UNL A   1      31.095  22.970  25.500  1.00  0.00    -0.246 OA
BRANCH   4   6
ATOM      6  C   UNL A   1      33.299  23.390  24.719  1.00  0.00     0.102 A 
ATOM      7  C   UNL A   1      36.533  21.386  24.951  1.00  0.00     0.048 C 
ATOM      8  C   UNL A   1      35.546  22.519  24.933  1.00  0.00    -0.008 A 
ATOM      9  C   UNL A   1      35.942  23.735  25.521  1.00  0.00     0.007 A 
ATOM     10  C   UNL A   1      34.229  22.355  24.474  1.00  0.00     0.136 A 
ATOM     11  C   UNL A   1      35.030  24.766  25.725  1.00  0.00     0.001 A 
ATOM     12  C   UNL A   1      33.710  24.591  25.333  1.00  0.00     0.019 A 
BRANCH  10  13
ATOM     13  O   UNL A   1      33.833  21.089  24.140  1.00  0.00    -0.492 OA
BRANCH  13  14
ATOM     14  C   UNL A   1      33.099  20.238  25.040  1.00  0.00     0.233 C 
BRANCH  14  15
ATOM     15  C   UNL A   1      33.435  18.750  25.199  1.00  0.00     0.030 C 
ATOM     16  C   UNL A   1      34.666  18.330  24.341  1.00  0.00     0.011 C 
ATOM     17  C   UNL A   1      32.350  17.801  24.633  1.00  0.00    -0.004 C 
ATOM     18  C   UNL A   1      34.166  17.095  23.568  1.00  0.00    -0.010 C 
ATOM     19  C   UNL A   1      32.575  16.414  25.246  1.00  0.00     0.004 C 
ATOM     20  C   UNL A   1      32.771  17.562  23.180  1.00  0.00     0.007 C 
ATOM     21  C   UNL A   1      33.861  15.947  24.550  1.00  0.00     0.004 C 
ENDBRANCH  14  15
ENDBRANCH  13  14
ENDBRANCH  10  13
ENDBRANCH   4   6
ENDBRANCH   3   4
ENDBRANCH   2   3
ENDBRANCH   1   2
BRANCH   1  22
ATOM     22  O   UNL A   1      29.625  26.529  23.198  1.00  0.00    -0.374 OA
BRANCH  22  23
ATOM     23  C   UNL A   1      29.949  27.701  23.923  1.00  0.00     0.202 C 
BRANCH  23  24
ATOM     24  C   UNL A   1      31.430  27.752  24.323  1.00  0.00     0.261 C 
BRANCH  24  25
ATOM     25  O   UNL A   1      32.125  28.748  23.538  1.00  0.00    -0.460 OA
BRANCH  25  26
ATOM     26  C   UNL A   1      33.449  28.915  23.817  1.00  0.00     0.338 C 
ATOM     27  O   UNL A   1      34.363  28.745  23.026  1.00  0.00    -0.246 OA
BRANCH  26  28
ATOM     28  C   UNL A   1      33.644  29.074  25.289  1.00  0.00     0.060 A 
ATOM     29  C   UNL A   1      32.978  30.099  25.990  1.00  0.00     0.016 A 
ATOM     30  C   UNL A   1      34.741  28.445  25.866  1.00  0.00     0.016 A 
ATOM     31  C   UNL A   1      33.523  30.611  27.180  1.00  0.00     0.010 A 
ATOM     32  C   UNL A   1      35.347  29.050  26.943  1.00  0.00     0.010 A 
ATOM     33  C   UNL A   1      34.766  30.152  27.598  1.00  0.00    -0.014 A 
BRANCH  33  34
ATOM     34  C   UNL A   1      35.613  30.707  28.661  1.00  0.00     0.031 A 
ATOM     35  C   UNL A   1      35.335  32.102  29.073  1.00  0.00     0.074 A 
ATOM     36  C   UNL A   1      36.326  29.897  29.486  1.00  0.00     0.049 A 
ATOM     37  N   UNL A   1      35.962  32.716  30.010  1.00  0.00    -0.248 NA
ATOM     38  C   UNL A   1      34.324  32.954  28.434  1.00  0.00     0.031 C 
ATOM     39  C   UNL A   1      36.627  30.092  30.911  1.00  0.00     0.029 A 
ATOM     40  N   UNL A   1      36.947  28.677  29.216  1.00  0.00    -0.354 N 
ATOM     41  C   UNL A   1      35.215  33.815  30.350  1.00  0.00     0.074 A 
ATOM     42  C   UNL A   1      34.292  34.000  29.263  1.00  0.00     0.031 C 
ATOM     43  C   UNL A   1      37.562  29.210  31.306  1.00  0.00     0.029 A 
ATOM     44  C   UNL A   1      38.014  28.512  30.117  1.00  0.00     0.049 A 
ATOM     45  H   UNL A   1      36.681  28.039  28.514  1.00  0.00     0.167 HD
ATOM     46  C   UNL A   1      35.380  34.339  31.593  1.00  0.00     0.031 A 
ATOM     47  C   UNL A   1      39.291  28.396  29.661  1.00  0.00     0.031 A 
ATOM     48  C   UNL A   1      36.536  33.737  32.265  1.00  0.00     0.049 A 
ATOM     49  C   UNL A   1      40.061  29.598  30.130  1.00  0.00     0.074 A 
ATOM     50  C   UNL A   1      36.673  32.841  33.311  1.00  0.00     0.029 A 
ATOM     51  N   UNL A   1      37.775  33.779  31.621  1.00  0.00    -0.354 N 
ATOM     52  N   UNL A   1      39.478  30.727  30.433  1.00  0.00    -0.248 NA
ATOM     53  C   UNL A   1      41.491  29.611  30.410  1.00  0.00     0.031 C 
ATOM     54  C   UNL A   1      37.976  32.263  33.214  1.00  0.00     0.029 A 
ATOM     55  C   UNL A   1      38.645  32.844  32.146  1.00  0.00     0.049 A 
ATOM     56  H   UNL A   1      37.998  34.396  30.887  1.00  0.00     0.167 HD
ATOM     57  C   UNL A   1      40.369  31.544  31.050  1.00  0.00     0.074 A 
ATOM     58  C   UNL A   1      41.635  30.833  30.957  1.00  0.00     0.031 C 
ATOM     59  C   UNL A   1      40.006  32.724  31.626  1.00  0.00     0.031 A 
BRANCH  46  60
ATOM     60  C   UNL A   1      34.399  35.265  32.269  1.00  0.00    -0.014 A 
ATOM     61  C   UNL A   1      33.044  35.220  31.894  1.00  0.00     0.009 A 
ATOM     62  C   UNL A   1      34.743  36.260  33.207  1.00  0.00     0.009 A 
ATOM     63  C   UNL A   1      32.093  36.099  32.437  1.00  0.00     0.001 A 
ATOM     64  C   UNL A   1      33.794  37.121  33.776  1.00  0.00     0.001 A 
ATOM     65  C   UNL A   1      32.466  37.042  33.386  1.00  0.00     0.000 A 
ENDBRANCH  46  60
BRANCH  47  66
ATOM     66  C   UNL A   1      39.332  27.698  28.336  1.00  0.00    -0.014 A 
ATOM     67  C   UNL A   1      39.953  28.401  27.276  1.00  0.00     0.009 A 
ATOM     68  C   UNL A   1      39.323  26.295  28.279  1.00  0.00     0.009 A 
ATOM     69  C   UNL A   1      40.703  27.726  26.304  1.00  0.00     0.001 A 
ATOM     70  C   UNL A   1      40.072  25.626  27.298  1.00  0.00     0.001 A 
ATOM     71  C   UNL A   1      40.803  26.339  26.346  1.00  0.00     0.000 A 
ENDBRANCH  47  66
BRANCH  59  72
ATOM     72  C   UNL A   1      40.959  33.872  31.784  1.00  0.00    -0.014 A 
ATOM     73  C   UNL A   1      41.333  34.386  33.033  1.00  0.00     0.009 A 
ATOM     74  C   UNL A   1      41.666  34.344  30.660  1.00  0.00     0.009 A 
ATOM     75  C   UNL A   1      42.313  35.373  33.149  1.00  0.00     0.001 A 
ATOM     76  C   UNL A   1      42.690  35.281  30.778  1.00  0.00     0.001 A 
ATOM     77  C   UNL A   1      42.999  35.811  32.023  1.00  0.00     0.000 A 
ENDBRANCH  59  72
ENDBRANCH  33  34
ENDBRANCH  26  28
ENDBRANCH  25  26
ENDBRANCH  24  25
ENDBRANCH  23  24
ENDBRANCH  22  23
ENDBRANCH   1  22
TORSDOF 17
ENDMDL
