MODEL 1
REMARK VINA RESULT:     -10.6      0.000      0.000
REMARK SMILES C[C@H]1OCC[C@@H]1C(=O)Nc1sc2c(c1C(=O)OCCOCCOC(=O)c1ccc(-c3c4nc(c(-c5ccccc5)c5ccc([nH]5)c(-c5ccccc5)c5nc(c(-c6ccccc6)c6ccc3[nH]6)C=C5)C=C4)cc1)CCC2
REMARK SMILES IDX 20 1 19 2 18 3 17 4 15 5 16 6 14 7 10 8 11 9 12 10 13 11
REMARK SMILES IDX 76 12 74 13 75 14 9 15 7 16 8 17 6 19 1 20 2 21 3 22 4 23
REMARK SMILES IDX 5 24 21 25 22 26 23 27 24 28 25 29 26 30 27 31 73 32 28 33
REMARK SMILES IDX 72 34 29 35 30 36 31 37 66 38 32 39 71 40 65 41 67 42 33 43
REMARK SMILES IDX 70 44 64 45 63 46 34 48 56 49 41 50 55 51 42 52 45 53 54 54
REMARK SMILES IDX 68 55 43 56 44 57 53 59 69 60 46 61 35 62 36 63 40 64 37 65
REMARK SMILES IDX 39 66 38 67 57 68 58 69 62 70 59 71 61 72 60 73 47 74 48 75
REMARK SMILES IDX 52 76 49 77 51 78 50 79
REMARK H PARENT 9 18 67 47 45 58
REMARK Flexibility Score: inf
ROOT
ATOM      1  O   UNL A   1      38.841  22.953  26.062  1.00  0.00    -0.374 OA
ENDROOT
BRANCH   1   2
ATOM      2  C   UNL A   1      37.558  22.367  25.756  1.00  0.00     0.202 C 
BRANCH   2   3
ATOM      3  C   UNL A   1      36.369  23.342  25.899  1.00  0.00     0.261 C 
BRANCH   3   4
ATOM      4  O   UNL A   1      36.089  24.062  24.662  1.00  0.00    -0.460 OA
BRANCH   4   5
ATOM      5  C   UNL A   1      35.835  23.263  23.565  1.00  0.00     0.341 C 
ATOM      6  O   UNL A   1      36.660  23.045  22.686  1.00  0.00    -0.246 OA
BRANCH   5   7
ATOM      7  C   UNL A   1      34.499  22.648  23.557  1.00  0.00     0.098 A 
ATOM      8  C   UNL A   1      33.387  23.169  22.891  1.00  0.00     0.110 A 
ATOM      9  S   UNL A   1      31.903  22.400  23.283  1.00  0.00    -0.122 S 
ATOM     10  C   UNL A   1      32.742  21.197  24.066  1.00  0.00     0.011 A 
ATOM     11  C   UNL A   1      34.094  21.409  24.150  1.00  0.00    -0.017 A 
ATOM     12  C   UNL A   1      32.268  19.926  24.653  1.00  0.00     0.047 C 
ATOM     13  C   UNL A   1      34.744  20.260  24.834  1.00  0.00     0.038 C 
ATOM     14  C   UNL A   1      33.618  19.170  24.797  1.00  0.00     0.010 C 
BRANCH   8  15
ATOM     15  N   UNL A   1      33.215  24.230  22.031  1.00  0.00    -0.317 N 
ATOM     16  C   UNL A   1      33.339  25.536  22.439  1.00  0.00     0.230 C 
ATOM     17  O   UNL A   1      33.876  26.326  21.652  1.00  0.00    -0.274 OA
ATOM     18  H   UNL A   1      32.995  24.047  21.090  1.00  0.00     0.170 HD
BRANCH  16  19
ATOM     19  C   UNL A   1      32.786  26.084  23.750  1.00  0.00     0.110 C 
ATOM     20  C   UNL A   1      30.616  26.878  24.734  1.00  0.00     0.039 C 
ATOM     21  C   UNL A   1      31.717  27.162  23.706  1.00  0.00     0.127 C 
ATOM     22  O   UNL A   1      32.323  28.402  24.110  1.00  0.00    -0.378 OA
ATOM     23  C   UNL A   1      33.532  28.117  24.803  1.00  0.00     0.161 C 
ATOM     24  C   UNL A   1      33.783  26.627  24.712  1.00  0.00     0.044 C 
ENDBRANCH  16  19
ENDBRANCH   8  15
ENDBRANCH   5   7
ENDBRANCH   4   5
ENDBRANCH   3   4
ENDBRANCH   2   3
ENDBRANCH   1   2
BRANCH   1  25
ATOM     25  C   UNL A   1      39.721  22.096  26.777  1.00  0.00     0.202 C 
BRANCH  25  26
ATOM     26  C   UNL A   1      41.076  21.829  26.125  1.00  0.00     0.261 C 
BRANCH  26  27
ATOM     27  O   UNL A   1      42.058  22.629  26.766  1.00  0.00    -0.460 OA
BRANCH  27  28
ATOM     28  C   UNL A   1      42.351  23.774  26.123  1.00  0.00     0.338 C 
ATOM     29  O   UNL A   1      43.063  23.932  25.139  1.00  0.00    -0.246 OA
BRANCH  28  30
ATOM     30  C   UNL A   1      41.831  24.850  26.956  1.00  0.00     0.060 A 
ATOM     31  C   UNL A   1      40.962  25.709  26.301  1.00  0.00     0.016 A 
ATOM     32  C   UNL A   1      42.398  25.153  28.209  1.00  0.00     0.016 A 
ATOM     33  C   UNL A   1      40.845  26.978  26.795  1.00  0.00     0.010 A 
ATOM     34  C   UNL A   1      42.262  26.425  28.716  1.00  0.00     0.010 A 
ATOM     35  C   UNL A   1      41.548  27.342  27.959  1.00  0.00    -0.014 A 
BRANCH  35  36
ATOM     36  C   UNL A   1      41.322  28.696  28.406  1.00  0.00     0.031 A 
ATOM     37  C   UNL A   1      42.472  29.564  28.076  1.00  0.00     0.074 A 
ATOM     38  C   UNL A   1      40.250  29.110  29.098  1.00  0.00     0.049 A 
ATOM     39  N   UNL A   1      43.361  30.007  28.899  1.00  0.00    -0.248 NA
ATOM     40  C   UNL A   1      42.800  29.747  26.655  1.00  0.00     0.031 C 
ATOM     41  C   UNL A   1      38.954  28.466  29.293  1.00  0.00     0.029 A 
ATOM     42  N   UNL A   1      40.108  30.298  29.738  1.00  0.00    -0.354 N 
ATOM     43  C   UNL A   1      44.295  30.668  28.116  1.00  0.00     0.074 A 
ATOM     44  C   UNL A   1      43.989  30.341  26.746  1.00  0.00     0.031 C 
ATOM     45  C   UNL A   1      38.086  29.379  29.797  1.00  0.00     0.029 A 
ATOM     46  C   UNL A   1      38.808  30.608  30.091  1.00  0.00     0.049 A 
ATOM     47  H   UNL A   1      40.869  30.891  29.935  1.00  0.00     0.167 HD
ATOM     48  C   UNL A   1      45.101  31.624  28.648  1.00  0.00     0.031 A 
ATOM     49  C   UNL A   1      38.380  31.823  30.514  1.00  0.00     0.031 A 
ATOM     50  C   UNL A   1      45.208  31.494  30.079  1.00  0.00     0.049 A 
ATOM     51  C   UNL A   1      39.566  32.577  30.993  1.00  0.00     0.074 A 
ATOM     52  C   UNL A   1      45.691  30.516  30.929  1.00  0.00     0.029 A 
ATOM     53  N   UNL A   1      44.409  32.302  30.852  1.00  0.00    -0.354 N 
ATOM     54  N   UNL A   1      40.213  32.276  32.080  1.00  0.00    -0.248 NA
ATOM     55  C   UNL A   1      40.305  33.382  30.031  1.00  0.00     0.031 C 
ATOM     56  C   UNL A   1      44.794  30.511  32.038  1.00  0.00     0.029 A 
ATOM     57  C   UNL A   1      43.853  31.521  31.833  1.00  0.00     0.049 A 
ATOM     58  H   UNL A   1      44.263  33.267  30.725  1.00  0.00     0.167 HD
ATOM     59  C   UNL A   1      41.550  32.461  31.761  1.00  0.00     0.074 A 
ATOM     60  C   UNL A   1      41.540  33.233  30.519  1.00  0.00     0.031 C 
ATOM     61  C   UNL A   1      42.530  31.733  32.375  1.00  0.00     0.031 A 
BRANCH  48  62
ATOM     62  C   UNL A   1      45.366  32.915  27.917  1.00  0.00    -0.014 A 
ATOM     63  C   UNL A   1      44.279  33.759  27.633  1.00  0.00     0.009 A 
ATOM     64  C   UNL A   1      46.573  33.191  27.243  1.00  0.00     0.009 A 
ATOM     65  C   UNL A   1      44.370  34.752  26.653  1.00  0.00     0.001 A 
ATOM     66  C   UNL A   1      46.679  34.205  26.291  1.00  0.00     0.001 A 
ATOM     67  C   UNL A   1      45.565  34.965  25.971  1.00  0.00     0.000 A 
ENDBRANCH  48  62
BRANCH  49  68
ATOM     68  C   UNL A   1      37.092  32.495  30.246  1.00  0.00    -0.014 A 
ATOM     69  C   UNL A   1      36.787  32.953  28.954  1.00  0.00     0.009 A 
ATOM     70  C   UNL A   1      36.042  32.421  31.180  1.00  0.00     0.009 A 
ATOM     71  C   UNL A   1      35.471  33.273  28.596  1.00  0.00     0.001 A 
ATOM     72  C   UNL A   1      34.730  32.745  30.824  1.00  0.00     0.001 A 
ATOM     73  C   UNL A   1      34.441  33.153  29.526  1.00  0.00     0.000 A 
ENDBRANCH  49  68
BRANCH  61  74
ATOM     74  C   UNL A   1      42.141  30.894  33.568  1.00  0.00    -0.014 A 
ATOM     75  C   UNL A   1      42.146  31.380  34.889  1.00  0.00     0.009 A 
ATOM     76  C   UNL A   1      41.628  29.609  33.337  1.00  0.00     0.009 A 
ATOM     77  C   UNL A   1      41.689  30.586  35.947  1.00  0.00     0.001 A 
ATOM     78  C   UNL A   1      41.151  28.826  34.390  1.00  0.00     0.001 A 
ATOM     79  C   UNL A   1      41.189  29.310  35.695  1.00  0.00     0.000 A 
ENDBRANCH  61  74
ENDBRANCH  35  36
ENDBRANCH  28  30
ENDBRANCH  27  28
ENDBRANCH  26  27
ENDBRANCH  25  26
ENDBRANCH   1  25
TORSDOF 16
ENDMDL
MODEL 2
REMARK VINA RESULT:     -10.5      1.732      3.624
REMARK SMILES C[C@H]1OCC[C@@H]1C(=O)Nc1sc2c(c1C(=O)OCCOCCOC(=O)c1ccc(-c3c4nc(c(-c5ccccc5)c5ccc([nH]5)c(-c5ccccc5)c5nc(c(-c6ccccc6)c6ccc3[nH]6)C=C5)C=C4)cc1)CCC2
REMARK SMILES IDX 20 1 19 2 18 3 17 4 15 5 16 6 14 7 10 8 11 9 12 10 13 11
REMARK SMILES IDX 76 12 74 13 75 14 9 15 7 16 8 17 6 19 1 20 2 21 3 22 4 23
REMARK SMILES IDX 5 24 21 25 22 26 23 27 24 28 25 29 26 30 27 31 73 32 28 33
REMARK SMILES IDX 72 34 29 35 30 36 31 37 66 38 32 39 71 40 65 41 67 42 33 43
REMARK SMILES IDX 70 44 64 45 63 46 34 48 56 49 41 50 55 51 42 52 45 53 54 54
REMARK SMILES IDX 68 55 43 56 44 57 53 59 69 60 46 61 35 62 36 63 40 64 37 65
REMARK SMILES IDX 39 66 38 67 57 68 58 69 62 70 59 71 61 72 60 73 47 74 48 75
REMARK SMILES IDX 52 76 49 77 51 78 50 79
REMARK H PARENT 9 18 67 47 45 58
REMARK Flexibility Score: inf
ROOT
ATOM      1  O   UNL A   1      38.698  23.054  26.141  1.00  0.00    -0.374 OA
ENDROOT
BRANCH   1   2
ATOM      2  C   UNL A   1      37.264  23.130  26.007  1.00  0.00     0.202 C 
BRANCH   2   3
ATOM      3  C   UNL A   1      36.604  21.819  25.527  1.00  0.00     0.261 C 
BRANCH   3   4
ATOM      4  O   UNL A   1      35.514  21.394  26.397  1.00  0.00    -0.460 OA
BRANCH   4   5
ATOM      5  C   UNL A   1      34.536  22.344  26.616  1.00  0.00     0.341 C 
ATOM      6  O   UNL A   1      34.401  22.937  27.679  1.00  0.00    -0.246 OA
BRANCH   5   7
ATOM      7  C   UNL A   1      33.690  22.627  25.447  1.00  0.00     0.098 A 
ATOM      8  C   UNL A   1      32.648  21.810  25.002  1.00  0.00     0.110 A 
ATOM      9  S   UNL A   1      32.021  22.239  23.463  1.00  0.00    -0.122 S 
ATOM     10  C   UNL A   1      32.877  23.662  23.518  1.00  0.00     0.011 A 
ATOM     11  C   UNL A   1      33.716  23.779  24.597  1.00  0.00    -0.017 A 
ATOM     12  C   UNL A   1      32.855  24.829  22.611  1.00  0.00     0.047 C 
ATOM     13  C   UNL A   1      34.401  25.098  24.564  1.00  0.00     0.038 C 
ATOM     14  C   UNL A   1      33.552  25.889  23.510  1.00  0.00     0.010 C 
BRANCH   8  15
ATOM     15  N   UNL A   1      32.058  20.674  25.509  1.00  0.00    -0.317 N 
ATOM     16  C   UNL A   1      32.598  19.423  25.333  1.00  0.00     0.230 C 
ATOM     17  O   UNL A   1      32.522  18.635  26.284  1.00  0.00    -0.274 OA
ATOM     18  H   UNL A   1      31.220  20.761  26.016  1.00  0.00     0.170 HD
BRANCH  16  19
ATOM     19  C   UNL A   1      33.201  18.923  24.025  1.00  0.00     0.110 C 
ATOM     20  C   UNL A   1      32.507  18.397  21.669  1.00  0.00     0.039 C 
ATOM     21  C   UNL A   1      32.383  17.995  23.143  1.00  0.00     0.127 C 
ATOM     22  O   UNL A   1      32.952  16.678  23.241  1.00  0.00    -0.378 OA
ATOM     23  C   UNL A   1      34.277  16.787  23.746  1.00  0.00     0.161 C 
ATOM     24  C   UNL A   1      34.516  18.233  24.125  1.00  0.00     0.044 C 
ENDBRANCH  16  19
ENDBRANCH   8  15
ENDBRANCH   5   7
ENDBRANCH   4   5
ENDBRANCH   3   4
ENDBRANCH   2   3
ENDBRANCH   1   2
BRANCH   1  25
ATOM     25  C   UNL A   1      39.222  21.734  26.095  1.00  0.00     0.202 C 
BRANCH  25  26
ATOM     26  C   UNL A   1      40.410  21.449  27.012  1.00  0.00     0.261 C 
BRANCH  26  27
ATOM     27  O   UNL A   1      40.868  22.676  27.561  1.00  0.00    -0.460 OA
BRANCH  27  28
ATOM     28  C   UNL A   1      42.081  23.063  27.127  1.00  0.00     0.338 C 
ATOM     29  O   UNL A   1      43.057  22.367  26.879  1.00  0.00    -0.246 OA
BRANCH  28  30
ATOM     30  C   UNL A   1      42.095  24.517  27.212  1.00  0.00     0.060 A 
ATOM     31  C   UNL A   1      42.738  25.016  28.335  1.00  0.00     0.016 A 
ATOM     32  C   UNL A   1      41.271  25.313  26.392  1.00  0.00     0.016 A 
ATOM     33  C   UNL A   1      42.367  26.257  28.770  1.00  0.00     0.010 A 
ATOM     34  C   UNL A   1      40.915  26.572  26.821  1.00  0.00     0.010 A 
ATOM     35  C   UNL A   1      41.411  26.994  28.045  1.00  0.00    -0.014 A 
BRANCH  35  36
ATOM     36  C   UNL A   1      41.122  28.304  28.580  1.00  0.00     0.031 A 
ATOM     37  C   UNL A   1      42.195  29.264  28.244  1.00  0.00     0.074 A 
ATOM     38  C   UNL A   1      40.065  28.607  29.347  1.00  0.00     0.049 A 
ATOM     39  N   UNL A   1      43.096  29.721  29.047  1.00  0.00    -0.248 NA
ATOM     40  C   UNL A   1      42.434  29.545  26.821  1.00  0.00     0.031 C 
ATOM     41  C   UNL A   1      38.824  27.867  29.569  1.00  0.00     0.029 A 
ATOM     42  N   UNL A   1      39.880  29.745  30.061  1.00  0.00    -0.354 N 
ATOM     43  C   UNL A   1      43.942  30.484  28.257  1.00  0.00     0.074 A 
ATOM     44  C   UNL A   1      43.585  30.212  26.887  1.00  0.00     0.031 C 
ATOM     45  C   UNL A   1      37.927  28.691  30.167  1.00  0.00     0.029 A 
ATOM     46  C   UNL A   1      38.584  29.948  30.495  1.00  0.00     0.049 A 
ATOM     47  H   UNL A   1      40.611  30.377  30.254  1.00  0.00     0.167 HD
ATOM     48  C   UNL A   1      44.712  31.462  28.802  1.00  0.00     0.031 A 
ATOM     49  C   UNL A   1      38.101  31.107  31.008  1.00  0.00     0.031 A 
ATOM     50  C   UNL A   1      44.904  31.262  30.217  1.00  0.00     0.049 A 
ATOM     51  C   UNL A   1      39.260  31.911  31.471  1.00  0.00     0.074 A 
ATOM     52  C   UNL A   1      45.493  30.274  30.984  1.00  0.00     0.029 A 
ATOM     53  N   UNL A   1      44.097  31.971  31.074  1.00  0.00    -0.354 N 
ATOM     54  N   UNL A   1      39.982  31.596  32.505  1.00  0.00    -0.248 NA
ATOM     55  C   UNL A   1      39.893  32.816  30.521  1.00  0.00     0.031 C 
ATOM     56  C   UNL A   1      44.659  30.149  32.134  1.00  0.00     0.029 A 
ATOM     57  C   UNL A   1      43.645  31.103  32.034  1.00  0.00     0.049 A 
ATOM     58  H   UNL A   1      43.882  32.930  31.010  1.00  0.00     0.167 HD
ATOM     59  C   UNL A   1      41.285  31.888  32.131  1.00  0.00     0.074 A 
ATOM     60  C   UNL A   1      41.160  32.724  30.937  1.00  0.00     0.031 C 
ATOM     61  C   UNL A   1      42.342  31.196  32.653  1.00  0.00     0.031 A 
BRANCH  48  62
ATOM     62  C   UNL A   1      44.854  32.806  28.135  1.00  0.00    -0.014 A 
ATOM     63  C   UNL A   1      43.703  33.593  27.964  1.00  0.00     0.009 A 
ATOM     64  C   UNL A   1      45.999  33.195  27.411  1.00  0.00     0.009 A 
ATOM     65  C   UNL A   1      43.675  34.642  27.040  1.00  0.00     0.001 A 
ATOM     66  C   UNL A   1      45.986  34.265  26.516  1.00  0.00     0.001 A 
ATOM     67  C   UNL A   1      44.811  34.968  26.305  1.00  0.00     0.000 A 
ENDBRANCH  48  62
BRANCH  49  68
ATOM     68  C   UNL A   1      36.760  31.704  30.844  1.00  0.00    -0.014 A 
ATOM     69  C   UNL A   1      36.072  32.215  31.956  1.00  0.00     0.009 A 
ATOM     70  C   UNL A   1      36.284  32.046  29.565  1.00  0.00     0.009 A 
ATOM     71  C   UNL A   1      34.981  33.079  31.794  1.00  0.00     0.001 A 
ATOM     72  C   UNL A   1      35.191  32.903  29.403  1.00  0.00     0.001 A 
ATOM     73  C   UNL A   1      34.552  33.435  30.518  1.00  0.00     0.000 A 
ENDBRANCH  49  68
BRANCH  61  74
ATOM     74  C   UNL A   1      42.072  30.269  33.814  1.00  0.00    -0.014 A 
ATOM     75  C   UNL A   1      41.673  28.929  33.655  1.00  0.00     0.009 A 
ATOM     76  C   UNL A   1      42.354  30.727  35.109  1.00  0.00     0.009 A 
ATOM     77  C   UNL A   1      41.523  28.089  34.764  1.00  0.00     0.001 A 
ATOM     78  C   UNL A   1      42.227  29.882  36.214  1.00  0.00     0.001 A 
ATOM     79  C   UNL A   1      41.803  28.566  36.043  1.00  0.00     0.000 A 
ENDBRANCH  61  74
ENDBRANCH  35  36
ENDBRANCH  28  30
ENDBRANCH  27  28
ENDBRANCH  26  27
ENDBRANCH  25  26
ENDBRANCH   1  25
TORSDOF 16
ENDMDL
MODEL 3
REMARK VINA RESULT:     -10.4      2.017      2.817
REMARK SMILES C[C@H]1OCC[C@@H]1C(=O)Nc1sc2c(c1C(=O)OCCOCCOC(=O)c1ccc(-c3c4nc(c(-c5ccccc5)c5ccc([nH]5)c(-c5ccccc5)c5nc(c(-c6ccccc6)c6ccc3[nH]6)C=C5)C=C4)cc1)CCC2
REMARK SMILES IDX 20 1 19 2 18 3 17 4 15 5 16 6 14 7 10 8 11 9 12 10 13 11
REMARK SMILES IDX 76 12 74 13 75 14 9 15 7 16 8 17 6 19 1 20 2 21 3 22 4 23
REMARK SMILES IDX 5 24 21 25 22 26 23 27 24 28 25 29 26 30 27 31 73 32 28 33
REMARK SMILES IDX 72 34 29 35 30 36 31 37 66 38 32 39 71 40 65 41 67 42 33 43
REMARK SMILES IDX 70 44 64 45 63 46 34 48 56 49 41 50 55 51 42 52 45 53 54 54
REMARK SMILES IDX 68 55 43 56 44 57 53 59 69 60 46 61 35 62 36 63 40 64 37 65
REMARK SMILES IDX 39 66 38 67 57 68 58 69 62 70 59 71 61 72 60 73 47 74 48 75
REMARK SMILES IDX 52 76 49 77 51 78 50 79
REMARK H PARENT 9 18 67 47 45 58
REMARK Flexibility Score: inf
ROOT
ATOM      1  O   UNL A   1      36.992  22.464  25.756  1.00  0.00    -0.374 OA
ENDROOT
BRANCH   1   2
ATOM      2  C   UNL A   1      36.610  23.457  24.781  1.00  0.00     0.202 C 
BRANCH   2   3
ATOM      3  C   UNL A   1      35.689  22.920  23.663  1.00  0.00     0.261 C 
BRANCH   3   4
ATOM      4  O   UNL A   1      35.183  23.982  22.802  1.00  0.00    -0.460 OA
BRANCH   4   5
ATOM      5  C   UNL A   1      33.808  24.040  22.690  1.00  0.00     0.341 C 
ATOM      6  O   UNL A   1      33.204  23.748  21.665  1.00  0.00    -0.246 OA
BRANCH   5   7
ATOM      7  C   UNL A   1      33.113  24.436  23.924  1.00  0.00     0.098 A 
ATOM      8  C   UNL A   1      33.020  25.746  24.399  1.00  0.00     0.110 A 
ATOM      9  S   UNL A   1      32.400  25.878  25.994  1.00  0.00    -0.122 S 
ATOM     10  C   UNL A   1      31.959  24.276  25.947  1.00  0.00     0.011 A 
ATOM     11  C   UNL A   1      32.366  23.607  24.822  1.00  0.00    -0.017 A 
ATOM     12  C   UNL A   1      31.173  23.471  26.906  1.00  0.00     0.047 C 
ATOM     13  C   UNL A   1      31.889  22.200  24.869  1.00  0.00     0.038 C 
ATOM     14  C   UNL A   1      30.817  22.250  26.012  1.00  0.00     0.010 C 
BRANCH   8  15
ATOM     15  N   UNL A   1      33.394  26.965  23.881  1.00  0.00    -0.317 N 
ATOM     16  C   UNL A   1      32.677  28.114  24.112  1.00  0.00     0.230 C 
ATOM     17  O   UNL A   1      33.321  29.157  24.285  1.00  0.00    -0.274 OA
ATOM     18  H   UNL A   1      34.204  27.016  23.325  1.00  0.00     0.170 HD
BRANCH  16  19
ATOM     19  C   UNL A   1      31.155  28.200  24.082  1.00  0.00     0.110 C 
ATOM     20  C   UNL A   1      29.162  26.761  23.568  1.00  0.00     0.039 C 
ATOM     21  C   UNL A   1      30.396  27.465  22.991  1.00  0.00     0.127 C 
ATOM     22  O   UNL A   1      29.894  28.444  22.065  1.00  0.00    -0.378 OA
ATOM     23  C   UNL A   1      29.900  29.717  22.698  1.00  0.00     0.161 C 
ATOM     24  C   UNL A   1      30.572  29.568  24.046  1.00  0.00     0.044 C 
ENDBRANCH  16  19
ENDBRANCH   8  15
ENDBRANCH   5   7
ENDBRANCH   4   5
ENDBRANCH   3   4
ENDBRANCH   2   3
ENDBRANCH   1   2
BRANCH   1  25
ATOM     25  C   UNL A   1      37.673  21.341  25.215  1.00  0.00     0.202 C 
BRANCH  25  26
ATOM     26  C   UNL A   1      39.010  20.988  25.861  1.00  0.00     0.261 C 
BRANCH  26  27
ATOM     27  O   UNL A   1      39.815  22.156  25.913  1.00  0.00    -0.460 OA
BRANCH  27  28
ATOM     28  C   UNL A   1      40.408  22.374  27.101  1.00  0.00     0.338 C 
ATOM     29  O   UNL A   1      40.649  21.567  27.989  1.00  0.00    -0.246 OA
BRANCH  28  30
ATOM     30  C   UNL A   1      40.522  23.820  27.236  1.00  0.00     0.060 A 
ATOM     31  C   UNL A   1      41.649  24.241  27.926  1.00  0.00     0.016 A 
ATOM     32  C   UNL A   1      39.438  24.675  26.957  1.00  0.00     0.016 A 
ATOM     33  C   UNL A   1      41.586  25.459  28.543  1.00  0.00     0.010 A 
ATOM     34  C   UNL A   1      39.387  25.910  27.562  1.00  0.00     0.010 A 
ATOM     35  C   UNL A   1      40.430  26.251  28.409  1.00  0.00    -0.014 A 
BRANCH  35  36
ATOM     36  C   UNL A   1      40.491  27.531  29.076  1.00  0.00     0.031 A 
ATOM     37  C   UNL A   1      41.481  28.420  28.432  1.00  0.00     0.074 A 
ATOM     38  C   UNL A   1      39.804  27.856  30.182  1.00  0.00     0.049 A 
ATOM     39  N   UNL A   1      42.648  28.726  28.888  1.00  0.00    -0.248 NA
ATOM     40  C   UNL A   1      41.243  28.801  27.033  1.00  0.00     0.031 C 
ATOM     41  C   UNL A   1      38.643  27.210  30.788  1.00  0.00     0.029 A 
ATOM     42  N   UNL A   1      40.005  28.941  30.970  1.00  0.00    -0.354 N 
ATOM     43  C   UNL A   1      43.249  29.479  27.890  1.00  0.00     0.074 A 
ATOM     44  C   UNL A   1      42.413  29.357  26.722  1.00  0.00     0.031 C 
ATOM     45  C   UNL A   1      38.105  28.054  31.705  1.00  0.00     0.029 A 
ATOM     46  C   UNL A   1      38.970  29.217  31.843  1.00  0.00     0.049 A 
ATOM     47  H   UNL A   1      40.823  29.488  30.925  1.00  0.00     0.167 HD
ATOM     48  C   UNL A   1      44.263  30.337  28.177  1.00  0.00     0.031 A 
ATOM     49  C   UNL A   1      38.826  30.365  32.551  1.00  0.00     0.031 A 
ATOM     50  C   UNL A   1      44.908  30.000  29.421  1.00  0.00     0.049 A 
ATOM     51  C   UNL A   1      40.154  31.024  32.615  1.00  0.00     0.074 A 
ATOM     52  C   UNL A   1      45.613  28.903  29.881  1.00  0.00     0.029 A 
ATOM     53  N   UNL A   1      44.531  30.700  30.542  1.00  0.00    -0.354 N 
ATOM     54  N   UNL A   1      41.150  30.560  33.312  1.00  0.00    -0.248 NA
ATOM     55  C   UNL A   1      40.516  31.948  31.550  1.00  0.00     0.031 C 
ATOM     56  C   UNL A   1      45.219  28.752  31.243  1.00  0.00     0.029 A 
ATOM     57  C   UNL A   1      44.346  29.795  31.555  1.00  0.00     0.049 A 
ATOM     58  H   UNL A   1      44.415  31.675  30.607  1.00  0.00     0.167 HD
ATOM     59  C   UNL A   1      42.267  30.769  32.517  1.00  0.00     0.074 A 
ATOM     60  C   UNL A   1      41.830  31.712  31.488  1.00  0.00     0.031 C 
ATOM     61  C   UNL A   1      43.356  29.946  32.598  1.00  0.00     0.031 A 
BRANCH  48  62
ATOM     62  C   UNL A   1      44.314  31.716  27.571  1.00  0.00    -0.014 A 
ATOM     63  C   UNL A   1      45.194  31.943  26.501  1.00  0.00     0.009 A 
ATOM     64  C   UNL A   1      43.765  32.856  28.191  1.00  0.00     0.009 A 
ATOM     65  C   UNL A   1      45.581  33.239  26.145  1.00  0.00     0.001 A 
ATOM     66  C   UNL A   1      44.118  34.152  27.815  1.00  0.00     0.001 A 
ATOM     67  C   UNL A   1      45.055  34.342  26.812  1.00  0.00     0.000 A 
ENDBRANCH  48  62
BRANCH  49  68
ATOM     68  C   UNL A   1      37.585  31.087  32.900  1.00  0.00    -0.014 A 
ATOM     69  C   UNL A   1      37.538  31.898  34.046  1.00  0.00     0.009 A 
ATOM     70  C   UNL A   1      36.550  31.223  31.958  1.00  0.00     0.009 A 
ATOM     71  C   UNL A   1      36.521  32.847  34.215  1.00  0.00     0.001 A 
ATOM     72  C   UNL A   1      35.531  32.165  32.129  1.00  0.00     0.001 A 
ATOM     73  C   UNL A   1      35.528  32.991  33.249  1.00  0.00     0.000 A 
ENDBRANCH  49  68
BRANCH  61  74
ATOM     74  C   UNL A   1      43.402  28.950  33.731  1.00  0.00    -0.014 A 
ATOM     75  C   UNL A   1      42.732  27.713  33.700  1.00  0.00     0.009 A 
ATOM     76  C   UNL A   1      44.256  29.213  34.812  1.00  0.00     0.009 A 
ATOM     77  C   UNL A   1      42.883  26.789  34.740  1.00  0.00     0.001 A 
ATOM     78  C   UNL A   1      44.424  28.282  35.839  1.00  0.00     0.001 A 
ATOM     79  C   UNL A   1      43.731  27.074  35.807  1.00  0.00     0.000 A 
ENDBRANCH  61  74
ENDBRANCH  35  36
ENDBRANCH  28  30
ENDBRANCH  27  28
ENDBRANCH  26  27
ENDBRANCH  25  26
ENDBRANCH   1  25
TORSDOF 16
ENDMDL
