MODEL 1
REMARK VINA RESULT:     -10.2      0.000      0.000
REMARK SMILES C[C@@H](c1ccccc1)[C@@H](CC(=O)Nc1ccccc1I)C(=O)OCCOCCOC(=O)c1ccc(-c2c3nc(c(-c4ccccc4)c4ccc([nH]4)c(-c4ccccc4)c4nc(c(-c5ccccc5)c5ccc2[nH]5)C=C4)C=C3)cc1
REMARK SMILES IDX 25 1 24 2 23 3 21 4 22 5 9 6 2 7 1 8 3 9 4 10 8 11 5 12 7 13
REMARK SMILES IDX 6 14 10 15 11 16 12 17 13 18 14 20 15 21 19 22 16 23 18 24
REMARK SMILES IDX 20 25 17 26 26 27 27 28 28 29 29 30 30 31 31 32 32 33 33 34
REMARK SMILES IDX 79 35 34 36 78 37 35 38 36 39 37 40 72 41 38 42 77 43 71 44
REMARK SMILES IDX 73 45 39 46 76 47 70 48 69 49 40 51 62 52 47 53 61 54 48 55
REMARK SMILES IDX 51 56 60 57 74 58 49 59 50 60 59 62 75 63 52 64 41 65 42 66
REMARK SMILES IDX 46 67 43 68 45 69 44 70 63 71 64 72 68 73 65 74 67 75 66 76
REMARK SMILES IDX 53 77 54 78 58 79 55 80 57 81 56 82
REMARK H PARENT 13 19 73 50 51 61
REMARK Flexibility Score: inf
ROOT
ATOM      1  C   UNL A   1      37.037  22.023  24.668  1.00  0.00     0.202 C 
ENDROOT
BRANCH   1   2
ATOM      2  C   UNL A   1      35.757  21.337  25.140  1.00  0.00     0.261 C 
BRANCH   2   3
ATOM      3  O   UNL A   1      34.985  22.148  26.057  1.00  0.00    -0.463 OA
BRANCH   3   4
ATOM      4  C   UNL A   1      33.644  22.112  25.864  1.00  0.00     0.310 C 
ATOM      5  O   UNL A   1      32.939  21.126  26.054  1.00  0.00    -0.252 OA
BRANCH   4   6
ATOM      6  C   UNL A   1      33.078  23.387  25.266  1.00  0.00     0.116 C 
BRANCH   6   7
ATOM      7  C   UNL A   1      33.652  23.906  23.932  1.00  0.00     0.031 C 
ATOM      8  C   UNL A   1      33.276  22.922  22.797  1.00  0.00     0.013 C 
BRANCH   7   9
ATOM      9  C   UNL A   1      33.408  25.327  23.429  1.00  0.00    -0.044 A 
ATOM     10  C   UNL A   1      32.955  25.605  22.130  1.00  0.00     0.004 A 
ATOM     11  C   UNL A   1      33.909  26.399  24.189  1.00  0.00     0.004 A 
ATOM     12  C   UNL A   1      33.105  26.883  21.577  1.00  0.00     0.000 A 
ATOM     13  C   UNL A   1      34.052  27.675  23.639  1.00  0.00     0.000 A 
ATOM     14  C   UNL A   1      33.671  27.912  22.325  1.00  0.00     0.000 A 
ENDBRANCH   7   9
ENDBRANCH   6   7
BRANCH   6  15
ATOM     15  C   UNL A   1      31.522  23.364  25.298  1.00  0.00     0.116 C 
BRANCH  15  16
ATOM     16  C   UNL A   1      30.767  24.052  26.434  1.00  0.00     0.225 C 
ATOM     17  O   UNL A   1      30.269  23.379  27.342  1.00  0.00    -0.275 OA
ATOM     18  N   UNL A   1      30.713  25.421  26.565  1.00  0.00    -0.325 N 
ATOM     19  H   UNL A   1      30.810  25.787  27.474  1.00  0.00     0.169 HD
BRANCH  18  20
ATOM     20  C   UNL A   1      30.529  26.346  25.520  1.00  0.00     0.054 A 
ATOM     21  C   UNL A   1      29.917  25.951  24.330  1.00  0.00     0.027 A 
ATOM     22  C   UNL A   1      31.034  27.654  25.630  1.00  0.00     0.037 A 
ATOM     23  C   UNL A   1      29.704  26.887  23.311  1.00  0.00     0.002 A 
ATOM     24  C   UNL A   1      30.750  28.606  24.646  1.00  0.00     0.017 A 
ATOM     25  I   UNL A   1      32.189  28.235  27.268  1.00  0.00    -0.042 I 
ATOM     26  C   UNL A   1      30.074  28.222  23.490  1.00  0.00     0.001 A 
ENDBRANCH  18  20
ENDBRANCH  15  16
ENDBRANCH   6  15
ENDBRANCH   4   6
ENDBRANCH   3   4
ENDBRANCH   2   3
ENDBRANCH   1   2
BRANCH   1  27
ATOM     27  O   UNL A   1      37.680  22.824  25.660  1.00  0.00    -0.374 OA
BRANCH  27  28
ATOM     28  C   UNL A   1      38.819  22.236  26.293  1.00  0.00     0.202 C 
BRANCH  28  29
ATOM     29  C   UNL A   1      39.356  21.019  25.538  1.00  0.00     0.261 C 
BRANCH  29  30
ATOM     30  O   UNL A   1      40.176  20.218  26.412  1.00  0.00    -0.460 OA
BRANCH  30  31
ATOM     31  C   UNL A   1      41.485  20.188  26.073  1.00  0.00     0.338 C 
ATOM     32  O   UNL A   1      42.033  19.418  25.306  1.00  0.00    -0.246 OA
BRANCH  31  33
ATOM     33  C   UNL A   1      42.183  21.354  26.642  1.00  0.00     0.060 A 
ATOM     34  C   UNL A   1      42.254  21.435  28.035  1.00  0.00     0.016 A 
ATOM     35  C   UNL A   1      42.641  22.408  25.849  1.00  0.00     0.016 A 
ATOM     36  C   UNL A   1      42.675  22.616  28.643  1.00  0.00     0.010 A 
ATOM     37  C   UNL A   1      43.102  23.581  26.466  1.00  0.00     0.010 A 
ATOM     38  C   UNL A   1      43.042  23.724  27.864  1.00  0.00    -0.014 A 
BRANCH  38  39
ATOM     39  C   UNL A   1      43.109  25.063  28.520  1.00  0.00     0.031 A 
ATOM     40  C   UNL A   1      44.461  25.618  28.912  1.00  0.00     0.074 A 
ATOM     41  C   UNL A   1      42.017  25.843  28.647  1.00  0.00     0.049 A 
ATOM     42  N   UNL A   1      44.776  26.816  29.339  1.00  0.00    -0.248 NA
ATOM     43  C   UNL A   1      45.610  24.702  28.811  1.00  0.00     0.031 C 
ATOM     44  C   UNL A   1      40.649  25.457  28.301  1.00  0.00     0.029 A 
ATOM     45  N   UNL A   1      41.899  27.146  29.071  1.00  0.00    -0.354 N 
ATOM     46  C   UNL A   1      46.149  26.790  29.556  1.00  0.00     0.074 A 
ATOM     47  C   UNL A   1      46.598  25.446  29.279  1.00  0.00     0.031 C 
ATOM     48  C   UNL A   1      39.837  26.512  28.486  1.00  0.00     0.029 A 
ATOM     49  C   UNL A   1      40.621  27.645  28.979  1.00  0.00     0.049 A 
ATOM     50  H   UNL A   1      42.659  27.673  29.409  1.00  0.00     0.167 HD
ATOM     51  C   UNL A   1      46.981  27.794  29.922  1.00  0.00     0.031 A 
ATOM     52  C   UNL A   1      40.138  28.876  29.241  1.00  0.00     0.031 A 
ATOM     53  C   UNL A   1      46.562  29.142  30.187  1.00  0.00     0.049 A 
ATOM     54  C   UNL A   1      41.077  29.971  29.679  1.00  0.00     0.074 A 
ATOM     55  C   UNL A   1      47.337  30.232  30.544  1.00  0.00     0.029 A 
ATOM     56  N   UNL A   1      45.252  29.585  30.120  1.00  0.00    -0.354 N 
ATOM     57  N   UNL A   1      42.378  29.938  29.832  1.00  0.00    -0.248 NA
ATOM     58  C   UNL A   1      40.475  31.286  29.955  1.00  0.00     0.031 C 
ATOM     59  C   UNL A   1      46.489  31.325  30.739  1.00  0.00     0.029 A 
ATOM     60  C   UNL A   1      45.193  30.929  30.445  1.00  0.00     0.049 A 
ATOM     61  H   UNL A   1      44.477  29.027  29.877  1.00  0.00     0.167 HD
ATOM     62  C   UNL A   1      42.753  31.230  30.183  1.00  0.00     0.074 A 
ATOM     63  C   UNL A   1      41.544  32.027  30.209  1.00  0.00     0.031 C 
ATOM     64  C   UNL A   1      43.989  31.715  30.457  1.00  0.00     0.031 A 
BRANCH  51  65
ATOM     65  C   UNL A   1      48.439  27.457  30.067  1.00  0.00    -0.014 A 
ATOM     66  C   UNL A   1      49.327  27.584  28.986  1.00  0.00     0.009 A 
ATOM     67  C   UNL A   1      48.933  27.018  31.305  1.00  0.00     0.009 A 
ATOM     68  C   UNL A   1      50.672  27.237  29.132  1.00  0.00     0.001 A 
ATOM     69  C   UNL A   1      50.284  26.702  31.456  1.00  0.00     0.001 A 
ATOM     70  C   UNL A   1      51.150  26.800  30.368  1.00  0.00     0.000 A 
ENDBRANCH  51  65
BRANCH  52  71
ATOM     71  C   UNL A   1      38.686  29.162  29.081  1.00  0.00    -0.014 A 
ATOM     72  C   UNL A   1      38.158  29.522  27.832  1.00  0.00     0.009 A 
ATOM     73  C   UNL A   1      37.830  29.121  30.192  1.00  0.00     0.009 A 
ATOM     74  C   UNL A   1      36.809  29.867  27.704  1.00  0.00     0.001 A 
ATOM     75  C   UNL A   1      36.476  29.438  30.056  1.00  0.00     0.001 A 
ATOM     76  C   UNL A   1      35.969  29.821  28.816  1.00  0.00     0.000 A 
ENDBRANCH  52  71
BRANCH  64  77
ATOM     77  C   UNL A   1      44.111  33.184  30.756  1.00  0.00    -0.014 A 
ATOM     78  C   UNL A   1      44.077  33.673  32.070  1.00  0.00     0.009 A 
ATOM     79  C   UNL A   1      44.303  34.090  29.700  1.00  0.00     0.009 A 
ATOM     80  C   UNL A   1      44.193  35.043  32.318  1.00  0.00     0.001 A 
ATOM     81  C   UNL A   1      44.449  35.455  29.952  1.00  0.00     0.001 A 
ATOM     82  C   UNL A   1      44.382  35.931  31.259  1.00  0.00     0.000 A 
ENDBRANCH  64  77
ENDBRANCH  38  39
ENDBRANCH  31  33
ENDBRANCH  30  31
ENDBRANCH  29  30
ENDBRANCH  28  29
ENDBRANCH  27  28
ENDBRANCH   1  27
TORSDOF 19
ENDMDL
MODEL 2
REMARK VINA RESULT:      -9.8      1.827      6.023
REMARK SMILES C[C@@H](c1ccccc1)[C@@H](CC(=O)Nc1ccccc1I)C(=O)OCCOCCOC(=O)c1ccc(-c2c3nc(c(-c4ccccc4)c4ccc([nH]4)c(-c4ccccc4)c4nc(c(-c5ccccc5)c5ccc2[nH]5)C=C4)C=C3)cc1
REMARK SMILES IDX 25 1 24 2 23 3 21 4 22 5 9 6 2 7 1 8 3 9 4 10 8 11 5 12 7 13
REMARK SMILES IDX 6 14 10 15 11 16 12 17 13 18 14 20 15 21 19 22 16 23 18 24
REMARK SMILES IDX 20 25 17 26 26 27 27 28 28 29 29 30 30 31 31 32 32 33 33 34
REMARK SMILES IDX 79 35 34 36 78 37 35 38 36 39 37 40 72 41 38 42 77 43 71 44
REMARK SMILES IDX 73 45 39 46 76 47 70 48 69 49 40 51 62 52 47 53 61 54 48 55
REMARK SMILES IDX 51 56 60 57 74 58 49 59 50 60 59 62 75 63 52 64 41 65 42 66
REMARK SMILES IDX 46 67 43 68 45 69 44 70 63 71 64 72 68 73 65 74 67 75 66 76
REMARK SMILES IDX 53 77 54 78 58 79 55 80 57 81 56 82
REMARK H PARENT 13 19 73 50 51 61
REMARK Flexibility Score: inf
ROOT
ATOM      1  C   UNL A   1      37.181  21.706  24.681  1.00  0.00     0.202 C 
ENDROOT
BRANCH   1   2
ATOM      2  C   UNL A   1      35.909  20.931  25.020  1.00  0.00     0.261 C 
BRANCH   2   3
ATOM      3  O   UNL A   1      35.077  21.606  25.992  1.00  0.00    -0.463 OA
BRANCH   3   4
ATOM      4  C   UNL A   1      33.743  21.465  25.801  1.00  0.00     0.310 C 
ATOM      5  O   UNL A   1      33.105  20.450  26.062  1.00  0.00    -0.252 OA
BRANCH   4   6
ATOM      6  C   UNL A   1      33.096  22.652  25.110  1.00  0.00     0.116 C 
BRANCH   6   7
ATOM      7  C   UNL A   1      33.431  22.930  23.632  1.00  0.00     0.031 C 
ATOM      8  C   UNL A   1      32.409  22.195  22.730  1.00  0.00     0.013 C 
BRANCH   7   9
ATOM      9  C   UNL A   1      33.619  24.342  23.082  1.00  0.00    -0.044 A 
ATOM     10  C   UNL A   1      34.039  25.418  23.879  1.00  0.00     0.004 A 
ATOM     11  C   UNL A   1      33.098  24.638  21.809  1.00  0.00     0.004 A 
ATOM     12  C   UNL A   1      33.839  26.740  23.464  1.00  0.00     0.000 A 
ATOM     13  C   UNL A   1      32.904  25.957  21.392  1.00  0.00     0.000 A 
ATOM     14  C   UNL A   1      33.254  27.009  22.229  1.00  0.00     0.000 A 
ENDBRANCH   7   9
ENDBRANCH   6   7
BRANCH   6  15
ATOM     15  C   UNL A   1      31.570  22.699  25.415  1.00  0.00     0.116 C 
BRANCH  15  16
ATOM     16  C   UNL A   1      31.047  23.518  26.594  1.00  0.00     0.225 C 
ATOM     17  O   UNL A   1      30.692  22.950  27.632  1.00  0.00    -0.275 OA
ATOM     18  N   UNL A   1      31.062  24.894  26.604  1.00  0.00    -0.325 N 
ATOM     19  H   UNL A   1      31.327  25.332  27.446  1.00  0.00     0.169 HD
BRANCH  18  20
ATOM     20  C   UNL A   1      30.730  25.733  25.524  1.00  0.00     0.054 A 
ATOM     21  C   UNL A   1      30.165  25.199  24.366  1.00  0.00     0.027 A 
ATOM     22  C   UNL A   1      31.041  27.104  25.566  1.00  0.00     0.037 A 
ATOM     23  C   UNL A   1      29.802  26.047  23.312  1.00  0.00     0.002 A 
ATOM     24  C   UNL A   1      30.607  27.959  24.548  1.00  0.00     0.017 A 
ATOM     25  I   UNL A   1      32.124  27.921  27.152  1.00  0.00    -0.042 I 
ATOM     26  C   UNL A   1      29.977  27.428  23.424  1.00  0.00     0.001 A 
ENDBRANCH  18  20
ENDBRANCH  15  16
ENDBRANCH   6  15
ENDBRANCH   4   6
ENDBRANCH   3   4
ENDBRANCH   2   3
ENDBRANCH   1   2
BRANCH   1  27
ATOM     27  O   UNL A   1      37.745  22.426  25.777  1.00  0.00    -0.374 OA
BRANCH  27  28
ATOM     28  C   UNL A   1      39.070  22.045  26.156  1.00  0.00     0.202 C 
BRANCH  28  29
ATOM     29  C   UNL A   1      39.324  20.546  26.001  1.00  0.00     0.261 C 
BRANCH  29  30
ATOM     30  O   UNL A   1      40.329  20.114  26.941  1.00  0.00    -0.460 OA
BRANCH  30  31
ATOM     31  C   UNL A   1      41.504  19.759  26.374  1.00  0.00     0.338 C 
ATOM     32  O   UNL A   1      41.750  18.735  25.762  1.00  0.00    -0.246 OA
BRANCH  31  33
ATOM     33  C   UNL A   1      42.461  20.878  26.442  1.00  0.00     0.060 A 
ATOM     34  C   UNL A   1      42.673  21.456  27.695  1.00  0.00     0.016 A 
ATOM     35  C   UNL A   1      43.034  21.437  25.299  1.00  0.00     0.016 A 
ATOM     36  C   UNL A   1      43.365  22.662  27.798  1.00  0.00     0.010 A 
ATOM     37  C   UNL A   1      43.765  22.631  25.412  1.00  0.00     0.010 A 
ATOM     38  C   UNL A   1      43.862  23.295  26.649  1.00  0.00    -0.014 A 
BRANCH  38  39
ATOM     39  C   UNL A   1      44.241  24.736  26.739  1.00  0.00     0.031 A 
ATOM     40  C   UNL A   1      43.206  25.735  27.206  1.00  0.00     0.074 A 
ATOM     41  C   UNL A   1      45.511  25.145  26.549  1.00  0.00     0.049 A 
ATOM     42  N   UNL A   1      43.351  26.999  27.517  1.00  0.00    -0.248 NA
ATOM     43  C   UNL A   1      41.822  25.247  27.338  1.00  0.00     0.031 C 
ATOM     44  C   UNL A   1      46.623  24.301  26.113  1.00  0.00     0.029 A 
ATOM     45  N   UNL A   1      46.084  26.382  26.736  1.00  0.00    -0.354 N 
ATOM     46  C   UNL A   1      42.085  27.448  27.875  1.00  0.00     0.074 A 
ATOM     47  C   UNL A   1      41.173  26.346  27.682  1.00  0.00     0.031 C 
ATOM     48  C   UNL A   1      47.751  25.032  26.109  1.00  0.00     0.029 A 
ATOM     49  C   UNL A   1      47.442  26.400  26.524  1.00  0.00     0.049 A 
ATOM     50  H   UNL A   1      45.570  27.179  26.999  1.00  0.00     0.167 HD
ATOM     51  C   UNL A   1      41.705  28.656  28.355  1.00  0.00     0.031 A 
ATOM     52  C   UNL A   1      48.339  27.397  26.665  1.00  0.00     0.031 A 
ATOM     53  C   UNL A   1      42.595  29.763  28.571  1.00  0.00     0.049 A 
ATOM     54  C   UNL A   1      47.889  28.744  27.170  1.00  0.00     0.074 A 
ATOM     55  C   UNL A   1      42.303  31.019  29.073  1.00  0.00     0.029 A 
ATOM     56  N   UNL A   1      43.953  29.744  28.301  1.00  0.00    -0.354 N 
ATOM     57  N   UNL A   1      46.696  29.133  27.548  1.00  0.00    -0.248 NA
ATOM     58  C   UNL A   1      48.924  29.784  27.290  1.00  0.00     0.031 C 
ATOM     59  C   UNL A   1      43.477  31.776  29.063  1.00  0.00     0.029 A 
ATOM     60  C   UNL A   1      44.510  30.971  28.610  1.00  0.00     0.049 A 
ATOM     61  H   UNL A   1      44.447  28.970  27.943  1.00  0.00     0.167 HD
ATOM     62  C   UNL A   1      46.844  30.445  27.986  1.00  0.00     0.074 A 
ATOM     63  C   UNL A   1      48.245  30.782  27.837  1.00  0.00     0.031 C 
ATOM     64  C   UNL A   1      45.905  31.294  28.470  1.00  0.00     0.031 A 
BRANCH  51  65
ATOM     65  C   UNL A   1      40.246  28.841  28.668  1.00  0.00    -0.014 A 
ATOM     66  C   UNL A   1      39.729  28.536  29.938  1.00  0.00     0.009 A 
ATOM     67  C   UNL A   1      39.380  29.337  27.682  1.00  0.00     0.009 A 
ATOM     68  C   UNL A   1      38.366  28.685  30.200  1.00  0.00     0.001 A 
ATOM     69  C   UNL A   1      38.022  29.514  27.957  1.00  0.00     0.001 A 
ATOM     70  C   UNL A   1      37.515  29.178  29.211  1.00  0.00     0.000 A 
ENDBRANCH  51  65
BRANCH  52  71
ATOM     71  C   UNL A   1      49.774  27.165  26.345  1.00  0.00    -0.014 A 
ATOM     72  C   UNL A   1      50.255  27.332  25.037  1.00  0.00     0.009 A 
ATOM     73  C   UNL A   1      50.661  26.730  27.341  1.00  0.00     0.009 A 
ATOM     74  C   UNL A   1      51.585  27.036  24.726  1.00  0.00     0.001 A 
ATOM     75  C   UNL A   1      51.997  26.463  27.035  1.00  0.00     0.001 A 
ATOM     76  C   UNL A   1      52.456  26.604  25.727  1.00  0.00     0.000 A 
ENDBRANCH  52  71
BRANCH  64  77
ATOM     77  C   UNL A   1      46.363  32.652  28.927  1.00  0.00    -0.014 A 
ATOM     78  C   UNL A   1      46.650  32.916  30.275  1.00  0.00     0.009 A 
ATOM     79  C   UNL A   1      46.547  33.673  27.982  1.00  0.00     0.009 A 
ATOM     80  C   UNL A   1      47.073  34.187  30.671  1.00  0.00     0.001 A 
ATOM     81  C   UNL A   1      47.000  34.933  28.375  1.00  0.00     0.001 A 
ATOM     82  C   UNL A   1      47.251  35.192  29.721  1.00  0.00     0.000 A 
ENDBRANCH  64  77
ENDBRANCH  38  39
ENDBRANCH  31  33
ENDBRANCH  30  31
ENDBRANCH  29  30
ENDBRANCH  28  29
ENDBRANCH  27  28
ENDBRANCH   1  27
TORSDOF 19
ENDMDL
MODEL 3
REMARK VINA RESULT:      -9.7      1.532      2.917
REMARK SMILES C[C@@H](c1ccccc1)[C@@H](CC(=O)Nc1ccccc1I)C(=O)OCCOCCOC(=O)c1ccc(-c2c3nc(c(-c4ccccc4)c4ccc([nH]4)c(-c4ccccc4)c4nc(c(-c5ccccc5)c5ccc2[nH]5)C=C4)C=C3)cc1
REMARK SMILES IDX 25 1 24 2 23 3 21 4 22 5 9 6 2 7 1 8 3 9 4 10 8 11 5 12 7 13
REMARK SMILES IDX 6 14 10 15 11 16 12 17 13 18 14 20 15 21 19 22 16 23 18 24
REMARK SMILES IDX 20 25 17 26 26 27 27 28 28 29 29 30 30 31 31 32 32 33 33 34
REMARK SMILES IDX 79 35 34 36 78 37 35 38 36 39 37 40 72 41 38 42 77 43 71 44
REMARK SMILES IDX 73 45 39 46 76 47 70 48 69 49 40 51 62 52 47 53 61 54 48 55
REMARK SMILES IDX 51 56 60 57 74 58 49 59 50 60 59 62 75 63 52 64 41 65 42 66
REMARK SMILES IDX 46 67 43 68 45 69 44 70 63 71 64 72 68 73 65 74 67 75 66 76
REMARK SMILES IDX 53 77 54 78 58 79 55 80 57 81 56 82
REMARK H PARENT 13 19 73 50 51 61
REMARK Flexibility Score: inf
ROOT
ATOM      1  C   UNL A   1      36.887  23.342  25.293  1.00  0.00     0.202 C 
ENDROOT
BRANCH   1   2
ATOM      2  C   UNL A   1      36.552  23.614  23.829  1.00  0.00     0.261 C 
BRANCH   2   3
ATOM      3  O   UNL A   1      35.689  22.608  23.249  1.00  0.00    -0.463 OA
BRANCH   3   4
ATOM      4  C   UNL A   1      34.380  22.953  23.168  1.00  0.00     0.310 C 
ATOM      5  O   UNL A   1      33.909  23.705  22.321  1.00  0.00    -0.252 OA
BRANCH   4   6
ATOM      6  C   UNL A   1      33.535  22.418  24.310  1.00  0.00     0.116 C 
BRANCH   6   7
ATOM      7  C   UNL A   1      33.961  21.110  25.005  1.00  0.00     0.031 C 
ATOM      8  C   UNL A   1      33.578  21.181  26.504  1.00  0.00     0.013 C 
BRANCH   7   9
ATOM      9  C   UNL A   1      33.567  19.731  24.479  1.00  0.00    -0.044 A 
ATOM     10  C   UNL A   1      34.398  18.607  24.599  1.00  0.00     0.004 A 
ATOM     11  C   UNL A   1      32.465  19.639  23.611  1.00  0.00     0.004 A 
ATOM     12  C   UNL A   1      34.197  17.479  23.794  1.00  0.00     0.000 A 
ATOM     13  C   UNL A   1      32.261  18.511  22.813  1.00  0.00     0.000 A 
ATOM     14  C   UNL A   1      33.141  17.439  22.888  1.00  0.00     0.000 A 
ENDBRANCH   7   9
ENDBRANCH   6   7
BRANCH   6  15
ATOM     15  C   UNL A   1      33.176  23.557  25.307  1.00  0.00     0.116 C 
BRANCH  15  16
ATOM     16  C   UNL A   1      31.731  24.032  25.443  1.00  0.00     0.225 C 
ATOM     17  O   UNL A   1      30.800  23.255  25.205  1.00  0.00    -0.275 OA
ATOM     18  N   UNL A   1      31.402  25.272  25.939  1.00  0.00    -0.325 N 
ATOM     19  H   UNL A   1      30.637  25.318  26.558  1.00  0.00     0.169 HD
BRANCH  18  20
ATOM     20  C   UNL A   1      32.058  26.483  25.644  1.00  0.00     0.054 A 
ATOM     21  C   UNL A   1      33.160  26.887  26.397  1.00  0.00     0.027 A 
ATOM     22  C   UNL A   1      31.560  27.337  24.643  1.00  0.00     0.037 A 
ATOM     23  C   UNL A   1      33.830  28.073  26.070  1.00  0.00     0.002 A 
ATOM     24  C   UNL A   1      32.275  28.478  24.268  1.00  0.00     0.017 A 
ATOM     25  I   UNL A   1      29.766  26.923  23.660  1.00  0.00    -0.042 I 
ATOM     26  C   UNL A   1      33.419  28.839  24.978  1.00  0.00     0.001 A 
ENDBRANCH  18  20
ENDBRANCH  15  16
ENDBRANCH   6  15
ENDBRANCH   4   6
ENDBRANCH   3   4
ENDBRANCH   2   3
ENDBRANCH   1   2
BRANCH   1  27
ATOM     27  O   UNL A   1      37.345  22.015  25.560  1.00  0.00    -0.374 OA
BRANCH  27  28
ATOM     28  C   UNL A   1      38.749  21.876  25.792  1.00  0.00     0.202 C 
BRANCH  28  29
ATOM     29  C   UNL A   1      39.230  20.430  25.671  1.00  0.00     0.261 C 
BRANCH  29  30
ATOM     30  O   UNL A   1      40.259  20.168  26.647  1.00  0.00    -0.460 OA
BRANCH  30  31
ATOM     31  C   UNL A   1      41.517  20.211  26.153  1.00  0.00     0.338 C 
ATOM     32  O   UNL A   1      42.002  19.488  25.302  1.00  0.00    -0.246 OA
BRANCH  31  33
ATOM     33  C   UNL A   1      42.227  21.394  26.671  1.00  0.00     0.060 A 
ATOM     34  C   UNL A   1      42.399  21.476  28.055  1.00  0.00     0.016 A 
ATOM     35  C   UNL A   1      42.597  22.459  25.849  1.00  0.00     0.016 A 
ATOM     36  C   UNL A   1      42.835  22.667  28.633  1.00  0.00     0.010 A 
ATOM     37  C   UNL A   1      43.074  23.643  26.432  1.00  0.00     0.010 A 
ATOM     38  C   UNL A   1      43.115  23.784  27.832  1.00  0.00    -0.014 A 
BRANCH  38  39
ATOM     39  C   UNL A   1      43.196  25.124  28.484  1.00  0.00     0.031 A 
ATOM     40  C   UNL A   1      44.556  25.673  28.857  1.00  0.00     0.074 A 
ATOM     41  C   UNL A   1      42.110  25.910  28.622  1.00  0.00     0.049 A 
ATOM     42  N   UNL A   1      44.883  26.870  29.278  1.00  0.00    -0.248 NA
ATOM     43  C   UNL A   1      45.699  24.751  28.744  1.00  0.00     0.031 C 
ATOM     44  C   UNL A   1      40.736  25.530  28.295  1.00  0.00     0.029 A 
ATOM     45  N   UNL A   1      42.005  27.215  29.046  1.00  0.00    -0.354 N 
ATOM     46  C   UNL A   1      46.259  26.837  29.478  1.00  0.00     0.074 A 
ATOM     47  C   UNL A   1      46.697  25.491  29.198  1.00  0.00     0.031 C 
ATOM     48  C   UNL A   1      39.932  26.590  28.488  1.00  0.00     0.029 A 
ATOM     49  C   UNL A   1      40.728  27.720  28.969  1.00  0.00     0.049 A 
ATOM     50  H   UNL A   1      42.771  27.738  29.373  1.00  0.00     0.167 HD
ATOM     51  C   UNL A   1      47.099  27.838  29.831  1.00  0.00     0.031 A 
ATOM     52  C   UNL A   1      40.255  28.954  29.234  1.00  0.00     0.031 A 
ATOM     53  C   UNL A   1      46.691  29.189  30.099  1.00  0.00     0.049 A 
ATOM     54  C   UNL A   1      41.205  30.045  29.658  1.00  0.00     0.074 A 
ATOM     55  C   UNL A   1      47.476  30.275  30.443  1.00  0.00     0.029 A 
ATOM     56  N   UNL A   1      45.383  29.639  30.047  1.00  0.00    -0.354 N 
ATOM     57  N   UNL A   1      42.507  30.005  29.794  1.00  0.00    -0.248 NA
ATOM     58  C   UNL A   1      40.613  31.364  29.939  1.00  0.00     0.031 C 
ATOM     59  C   UNL A   1      46.636  31.373  30.647  1.00  0.00     0.029 A 
ATOM     60  C   UNL A   1      45.335  30.983  30.370  1.00  0.00     0.049 A 
ATOM     61  H   UNL A   1      44.602  29.084  29.815  1.00  0.00     0.167 HD
ATOM     62  C   UNL A   1      42.894  31.297  30.138  1.00  0.00     0.074 A 
ATOM     63  C   UNL A   1      41.689  32.099  30.177  1.00  0.00     0.031 C 
ATOM     64  C   UNL A   1      44.135  31.776  30.395  1.00  0.00     0.031 A 
BRANCH  51  65
ATOM     65  C   UNL A   1      48.558  27.494  29.958  1.00  0.00    -0.014 A 
ATOM     66  C   UNL A   1      49.100  27.059  31.179  1.00  0.00     0.009 A 
ATOM     67  C   UNL A   1      49.398  27.596  28.839  1.00  0.00     0.009 A 
ATOM     68  C   UNL A   1      50.463  26.774  31.285  1.00  0.00     0.001 A 
ATOM     69  C   UNL A   1      50.754  27.281  28.940  1.00  0.00     0.001 A 
ATOM     70  C   UNL A   1      51.288  26.881  30.165  1.00  0.00     0.000 A 
ENDBRANCH  51  65
BRANCH  52  71
ATOM     71  C   UNL A   1      38.803  29.247  29.092  1.00  0.00    -0.014 A 
ATOM     72  C   UNL A   1      37.931  29.114  30.184  1.00  0.00     0.009 A 
ATOM     73  C   UNL A   1      38.275  29.617  27.845  1.00  0.00     0.009 A 
ATOM     74  C   UNL A   1      36.557  29.314  30.024  1.00  0.00     0.001 A 
ATOM     75  C   UNL A   1      36.904  29.845  27.695  1.00  0.00     0.001 A 
ATOM     76  C   UNL A   1      36.046  29.681  28.780  1.00  0.00     0.000 A 
ENDBRANCH  52  71
BRANCH  64  77
ATOM     77  C   UNL A   1      44.268  33.245  30.689  1.00  0.00    -0.014 A 
ATOM     78  C   UNL A   1      44.450  34.186  29.665  1.00  0.00     0.009 A 
ATOM     79  C   UNL A   1      44.169  33.695  32.015  1.00  0.00     0.009 A 
ATOM     80  C   UNL A   1      44.571  35.545  29.968  1.00  0.00     0.001 A 
ATOM     81  C   UNL A   1      44.259  35.056  32.312  1.00  0.00     0.001 A 
ATOM     82  C   UNL A   1      44.472  35.978  31.289  1.00  0.00     0.000 A 
ENDBRANCH  64  77
ENDBRANCH  38  39
ENDBRANCH  31  33
ENDBRANCH  30  31
ENDBRANCH  29  30
ENDBRANCH  28  29
ENDBRANCH  27  28
ENDBRANCH   1  27
TORSDOF 19
ENDMDL
