MODEL 1
REMARK VINA RESULT:     -10.5      0.000      0.000
REMARK SMILES Cc1cc(=O)oc2c(C[N@@H+]3CCC[C@H]3C(=O)OCCOCCOC(=O)c3ccc(-c4c5nc(c(-c6ccccc6)c6ccc([nH]6)c(-c6ccccc6)c6nc(c(-c7ccccc7)c7ccc4[nH]7)C=C6)C=C5)cc3)c(O)ccc12
REMARK SMILES IDX 19 1 18 2 17 3 15 4 16 5 14 6 10 7 11 8 12 10 13 11 9 12
REMARK SMILES IDX 8 13 1 14 2 15 3 16 78 17 4 18 7 19 77 20 5 21 6 22 76 23
REMARK SMILES IDX 74 24 75 25 20 27 21 28 22 29 23 30 24 31 25 32 26 33 27 34
REMARK SMILES IDX 73 35 28 36 72 37 29 38 30 39 31 40 66 41 32 42 71 43 65 44
REMARK SMILES IDX 67 45 33 46 70 47 64 48 63 49 34 51 56 52 41 53 55 54 42 55
REMARK SMILES IDX 45 56 54 57 68 58 43 59 44 60 53 62 69 63 46 64 35 65 36 66
REMARK SMILES IDX 40 67 37 68 39 69 38 70 57 71 58 72 62 73 59 74 61 75 60 76
REMARK SMILES IDX 47 77 48 78 52 79 49 80 51 81 50 82
REMARK H PARENT 10 9 75 26 67 50 45 61
REMARK Flexibility Score: inf
ROOT
ATOM      1  C   UNL A   1      34.417  29.870  26.956  1.00  0.00     0.202 C 
ENDROOT
BRANCH   1   2
ATOM      2  C   UNL A   1      33.638  28.549  27.005  1.00  0.00     0.261 C 
BRANCH   2   3
ATOM      3  O   UNL A   1      33.118  28.246  25.696  1.00  0.00    -0.459 OA
BRANCH   3   4
ATOM      4  C   UNL A   1      31.788  27.963  25.615  1.00  0.00     0.365 C 
ATOM      5  O   UNL A   1      31.057  27.829  26.591  1.00  0.00    -0.245 OA
BRANCH   4   6
ATOM      6  C   UNL A   1      31.312  27.833  24.149  1.00  0.00     0.295 C 
ATOM      7  N   UNL A   1      30.582  26.551  23.998  1.00  0.00    -0.319 N 
ATOM      8  C   UNL A   1      29.171  26.836  23.790  1.00  0.00     0.263 C 
ATOM      9  H   UNL A   1      30.662  26.029  24.870  1.00  0.00     0.349 HD
ATOM     10  C   UNL A   1      29.118  28.193  23.123  1.00  0.00     0.068 C 
ATOM     11  C   UNL A   1      30.347  28.920  23.645  1.00  0.00     0.083 C 
BRANCH   7  12
ATOM     12  C   UNL A   1      31.196  25.576  23.081  1.00  0.00     0.307 C 
BRANCH  12  13
ATOM     13  C   UNL A   1      32.463  24.895  23.565  1.00  0.00     0.091 A 
ATOM     14  C   UNL A   1      34.398  21.454  26.737  1.00  0.00     0.045 C 
ATOM     15  C   UNL A   1      33.384  22.481  26.333  1.00  0.00    -0.033 A 
ATOM     16  C   UNL A   1      32.247  22.577  27.041  1.00  0.00     0.098 A 
ATOM     17  C   UNL A   1      33.551  23.341  25.148  1.00  0.00     0.021 A 
ATOM     18  C   UNL A   1      31.169  23.516  26.723  1.00  0.00     0.336 A 
ATOM     19  C   UNL A   1      32.500  24.194  24.786  1.00  0.00     0.151 A 
ATOM     20  C   UNL A   1      34.667  23.308  24.305  1.00  0.00     0.016 A 
ATOM     21  O   UNL A   1      30.131  23.536  27.372  1.00  0.00    -0.246 OA
ATOM     22  O   UNL A   1      31.392  24.351  25.648  1.00  0.00    -0.422 OA
ATOM     23  C   UNL A   1      34.714  24.087  23.143  1.00  0.00     0.047 A 
ATOM     24  C   UNL A   1      33.615  24.859  22.776  1.00  0.00     0.128 A 
BRANCH  24  25
ATOM     25  O   UNL A   1      33.653  25.575  21.614  1.00  0.00    -0.507 OA
ATOM     26  H   UNL A   1      33.910  25.158  20.814  1.00  0.00     0.293 HD
ENDBRANCH  24  25
ENDBRANCH  12  13
ENDBRANCH   7  12
ENDBRANCH   4   6
ENDBRANCH   3   4
ENDBRANCH   2   3
ENDBRANCH   1   2
BRANCH   1  27
ATOM     27  O   UNL A   1      33.767  30.995  27.557  1.00  0.00    -0.374 OA
BRANCH  27  28
ATOM     28  C   UNL A   1      32.465  31.306  27.065  1.00  0.00     0.202 C 
BRANCH  28  29
ATOM     29  C   UNL A   1      32.020  32.760  27.251  1.00  0.00     0.261 C 
BRANCH  29  30
ATOM     30  O   UNL A   1      33.148  33.652  27.251  1.00  0.00    -0.460 OA
BRANCH  30  31
ATOM     31  C   UNL A   1      33.299  34.358  28.393  1.00  0.00     0.338 C 
ATOM     32  O   UNL A   1      32.528  35.177  28.875  1.00  0.00    -0.246 OA
BRANCH  31  33
ATOM     33  C   UNL A   1      34.485  33.878  29.118  1.00  0.00     0.060 A 
ATOM     34  C   UNL A   1      35.736  34.172  28.560  1.00  0.00     0.016 A 
ATOM     35  C   UNL A   1      34.385  33.112  30.281  1.00  0.00     0.016 A 
ATOM     36  C   UNL A   1      36.893  33.661  29.136  1.00  0.00     0.010 A 
ATOM     37  C   UNL A   1      35.548  32.590  30.854  1.00  0.00     0.010 A 
ATOM     38  C   UNL A   1      36.802  32.835  30.265  1.00  0.00    -0.014 A 
BRANCH  38  39
ATOM     39  C   UNL A   1      38.007  32.116  30.735  1.00  0.00     0.031 A 
ATOM     40  C   UNL A   1      38.799  32.689  31.874  1.00  0.00     0.074 A 
ATOM     41  C   UNL A   1      38.371  30.951  30.174  1.00  0.00     0.049 A 
ATOM     42  N   UNL A   1      39.895  32.240  32.429  1.00  0.00    -0.248 NA
ATOM     43  C   UNL A   1      38.288  33.935  32.466  1.00  0.00     0.031 C 
ATOM     44  C   UNL A   1      37.659  30.274  29.092  1.00  0.00     0.029 A 
ATOM     45  N   UNL A   1      39.444  30.136  30.437  1.00  0.00    -0.354 N 
ATOM     46  C   UNL A   1      40.206  33.148  33.434  1.00  0.00     0.074 A 
ATOM     47  C   UNL A   1      39.202  34.190  33.389  1.00  0.00     0.031 C 
ATOM     48  C   UNL A   1      38.323  29.150  28.772  1.00  0.00     0.029 A 
ATOM     49  C   UNL A   1      39.521  29.050  29.604  1.00  0.00     0.049 A 
ATOM     50  H   UNL A   1      40.093  30.314  31.155  1.00  0.00     0.167 HD
ATOM     51  C   UNL A   1      41.230  33.115  34.319  1.00  0.00     0.031 A 
ATOM     52  C   UNL A   1      40.468  28.098  29.502  1.00  0.00     0.031 A 
ATOM     53  C   UNL A   1      42.241  32.092  34.346  1.00  0.00     0.049 A 
ATOM     54  C   UNL A   1      41.652  28.131  30.430  1.00  0.00     0.074 A 
ATOM     55  C   UNL A   1      43.310  31.955  35.214  1.00  0.00     0.029 A 
ATOM     56  N   UNL A   1      42.315  31.036  33.450  1.00  0.00    -0.354 N 
ATOM     57  N   UNL A   1      41.918  28.976  31.397  1.00  0.00    -0.248 NA
ATOM     58  C   UNL A   1      42.664  27.080  30.251  1.00  0.00     0.031 C 
ATOM     59  C   UNL A   1      44.066  30.852  34.804  1.00  0.00     0.029 A 
ATOM     60  C   UNL A   1      43.435  30.267  33.716  1.00  0.00     0.049 A 
ATOM     61  H   UNL A   1      41.666  30.858  32.730  1.00  0.00     0.167 HD
ATOM     62  C   UNL A   1      43.122  28.555  31.949  1.00  0.00     0.074 A 
ATOM     63  C   UNL A   1      43.523  27.367  31.221  1.00  0.00     0.031 C 
ATOM     64  C   UNL A   1      43.832  29.103  32.966  1.00  0.00     0.031 A 
BRANCH  51  65
ATOM     65  C   UNL A   1      41.325  34.251  35.298  1.00  0.00    -0.014 A 
ATOM     66  C   UNL A   1      40.689  34.194  36.548  1.00  0.00     0.009 A 
ATOM     67  C   UNL A   1      42.061  35.397  34.962  1.00  0.00     0.009 A 
ATOM     68  C   UNL A   1      40.751  35.281  37.423  1.00  0.00     0.001 A 
ATOM     69  C   UNL A   1      42.145  36.471  35.851  1.00  0.00     0.001 A 
ATOM     70  C   UNL A   1      41.480  36.417  37.075  1.00  0.00     0.000 A 
ENDBRANCH  51  65
BRANCH  52  71
ATOM     71  C   UNL A   1      40.351  27.060  28.447  1.00  0.00    -0.014 A 
ATOM     72  C   UNL A   1      39.632  25.878  28.675  1.00  0.00     0.009 A 
ATOM     73  C   UNL A   1      40.949  27.261  27.191  1.00  0.00     0.009 A 
ATOM     74  C   UNL A   1      39.521  24.915  27.669  1.00  0.00     0.001 A 
ATOM     75  C   UNL A   1      40.815  26.308  26.180  1.00  0.00     0.001 A 
ATOM     76  C   UNL A   1      40.107  25.133  26.421  1.00  0.00     0.000 A 
ENDBRANCH  52  71
BRANCH  64  77
ATOM     77  C   UNL A   1      45.117  28.427  33.350  1.00  0.00    -0.014 A 
ATOM     78  C   UNL A   1      46.346  28.862  32.831  1.00  0.00     0.009 A 
ATOM     79  C   UNL A   1      45.106  27.379  34.285  1.00  0.00     0.009 A 
ATOM     80  C   UNL A   1      47.536  28.246  33.223  1.00  0.00     0.001 A 
ATOM     81  C   UNL A   1      46.299  26.783  34.695  1.00  0.00     0.001 A 
ATOM     82  C   UNL A   1      47.512  27.212  34.159  1.00  0.00     0.000 A 
ENDBRANCH  64  77
ENDBRANCH  38  39
ENDBRANCH  31  33
ENDBRANCH  30  31
ENDBRANCH  29  30
ENDBRANCH  28  29
ENDBRANCH  27  28
ENDBRANCH   1  27
TORSDOF 17
ENDMDL
MODEL 2
REMARK VINA RESULT:     -10.5      3.761      8.896
REMARK SMILES Cc1cc(=O)oc2c(C[N@@H+]3CCC[C@H]3C(=O)OCCOCCOC(=O)c3ccc(-c4c5nc(c(-c6ccccc6)c6ccc([nH]6)c(-c6ccccc6)c6nc(c(-c7ccccc7)c7ccc4[nH]7)C=C6)C=C5)cc3)c(O)ccc12
REMARK SMILES IDX 19 1 18 2 17 3 15 4 16 5 14 6 10 7 11 8 12 10 13 11 9 12
REMARK SMILES IDX 8 13 1 14 2 15 3 16 78 17 4 18 7 19 77 20 5 21 6 22 76 23
REMARK SMILES IDX 74 24 75 25 20 27 21 28 22 29 23 30 24 31 25 32 26 33 27 34
REMARK SMILES IDX 73 35 28 36 72 37 29 38 30 39 31 40 66 41 32 42 71 43 65 44
REMARK SMILES IDX 67 45 33 46 70 47 64 48 63 49 34 51 56 52 41 53 55 54 42 55
REMARK SMILES IDX 45 56 54 57 68 58 43 59 44 60 53 62 69 63 46 64 35 65 36 66
REMARK SMILES IDX 40 67 37 68 39 69 38 70 57 71 58 72 62 73 59 74 61 75 60 76
REMARK SMILES IDX 47 77 48 78 52 79 49 80 51 81 50 82
REMARK H PARENT 10 9 75 26 67 50 45 61
REMARK Flexibility Score: inf
ROOT
ATOM      1  C   UNL A   1      37.555  22.541  26.100  1.00  0.00     0.202 C 
ENDROOT
BRANCH   1   2
ATOM      2  C   UNL A   1      37.087  23.835  25.420  1.00  0.00     0.261 C 
BRANCH   2   3
ATOM      3  O   UNL A   1      35.651  23.826  25.301  1.00  0.00    -0.459 OA
BRANCH   3   4
ATOM      4  C   UNL A   1      35.109  22.862  24.506  1.00  0.00     0.365 C 
ATOM      5  O   UNL A   1      35.528  22.582  23.388  1.00  0.00    -0.245 OA
BRANCH   4   6
ATOM      6  C   UNL A   1      33.903  22.166  25.181  1.00  0.00     0.295 C 
ATOM      7  N   UNL A   1      32.765  22.156  24.230  1.00  0.00    -0.319 N 
ATOM      8  C   UNL A   1      32.531  20.789  23.792  1.00  0.00     0.263 C 
ATOM      9  H   UNL A   1      33.027  22.699  23.408  1.00  0.00     0.349 HD
ATOM     10  C   UNL A   1      32.993  19.906  24.930  1.00  0.00     0.068 C 
ATOM     11  C   UNL A   1      34.107  20.698  25.596  1.00  0.00     0.083 C 
BRANCH   7  12
ATOM     12  C   UNL A   1      31.581  22.922  24.653  1.00  0.00     0.307 C 
BRANCH  12  13
ATOM     13  C   UNL A   1      31.810  24.376  25.023  1.00  0.00     0.091 A 
ATOM     14  C   UNL A   1      32.485  29.074  23.257  1.00  0.00     0.045 C 
ATOM     15  C   UNL A   1      32.589  27.581  23.164  1.00  0.00    -0.033 A 
ATOM     16  C   UNL A   1      32.918  27.030  21.985  1.00  0.00     0.098 A 
ATOM     17  C   UNL A   1      32.276  26.691  24.296  1.00  0.00     0.021 A 
ATOM     18  C   UNL A   1      33.016  25.586  21.763  1.00  0.00     0.336 A 
ATOM     19  C   UNL A   1      32.296  25.305  24.084  1.00  0.00     0.151 A 
ATOM     20  C   UNL A   1      31.882  27.138  25.562  1.00  0.00     0.016 A 
ATOM     21  O   UNL A   1      33.276  25.129  20.657  1.00  0.00    -0.246 OA
ATOM     22  O   UNL A   1      32.784  24.787  22.864  1.00  0.00    -0.422 OA
ATOM     23  C   UNL A   1      31.508  26.231  26.561  1.00  0.00     0.047 A 
ATOM     24  C   UNL A   1      31.461  24.868  26.284  1.00  0.00     0.128 A 
BRANCH  24  25
ATOM     25  O   UNL A   1      31.047  23.997  27.251  1.00  0.00    -0.507 OA
ATOM     26  H   UNL A   1      30.134  23.921  27.452  1.00  0.00     0.293 HD
ENDBRANCH  24  25
ENDBRANCH  12  13
ENDBRANCH   7  12
ENDBRANCH   4   6
ENDBRANCH   3   4
ENDBRANCH   2   3
ENDBRANCH   1   2
BRANCH   1  27
ATOM     27  O   UNL A   1      38.470  21.742  25.344  1.00  0.00    -0.374 OA
BRANCH  27  28
ATOM     28  C   UNL A   1      38.035  20.424  25.017  1.00  0.00     0.202 C 
BRANCH  28  29
ATOM     29  C   UNL A   1      39.011  19.299  25.375  1.00  0.00     0.261 C 
BRANCH  29  30
ATOM     30  O   UNL A   1      39.847  19.671  26.485  1.00  0.00    -0.460 OA
BRANCH  30  31
ATOM     31  C   UNL A   1      41.169  19.677  26.208  1.00  0.00     0.338 C 
ATOM     32  O   UNL A   1      41.807  18.841  25.582  1.00  0.00    -0.246 OA
BRANCH  31  33
ATOM     33  C   UNL A   1      41.756  20.960  26.623  1.00  0.00     0.060 A 
ATOM     34  C   UNL A   1      41.687  21.281  27.985  1.00  0.00     0.016 A 
ATOM     35  C   UNL A   1      42.308  21.855  25.705  1.00  0.00     0.016 A 
ATOM     36  C   UNL A   1      42.129  22.522  28.430  1.00  0.00     0.010 A 
ATOM     37  C   UNL A   1      42.741  23.107  26.152  1.00  0.00     0.010 A 
ATOM     38  C   UNL A   1      42.623  23.457  27.510  1.00  0.00    -0.014 A 
BRANCH  38  39
ATOM     39  C   UNL A   1      42.877  24.845  27.954  1.00  0.00     0.031 A 
ATOM     40  C   UNL A   1      44.285  25.267  28.258  1.00  0.00     0.074 A 
ATOM     41  C   UNL A   1      41.868  25.728  28.053  1.00  0.00     0.049 A 
ATOM     42  N   UNL A   1      44.731  26.422  28.680  1.00  0.00    -0.248 NA
ATOM     43  C   UNL A   1      45.330  24.250  28.059  1.00  0.00     0.031 C 
ATOM     44  C   UNL A   1      40.467  25.449  27.744  1.00  0.00     0.029 A 
ATOM     45  N   UNL A   1      41.874  27.040  28.453  1.00  0.00    -0.354 N 
ATOM     46  C   UNL A   1      46.107  26.271  28.800  1.00  0.00     0.074 A 
ATOM     47  C   UNL A   1      46.417  24.904  28.439  1.00  0.00     0.031 C 
ATOM     48  C   UNL A   1      39.743  26.556  27.981  1.00  0.00     0.029 A 
ATOM     49  C   UNL A   1      40.624  27.605  28.488  1.00  0.00     0.049 A 
ATOM     50  H   UNL A   1      42.695  27.528  28.692  1.00  0.00     0.167 HD
ATOM     51  C   UNL A   1      47.030  27.189  29.171  1.00  0.00     0.031 A 
ATOM     52  C   UNL A   1      40.233  28.822  28.911  1.00  0.00     0.031 A 
ATOM     53  C   UNL A   1      46.718  28.540  29.555  1.00  0.00     0.049 A 
ATOM     54  C   UNL A   1      41.262  29.797  29.413  1.00  0.00     0.074 A 
ATOM     55  C   UNL A   1      47.581  29.554  29.929  1.00  0.00     0.029 A 
ATOM     56  N   UNL A   1      45.434  29.059  29.629  1.00  0.00    -0.354 N 
ATOM     57  N   UNL A   1      42.563  29.655  29.490  1.00  0.00    -0.248 NA
ATOM     58  C   UNL A   1      40.768  31.099  29.884  1.00  0.00     0.031 C 
ATOM     59  C   UNL A   1      46.814  30.668  30.289  1.00  0.00     0.029 A 
ATOM     60  C   UNL A   1      45.477  30.366  30.083  1.00  0.00     0.049 A 
ATOM     61  H   UNL A   1      44.612  28.570  29.391  1.00  0.00     0.167 HD
ATOM     62  C   UNL A   1      43.046  30.850  30.011  1.00  0.00     0.074 A 
ATOM     63  C   UNL A   1      41.898  31.713  30.210  1.00  0.00     0.031 C 
ATOM     64  C   UNL A   1      44.323  31.201  30.299  1.00  0.00     0.031 A 
BRANCH  51  65
ATOM     65  C   UNL A   1      48.462  26.736  29.223  1.00  0.00    -0.014 A 
ATOM     66  C   UNL A   1      49.014  26.187  30.391  1.00  0.00     0.009 A 
ATOM     67  C   UNL A   1      49.272  26.861  28.084  1.00  0.00     0.009 A 
ATOM     68  C   UNL A   1      50.360  25.816  30.431  1.00  0.00     0.001 A 
ATOM     69  C   UNL A   1      50.610  26.463  28.118  1.00  0.00     0.001 A 
ATOM     70  C   UNL A   1      51.156  25.953  29.294  1.00  0.00     0.000 A 
ENDBRANCH  51  65
BRANCH  52  71
ATOM     71  C   UNL A   1      38.787  29.163  28.916  1.00  0.00    -0.014 A 
ATOM     72  C   UNL A   1      38.010  28.992  30.071  1.00  0.00     0.009 A 
ATOM     73  C   UNL A   1      38.182  29.683  27.759  1.00  0.00     0.009 A 
ATOM     74  C   UNL A   1      36.653  29.328  30.063  1.00  0.00     0.001 A 
ATOM     75  C   UNL A   1      36.833  30.041  27.762  1.00  0.00     0.001 A 
ATOM     76  C   UNL A   1      36.068  29.858  28.912  1.00  0.00     0.000 A 
ENDBRANCH  52  71
BRANCH  64  77
ATOM     77  C   UNL A   1      44.549  32.574  30.863  1.00  0.00    -0.014 A 
ATOM     78  C   UNL A   1      44.551  32.795  32.249  1.00  0.00     0.009 A 
ATOM     79  C   UNL A   1      44.817  33.651  30.002  1.00  0.00     0.009 A 
ATOM     80  C   UNL A   1      44.797  34.071  32.761  1.00  0.00     0.001 A 
ATOM     81  C   UNL A   1      45.088  34.920  30.518  1.00  0.00     0.001 A 
ATOM     82  C   UNL A   1      45.070  35.129  31.895  1.00  0.00     0.000 A 
ENDBRANCH  64  77
ENDBRANCH  38  39
ENDBRANCH  31  33
ENDBRANCH  30  31
ENDBRANCH  29  30
ENDBRANCH  28  29
ENDBRANCH  27  28
ENDBRANCH   1  27
TORSDOF 17
ENDMDL
MODEL 3
REMARK VINA RESULT:     -10.4      0.862      5.867
REMARK SMILES Cc1cc(=O)oc2c(C[N@@H+]3CCC[C@H]3C(=O)OCCOCCOC(=O)c3ccc(-c4c5nc(c(-c6ccccc6)c6ccc([nH]6)c(-c6ccccc6)c6nc(c(-c7ccccc7)c7ccc4[nH]7)C=C6)C=C5)cc3)c(O)ccc12
REMARK SMILES IDX 19 1 18 2 17 3 15 4 16 5 14 6 10 7 11 8 12 10 13 11 9 12
REMARK SMILES IDX 8 13 1 14 2 15 3 16 78 17 4 18 7 19 77 20 5 21 6 22 76 23
REMARK SMILES IDX 74 24 75 25 20 27 21 28 22 29 23 30 24 31 25 32 26 33 27 34
REMARK SMILES IDX 73 35 28 36 72 37 29 38 30 39 31 40 66 41 32 42 71 43 65 44
REMARK SMILES IDX 67 45 33 46 70 47 64 48 63 49 34 51 56 52 41 53 55 54 42 55
REMARK SMILES IDX 45 56 54 57 68 58 43 59 44 60 53 62 69 63 46 64 35 65 36 66
REMARK SMILES IDX 40 67 37 68 39 69 38 70 57 71 58 72 62 73 59 74 61 75 60 76
REMARK SMILES IDX 47 77 48 78 52 79 49 80 51 81 50 82
REMARK H PARENT 10 9 75 26 67 50 45 61
REMARK Flexibility Score: inf
ROOT
ATOM      1  C   UNL A   1      34.502  29.787  27.013  1.00  0.00     0.202 C 
ENDROOT
BRANCH   1   2
ATOM      2  C   UNL A   1      33.681  28.514  27.256  1.00  0.00     0.261 C 
BRANCH   2   3
ATOM      3  O   UNL A   1      33.286  27.945  25.992  1.00  0.00    -0.459 OA
BRANCH   3   4
ATOM      4  C   UNL A   1      31.951  27.916  25.723  1.00  0.00     0.365 C 
ATOM      5  O   UNL A   1      31.079  27.964  26.584  1.00  0.00    -0.245 OA
BRANCH   4   6
ATOM      6  C   UNL A   1      31.668  27.814  24.206  1.00  0.00     0.295 C 
ATOM      7  N   UNL A   1      30.771  26.658  23.965  1.00  0.00    -0.319 N 
ATOM      8  C   UNL A   1      29.466  27.153  23.557  1.00  0.00     0.263 C 
ATOM      9  H   UNL A   1      30.646  26.158  24.844  1.00  0.00     0.349 HD
ATOM     10  C   UNL A   1      29.722  28.479  22.876  1.00  0.00     0.068 C 
ATOM     11  C   UNL A   1      30.967  29.022  23.560  1.00  0.00     0.083 C 
BRANCH   7  12
ATOM     12  C   UNL A   1      31.344  25.570  23.154  1.00  0.00     0.307 C 
BRANCH  12  13
ATOM     13  C   UNL A   1      32.596  24.907  23.697  1.00  0.00     0.091 A 
ATOM     14  C   UNL A   1      34.434  21.525  26.989  1.00  0.00     0.045 C 
ATOM     15  C   UNL A   1      33.428  22.538  26.531  1.00  0.00    -0.033 A 
ATOM     16  C   UNL A   1      32.263  22.633  27.193  1.00  0.00     0.098 A 
ATOM     17  C   UNL A   1      33.634  23.384  25.342  1.00  0.00     0.021 A 
ATOM     18  C   UNL A   1      31.191  23.559  26.820  1.00  0.00     0.336 A 
ATOM     19  C   UNL A   1      32.591  24.223  24.928  1.00  0.00     0.151 A 
ATOM     20  C   UNL A   1      34.783  23.350  24.544  1.00  0.00     0.016 A 
ATOM     21  O   UNL A   1      30.128  23.578  27.428  1.00  0.00    -0.246 OA
ATOM     22  O   UNL A   1      31.449  24.382  25.743  1.00  0.00    -0.422 OA
ATOM     23  C   UNL A   1      34.869  24.113  23.374  1.00  0.00     0.047 A 
ATOM     24  C   UNL A   1      33.779  24.870  22.953  1.00  0.00     0.128 A 
BRANCH  24  25
ATOM     25  O   UNL A   1      33.856  25.572  21.784  1.00  0.00    -0.507 OA
ATOM     26  H   UNL A   1      33.910  25.115  20.967  1.00  0.00     0.293 HD
ENDBRANCH  24  25
ENDBRANCH  12  13
ENDBRANCH   7  12
ENDBRANCH   4   6
ENDBRANCH   3   4
ENDBRANCH   2   3
ENDBRANCH   1   2
BRANCH   1  27
ATOM     27  O   UNL A   1      33.930  30.998  27.519  1.00  0.00    -0.374 OA
BRANCH  27  28
ATOM     28  C   UNL A   1      32.564  31.236  27.187  1.00  0.00     0.202 C 
BRANCH  28  29
ATOM     29  C   UNL A   1      32.100  32.691  27.304  1.00  0.00     0.261 C 
BRANCH  29  30
ATOM     30  O   UNL A   1      33.220  33.593  27.316  1.00  0.00    -0.460 OA
BRANCH  30  31
ATOM     31  C   UNL A   1      33.259  34.418  28.385  1.00  0.00     0.338 C 
ATOM     32  O   UNL A   1      32.419  35.239  28.728  1.00  0.00    -0.246 OA
BRANCH  31  33
ATOM     33  C   UNL A   1      34.413  34.078  29.230  1.00  0.00     0.060 A 
ATOM     34  C   UNL A   1      35.686  34.299  28.690  1.00  0.00     0.016 A 
ATOM     35  C   UNL A   1      34.263  33.505  30.495  1.00  0.00     0.016 A 
ATOM     36  C   UNL A   1      36.819  33.904  29.393  1.00  0.00     0.010 A 
ATOM     37  C   UNL A   1      35.402  33.099  31.197  1.00  0.00     0.010 A 
ATOM     38  C   UNL A   1      36.681  33.266  30.634  1.00  0.00    -0.014 A 
BRANCH  38  39
ATOM     39  C   UNL A   1      37.868  32.650  31.267  1.00  0.00     0.031 A 
ATOM     40  C   UNL A   1      38.485  31.438  30.632  1.00  0.00     0.074 A 
ATOM     41  C   UNL A   1      38.407  33.183  32.376  1.00  0.00     0.049 A 
ATOM     42  N   UNL A   1      39.510  30.727  31.028  1.00  0.00    -0.248 NA
ATOM     43  C   UNL A   1      37.864  30.963  29.386  1.00  0.00     0.031 C 
ATOM     44  C   UNL A   1      37.924  34.382  33.059  1.00  0.00     0.029 A 
ATOM     45  N   UNL A   1      39.479  32.773  33.127  1.00  0.00    -0.354 N 
ATOM     46  C   UNL A   1      39.656  29.721  30.081  1.00  0.00     0.074 A 
ATOM     47  C   UNL A   1      38.594  29.893  29.112  1.00  0.00     0.031 C 
ATOM     48  C   UNL A   1      38.690  34.603  34.140  1.00  0.00     0.029 A 
ATOM     49  C   UNL A   1      39.693  33.545  34.241  1.00  0.00     0.049 A 
ATOM     50  H   UNL A   1      40.042  32.001  32.889  1.00  0.00     0.167 HD
ATOM     51  C   UNL A   1      40.592  28.744  30.019  1.00  0.00     0.031 A 
ATOM     52  C   UNL A   1      40.577  33.396  35.245  1.00  0.00     0.031 A 
ATOM     53  C   UNL A   1      41.631  28.559  30.998  1.00  0.00     0.049 A 
ATOM     54  C   UNL A   1      41.548  32.247  35.211  1.00  0.00     0.074 A 
ATOM     55  C   UNL A   1      42.640  27.613  31.017  1.00  0.00     0.029 A 
ATOM     56  N   UNL A   1      41.781  29.329  32.141  1.00  0.00    -0.354 N 
ATOM     57  N   UNL A   1      41.698  31.322  34.294  1.00  0.00    -0.248 NA
ATOM     58  C   UNL A   1      42.471  32.125  36.349  1.00  0.00     0.031 C 
ATOM     59  C   UNL A   1      43.363  27.772  32.205  1.00  0.00     0.029 A 
ATOM     60  C   UNL A   1      42.839  28.855  32.896  1.00  0.00     0.049 A 
ATOM     61  H   UNL A   1      41.217  30.101  32.380  1.00  0.00     0.167 HD
ATOM     62  C   UNL A   1      42.736  30.512  34.738  1.00  0.00     0.074 A 
ATOM     63  C   UNL A   1      43.192  31.068  35.996  1.00  0.00     0.031 C 
ATOM     64  C   UNL A   1      43.263  29.406  34.157  1.00  0.00     0.031 A 
BRANCH  51  65
ATOM     65  C   UNL A   1      40.496  27.777  28.874  1.00  0.00    -0.014 A 
ATOM     66  C   UNL A   1      41.185  27.997  27.671  1.00  0.00     0.009 A 
ATOM     67  C   UNL A   1      39.703  26.626  29.001  1.00  0.00     0.009 A 
ATOM     68  C   UNL A   1      41.044  27.110  26.602  1.00  0.00     0.001 A 
ATOM     69  C   UNL A   1      39.587  25.725  27.941  1.00  0.00     0.001 A 
ATOM     70  C   UNL A   1      40.247  25.973  26.738  1.00  0.00     0.000 A 
ENDBRANCH  51  65
BRANCH  52  71
ATOM     71  C   UNL A   1      40.549  34.341  36.391  1.00  0.00    -0.014 A 
ATOM     72  C   UNL A   1      41.315  35.515  36.376  1.00  0.00     0.009 A 
ATOM     73  C   UNL A   1      39.732  34.076  37.503  1.00  0.00     0.009 A 
ATOM     74  C   UNL A   1      41.270  36.400  37.457  1.00  0.00     0.001 A 
ATOM     75  C   UNL A   1      39.670  34.974  38.569  1.00  0.00     0.001 A 
ATOM     76  C   UNL A   1      40.443  36.133  38.548  1.00  0.00     0.000 A 
ENDBRANCH  52  71
BRANCH  64  77
ATOM     77  C   UNL A   1      44.390  28.721  34.877  1.00  0.00    -0.014 A 
ATOM     78  C   UNL A   1      45.724  29.099  34.656  1.00  0.00     0.009 A 
ATOM     79  C   UNL A   1      44.113  27.725  35.827  1.00  0.00     0.009 A 
ATOM     80  C   UNL A   1      46.759  28.477  35.358  1.00  0.00     0.001 A 
ATOM     81  C   UNL A   1      45.148  27.124  36.545  1.00  0.00     0.001 A 
ATOM     82  C   UNL A   1      46.469  27.495  36.305  1.00  0.00     0.000 A 
ENDBRANCH  64  77
ENDBRANCH  38  39
ENDBRANCH  31  33
ENDBRANCH  30  31
ENDBRANCH  29  30
ENDBRANCH  28  29
ENDBRANCH  27  28
ENDBRANCH   1  27
TORSDOF 17
ENDMDL
