MODEL 1
REMARK VINA RESULT:     -10.3      0.000      0.000
REMARK SMILES C[C@H]1CCC[C@@H]([NH2+]Cc2ccc(C(=O)OCCOCCOC(=O)c3ccc(-c4c5nc(c(-c6ccccc6)c6ccc([nH]6)c(-c6ccccc6)c6nc(c(-c7ccccc7)c7ccc4[nH]7)C=C6)C=C5)cc3)cn2)C1
REMARK SMILES IDX 17 1 16 2 15 3 13 4 14 5 12 6 9 7 10 8 73 9 11 10 72 11 8 12
REMARK SMILES IDX 7 13 6 16 1 17 2 18 3 19 74 20 4 21 5 22 18 23 19 24 20 25
REMARK SMILES IDX 21 26 22 27 23 28 24 29 25 30 71 31 26 32 70 33 27 34 28 35
REMARK SMILES IDX 29 36 64 37 30 38 69 39 63 40 65 41 31 42 68 43 62 44 61 45
REMARK SMILES IDX 32 47 54 48 39 49 53 50 40 51 43 52 52 53 66 54 41 55 42 56
REMARK SMILES IDX 51 58 67 59 44 60 33 61 34 62 38 63 35 64 37 65 36 66 55 67
REMARK SMILES IDX 56 68 60 69 57 70 59 71 58 72 45 73 46 74 50 75 47 76 49 77
REMARK SMILES IDX 48 78
REMARK H PARENT 7 14 7 15 65 46 43 57
REMARK Flexibility Score: inf
ROOT
ATOM      1  C   UNL A   1      44.667  19.947  24.614  1.00  0.00     0.202 C 
ENDROOT
BRANCH   1   2
ATOM      2  C   UNL A   1      43.874  18.899  25.400  1.00  0.00     0.261 C 
BRANCH   2   3
ATOM      3  O   UNL A   1      42.459  19.090  25.242  1.00  0.00    -0.460 OA
BRANCH   3   4
ATOM      4  C   UNL A   1      41.797  19.402  26.381  1.00  0.00     0.339 C 
ATOM      5  O   UNL A   1      42.224  19.313  27.523  1.00  0.00    -0.246 OA
BRANCH   4   6
ATOM      6  C   UNL A   1      40.504  20.028  26.063  1.00  0.00     0.078 A 
ATOM      7  C   UNL A   1      38.147  21.385  25.640  1.00  0.00     0.094 A 
ATOM      8  C   UNL A   1      38.263  20.063  25.199  1.00  0.00     0.031 A 
ATOM      9  N   UNL A   1      39.188  22.053  26.195  1.00  0.00    -0.254 NA
ATOM     10  C   UNL A   1      39.456  19.373  25.418  1.00  0.00     0.019 A 
ATOM     11  C   UNL A   1      40.332  21.361  26.403  1.00  0.00     0.127 A 
BRANCH   7  12
ATOM     12  C   UNL A   1      36.813  22.115  25.587  1.00  0.00     0.318 C 
BRANCH  12  13
ATOM     13  N   UNL A   1      35.790  21.298  24.924  1.00  0.00    -0.339 N 
ATOM     14  H   UNL A   1      36.121  21.079  23.984  1.00  0.00     0.346 HD
ATOM     15  H   UNL A   1      35.659  20.475  25.512  1.00  0.00     0.346 HD
BRANCH  13  16
ATOM     16  C   UNL A   1      34.473  21.927  24.804  1.00  0.00     0.182 C 
ATOM     17  C   UNL A   1      33.564  24.990  22.573  1.00  0.00     0.008 C 
ATOM     18  C   UNL A   1      33.334  23.851  23.566  1.00  0.00    -0.008 C 
ATOM     19  C   UNL A   1      32.280  22.874  23.035  1.00  0.00     0.004 C 
ATOM     20  C   UNL A   1      34.652  23.124  23.852  1.00  0.00     0.068 C 
ATOM     21  C   UNL A   1      32.089  21.691  23.978  1.00  0.00     0.006 C 
ATOM     22  C   UNL A   1      33.405  20.968  24.254  1.00  0.00     0.065 C 
ENDBRANCH  13  16
ENDBRANCH  12  13
ENDBRANCH   7  12
ENDBRANCH   4   6
ENDBRANCH   3   4
ENDBRANCH   2   3
ENDBRANCH   1   2
BRANCH   1  23
ATOM     23  O   UNL A   1      45.779  20.545  25.276  1.00  0.00    -0.374 OA
BRANCH  23  24
ATOM     24  C   UNL A   1      45.618  21.873  25.776  1.00  0.00     0.202 C 
BRANCH  24  25
ATOM     25  C   UNL A   1      45.876  23.025  24.797  1.00  0.00     0.261 C 
BRANCH  25  26
ATOM     26  O   UNL A   1      45.120  24.204  25.127  1.00  0.00    -0.460 OA
BRANCH  26  27
ATOM     27  C   UNL A   1      43.785  24.093  24.928  1.00  0.00     0.338 C 
ATOM     28  O   UNL A   1      43.203  23.283  24.223  1.00  0.00    -0.246 OA
BRANCH  27  29
ATOM     29  C   UNL A   1      43.067  25.000  25.842  1.00  0.00     0.060 A 
ATOM     30  C   UNL A   1      43.515  26.324  25.928  1.00  0.00     0.016 A 
ATOM     31  C   UNL A   1      42.028  24.546  26.656  1.00  0.00     0.016 A 
ATOM     32  C   UNL A   1      42.960  27.189  26.866  1.00  0.00     0.010 A 
ATOM     33  C   UNL A   1      41.476  25.414  27.604  1.00  0.00     0.010 A 
ATOM     34  C   UNL A   1      41.966  26.727  27.738  1.00  0.00    -0.014 A 
BRANCH  34  35
ATOM     35  C   UNL A   1      41.544  27.568  28.883  1.00  0.00     0.031 A 
ATOM     36  C   UNL A   1      42.315  27.484  30.173  1.00  0.00     0.074 A 
ATOM     37  C   UNL A   1      40.505  28.413  28.771  1.00  0.00     0.049 A 
ATOM     38  N   UNL A   1      42.098  28.096  31.308  1.00  0.00    -0.248 NA
ATOM     39  C   UNL A   1      43.484  26.590  30.182  1.00  0.00     0.031 C 
ATOM     40  C   UNL A   1      39.710  28.623  27.563  1.00  0.00     0.029 A 
ATOM     41  N   UNL A   1      39.941  29.253  29.698  1.00  0.00    -0.354 N 
ATOM     42  C   UNL A   1      43.094  27.652  32.170  1.00  0.00     0.074 A 
ATOM     43  C   UNL A   1      43.897  26.698  31.435  1.00  0.00     0.031 C 
ATOM     44  C   UNL A   1      38.753  29.531  27.824  1.00  0.00     0.029 A 
ATOM     45  C   UNL A   1      38.847  29.935  29.225  1.00  0.00     0.049 A 
ATOM     46  H   UNL A   1      40.286  29.356  30.614  1.00  0.00     0.167 HD
ATOM     47  C   UNL A   1      43.325  28.009  33.457  1.00  0.00     0.031 A 
ATOM     48  C   UNL A   1      38.004  30.774  29.858  1.00  0.00     0.031 A 
ATOM     49  C   UNL A   1      42.520  28.949  34.191  1.00  0.00     0.049 A 
ATOM     50  C   UNL A   1      38.232  31.093  31.311  1.00  0.00     0.074 A 
ATOM     51  C   UNL A   1      42.682  29.390  35.493  1.00  0.00     0.029 A 
ATOM     52  N   UNL A   1      41.397  29.587  33.688  1.00  0.00    -0.354 N 
ATOM     53  N   UNL A   1      39.189  30.685  32.109  1.00  0.00    -0.248 NA
ATOM     54  C   UNL A   1      37.262  31.995  31.951  1.00  0.00     0.031 C 
ATOM     55  C   UNL A   1      41.619  30.248  35.798  1.00  0.00     0.029 A 
ATOM     56  C   UNL A   1      40.836  30.393  34.665  1.00  0.00     0.049 A 
ATOM     57  H   UNL A   1      41.048  29.482  32.773  1.00  0.00     0.167 HD
ATOM     58  C   UNL A   1      38.956  31.304  33.331  1.00  0.00     0.074 A 
ATOM     59  C   UNL A   1      37.774  32.125  33.166  1.00  0.00     0.031 C 
ATOM     60  C   UNL A   1      39.659  31.204  34.486  1.00  0.00     0.031 A 
BRANCH  47  61
ATOM     61  C   UNL A   1      44.475  27.348  34.163  1.00  0.00    -0.014 A 
ATOM     62  C   UNL A   1      45.762  27.908  34.152  1.00  0.00     0.009 A 
ATOM     63  C   UNL A   1      44.259  26.159  34.878  1.00  0.00     0.009 A 
ATOM     64  C   UNL A   1      46.816  27.272  34.812  1.00  0.00     0.001 A 
ATOM     65  C   UNL A   1      45.307  25.542  35.562  1.00  0.00     0.001 A 
ATOM     66  C   UNL A   1      46.586  26.093  35.520  1.00  0.00     0.000 A 
ENDBRANCH  47  61
BRANCH  48  67
ATOM     67  C   UNL A   1      36.850  31.360  29.127  1.00  0.00    -0.014 A 
ATOM     68  C   UNL A   1      35.701  30.595  28.870  1.00  0.00     0.009 A 
ATOM     69  C   UNL A   1      36.901  32.684  28.662  1.00  0.00     0.009 A 
ATOM     70  C   UNL A   1      34.640  31.136  28.142  1.00  0.00     0.001 A 
ATOM     71  C   UNL A   1      35.825  33.232  27.961  1.00  0.00     0.001 A 
ATOM     72  C   UNL A   1      34.700  32.455  27.692  1.00  0.00     0.000 A 
ENDBRANCH  48  67
BRANCH  60  73
ATOM     73  C   UNL A   1      39.193  32.032  35.652  1.00  0.00    -0.014 A 
ATOM     74  C   UNL A   1      38.268  31.535  36.582  1.00  0.00     0.009 A 
ATOM     75  C   UNL A   1      39.724  33.319  35.844  1.00  0.00     0.009 A 
ATOM     76  C   UNL A   1      37.858  32.322  37.661  1.00  0.00     0.001 A 
ATOM     77  C   UNL A   1      39.336  34.091  36.940  1.00  0.00     0.001 A 
ATOM     78  C   UNL A   1      38.396  33.596  37.842  1.00  0.00     0.000 A 
ENDBRANCH  60  73
ENDBRANCH  34  35
ENDBRANCH  27  29
ENDBRANCH  26  27
ENDBRANCH  25  26
ENDBRANCH  24  25
ENDBRANCH  23  24
ENDBRANCH   1  23
TORSDOF 17
ENDMDL
MODEL 2
REMARK VINA RESULT:     -10.0      5.694     12.663
REMARK SMILES C[C@H]1CCC[C@@H]([NH2+]Cc2ccc(C(=O)OCCOCCOC(=O)c3ccc(-c4c5nc(c(-c6ccccc6)c6ccc([nH]6)c(-c6ccccc6)c6nc(c(-c7ccccc7)c7ccc4[nH]7)C=C6)C=C5)cc3)cn2)C1
REMARK SMILES IDX 17 1 16 2 15 3 13 4 14 5 12 6 9 7 10 8 73 9 11 10 72 11 8 12
REMARK SMILES IDX 7 13 6 16 1 17 2 18 3 19 74 20 4 21 5 22 18 23 19 24 20 25
REMARK SMILES IDX 21 26 22 27 23 28 24 29 25 30 71 31 26 32 70 33 27 34 28 35
REMARK SMILES IDX 29 36 64 37 30 38 69 39 63 40 65 41 31 42 68 43 62 44 61 45
REMARK SMILES IDX 32 47 54 48 39 49 53 50 40 51 43 52 52 53 66 54 41 55 42 56
REMARK SMILES IDX 51 58 67 59 44 60 33 61 34 62 38 63 35 64 37 65 36 66 55 67
REMARK SMILES IDX 56 68 60 69 57 70 59 71 58 72 45 73 46 74 50 75 47 76 49 77
REMARK SMILES IDX 48 78
REMARK H PARENT 7 14 7 15 65 46 43 57
REMARK Flexibility Score: inf
ROOT
ATOM      1  C   UNL A   1      34.403  35.452  28.474  1.00  0.00     0.202 C 
ENDROOT
BRANCH   1   2
ATOM      2  C   UNL A   1      32.925  35.723  28.771  1.00  0.00     0.261 C 
BRANCH   2   3
ATOM      3  O   UNL A   1      32.565  35.258  30.082  1.00  0.00    -0.460 OA
BRANCH   3   4
ATOM      4  C   UNL A   1      32.933  36.076  31.096  1.00  0.00     0.339 C 
ATOM      5  O   UNL A   1      32.545  37.218  31.293  1.00  0.00    -0.246 OA
BRANCH   4   6
ATOM      6  C   UNL A   1      33.777  35.347  32.057  1.00  0.00     0.078 A 
ATOM      7  C   UNL A   1      35.474  34.212  33.903  1.00  0.00     0.094 A 
ATOM      8  C   UNL A   1      34.770  33.385  33.022  1.00  0.00     0.031 A 
ATOM      9  N   UNL A   1      35.284  35.555  33.937  1.00  0.00    -0.254 NA
ATOM     10  C   UNL A   1      33.914  33.960  32.082  1.00  0.00     0.019 A 
ATOM     11  C   UNL A   1      34.454  36.090  33.012  1.00  0.00     0.127 A 
BRANCH   7  12
ATOM     12  C   UNL A   1      36.550  33.648  34.820  1.00  0.00     0.318 C 
BRANCH  12  13
ATOM     13  N   UNL A   1      37.886  34.086  34.397  1.00  0.00    -0.339 N 
ATOM     14  H   UNL A   1      37.821  35.064  34.113  1.00  0.00     0.346 HD
ATOM     15  H   UNL A   1      38.500  33.935  35.197  1.00  0.00     0.346 HD
BRANCH  13  16
ATOM     16  C   UNL A   1      38.467  33.329  33.287  1.00  0.00     0.182 C 
ATOM     17  C   UNL A   1      38.667  34.464  29.565  1.00  0.00     0.008 C 
ATOM     18  C   UNL A   1      38.867  33.550  30.773  1.00  0.00    -0.008 C 
ATOM     19  C   UNL A   1      40.356  33.262  30.994  1.00  0.00     0.004 C 
ATOM     20  C   UNL A   1      38.245  34.180  32.023  1.00  0.00     0.068 C 
ATOM     21  C   UNL A   1      40.583  32.410  32.239  1.00  0.00     0.006 C 
ATOM     22  C   UNL A   1      39.965  33.048  33.481  1.00  0.00     0.065 C 
ENDBRANCH  13  16
ENDBRANCH  12  13
ENDBRANCH   7  12
ENDBRANCH   4   6
ENDBRANCH   3   4
ENDBRANCH   2   3
ENDBRANCH   1   2
BRANCH   1  23
ATOM     23  O   UNL A   1      34.722  34.191  27.889  1.00  0.00    -0.374 OA
BRANCH  23  24
ATOM     24  C   UNL A   1      33.828  33.103  28.128  1.00  0.00     0.202 C 
BRANCH  24  25
ATOM     25  C   UNL A   1      34.447  31.707  28.265  1.00  0.00     0.261 C 
BRANCH  25  26
ATOM     26  O   UNL A   1      35.871  31.757  28.465  1.00  0.00    -0.460 OA
BRANCH  26  27
ATOM     27  C   UNL A   1      36.304  31.157  29.599  1.00  0.00     0.338 C 
ATOM     28  O   UNL A   1      35.747  31.132  30.686  1.00  0.00    -0.246 OA
BRANCH  27  29
ATOM     29  C   UNL A   1      37.504  30.351  29.312  1.00  0.00     0.060 A 
ATOM     30  C   UNL A   1      38.316  29.988  30.394  1.00  0.00     0.016 A 
ATOM     31  C   UNL A   1      37.871  30.025  28.006  1.00  0.00     0.016 A 
ATOM     32  C   UNL A   1      39.527  29.340  30.171  1.00  0.00     0.010 A 
ATOM     33  C   UNL A   1      39.092  29.380  27.783  1.00  0.00     0.010 A 
ATOM     34  C   UNL A   1      39.942  29.068  28.860  1.00  0.00    -0.014 A 
BRANCH  34  35
ATOM     35  C   UNL A   1      41.324  28.596  28.611  1.00  0.00     0.031 A 
ATOM     36  C   UNL A   1      42.459  29.579  28.705  1.00  0.00     0.074 A 
ATOM     37  C   UNL A   1      41.570  27.305  28.328  1.00  0.00     0.049 A 
ATOM     38  N   UNL A   1      43.735  29.394  28.486  1.00  0.00    -0.248 NA
ATOM     39  C   UNL A   1      42.106  30.954  29.094  1.00  0.00     0.031 C 
ATOM     40  C   UNL A   1      40.565  26.247  28.257  1.00  0.00     0.029 A 
ATOM     41  N   UNL A   1      42.752  26.669  28.044  1.00  0.00    -0.354 N 
ATOM     42  C   UNL A   1      44.336  30.629  28.699  1.00  0.00     0.074 A 
ATOM     43  C   UNL A   1      43.281  31.562  29.035  1.00  0.00     0.031 C 
ATOM     44  C   UNL A   1      41.173  25.089  27.943  1.00  0.00     0.029 A 
ATOM     45  C   UNL A   1      42.601  25.336  27.755  1.00  0.00     0.049 A 
ATOM     46  H   UNL A   1      43.624  27.125  28.047  1.00  0.00     0.167 HD
ATOM     47  C   UNL A   1      45.649  30.958  28.629  1.00  0.00     0.031 A 
ATOM     48  C   UNL A   1      43.509  24.422  27.360  1.00  0.00     0.031 A 
ATOM     49  C   UNL A   1      46.696  30.034  28.284  1.00  0.00     0.049 A 
ATOM     50  C   UNL A   1      44.950  24.831  27.208  1.00  0.00     0.074 A 
ATOM     51  C   UNL A   1      48.058  30.266  28.201  1.00  0.00     0.029 A 
ATOM     52  N   UNL A   1      46.496  28.702  27.957  1.00  0.00    -0.354 N 
ATOM     53  N   UNL A   1      45.510  25.995  27.434  1.00  0.00    -0.248 NA
ATOM     54  C   UNL A   1      45.887  23.794  26.750  1.00  0.00     0.031 C 
ATOM     55  C   UNL A   1      48.675  29.089  27.764  1.00  0.00     0.029 A 
ATOM     56  C   UNL A   1      47.706  28.107  27.641  1.00  0.00     0.049 A 
ATOM     57  H   UNL A   1      45.623  28.246  27.951  1.00  0.00     0.167 HD
ATOM     58  C   UNL A   1      46.864  25.823  27.178  1.00  0.00     0.074 A 
ATOM     59  C   UNL A   1      47.044  24.438  26.792  1.00  0.00     0.031 C 
ATOM     60  C   UNL A   1      47.870  26.728  27.257  1.00  0.00     0.031 A 
BRANCH  47  61
ATOM     61  C   UNL A   1      46.018  32.391  28.892  1.00  0.00    -0.014 A 
ATOM     62  C   UNL A   1      46.359  32.835  30.179  1.00  0.00     0.009 A 
ATOM     63  C   UNL A   1      46.055  33.306  27.827  1.00  0.00     0.009 A 
ATOM     64  C   UNL A   1      46.695  34.173  30.400  1.00  0.00     0.001 A 
ATOM     65  C   UNL A   1      46.419  34.635  28.045  1.00  0.00     0.001 A 
ATOM     66  C   UNL A   1      46.729  35.069  29.332  1.00  0.00     0.000 A 
ENDBRANCH  47  61
BRANCH  48  67
ATOM     67  C   UNL A   1      43.083  23.030  27.060  1.00  0.00    -0.014 A 
ATOM     68  C   UNL A   1      42.673  22.168  28.088  1.00  0.00     0.009 A 
ATOM     69  C   UNL A   1      43.106  22.549  25.741  1.00  0.00     0.009 A 
ATOM     70  C   UNL A   1      42.319  20.847  27.805  1.00  0.00     0.001 A 
ATOM     71  C   UNL A   1      42.723  21.237  25.457  1.00  0.00     0.001 A 
ATOM     72  C   UNL A   1      42.339  20.384  26.490  1.00  0.00     0.000 A 
ENDBRANCH  48  67
BRANCH  60  73
ATOM     73  C   UNL A   1      49.262  26.243  26.959  1.00  0.00    -0.014 A 
ATOM     74  C   UNL A   1      49.811  26.334  25.671  1.00  0.00     0.009 A 
ATOM     75  C   UNL A   1      50.052  25.724  27.999  1.00  0.00     0.009 A 
ATOM     76  C   UNL A   1      51.109  25.884  25.424  1.00  0.00     0.001 A 
ATOM     77  C   UNL A   1      51.360  25.303  27.754  1.00  0.00     0.001 A 
ATOM     78  C   UNL A   1      51.884  25.374  26.466  1.00  0.00     0.000 A 
ENDBRANCH  60  73
ENDBRANCH  34  35
ENDBRANCH  27  29
ENDBRANCH  26  27
ENDBRANCH  25  26
ENDBRANCH  24  25
ENDBRANCH  23  24
ENDBRANCH   1  23
TORSDOF 17
ENDMDL
MODEL 3
REMARK VINA RESULT:      -9.9      1.557      2.525
REMARK SMILES C[C@H]1CCC[C@@H]([NH2+]Cc2ccc(C(=O)OCCOCCOC(=O)c3ccc(-c4c5nc(c(-c6ccccc6)c6ccc([nH]6)c(-c6ccccc6)c6nc(c(-c7ccccc7)c7ccc4[nH]7)C=C6)C=C5)cc3)cn2)C1
REMARK SMILES IDX 17 1 16 2 15 3 13 4 14 5 12 6 9 7 10 8 73 9 11 10 72 11 8 12
REMARK SMILES IDX 7 13 6 16 1 17 2 18 3 19 74 20 4 21 5 22 18 23 19 24 20 25
REMARK SMILES IDX 21 26 22 27 23 28 24 29 25 30 71 31 26 32 70 33 27 34 28 35
REMARK SMILES IDX 29 36 64 37 30 38 69 39 63 40 65 41 31 42 68 43 62 44 61 45
REMARK SMILES IDX 32 47 54 48 39 49 53 50 40 51 43 52 52 53 66 54 41 55 42 56
REMARK SMILES IDX 51 58 67 59 44 60 33 61 34 62 38 63 35 64 37 65 36 66 55 67
REMARK SMILES IDX 56 68 60 69 57 70 59 71 58 72 45 73 46 74 50 75 47 76 49 77
REMARK SMILES IDX 48 78
REMARK H PARENT 7 14 7 15 65 46 43 57
REMARK Flexibility Score: inf
ROOT
ATOM      1  C   UNL A   1      40.826  20.503  26.324  1.00  0.00     0.202 C 
ENDROOT
BRANCH   1   2
ATOM      2  C   UNL A   1      39.887  21.683  26.590  1.00  0.00     0.261 C 
BRANCH   2   3
ATOM      3  O   UNL A   1      38.731  21.631  25.739  1.00  0.00    -0.460 OA
BRANCH   3   4
ATOM      4  C   UNL A   1      37.963  22.745  25.755  1.00  0.00     0.339 C 
ATOM      5  O   UNL A   1      38.303  23.864  26.111  1.00  0.00    -0.246 OA
BRANCH   4   6
ATOM      6  C   UNL A   1      36.659  22.474  25.127  1.00  0.00     0.078 A 
ATOM      7  C   UNL A   1      34.233  22.209  23.855  1.00  0.00     0.094 A 
ATOM      8  C   UNL A   1      34.587  21.292  24.850  1.00  0.00     0.031 A 
ATOM      9  N   UNL A   1      35.083  23.178  23.434  1.00  0.00    -0.254 NA
ATOM     10  C   UNL A   1      35.815  21.429  25.499  1.00  0.00     0.019 A 
ATOM     11  C   UNL A   1      36.265  23.296  24.082  1.00  0.00     0.127 A 
BRANCH   7  12
ATOM     12  C   UNL A   1      32.837  22.210  23.249  1.00  0.00     0.318 C 
BRANCH  12  13
ATOM     13  N   UNL A   1      31.824  22.541  24.258  1.00  0.00    -0.339 N 
ATOM     14  H   UNL A   1      30.908  22.304  23.876  1.00  0.00     0.346 HD
ATOM     15  H   UNL A   1      32.068  22.006  25.091  1.00  0.00     0.346 HD
BRANCH  13  16
ATOM     16  C   UNL A   1      31.792  23.946  24.670  1.00  0.00     0.182 C 
ATOM     17  C   UNL A   1      31.170  27.021  22.360  1.00  0.00     0.008 C 
ATOM     18  C   UNL A   1      31.444  26.268  23.661  1.00  0.00    -0.008 C 
ATOM     19  C   UNL A   1      30.340  26.539  24.687  1.00  0.00     0.004 C 
ATOM     20  C   UNL A   1      31.573  24.766  23.385  1.00  0.00     0.068 C 
ATOM     21  C   UNL A   1      30.556  25.738  25.967  1.00  0.00     0.006 C 
ATOM     22  C   UNL A   1      30.678  24.242  25.685  1.00  0.00     0.065 C 
ENDBRANCH  13  16
ENDBRANCH  12  13
ENDBRANCH   7  12
ENDBRANCH   4   6
ENDBRANCH   3   4
ENDBRANCH   2   3
ENDBRANCH   1   2
BRANCH   1  23
ATOM     23  O   UNL A   1      42.210  20.706  26.601  1.00  0.00    -0.374 OA
BRANCH  23  24
ATOM     24  C   UNL A   1      43.149  20.336  25.590  1.00  0.00     0.202 C 
BRANCH  24  25
ATOM     25  C   UNL A   1      44.130  21.417  25.118  1.00  0.00     0.261 C 
BRANCH  25  26
ATOM     26  O   UNL A   1      44.335  22.440  26.108  1.00  0.00    -0.460 OA
BRANCH  26  27
ATOM     27  C   UNL A   1      44.393  23.700  25.616  1.00  0.00     0.338 C 
ATOM     28  O   UNL A   1      44.893  24.063  24.561  1.00  0.00    -0.246 OA
BRANCH  27  29
ATOM     29  C   UNL A   1      43.593  24.605  26.459  1.00  0.00     0.060 A 
ATOM     30  C   UNL A   1      43.896  25.972  26.414  1.00  0.00     0.016 A 
ATOM     31  C   UNL A   1      42.620  24.121  27.335  1.00  0.00     0.016 A 
ATOM     32  C   UNL A   1      43.263  26.856  27.282  1.00  0.00     0.010 A 
ATOM     33  C   UNL A   1      41.990  25.009  28.213  1.00  0.00     0.010 A 
ATOM     34  C   UNL A   1      42.336  26.373  28.216  1.00  0.00    -0.014 A 
BRANCH  34  35
ATOM     35  C   UNL A   1      41.841  27.268  29.289  1.00  0.00     0.031 A 
ATOM     36  C   UNL A   1      42.559  27.288  30.611  1.00  0.00     0.074 A 
ATOM     37  C   UNL A   1      40.782  28.069  29.083  1.00  0.00     0.049 A 
ATOM     38  N   UNL A   1      42.276  27.959  31.697  1.00  0.00    -0.248 NA
ATOM     39  C   UNL A   1      43.754  26.435  30.722  1.00  0.00     0.031 C 
ATOM     40  C   UNL A   1      40.032  28.179  27.833  1.00  0.00     0.029 A 
ATOM     41  N   UNL A   1      40.153  28.944  29.933  1.00  0.00    -0.354 N 
ATOM     42  C   UNL A   1      43.248  27.602  32.624  1.00  0.00     0.074 A 
ATOM     43  C   UNL A   1      44.110  26.633  31.982  1.00  0.00     0.031 C 
ATOM     44  C   UNL A   1      39.037  29.068  27.999  1.00  0.00     0.029 A 
ATOM     45  C   UNL A   1      39.060  29.559  29.376  1.00  0.00     0.049 A 
ATOM     46  H   UNL A   1      40.456  29.114  30.854  1.00  0.00     0.167 HD
ATOM     47  C   UNL A   1      43.413  28.044  33.894  1.00  0.00     0.031 A 
ATOM     48  C   UNL A   1      38.165  30.406  29.921  1.00  0.00     0.031 A 
ATOM     49  C   UNL A   1      42.549  28.999  34.536  1.00  0.00     0.049 A 
ATOM     50  C   UNL A   1      38.322  30.820  31.360  1.00  0.00     0.074 A 
ATOM     51  C   UNL A   1      42.642  29.523  35.814  1.00  0.00     0.029 A 
ATOM     52  N   UNL A   1      41.429  29.567  33.950  1.00  0.00    -0.354 N 
ATOM     53  N   UNL A   1      39.257  30.493  32.219  1.00  0.00    -0.248 NA
ATOM     54  C   UNL A   1      37.298  31.725  31.903  1.00  0.00     0.031 C 
ATOM     55  C   UNL A   1      41.542  30.361  36.022  1.00  0.00     0.029 A 
ATOM     56  C   UNL A   1      40.803  30.412  34.852  1.00  0.00     0.049 A 
ATOM     57  H   UNL A   1      41.123  29.395  33.030  1.00  0.00     0.167 HD
ATOM     58  C   UNL A   1      38.953  31.176  33.390  1.00  0.00     0.074 A 
ATOM     59  C   UNL A   1      37.754  31.946  33.127  1.00  0.00     0.031 C 
ATOM     60  C   UNL A   1      39.609  31.170  34.576  1.00  0.00     0.031 A 
BRANCH  47  61
ATOM     61  C   UNL A   1      44.552  27.466  34.685  1.00  0.00    -0.014 A 
ATOM     62  C   UNL A   1      45.818  28.072  34.698  1.00  0.00     0.009 A 
ATOM     63  C   UNL A   1      44.346  26.310  35.456  1.00  0.00     0.009 A 
ATOM     64  C   UNL A   1      46.863  27.513  35.438  1.00  0.00     0.001 A 
ATOM     65  C   UNL A   1      45.383  25.771  36.218  1.00  0.00     0.001 A 
ATOM     66  C   UNL A   1      46.643  26.367  36.201  1.00  0.00     0.000 A 
ENDBRANCH  47  61
BRANCH  48  67
ATOM     67  C   UNL A   1      37.025  30.907  29.110  1.00  0.00    -0.014 A 
ATOM     68  C   UNL A   1      36.958  32.255  28.722  1.00  0.00     0.009 A 
ATOM     69  C   UNL A   1      35.982  30.043  28.739  1.00  0.00     0.009 A 
ATOM     70  C   UNL A   1      35.860  32.729  28.001  1.00  0.00     0.001 A 
ATOM     71  C   UNL A   1      34.901  30.514  27.992  1.00  0.00     0.001 A 
ATOM     72  C   UNL A   1      34.835  31.858  27.633  1.00  0.00     0.000 A 
ENDBRANCH  48  67
BRANCH  60  73
ATOM     73  C   UNL A   1      39.069  32.051  35.670  1.00  0.00    -0.014 A 
ATOM     74  C   UNL A   1      38.161  31.565  36.622  1.00  0.00     0.009 A 
ATOM     75  C   UNL A   1      39.513  33.381  35.770  1.00  0.00     0.009 A 
ATOM     76  C   UNL A   1      37.682  32.402  37.632  1.00  0.00     0.001 A 
ATOM     77  C   UNL A   1      39.055  34.206  36.799  1.00  0.00     0.001 A 
ATOM     78  C   UNL A   1      38.133  33.719  37.722  1.00  0.00     0.000 A 
ENDBRANCH  60  73
ENDBRANCH  34  35
ENDBRANCH  27  29
ENDBRANCH  26  27
ENDBRANCH  25  26
ENDBRANCH  24  25
ENDBRANCH  23  24
ENDBRANCH   1  23
TORSDOF 17
ENDMDL
