MODEL 1
REMARK VINA RESULT:     -10.5      0.000      0.000
REMARK SMILES COC(=O)[C@H]1CN(C(=O)[C@@H]2CC=CC[C@@H]2C(=O)OCCOCCOC(=O)c2ccc(-c3c4nc(c(-c5ccccc5)c5ccc([nH]5)c(-c5ccccc5)c5nc(c(-c6ccccc6)c6ccc3[nH]6)C=C5)C=C4)cc2)C[C@H]1C
REMARK SMILES IDX 20 1 19 2 18 3 16 4 17 5 15 6 10 7 11 8 12 9 14 10 13 11
REMARK SMILES IDX 8 12 9 13 7 14 5 15 6 16 76 17 75 18 77 19 3 20 4 21 2 22
REMARK SMILES IDX 1 23 21 24 22 25 23 26 24 27 25 28 26 29 27 30 28 31 74 32
REMARK SMILES IDX 29 33 73 34 30 35 31 36 32 37 67 38 33 39 72 40 66 41 68 42
REMARK SMILES IDX 34 43 71 44 65 45 64 46 35 48 57 49 42 50 56 51 43 52 46 53
REMARK SMILES IDX 55 54 69 55 44 56 45 57 54 59 70 60 47 61 36 62 37 63 41 64
REMARK SMILES IDX 38 65 40 66 39 67 58 68 59 69 63 70 60 71 62 72 61 73 48 74
REMARK SMILES IDX 49 75 53 76 50 77 52 78 51 79
REMARK H PARENT 68 47 46 58
REMARK Flexibility Score: inf
ROOT
ATOM      1  C   UNL A   1      32.065  29.516  26.300  1.00  0.00     0.202 C 
ENDROOT
BRANCH   1   2
ATOM      2  C   UNL A   1      33.055  29.686  25.149  1.00  0.00     0.261 C 
BRANCH   2   3
ATOM      3  O   UNL A   1      33.887  28.527  24.906  1.00  0.00    -0.463 OA
BRANCH   3   4
ATOM      4  C   UNL A   1      33.801  27.996  23.653  1.00  0.00     0.310 C 
ATOM      5  O   UNL A   1      34.004  28.628  22.622  1.00  0.00    -0.252 OA
BRANCH   4   6
ATOM      6  C   UNL A   1      33.393  26.537  23.620  1.00  0.00     0.115 C 
ATOM      7  C   UNL A   1      31.882  26.273  23.610  1.00  0.00     0.097 C 
ATOM      8  C   UNL A   1      31.196  26.307  24.980  1.00  0.00     0.041 C 
ATOM      9  C   UNL A   1      32.059  25.777  26.089  1.00  0.00    -0.030 C 
ATOM     10  C   UNL A   1      34.116  25.678  24.667  1.00  0.00     0.043 C 
ATOM     11  C   UNL A   1      33.360  25.489  25.948  1.00  0.00    -0.030 C 
BRANCH   7  12
ATOM     12  C   UNL A   1      31.140  26.925  22.440  1.00  0.00     0.226 C 
ATOM     13  O   UNL A   1      31.477  26.586  21.297  1.00  0.00    -0.275 OA
BRANCH  12  14
ATOM     14  N   UNL A   1      30.156  27.867  22.603  1.00  0.00    -0.341 N 
ATOM     15  C   UNL A   1      29.150  29.950  22.114  1.00  0.00     0.123 C 
ATOM     16  C   UNL A   1      30.475  29.279  22.463  1.00  0.00     0.135 C 
ATOM     17  C   UNL A   1      28.050  28.945  22.516  1.00  0.00     0.021 C 
ATOM     18  C   UNL A   1      28.812  27.765  23.119  1.00  0.00     0.123 C 
ATOM     19  C   UNL A   1      26.958  29.434  23.462  1.00  0.00     0.010 C 
BRANCH  15  20
ATOM     20  C   UNL A   1      29.053  31.315  22.750  1.00  0.00     0.310 C 
ATOM     21  O   UNL A   1      29.165  31.540  23.946  1.00  0.00    -0.252 OA
BRANCH  20  22
ATOM     22  O   UNL A   1      28.782  32.247  21.795  1.00  0.00    -0.469 OA
ATOM     23  C   UNL A   1      28.133  31.754  20.622  1.00  0.00     0.282 C 
ENDBRANCH  20  22
ENDBRANCH  15  20
ENDBRANCH  12  14
ENDBRANCH   7  12
ENDBRANCH   4   6
ENDBRANCH   3   4
ENDBRANCH   2   3
ENDBRANCH   1   2
BRANCH   1  24
ATOM     24  O   UNL A   1      31.837  30.649  27.129  1.00  0.00    -0.374 OA
BRANCH  24  25
ATOM     25  C   UNL A   1      31.271  31.801  26.516  1.00  0.00     0.202 C 
BRANCH  25  26
ATOM     26  C   UNL A   1      32.018  33.126  26.720  1.00  0.00     0.261 C 
BRANCH  26  27
ATOM     27  O   UNL A   1      32.184  33.487  28.106  1.00  0.00    -0.460 OA
BRANCH  27  28
ATOM     28  C   UNL A   1      33.313  34.187  28.368  1.00  0.00     0.338 C 
ATOM     29  O   UNL A   1      33.394  35.367  28.681  1.00  0.00    -0.246 OA
BRANCH  28  30
ATOM     30  C   UNL A   1      34.511  33.325  28.364  1.00  0.00     0.060 A 
ATOM     31  C   UNL A   1      34.372  32.038  28.900  1.00  0.00     0.016 A 
ATOM     32  C   UNL A   1      35.776  33.828  28.047  1.00  0.00     0.016 A 
ATOM     33  C   UNL A   1      35.502  31.287  29.217  1.00  0.00     0.010 A 
ATOM     34  C   UNL A   1      36.911  33.073  28.373  1.00  0.00     0.010 A 
ATOM     35  C   UNL A   1      36.778  31.829  29.019  1.00  0.00    -0.014 A 
BRANCH  35  36
ATOM     36  C   UNL A   1      37.932  31.193  29.706  1.00  0.00     0.031 A 
ATOM     37  C   UNL A   1      38.175  31.512  31.161  1.00  0.00     0.074 A 
ATOM     38  C   UNL A   1      38.700  30.279  29.088  1.00  0.00     0.049 A 
ATOM     39  N   UNL A   1      39.078  31.030  31.977  1.00  0.00    -0.248 NA
ATOM     40  C   UNL A   1      37.275  32.501  31.777  1.00  0.00     0.031 C 
ATOM     41  C   UNL A   1      38.544  29.836  27.705  1.00  0.00     0.029 A 
ATOM     42  N   UNL A   1      39.761  29.548  29.561  1.00  0.00    -0.354 N 
ATOM     43  C   UNL A   1      38.855  31.656  33.199  1.00  0.00     0.074 A 
ATOM     44  C   UNL A   1      37.755  32.575  33.010  1.00  0.00     0.031 C 
ATOM     45  C   UNL A   1      39.475  28.903  27.440  1.00  0.00     0.029 A 
ATOM     46  C   UNL A   1      40.303  28.698  28.629  1.00  0.00     0.049 A 
ATOM     47  H   UNL A   1      40.102  29.625  30.481  1.00  0.00     0.167 HD
ATOM     48  C   UNL A   1      39.497  31.479  34.377  1.00  0.00     0.031 A 
ATOM     49  C   UNL A   1      41.348  27.854  28.721  1.00  0.00     0.031 A 
ATOM     50  C   UNL A   1      40.595  30.573  34.580  1.00  0.00     0.049 A 
ATOM     51  C   UNL A   1      42.091  27.722  30.023  1.00  0.00     0.074 A 
ATOM     52  C   UNL A   1      41.304  30.322  35.742  1.00  0.00     0.029 A 
ATOM     53  N   UNL A   1      41.143  29.770  33.593  1.00  0.00    -0.354 N 
ATOM     54  N   UNL A   1      41.857  28.308  31.172  1.00  0.00    -0.248 NA
ATOM     55  C   UNL A   1      43.239  26.803  30.041  1.00  0.00     0.031 C 
ATOM     56  C   UNL A   1      42.311  29.396  35.447  1.00  0.00     0.029 A 
ATOM     57  C   UNL A   1      42.197  29.039  34.114  1.00  0.00     0.049 A 
ATOM     58  H   UNL A   1      40.830  29.726  32.661  1.00  0.00     0.167 HD
ATOM     59  C   UNL A   1      42.807  27.809  32.054  1.00  0.00     0.074 A 
ATOM     60  C   UNL A   1      43.616  26.865  31.311  1.00  0.00     0.031 C 
ATOM     61  C   UNL A   1      42.992  28.103  33.364  1.00  0.00     0.031 A 
BRANCH  48  62
ATOM     62  C   UNL A   1      39.041  32.311  35.541  1.00  0.00    -0.014 A 
ATOM     63  C   UNL A   1      38.110  31.816  36.468  1.00  0.00     0.009 A 
ATOM     64  C   UNL A   1      39.566  33.599  35.724  1.00  0.00     0.009 A 
ATOM     65  C   UNL A   1      37.693  32.608  37.540  1.00  0.00     0.001 A 
ATOM     66  C   UNL A   1      39.163  34.380  36.809  1.00  0.00     0.001 A 
ATOM     67  C   UNL A   1      38.222  33.887  37.711  1.00  0.00     0.000 A 
ENDBRANCH  48  62
BRANCH  49  68
ATOM     68  C   UNL A   1      41.769  27.062  27.536  1.00  0.00    -0.014 A 
ATOM     69  C   UNL A   1      42.684  27.586  26.611  1.00  0.00     0.009 A 
ATOM     70  C   UNL A   1      41.236  25.782  27.318  1.00  0.00     0.009 A 
ATOM     71  C   UNL A   1      43.039  26.851  25.478  1.00  0.00     0.001 A 
ATOM     72  C   UNL A   1      41.612  25.041  26.195  1.00  0.00     0.001 A 
ATOM     73  C   UNL A   1      42.507  25.579  25.273  1.00  0.00     0.000 A 
ENDBRANCH  49  68
BRANCH  61  74
ATOM     74  C   UNL A   1      44.087  27.374  34.088  1.00  0.00    -0.014 A 
ATOM     75  C   UNL A   1      43.850  26.140  34.713  1.00  0.00     0.009 A 
ATOM     76  C   UNL A   1      45.385  27.909  34.105  1.00  0.00     0.009 A 
ATOM     77  C   UNL A   1      44.888  25.469  35.365  1.00  0.00     0.001 A 
ATOM     78  C   UNL A   1      46.425  27.226  34.738  1.00  0.00     0.001 A 
ATOM     79  C   UNL A   1      46.173  26.011  35.374  1.00  0.00     0.000 A 
ENDBRANCH  61  74
ENDBRANCH  35  36
ENDBRANCH  28  30
ENDBRANCH  27  28
ENDBRANCH  26  27
ENDBRANCH  25  26
ENDBRANCH  24  25
ENDBRANCH   1  24
TORSDOF 18
ENDMDL
MODEL 2
REMARK VINA RESULT:     -10.0      2.155      4.579
REMARK SMILES COC(=O)[C@H]1CN(C(=O)[C@@H]2CC=CC[C@@H]2C(=O)OCCOCCOC(=O)c2ccc(-c3c4nc(c(-c5ccccc5)c5ccc([nH]5)c(-c5ccccc5)c5nc(c(-c6ccccc6)c6ccc3[nH]6)C=C5)C=C4)cc2)C[C@H]1C
REMARK SMILES IDX 20 1 19 2 18 3 16 4 17 5 15 6 10 7 11 8 12 9 14 10 13 11
REMARK SMILES IDX 8 12 9 13 7 14 5 15 6 16 76 17 75 18 77 19 3 20 4 21 2 22
REMARK SMILES IDX 1 23 21 24 22 25 23 26 24 27 25 28 26 29 27 30 28 31 74 32
REMARK SMILES IDX 29 33 73 34 30 35 31 36 32 37 67 38 33 39 72 40 66 41 68 42
REMARK SMILES IDX 34 43 71 44 65 45 64 46 35 48 57 49 42 50 56 51 43 52 46 53
REMARK SMILES IDX 55 54 69 55 44 56 45 57 54 59 70 60 47 61 36 62 37 63 41 64
REMARK SMILES IDX 38 65 40 66 39 67 58 68 59 69 63 70 60 71 62 72 61 73 48 74
REMARK SMILES IDX 49 75 53 76 50 77 52 78 51 79
REMARK H PARENT 68 47 46 58
REMARK Flexibility Score: inf
ROOT
ATOM      1  C   UNL A   1      31.032  28.838  23.275  1.00  0.00     0.202 C 
ENDROOT
BRANCH   1   2
ATOM      2  C   UNL A   1      30.394  27.477  23.552  1.00  0.00     0.261 C 
BRANCH   2   3
ATOM      3  O   UNL A   1      31.246  26.348  23.240  1.00  0.00    -0.463 OA
BRANCH   3   4
ATOM      4  C   UNL A   1      31.032  25.228  23.989  1.00  0.00     0.310 C 
ATOM      5  O   UNL A   1      30.822  24.116  23.518  1.00  0.00    -0.252 OA
BRANCH   4   6
ATOM      6  C   UNL A   1      31.041  25.467  25.485  1.00  0.00     0.115 C 
ATOM      7  C   UNL A   1      32.252  24.901  26.238  1.00  0.00     0.097 C 
ATOM      8  C   UNL A   1      32.171  23.414  26.598  1.00  0.00     0.041 C 
ATOM      9  C   UNL A   1      30.779  22.960  26.935  1.00  0.00    -0.030 C 
ATOM     10  C   UNL A   1      29.718  25.093  26.169  1.00  0.00     0.043 C 
ATOM     11  C   UNL A   1      29.685  23.712  26.751  1.00  0.00    -0.030 C 
BRANCH   7  12
ATOM     12  C   UNL A   1      33.600  25.427  25.738  1.00  0.00     0.226 C 
ATOM     13  O   UNL A   1      33.764  26.655  25.739  1.00  0.00    -0.275 OA
BRANCH  12  14
ATOM     14  N   UNL A   1      34.603  24.611  25.277  1.00  0.00    -0.341 N 
ATOM     15  C   UNL A   1      36.229  22.921  25.574  1.00  0.00     0.123 C 
ATOM     16  C   UNL A   1      35.680  24.214  26.170  1.00  0.00     0.135 C 
ATOM     17  C   UNL A   1      35.729  22.882  24.115  1.00  0.00     0.021 C 
ATOM     18  C   UNL A   1      34.954  24.189  23.942  1.00  0.00     0.123 C 
ATOM     19  C   UNL A   1      36.771  22.713  23.015  1.00  0.00     0.010 C 
BRANCH  15  20
ATOM     20  C   UNL A   1      37.724  22.835  25.756  1.00  0.00     0.310 C 
ATOM     21  O   UNL A   1      38.364  21.795  25.815  1.00  0.00    -0.252 OA
BRANCH  20  22
ATOM     22  O   UNL A   1      38.242  24.087  25.889  1.00  0.00    -0.469 OA
ATOM     23  C   UNL A   1      39.079  24.288  27.029  1.00  0.00     0.282 C 
ENDBRANCH  20  22
ENDBRANCH  15  20
ENDBRANCH  12  14
ENDBRANCH   7  12
ENDBRANCH   4   6
ENDBRANCH   3   4
ENDBRANCH   2   3
ENDBRANCH   1   2
BRANCH   1  24
ATOM     24  O   UNL A   1      32.017  29.288  24.197  1.00  0.00    -0.374 OA
BRANCH  24  25
ATOM     25  C   UNL A   1      31.618  29.442  25.554  1.00  0.00     0.202 C 
BRANCH  25  26
ATOM     26  C   UNL A   1      31.964  30.779  26.223  1.00  0.00     0.261 C 
BRANCH  26  27
ATOM     27  O   UNL A   1      32.773  30.638  27.408  1.00  0.00    -0.460 OA
BRANCH  27  28
ATOM     28  C   UNL A   1      33.580  31.696  27.660  1.00  0.00     0.338 C 
ATOM     29  O   UNL A   1      33.236  32.845  27.906  1.00  0.00    -0.246 OA
BRANCH  28  30
ATOM     30  C   UNL A   1      34.999  31.301  27.740  1.00  0.00     0.060 A 
ATOM     31  C   UNL A   1      35.279  29.929  27.763  1.00  0.00     0.016 A 
ATOM     32  C   UNL A   1      36.006  32.234  28.001  1.00  0.00     0.016 A 
ATOM     33  C   UNL A   1      36.540  29.478  28.146  1.00  0.00     0.010 A 
ATOM     34  C   UNL A   1      37.274  31.778  28.392  1.00  0.00     0.010 A 
ATOM     35  C   UNL A   1      37.523  30.399  28.529  1.00  0.00    -0.014 A 
BRANCH  35  36
ATOM     36  C   UNL A   1      38.701  29.904  29.288  1.00  0.00     0.031 A 
ATOM     37  C   UNL A   1      38.828  30.269  30.747  1.00  0.00     0.074 A 
ATOM     38  C   UNL A   1      39.595  29.070  28.730  1.00  0.00     0.049 A 
ATOM     39  N   UNL A   1      39.733  29.901  31.619  1.00  0.00    -0.248 NA
ATOM     40  C   UNL A   1      37.794  31.163  31.294  1.00  0.00     0.031 C 
ATOM     41  C   UNL A   1      39.563  28.592  27.350  1.00  0.00     0.029 A 
ATOM     42  N   UNL A   1      40.702  28.466  29.273  1.00  0.00    -0.354 N 
ATOM     43  C   UNL A   1      39.377  30.517  32.814  1.00  0.00     0.074 A 
ATOM     44  C   UNL A   1      38.196  31.307  32.548  1.00  0.00     0.031 C 
ATOM     45  C   UNL A   1      40.603  27.762  27.154  1.00  0.00     0.029 A 
ATOM     46  C   UNL A   1      41.383  27.667  28.388  1.00  0.00     0.049 A 
ATOM     47  H   UNL A   1      40.982  28.594  30.208  1.00  0.00     0.167 HD
ATOM     48  C   UNL A   1      39.971  30.430  34.027  1.00  0.00     0.031 A 
ATOM     49  C   UNL A   1      42.507  26.944  28.553  1.00  0.00     0.031 A 
ATOM     50  C   UNL A   1      41.148  29.652  34.306  1.00  0.00     0.049 A 
ATOM     51  C   UNL A   1      43.189  26.914  29.894  1.00  0.00     0.074 A 
ATOM     52  C   UNL A   1      41.815  29.498  35.508  1.00  0.00     0.029 A 
ATOM     53  N   UNL A   1      41.832  28.900  33.366  1.00  0.00    -0.354 N 
ATOM     54  N   UNL A   1      42.830  27.488  31.017  1.00  0.00    -0.248 NA
ATOM     55  C   UNL A   1      44.427  26.126  29.991  1.00  0.00     0.031 C 
ATOM     56  C   UNL A   1      42.932  28.684  35.286  1.00  0.00     0.029 A 
ATOM     57  C   UNL A   1      42.930  28.296  33.956  1.00  0.00     0.049 A 
ATOM     58  H   UNL A   1      41.577  28.808  32.421  1.00  0.00     0.167 HD
ATOM     59  C   UNL A   1      43.780  27.109  31.957  1.00  0.00     0.074 A 
ATOM     60  C   UNL A   1      44.725  26.248  31.277  1.00  0.00     0.031 C 
ATOM     61  C   UNL A   1      43.860  27.441  33.269  1.00  0.00     0.031 A 
BRANCH  48  62
ATOM     62  C   UNL A   1      39.364  31.225  35.148  1.00  0.00    -0.014 A 
ATOM     63  C   UNL A   1      38.406  30.659  36.005  1.00  0.00     0.009 A 
ATOM     64  C   UNL A   1      39.774  32.549  35.363  1.00  0.00     0.009 A 
ATOM     65  C   UNL A   1      37.849  31.417  37.037  1.00  0.00     0.001 A 
ATOM     66  C   UNL A   1      39.231  33.296  36.410  1.00  0.00     0.001 A 
ATOM     67  C   UNL A   1      38.264  32.733  37.241  1.00  0.00     0.000 A 
ENDBRANCH  48  62
BRANCH  49  68
ATOM     68  C   UNL A   1      43.075  26.185  27.408  1.00  0.00    -0.014 A 
ATOM     69  C   UNL A   1      43.904  26.816  26.470  1.00  0.00     0.009 A 
ATOM     70  C   UNL A   1      42.767  24.825  27.241  1.00  0.00     0.009 A 
ATOM     71  C   UNL A   1      44.397  26.104  25.373  1.00  0.00     0.001 A 
ATOM     72  C   UNL A   1      43.281  24.112  26.156  1.00  0.00     0.001 A 
ATOM     73  C   UNL A   1      44.089  24.753  25.220  1.00  0.00     0.000 A 
ENDBRANCH  49  68
BRANCH  61  74
ATOM     74  C   UNL A   1      44.988  26.848  34.064  1.00  0.00    -0.014 A 
ATOM     75  C   UNL A   1      46.211  27.521  34.204  1.00  0.00     0.009 A 
ATOM     76  C   UNL A   1      44.806  25.619  34.719  1.00  0.00     0.009 A 
ATOM     77  C   UNL A   1      47.241  26.960  34.964  1.00  0.00     0.001 A 
ATOM     78  C   UNL A   1      45.829  25.073  35.495  1.00  0.00     0.001 A 
ATOM     79  C   UNL A   1      47.047  25.740  35.610  1.00  0.00     0.000 A 
ENDBRANCH  61  74
ENDBRANCH  35  36
ENDBRANCH  28  30
ENDBRANCH  27  28
ENDBRANCH  26  27
ENDBRANCH  25  26
ENDBRANCH  24  25
ENDBRANCH   1  24
TORSDOF 18
ENDMDL
MODEL 3
REMARK VINA RESULT:      -9.9      1.201      5.818
REMARK SMILES COC(=O)[C@H]1CN(C(=O)[C@@H]2CC=CC[C@@H]2C(=O)OCCOCCOC(=O)c2ccc(-c3c4nc(c(-c5ccccc5)c5ccc([nH]5)c(-c5ccccc5)c5nc(c(-c6ccccc6)c6ccc3[nH]6)C=C5)C=C4)cc2)C[C@H]1C
REMARK SMILES IDX 20 1 19 2 18 3 16 4 17 5 15 6 10 7 11 8 12 9 14 10 13 11
REMARK SMILES IDX 8 12 9 13 7 14 5 15 6 16 76 17 75 18 77 19 3 20 4 21 2 22
REMARK SMILES IDX 1 23 21 24 22 25 23 26 24 27 25 28 26 29 27 30 28 31 74 32
REMARK SMILES IDX 29 33 73 34 30 35 31 36 32 37 67 38 33 39 72 40 66 41 68 42
REMARK SMILES IDX 34 43 71 44 65 45 64 46 35 48 57 49 42 50 56 51 43 52 46 53
REMARK SMILES IDX 55 54 69 55 44 56 45 57 54 59 70 60 47 61 36 62 37 63 41 64
REMARK SMILES IDX 38 65 40 66 39 67 58 68 59 69 63 70 60 71 62 72 61 73 48 74
REMARK SMILES IDX 49 75 53 76 50 77 52 78 51 79
REMARK H PARENT 68 47 46 58
REMARK Flexibility Score: inf
ROOT
ATOM      1  C   UNL A   1      32.101  29.554  26.766  1.00  0.00     0.202 C 
ENDROOT
BRANCH   1   2
ATOM      2  C   UNL A   1      32.683  29.692  25.359  1.00  0.00     0.261 C 
BRANCH   2   3
ATOM      3  O   UNL A   1      33.736  28.745  25.058  1.00  0.00    -0.463 OA
BRANCH   3   4
ATOM      4  C   UNL A   1      33.718  28.233  23.794  1.00  0.00     0.310 C 
ATOM      5  O   UNL A   1      33.869  28.903  22.778  1.00  0.00    -0.252 OA
BRANCH   4   6
ATOM      6  C   UNL A   1      33.461  26.741  23.728  1.00  0.00     0.115 C 
ATOM      7  C   UNL A   1      31.984  26.326  23.708  1.00  0.00     0.097 C 
ATOM      8  C   UNL A   1      31.297  26.261  25.075  1.00  0.00     0.041 C 
ATOM      9  C   UNL A   1      32.208  25.797  26.176  1.00  0.00    -0.030 C 
ATOM     10  C   UNL A   1      34.266  25.938  24.759  1.00  0.00     0.043 C 
ATOM     11  C   UNL A   1      33.532  25.646  26.033  1.00  0.00    -0.030 C 
BRANCH   7  12
ATOM     12  C   UNL A   1      31.182  26.925  22.549  1.00  0.00     0.226 C 
ATOM     13  O   UNL A   1      31.556  26.650  21.401  1.00  0.00    -0.275 OA
BRANCH  12  14
ATOM     14  N   UNL A   1      30.104  27.754  22.730  1.00  0.00    -0.341 N 
ATOM     15  C   UNL A   1      28.889  29.734  22.287  1.00  0.00     0.123 C 
ATOM     16  C   UNL A   1      30.275  29.195  22.628  1.00  0.00     0.135 C 
ATOM     17  C   UNL A   1      27.897  28.610  22.654  1.00  0.00     0.021 C 
ATOM     18  C   UNL A   1      28.775  27.500  23.232  1.00  0.00     0.123 C 
ATOM     19  C   UNL A   1      26.756  28.957  23.603  1.00  0.00     0.010 C 
BRANCH  15  20
ATOM     20  C   UNL A   1      28.648  31.064  22.956  1.00  0.00     0.310 C 
ATOM     21  O   UNL A   1      29.223  31.457  23.961  1.00  0.00    -0.252 OA
BRANCH  20  22
ATOM     22  O   UNL A   1      27.665  31.737  22.298  1.00  0.00    -0.469 OA
ATOM     23  C   UNL A   1      28.111  32.629  21.274  1.00  0.00     0.282 C 
ENDBRANCH  20  22
ENDBRANCH  15  20
ENDBRANCH  12  14
ENDBRANCH   7  12
ENDBRANCH   4   6
ENDBRANCH   3   4
ENDBRANCH   2   3
ENDBRANCH   1   2
BRANCH   1  24
ATOM     24  O   UNL A   1      31.708  30.754  27.421  1.00  0.00    -0.374 OA
BRANCH  24  25
ATOM     25  C   UNL A   1      31.479  31.897  26.606  1.00  0.00     0.202 C 
BRANCH  25  26
ATOM     26  C   UNL A   1      32.462  33.065  26.770  1.00  0.00     0.261 C 
BRANCH  26  27
ATOM     27  O   UNL A   1      32.120  33.959  27.847  1.00  0.00    -0.460 OA
BRANCH  27  28
ATOM     28  C   UNL A   1      33.186  34.541  28.446  1.00  0.00     0.338 C 
ATOM     29  O   UNL A   1      33.238  35.665  28.929  1.00  0.00    -0.246 OA
BRANCH  28  30
ATOM     30  C   UNL A   1      34.318  33.607  28.589  1.00  0.00     0.060 A 
ATOM     31  C   UNL A   1      34.195  32.598  29.554  1.00  0.00     0.016 A 
ATOM     32  C   UNL A   1      35.543  33.837  27.958  1.00  0.00     0.016 A 
ATOM     33  C   UNL A   1      35.317  31.883  29.966  1.00  0.00     0.010 A 
ATOM     34  C   UNL A   1      36.673  33.119  28.378  1.00  0.00     0.010 A 
ATOM     35  C   UNL A   1      36.574  32.187  29.429  1.00  0.00    -0.014 A 
BRANCH  35  36
ATOM     36  C   UNL A   1      37.785  31.701  30.140  1.00  0.00     0.031 A 
ATOM     37  C   UNL A   1      38.484  30.469  29.622  1.00  0.00     0.074 A 
ATOM     38  C   UNL A   1      38.315  32.384  31.170  1.00  0.00     0.049 A 
ATOM     39  N   UNL A   1      39.587  29.901  30.041  1.00  0.00    -0.248 NA
ATOM     40  C   UNL A   1      37.859  29.792  28.473  1.00  0.00     0.031 C 
ATOM     41  C   UNL A   1      37.776  33.618  31.737  1.00  0.00     0.029 A 
ATOM     42  N   UNL A   1      39.444  32.135  31.910  1.00  0.00    -0.354 N 
ATOM     43  C   UNL A   1      39.786  28.804  29.211  1.00  0.00     0.074 A 
ATOM     44  C   UNL A   1      38.675  28.765  28.286  1.00  0.00     0.031 C 
ATOM     45  C   UNL A   1      38.579  34.023  32.737  1.00  0.00     0.029 A 
ATOM     46  C   UNL A   1      39.675  33.067  32.891  1.00  0.00     0.049 A 
ATOM     47  H   UNL A   1      40.032  31.361  31.753  1.00  0.00     0.167 HD
ATOM     48  C   UNL A   1      40.803  27.911  29.207  1.00  0.00     0.031 A 
ATOM     49  C   UNL A   1      40.656  33.140  33.811  1.00  0.00     0.031 A 
ATOM     50  C   UNL A   1      41.912  27.933  30.123  1.00  0.00     0.049 A 
ATOM     51  C   UNL A   1      41.742  32.097  33.832  1.00  0.00     0.074 A 
ATOM     52  C   UNL A   1      42.993  27.073  30.190  1.00  0.00     0.029 A 
ATOM     53  N   UNL A   1      42.076  28.866  31.133  1.00  0.00    -0.354 N 
ATOM     54  N   UNL A   1      41.925  31.077  33.029  1.00  0.00    -0.248 NA
ATOM     55  C   UNL A   1      42.764  32.225  34.883  1.00  0.00     0.031 C 
ATOM     56  C   UNL A   1      43.793  27.460  31.271  1.00  0.00     0.029 A 
ATOM     57  C   UNL A   1      43.232  28.589  31.845  1.00  0.00     0.049 A 
ATOM     58  H   UNL A   1      41.464  29.614  31.318  1.00  0.00     0.167 HD
ATOM     59  C   UNL A   1      43.093  30.460  33.460  1.00  0.00     0.074 A 
ATOM     60  C   UNL A   1      43.582  31.225  34.587  1.00  0.00     0.031 C 
ATOM     61  C   UNL A   1      43.708  29.359  32.962  1.00  0.00     0.031 A 
BRANCH  48  62
ATOM     62  C   UNL A   1      40.747  26.809  28.189  1.00  0.00    -0.014 A 
ATOM     63  C   UNL A   1      41.341  26.956  26.925  1.00  0.00     0.009 A 
ATOM     64  C   UNL A   1      40.112  25.599  28.506  1.00  0.00     0.009 A 
ATOM     65  C   UNL A   1      41.273  25.923  25.988  1.00  0.00     0.001 A 
ATOM     66  C   UNL A   1      40.064  24.560  27.575  1.00  0.00     0.001 A 
ATOM     67  C   UNL A   1      40.638  24.725  26.315  1.00  0.00     0.000 A 
ENDBRANCH  48  62
BRANCH  49  68
ATOM     68  C   UNL A   1      40.659  34.243  34.807  1.00  0.00    -0.014 A 
ATOM     69  C   UNL A   1      39.972  34.114  36.022  1.00  0.00     0.009 A 
ATOM     70  C   UNL A   1      41.336  35.441  34.530  1.00  0.00     0.009 A 
ATOM     71  C   UNL A   1      39.944  35.174  36.933  1.00  0.00     0.001 A 
ATOM     72  C   UNL A   1      41.326  36.489  35.453  1.00  0.00     0.001 A 
ATOM     73  C   UNL A   1      40.624  36.357  36.649  1.00  0.00     0.000 A 
ENDBRANCH  49  68
BRANCH  61  74
ATOM     74  C   UNL A   1      44.994  28.934  33.611  1.00  0.00    -0.014 A 
ATOM     75  C   UNL A   1      45.005  28.009  34.665  1.00  0.00     0.009 A 
ATOM     76  C   UNL A   1      46.214  29.434  33.128  1.00  0.00     0.009 A 
ATOM     77  C   UNL A   1      46.215  27.613  35.243  1.00  0.00     0.001 A 
ATOM     78  C   UNL A   1      47.422  29.019  33.692  1.00  0.00     0.001 A 
ATOM     79  C   UNL A   1      47.420  28.115  34.753  1.00  0.00     0.000 A 
ENDBRANCH  61  74
ENDBRANCH  35  36
ENDBRANCH  28  30
ENDBRANCH  27  28
ENDBRANCH  26  27
ENDBRANCH  25  26
ENDBRANCH  24  25
ENDBRANCH   1  24
TORSDOF 18
ENDMDL
