MODEL 1
REMARK VINA RESULT:     -12.0      0.000      0.000
REMARK SMILES Cc1cccc(O[C@H](C)C(=O)NNC(=O)[C@H]2[C@@H]3CC[C@@H](C3)[C@@H]2C(=O)OCCOCCOC(=O)c2ccc(-c3c4nc(c(-c5ccccc5)c5ccc([nH]5)c(-c5ccccc5)c5nc(c(-c6ccccc6)c6ccc3[nH]6)C=C5)C=C4)cc2)c1
REMARK SMILES IDX 26 1 25 2 23 3 24 4 22 5 16 6 17 7 18 8 21 9 20 10 19 11
REMARK SMILES IDX 14 12 13 13 15 15 12 16 10 17 11 18 8 20 9 21 7 22 6 23 1 24
REMARK SMILES IDX 2 25 3 26 82 27 4 28 5 29 27 30 28 31 29 32 30 33 31 34
REMARK SMILES IDX 32 35 33 36 34 37 35 38 81 39 36 40 80 41 37 42 38 43 39 44
REMARK SMILES IDX 74 45 40 46 79 47 73 48 75 49 41 50 78 51 72 52 71 53 42 55
REMARK SMILES IDX 64 56 49 57 63 58 50 59 53 60 62 61 76 62 51 63 52 64 61 66
REMARK SMILES IDX 77 67 54 68 43 69 44 70 48 71 45 72 47 73 46 74 65 75 66 76
REMARK SMILES IDX 70 77 67 78 69 79 68 80 55 81 56 82 60 83 57 84 59 85 58 86
REMARK H PARENT 13 14 12 19 75 54 53 65
REMARK Flexibility Score: inf
ROOT
ATOM      1  C   UNL A   1      36.456  23.835  25.039  1.00  0.00     0.261 C 
ENDROOT
BRANCH   1   2
ATOM      2  O   UNL A   1      35.223  24.215  25.682  1.00  0.00    -0.463 OA
BRANCH   2   3
ATOM      3  C   UNL A   1      34.429  23.279  26.302  1.00  0.00     0.310 C 
ATOM      4  O   UNL A   1      34.366  23.029  27.482  1.00  0.00    -0.252 OA
BRANCH   3   5
ATOM      5  C   UNL A   1      33.492  22.730  25.259  1.00  0.00     0.115 C 
ATOM      6  C   UNL A   1      32.211  22.205  25.908  1.00  0.00     0.098 C 
ATOM      7  C   UNL A   1      31.819  21.019  24.999  1.00  0.00     0.003 C 
ATOM      8  C   UNL A   1      32.680  19.811  25.422  1.00  0.00     0.005 C 
ATOM      9  C   UNL A   1      32.488  21.356  23.664  1.00  0.00     0.009 C 
ATOM     10  C   UNL A   1      33.870  21.595  24.302  1.00  0.00     0.004 C 
ATOM     11  C   UNL A   1      34.096  20.256  25.023  1.00  0.00     0.005 C 
BRANCH   6  12
ATOM     12  C   UNL A   1      31.126  23.201  26.249  1.00  0.00     0.242 C 
ATOM     13  N   UNL A   1      30.593  24.097  25.375  1.00  0.00    -0.267 N 
ATOM     14  H   UNL A   1      30.205  24.902  25.788  1.00  0.00     0.191 HD
ATOM     15  O   UNL A   1      30.714  23.254  27.414  1.00  0.00    -0.273 OA
BRANCH  13  16
ATOM     16  N   UNL A   1      30.512  24.049  23.996  1.00  0.00    -0.264 N 
ATOM     17  C   UNL A   1      30.953  25.073  23.200  1.00  0.00     0.279 C 
ATOM     18  O   UNL A   1      31.614  24.780  22.197  1.00  0.00    -0.269 OA
ATOM     19  H   UNL A   1      30.124  23.250  23.570  1.00  0.00     0.191 HD
BRANCH  17  20
ATOM     20  C   UNL A   1      30.414  26.519  23.398  1.00  0.00     0.260 C 
ATOM     21  C   UNL A   1      29.043  26.460  24.085  1.00  0.00     0.064 C 
BRANCH  20  22
ATOM     22  O   UNL A   1      31.198  27.660  23.685  1.00  0.00    -0.481 OA
BRANCH  22  23
ATOM     23  C   UNL A   1      31.592  28.080  24.913  1.00  0.00     0.120 A 
ATOM     24  C   UNL A   1      31.587  31.540  26.535  1.00  0.00     0.044 C 
ATOM     25  C   UNL A   1      31.816  30.076  26.304  1.00  0.00    -0.047 A 
ATOM     26  C   UNL A   1      32.509  29.324  27.255  1.00  0.00     0.003 A 
ATOM     27  C   UNL A   1      31.359  29.443  25.141  1.00  0.00     0.049 A 
ATOM     28  C   UNL A   1      32.708  27.961  27.056  1.00  0.00     0.004 A 
ATOM     29  C   UNL A   1      32.232  27.335  25.900  1.00  0.00     0.046 A 
ENDBRANCH  22  23
ENDBRANCH  20  22
ENDBRANCH  17  20
ENDBRANCH  13  16
ENDBRANCH   6  12
ENDBRANCH   3   5
ENDBRANCH   2   3
ENDBRANCH   1   2
BRANCH   1  30
ATOM     30  C   UNL A   1      37.539  23.499  26.039  1.00  0.00     0.202 C 
BRANCH  30  31
ATOM     31  O   UNL A   1      37.912  22.151  25.806  1.00  0.00    -0.374 OA
BRANCH  31  32
ATOM     32  C   UNL A   1      39.249  21.810  26.124  1.00  0.00     0.202 C 
BRANCH  32  33
ATOM     33  C   UNL A   1      39.641  20.398  25.665  1.00  0.00     0.261 C 
BRANCH  33  34
ATOM     34  O   UNL A   1      40.721  19.892  26.477  1.00  0.00    -0.460 OA
BRANCH  34  35
ATOM     35  C   UNL A   1      41.973  20.062  25.968  1.00  0.00     0.338 C 
ATOM     36  O   UNL A   1      42.554  19.268  25.246  1.00  0.00    -0.246 OA
BRANCH  35  37
ATOM     37  C   UNL A   1      42.635  21.223  26.633  1.00  0.00     0.060 A 
ATOM     38  C   UNL A   1      42.534  21.390  28.028  1.00  0.00     0.016 A 
ATOM     39  C   UNL A   1      43.052  22.284  25.838  1.00  0.00     0.016 A 
ATOM     40  C   UNL A   1      42.698  22.662  28.604  1.00  0.00     0.010 A 
ATOM     41  C   UNL A   1      43.101  23.543  26.396  1.00  0.00     0.010 A 
ATOM     42  C   UNL A   1      42.910  23.760  27.773  1.00  0.00    -0.014 A 
BRANCH  42  43
ATOM     43  C   UNL A   1      42.867  25.177  28.164  1.00  0.00     0.031 A 
ATOM     44  C   UNL A   1      41.621  25.953  27.935  1.00  0.00     0.074 A 
ATOM     45  C   UNL A   1      43.803  25.735  28.973  1.00  0.00     0.049 A 
ATOM     46  N   UNL A   1      41.547  27.235  28.049  1.00  0.00    -0.248 NA
ATOM     47  C   UNL A   1      40.351  25.362  27.517  1.00  0.00     0.031 C 
ATOM     48  C   UNL A   1      43.588  26.840  29.912  1.00  0.00     0.029 A 
ATOM     49  N   UNL A   1      45.138  25.418  29.173  1.00  0.00    -0.354 N 
ATOM     50  C   UNL A   1      40.216  27.569  28.116  1.00  0.00     0.074 A 
ATOM     51  C   UNL A   1      39.520  26.400  27.639  1.00  0.00     0.031 C 
ATOM     52  C   UNL A   1      44.750  27.211  30.466  1.00  0.00     0.029 A 
ATOM     53  C   UNL A   1      45.802  26.486  29.791  1.00  0.00     0.049 A 
ATOM     54  H   UNL A   1      45.560  24.566  28.918  1.00  0.00     0.167 HD
ATOM     55  C   UNL A   1      39.856  28.739  28.712  1.00  0.00     0.031 A 
ATOM     56  C   UNL A   1      46.931  27.023  29.253  1.00  0.00     0.031 A 
ATOM     57  C   UNL A   1      41.022  29.482  29.217  1.00  0.00     0.049 A 
ATOM     58  C   UNL A   1      46.652  28.438  28.818  1.00  0.00     0.074 A 
ATOM     59  C   UNL A   1      41.482  29.771  30.493  1.00  0.00     0.029 A 
ATOM     60  N   UNL A   1      42.058  29.818  28.348  1.00  0.00    -0.354 N 
ATOM     61  N   UNL A   1      45.435  28.883  28.668  1.00  0.00    -0.248 NA
ATOM     62  C   UNL A   1      47.647  29.475  28.578  1.00  0.00     0.031 C 
ATOM     63  C   UNL A   1      42.801  30.292  30.379  1.00  0.00     0.029 A 
ATOM     64  C   UNL A   1      43.134  30.346  29.034  1.00  0.00     0.049 A 
ATOM     65  H   UNL A   1      42.028  29.696  27.372  1.00  0.00     0.167 HD
ATOM     66  C   UNL A   1      45.448  30.217  28.412  1.00  0.00     0.074 A 
ATOM     67  C   UNL A   1      46.860  30.539  28.311  1.00  0.00     0.031 C 
ATOM     68  C   UNL A   1      44.278  30.911  28.318  1.00  0.00     0.031 A 
BRANCH  55  69
ATOM     69  C   UNL A   1      38.431  29.137  29.049  1.00  0.00    -0.014 A 
ATOM     70  C   UNL A   1      37.520  29.405  28.008  1.00  0.00     0.009 A 
ATOM     71  C   UNL A   1      37.913  29.272  30.348  1.00  0.00     0.009 A 
ATOM     72  C   UNL A   1      36.204  29.828  28.252  1.00  0.00     0.001 A 
ATOM     73  C   UNL A   1      36.606  29.711  30.604  1.00  0.00     0.001 A 
ATOM     74  C   UNL A   1      35.750  29.993  29.553  1.00  0.00     0.000 A 
ENDBRANCH  55  69
BRANCH  56  75
ATOM     75  C   UNL A   1      47.786  25.990  28.601  1.00  0.00    -0.014 A 
ATOM     76  C   UNL A   1      47.838  26.007  27.189  1.00  0.00     0.009 A 
ATOM     77  C   UNL A   1      48.869  25.429  29.296  1.00  0.00     0.009 A 
ATOM     78  C   UNL A   1      48.991  25.600  26.506  1.00  0.00     0.001 A 
ATOM     79  C   UNL A   1      50.030  25.045  28.608  1.00  0.00     0.001 A 
ATOM     80  C   UNL A   1      50.102  25.158  27.220  1.00  0.00     0.000 A 
ENDBRANCH  56  75
BRANCH  68  81
ATOM     81  C   UNL A   1      44.085  32.213  27.587  1.00  0.00    -0.014 A 
ATOM     82  C   UNL A   1      43.863  33.444  28.211  1.00  0.00     0.009 A 
ATOM     83  C   UNL A   1      44.309  32.245  26.191  1.00  0.00     0.009 A 
ATOM     84  C   UNL A   1      43.851  34.638  27.481  1.00  0.00     0.001 A 
ATOM     85  C   UNL A   1      44.352  33.435  25.466  1.00  0.00     0.001 A 
ATOM     86  C   UNL A   1      44.114  34.636  26.114  1.00  0.00     0.000 A 
ENDBRANCH  68  81
ENDBRANCH  42  43
ENDBRANCH  35  37
ENDBRANCH  34  35
ENDBRANCH  33  34
ENDBRANCH  32  33
ENDBRANCH  31  32
ENDBRANCH  30  31
ENDBRANCH   1  30
TORSDOF 19
ENDMDL
MODEL 2
REMARK VINA RESULT:     -11.9      3.840      9.342
REMARK SMILES Cc1cccc(O[C@H](C)C(=O)NNC(=O)[C@H]2[C@@H]3CC[C@@H](C3)[C@@H]2C(=O)OCCOCCOC(=O)c2ccc(-c3c4nc(c(-c5ccccc5)c5ccc([nH]5)c(-c5ccccc5)c5nc(c(-c6ccccc6)c6ccc3[nH]6)C=C5)C=C4)cc2)c1
REMARK SMILES IDX 26 1 25 2 23 3 24 4 22 5 16 6 17 7 18 8 21 9 20 10 19 11
REMARK SMILES IDX 14 12 13 13 15 15 12 16 10 17 11 18 8 20 9 21 7 22 6 23 1 24
REMARK SMILES IDX 2 25 3 26 82 27 4 28 5 29 27 30 28 31 29 32 30 33 31 34
REMARK SMILES IDX 32 35 33 36 34 37 35 38 81 39 36 40 80 41 37 42 38 43 39 44
REMARK SMILES IDX 74 45 40 46 79 47 73 48 75 49 41 50 78 51 72 52 71 53 42 55
REMARK SMILES IDX 64 56 49 57 63 58 50 59 53 60 62 61 76 62 51 63 52 64 61 66
REMARK SMILES IDX 77 67 54 68 43 69 44 70 48 71 45 72 47 73 46 74 65 75 66 76
REMARK SMILES IDX 70 77 67 78 69 79 68 80 55 81 56 82 60 83 57 84 59 85 58 86
REMARK H PARENT 13 14 12 19 75 54 53 65
REMARK Flexibility Score: inf
ROOT
ATOM      1  C   UNL A   1      34.013  29.296  26.586  1.00  0.00     0.261 C 
ENDROOT
BRANCH   1   2
ATOM      2  O   UNL A   1      33.876  28.104  25.785  1.00  0.00    -0.463 OA
BRANCH   2   3
ATOM      3  C   UNL A   1      33.605  28.182  24.440  1.00  0.00     0.310 C 
ATOM      4  O   UNL A   1      34.344  28.552  23.559  1.00  0.00    -0.252 OA
BRANCH   3   5
ATOM      5  C   UNL A   1      32.262  27.539  24.218  1.00  0.00     0.115 C 
ATOM      6  C   UNL A   1      32.091  27.141  22.752  1.00  0.00     0.098 C 
ATOM      7  C   UNL A   1      30.575  27.329  22.513  1.00  0.00     0.003 C 
ATOM      8  C   UNL A   1      30.332  28.832  22.266  1.00  0.00     0.005 C 
ATOM      9  C   UNL A   1      29.975  27.200  23.915  1.00  0.00     0.009 C 
ATOM     10  C   UNL A   1      30.934  28.235  24.533  1.00  0.00     0.004 C 
ATOM     11  C   UNL A   1      30.669  29.453  23.631  1.00  0.00     0.005 C 
BRANCH   6  12
ATOM     12  C   UNL A   1      32.705  25.838  22.292  1.00  0.00     0.242 C 
ATOM     13  N   UNL A   1      32.507  24.634  22.891  1.00  0.00    -0.267 N 
ATOM     14  H   UNL A   1      33.225  23.975  22.749  1.00  0.00     0.191 HD
ATOM     15  O   UNL A   1      33.485  25.857  21.332  1.00  0.00    -0.273 OA
BRANCH  13  16
ATOM     16  N   UNL A   1      31.452  24.191  23.666  1.00  0.00    -0.264 N 
ATOM     17  C   UNL A   1      31.537  24.085  25.028  1.00  0.00     0.279 C 
ATOM     18  O   UNL A   1      30.584  24.498  25.700  1.00  0.00    -0.269 OA
ATOM     19  H   UNL A   1      30.608  23.944  23.222  1.00  0.00     0.191 HD
BRANCH  17  20
ATOM     20  C   UNL A   1      32.660  23.235  25.688  1.00  0.00     0.260 C 
ATOM     21  C   UNL A   1      32.221  22.821  27.099  1.00  0.00     0.064 C 
BRANCH  20  22
ATOM     22  O   UNL A   1      33.510  22.327  25.016  1.00  0.00    -0.481 OA
BRANCH  22  23
ATOM     23  C   UNL A   1      34.856  22.428  24.885  1.00  0.00     0.120 A 
ATOM     24  C   UNL A   1      37.613  19.782  24.875  1.00  0.00     0.044 C 
ATOM     25  C   UNL A   1      36.912  21.108  24.867  1.00  0.00    -0.047 A 
ATOM     26  C   UNL A   1      37.659  22.288  24.871  1.00  0.00     0.003 A 
ATOM     27  C   UNL A   1      35.514  21.191  24.869  1.00  0.00     0.049 A 
ATOM     28  C   UNL A   1      37.015  23.521  24.844  1.00  0.00     0.004 A 
ATOM     29  C   UNL A   1      35.618  23.593  24.828  1.00  0.00     0.046 A 
ENDBRANCH  22  23
ENDBRANCH  20  22
ENDBRANCH  17  20
ENDBRANCH  13  16
ENDBRANCH   6  12
ENDBRANCH   3   5
ENDBRANCH   2   3
ENDBRANCH   1   2
BRANCH   1  30
ATOM     30  C   UNL A   1      32.719  29.672  27.271  1.00  0.00     0.202 C 
BRANCH  30  31
ATOM     31  O   UNL A   1      32.455  31.025  26.938  1.00  0.00    -0.374 OA
BRANCH  31  32
ATOM     32  C   UNL A   1      33.254  31.995  27.591  1.00  0.00     0.202 C 
BRANCH  32  33
ATOM     33  C   UNL A   1      32.642  33.403  27.566  1.00  0.00     0.261 C 
BRANCH  33  34
ATOM     34  O   UNL A   1      33.574  34.362  28.109  1.00  0.00    -0.460 OA
BRANCH  34  35
ATOM     35  C   UNL A   1      33.612  34.445  29.467  1.00  0.00     0.338 C 
ATOM     36  O   UNL A   1      32.713  34.870  30.174  1.00  0.00    -0.246 OA
BRANCH  35  37
ATOM     37  C   UNL A   1      35.004  34.198  29.948  1.00  0.00     0.060 A 
ATOM     38  C   UNL A   1      36.095  34.373  29.075  1.00  0.00     0.016 A 
ATOM     39  C   UNL A   1      35.173  33.489  31.131  1.00  0.00     0.016 A 
ATOM     40  C   UNL A   1      37.309  33.705  29.313  1.00  0.00     0.010 A 
ATOM     41  C   UNL A   1      36.326  32.751  31.296  1.00  0.00     0.010 A 
ATOM     42  C   UNL A   1      37.400  32.828  30.392  1.00  0.00    -0.014 A 
BRANCH  42  43
ATOM     43  C   UNL A   1      38.488  31.875  30.658  1.00  0.00     0.031 A 
ATOM     44  C   UNL A   1      38.396  30.501  30.101  1.00  0.00     0.074 A 
ATOM     45  C   UNL A   1      39.692  32.265  31.146  1.00  0.00     0.049 A 
ATOM     46  N   UNL A   1      39.183  29.538  30.443  1.00  0.00    -0.248 NA
ATOM     47  C   UNL A   1      37.385  30.071  29.137  1.00  0.00     0.031 C 
ATOM     48  C   UNL A   1      40.983  31.627  30.877  1.00  0.00     0.029 A 
ATOM     49  N   UNL A   1      40.043  33.339  31.951  1.00  0.00    -0.354 N 
ATOM     50  C   UNL A   1      39.051  28.543  29.505  1.00  0.00     0.074 A 
ATOM     51  C   UNL A   1      37.831  28.857  28.806  1.00  0.00     0.031 C 
ATOM     52  C   UNL A   1      41.948  32.203  31.607  1.00  0.00     0.029 A 
ATOM     53  C   UNL A   1      41.308  33.129  32.514  1.00  0.00     0.049 A 
ATOM     54  H   UNL A   1      39.484  34.134  32.106  1.00  0.00     0.167 HD
ATOM     55  C   UNL A   1      40.072  27.658  29.330  1.00  0.00     0.031 A 
ATOM     56  C   UNL A   1      41.504  33.202  33.859  1.00  0.00     0.031 A 
ATOM     57  C   UNL A   1      41.207  27.943  30.223  1.00  0.00     0.049 A 
ATOM     58  C   UNL A   1      41.881  31.841  34.383  1.00  0.00     0.074 A 
ATOM     59  C   UNL A   1      42.492  28.415  30.001  1.00  0.00     0.029 A 
ATOM     60  N   UNL A   1      41.007  28.002  31.600  1.00  0.00    -0.354 N 
ATOM     61  N   UNL A   1      41.674  30.756  33.688  1.00  0.00    -0.248 NA
ATOM     62  C   UNL A   1      42.552  31.561  35.645  1.00  0.00     0.031 C 
ATOM     63  C   UNL A   1      43.063  28.749  31.260  1.00  0.00     0.029 A 
ATOM     64  C   UNL A   1      42.138  28.457  32.250  1.00  0.00     0.049 A 
ATOM     65  H   UNL A   1      40.169  27.754  32.052  1.00  0.00     0.167 HD
ATOM     66  C   UNL A   1      42.226  29.682  34.311  1.00  0.00     0.074 A 
ATOM     67  C   UNL A   1      42.721  30.224  35.564  1.00  0.00     0.031 C 
ATOM     68  C   UNL A   1      42.215  28.458  33.711  1.00  0.00     0.031 A 
BRANCH  55  69
ATOM     69  C   UNL A   1      40.160  26.649  28.200  1.00  0.00    -0.014 A 
ATOM     70  C   UNL A   1      39.588  25.373  28.361  1.00  0.00     0.009 A 
ATOM     71  C   UNL A   1      40.784  26.874  26.961  1.00  0.00     0.009 A 
ATOM     72  C   UNL A   1      39.680  24.378  27.376  1.00  0.00     0.001 A 
ATOM     73  C   UNL A   1      40.898  25.882  25.976  1.00  0.00     0.001 A 
ATOM     74  C   UNL A   1      40.348  24.629  26.185  1.00  0.00     0.000 A 
ENDBRANCH  55  69
BRANCH  56  75
ATOM     75  C   UNL A   1      40.655  34.251  34.492  1.00  0.00    -0.014 A 
ATOM     76  C   UNL A   1      39.704  33.812  35.440  1.00  0.00     0.009 A 
ATOM     77  C   UNL A   1      41.118  35.573  34.583  1.00  0.00     0.009 A 
ATOM     78  C   UNL A   1      39.333  34.626  36.518  1.00  0.00     0.001 A 
ATOM     79  C   UNL A   1      40.761  36.375  35.677  1.00  0.00     0.001 A 
ATOM     80  C   UNL A   1      39.895  35.892  36.658  1.00  0.00     0.000 A 
ENDBRANCH  56  75
BRANCH  68  81
ATOM     81  C   UNL A   1      42.321  27.133  34.418  1.00  0.00    -0.014 A 
ATOM     82  C   UNL A   1      41.349  26.617  35.280  1.00  0.00     0.009 A 
ATOM     83  C   UNL A   1      43.382  26.263  34.072  1.00  0.00     0.009 A 
ATOM     84  C   UNL A   1      41.437  25.312  35.778  1.00  0.00     0.001 A 
ATOM     85  C   UNL A   1      43.447  24.946  34.521  1.00  0.00     0.001 A 
ATOM     86  C   UNL A   1      42.474  24.471  35.385  1.00  0.00     0.000 A 
ENDBRANCH  68  81
ENDBRANCH  42  43
ENDBRANCH  35  37
ENDBRANCH  34  35
ENDBRANCH  33  34
ENDBRANCH  32  33
ENDBRANCH  31  32
ENDBRANCH  30  31
ENDBRANCH   1  30
TORSDOF 19
ENDMDL
MODEL 3
REMARK VINA RESULT:     -11.9      1.407      4.481
REMARK SMILES Cc1cccc(O[C@H](C)C(=O)NNC(=O)[C@H]2[C@@H]3CC[C@@H](C3)[C@@H]2C(=O)OCCOCCOC(=O)c2ccc(-c3c4nc(c(-c5ccccc5)c5ccc([nH]5)c(-c5ccccc5)c5nc(c(-c6ccccc6)c6ccc3[nH]6)C=C5)C=C4)cc2)c1
REMARK SMILES IDX 26 1 25 2 23 3 24 4 22 5 16 6 17 7 18 8 21 9 20 10 19 11
REMARK SMILES IDX 14 12 13 13 15 15 12 16 10 17 11 18 8 20 9 21 7 22 6 23 1 24
REMARK SMILES IDX 2 25 3 26 82 27 4 28 5 29 27 30 28 31 29 32 30 33 31 34
REMARK SMILES IDX 32 35 33 36 34 37 35 38 81 39 36 40 80 41 37 42 38 43 39 44
REMARK SMILES IDX 74 45 40 46 79 47 73 48 75 49 41 50 78 51 72 52 71 53 42 55
REMARK SMILES IDX 64 56 49 57 63 58 50 59 53 60 62 61 76 62 51 63 52 64 61 66
REMARK SMILES IDX 77 67 54 68 43 69 44 70 48 71 45 72 47 73 46 74 65 75 66 76
REMARK SMILES IDX 70 77 67 78 69 79 68 80 55 81 56 82 60 83 57 84 59 85 58 86
REMARK H PARENT 13 14 12 19 75 54 53 65
REMARK Flexibility Score: inf
ROOT
ATOM      1  C   UNL A   1      36.116  23.709  24.659  1.00  0.00     0.261 C 
ENDROOT
BRANCH   1   2
ATOM      2  O   UNL A   1      35.157  24.518  25.369  1.00  0.00    -0.463 OA
BRANCH   2   3
ATOM      3  C   UNL A   1      34.186  25.220  24.696  1.00  0.00     0.310 C 
ATOM      4  O   UNL A   1      33.945  25.197  23.513  1.00  0.00    -0.252 OA
BRANCH   3   5
ATOM      5  C   UNL A   1      33.330  25.901  25.731  1.00  0.00     0.115 C 
ATOM      6  C   UNL A   1      31.853  25.826  25.343  1.00  0.00     0.098 C 
ATOM      7  C   UNL A   1      31.278  27.148  25.899  1.00  0.00     0.003 C 
ATOM      8  C   UNL A   1      31.619  28.259  24.886  1.00  0.00     0.005 C 
ATOM      9  C   UNL A   1      32.251  27.516  27.021  1.00  0.00     0.009 C 
ATOM     10  C   UNL A   1      33.497  27.371  26.127  1.00  0.00     0.004 C 
ATOM     11  C   UNL A   1      33.151  28.340  24.983  1.00  0.00     0.005 C 
BRANCH   6  12
ATOM     12  C   UNL A   1      31.097  24.556  25.663  1.00  0.00     0.242 C 
ATOM     13  N   UNL A   1      30.906  23.527  24.794  1.00  0.00    -0.267 N 
ATOM     14  H   UNL A   1      30.115  22.970  24.976  1.00  0.00     0.191 HD
ATOM     15  O   UNL A   1      30.565  24.445  26.774  1.00  0.00    -0.273 OA
BRANCH  13  16
ATOM     16  N   UNL A   1      31.653  23.144  23.696  1.00  0.00    -0.264 N 
ATOM     17  C   UNL A   1      31.899  21.829  23.400  1.00  0.00     0.279 C 
ATOM     18  O   UNL A   1      31.782  21.472  22.221  1.00  0.00    -0.269 OA
ATOM     19  H   UNL A   1      32.021  23.841  23.105  1.00  0.00     0.191 HD
BRANCH  17  20
ATOM     20  C   UNL A   1      32.561  20.892  24.449  1.00  0.00     0.260 C 
ATOM     21  C   UNL A   1      33.022  21.722  25.654  1.00  0.00     0.064 C 
BRANCH  20  22
ATOM     22  O   UNL A   1      32.171  19.562  24.730  1.00  0.00    -0.481 OA
BRANCH  22  23
ATOM     23  C   UNL A   1      32.971  18.467  24.719  1.00  0.00     0.120 A 
ATOM     24  C   UNL A   1      32.346  14.855  25.800  1.00  0.00     0.044 C 
ATOM     25  C   UNL A   1      33.032  16.099  25.318  1.00  0.00    -0.047 A 
ATOM     26  C   UNL A   1      34.401  16.075  25.046  1.00  0.00     0.003 A 
ATOM     27  C   UNL A   1      32.328  17.297  25.146  1.00  0.00     0.049 A 
ATOM     28  C   UNL A   1      35.040  17.221  24.580  1.00  0.00     0.004 A 
ATOM     29  C   UNL A   1      34.324  18.407  24.395  1.00  0.00     0.046 A 
ENDBRANCH  22  23
ENDBRANCH  20  22
ENDBRANCH  17  20
ENDBRANCH  13  16
ENDBRANCH   6  12
ENDBRANCH   3   5
ENDBRANCH   2   3
ENDBRANCH   1   2
BRANCH   1  30
ATOM     30  C   UNL A   1      37.301  23.342  25.523  1.00  0.00     0.202 C 
BRANCH  30  31
ATOM     31  O   UNL A   1      37.213  21.949  25.774  1.00  0.00    -0.374 OA
BRANCH  31  32
ATOM     32  C   UNL A   1      38.335  21.174  25.390  1.00  0.00     0.202 C 
BRANCH  32  33
ATOM     33  C   UNL A   1      39.619  21.551  26.144  1.00  0.00     0.261 C 
BRANCH  33  34
ATOM     34  O   UNL A   1      40.387  20.366  26.443  1.00  0.00    -0.460 OA
BRANCH  34  35
ATOM     35  C   UNL A   1      41.677  20.372  26.007  1.00  0.00     0.338 C 
ATOM     36  O   UNL A   1      42.215  19.470  25.387  1.00  0.00    -0.246 OA
BRANCH  35  37
ATOM     37  C   UNL A   1      42.413  21.514  26.626  1.00  0.00     0.060 A 
ATOM     38  C   UNL A   1      42.389  21.697  28.022  1.00  0.00     0.016 A 
ATOM     39  C   UNL A   1      42.828  22.552  25.800  1.00  0.00     0.016 A 
ATOM     40  C   UNL A   1      42.628  22.967  28.576  1.00  0.00     0.010 A 
ATOM     41  C   UNL A   1      42.950  23.813  26.342  1.00  0.00     0.010 A 
ATOM     42  C   UNL A   1      42.837  24.049  27.724  1.00  0.00    -0.014 A 
BRANCH  42  43
ATOM     43  C   UNL A   1      42.866  25.470  28.102  1.00  0.00     0.031 A 
ATOM     44  C   UNL A   1      41.633  26.284  27.944  1.00  0.00     0.074 A 
ATOM     45  C   UNL A   1      43.869  26.005  28.842  1.00  0.00     0.049 A 
ATOM     46  N   UNL A   1      41.608  27.570  28.049  1.00  0.00    -0.248 NA
ATOM     47  C   UNL A   1      40.320  25.733  27.616  1.00  0.00     0.031 C 
ATOM     48  C   UNL A   1      43.751  27.124  29.781  1.00  0.00     0.029 A 
ATOM     49  N   UNL A   1      45.204  25.646  28.960  1.00  0.00    -0.354 N 
ATOM     50  C   UNL A   1      40.296  27.947  28.198  1.00  0.00     0.074 A 
ATOM     51  C   UNL A   1      39.533  26.798  27.780  1.00  0.00     0.031 C 
ATOM     52  C   UNL A   1      44.958  27.462  30.255  1.00  0.00     0.029 A 
ATOM     53  C   UNL A   1      45.940  26.696  29.522  1.00  0.00     0.049 A 
ATOM     54  H   UNL A   1      45.580  24.778  28.687  1.00  0.00     0.167 HD
ATOM     55  C   UNL A   1      40.012  29.134  28.804  1.00  0.00     0.031 A 
ATOM     56  C   UNL A   1      47.049  27.191  28.906  1.00  0.00     0.031 A 
ATOM     57  C   UNL A   1      41.232  29.843  29.224  1.00  0.00     0.049 A 
ATOM     58  C   UNL A   1      46.788  28.610  28.475  1.00  0.00     0.074 A 
ATOM     59  C   UNL A   1      41.783  30.127  30.464  1.00  0.00     0.029 A 
ATOM     60  N   UNL A   1      42.220  30.137  28.287  1.00  0.00    -0.354 N 
ATOM     61  N   UNL A   1      45.579  29.094  28.399  1.00  0.00    -0.248 NA
ATOM     62  C   UNL A   1      47.798  29.612  28.160  1.00  0.00     0.031 C 
ATOM     63  C   UNL A   1      43.108  30.604  30.260  1.00  0.00     0.029 A 
ATOM     64  C   UNL A   1      43.355  30.635  28.897  1.00  0.00     0.049 A 
ATOM     65  H   UNL A   1      42.123  30.008  27.316  1.00  0.00     0.167 HD
ATOM     66  C   UNL A   1      45.618  30.425  28.128  1.00  0.00     0.074 A 
ATOM     67  C   UNL A   1      47.031  30.699  27.933  1.00  0.00     0.031 C 
ATOM     68  C   UNL A   1      44.468  31.155  28.102  1.00  0.00     0.031 A 
BRANCH  55  69
ATOM     69  C   UNL A   1      38.626  29.582  29.227  1.00  0.00    -0.014 A 
ATOM     70  C   UNL A   1      37.917  30.499  28.427  1.00  0.00     0.009 A 
ATOM     71  C   UNL A   1      37.956  29.156  30.387  1.00  0.00     0.009 A 
ATOM     72  C   UNL A   1      36.654  30.992  28.788  1.00  0.00     0.001 A 
ATOM     73  C   UNL A   1      36.702  29.655  30.767  1.00  0.00     0.001 A 
ATOM     74  C   UNL A   1      36.051  30.579  29.968  1.00  0.00     0.000 A 
ENDBRANCH  55  69
BRANCH  56  75
ATOM     75  C   UNL A   1      47.825  26.124  28.211  1.00  0.00    -0.014 A 
ATOM     76  C   UNL A   1      47.926  26.224  26.806  1.00  0.00     0.009 A 
ATOM     77  C   UNL A   1      48.829  25.422  28.898  1.00  0.00     0.009 A 
ATOM     78  C   UNL A   1      49.059  25.754  26.129  1.00  0.00     0.001 A 
ATOM     79  C   UNL A   1      49.972  24.974  28.218  1.00  0.00     0.001 A 
ATOM     80  C   UNL A   1      50.099  25.167  26.843  1.00  0.00     0.000 A 
ENDBRANCH  56  75
BRANCH  68  81
ATOM     81  C   UNL A   1      44.270  32.457  27.371  1.00  0.00    -0.014 A 
ATOM     82  C   UNL A   1      44.249  32.586  25.979  1.00  0.00     0.009 A 
ATOM     83  C   UNL A   1      43.913  33.605  28.116  1.00  0.00     0.009 A 
ATOM     84  C   UNL A   1      43.903  33.795  25.365  1.00  0.00     0.001 A 
ATOM     85  C   UNL A   1      43.516  34.796  27.511  1.00  0.00     0.001 A 
ATOM     86  C   UNL A   1      43.519  34.893  26.129  1.00  0.00     0.000 A 
ENDBRANCH  68  81
ENDBRANCH  42  43
ENDBRANCH  35  37
ENDBRANCH  34  35
ENDBRANCH  33  34
ENDBRANCH  32  33
ENDBRANCH  31  32
ENDBRANCH  30  31
ENDBRANCH   1  30
TORSDOF 19
ENDMDL
