MODEL 1
REMARK VINA RESULT:     -10.7      0.000      0.000
REMARK SMILES O=C(OCCOCCOC(=O)[C@H]1CCCN(C(=O)C2CC[NH+](Cc3ccco3)CC2)C1)c1ccc(-c2c3nc(c(-c4ccccc4)c4ccc([nH]4)c(-c4ccccc4)c4nc(c(-c5ccccc5)c5ccc2[nH]5)C=C4)C=C3)cc1
REMARK SMILES IDX 7 1 6 2 5 3 4 4 3 5 2 6 1 7 32 8 33 9 79 10 34 11 78 12
REMARK SMILES IDX 35 13 36 14 37 15 72 16 38 17 77 18 71 19 73 20 39 21 76 22
REMARK SMILES IDX 70 23 69 24 40 26 62 27 47 28 61 29 48 30 51 31 60 32 74 33
REMARK SMILES IDX 49 34 50 35 59 37 75 38 52 39 41 40 42 41 46 42 43 43 45 44
REMARK SMILES IDX 44 45 63 46 64 47 68 48 65 49 67 50 66 51 53 52 54 53 58 54
REMARK SMILES IDX 55 55 57 56 56 57 8 58 9 59 10 60 11 61 12 62 13 63 31 64
REMARK SMILES IDX 14 65 16 66 15 67 17 68 18 69 19 70 20 71 30 72 21 73 29 74
REMARK SMILES IDX 22 75 23 77 24 78 25 79 28 80 26 81 27 82
REMARK H PARENT 73 25 51 36 22 76
REMARK Flexibility Score: inf
ROOT
ATOM      1  C   UNL A   1      39.653  22.311  26.870  1.00  0.00     0.202 C 
ENDROOT
BRANCH   1   2
ATOM      2  O   UNL A   1      40.731  21.465  27.294  1.00  0.00    -0.374 OA
BRANCH   2   3
ATOM      3  C   UNL A   1      41.530  20.733  26.349  1.00  0.00     0.202 C 
BRANCH   3   4
ATOM      4  C   UNL A   1      42.829  21.316  25.767  1.00  0.00     0.261 C 
BRANCH   4   5
ATOM      5  O   UNL A   1      42.647  22.553  25.061  1.00  0.00    -0.460 OA
BRANCH   5   6
ATOM      6  C   UNL A   1      43.381  23.681  25.251  1.00  0.00     0.338 C 
ATOM      7  O   UNL A   1      44.318  23.937  24.501  1.00  0.00    -0.246 OA
BRANCH   6   8
ATOM      8  C   UNL A   1      43.101  24.596  26.395  1.00  0.00     0.060 A 
ATOM      9  C   UNL A   1      42.628  24.141  27.621  1.00  0.00     0.016 A 
ATOM     10  C   UNL A   1      43.380  25.959  26.269  1.00  0.00     0.016 A 
ATOM     11  C   UNL A   1      42.272  24.984  28.639  1.00  0.00     0.010 A 
ATOM     12  C   UNL A   1      43.109  26.830  27.332  1.00  0.00     0.010 A 
ATOM     13  C   UNL A   1      42.515  26.337  28.503  1.00  0.00    -0.014 A 
BRANCH  13  14
ATOM     14  C   UNL A   1      41.950  27.176  29.564  1.00  0.00     0.031 A 
ATOM     15  C   UNL A   1      42.805  27.436  30.762  1.00  0.00     0.074 A 
ATOM     16  C   UNL A   1      40.828  27.876  29.313  1.00  0.00     0.049 A 
ATOM     17  N   UNL A   1      42.551  28.161  31.814  1.00  0.00    -0.248 NA
ATOM     18  C   UNL A   1      44.142  26.813  30.766  1.00  0.00     0.031 C 
ATOM     19  C   UNL A   1      40.061  27.829  28.060  1.00  0.00     0.029 A 
ATOM     20  N   UNL A   1      40.181  28.817  30.061  1.00  0.00    -0.354 N 
ATOM     21  C   UNL A   1      43.667  28.033  32.628  1.00  0.00     0.074 A 
ATOM     22  C   UNL A   1      44.609  27.176  31.949  1.00  0.00     0.031 C 
ATOM     23  C   UNL A   1      39.076  28.738  28.114  1.00  0.00     0.029 A 
ATOM     24  C   UNL A   1      39.085  29.356  29.431  1.00  0.00     0.049 A 
ATOM     25  H   UNL A   1      40.471  29.082  30.963  1.00  0.00     0.167 HD
ATOM     26  C   UNL A   1      43.866  28.575  33.850  1.00  0.00     0.031 A 
ATOM     27  C   UNL A   1      38.176  30.227  29.900  1.00  0.00     0.031 A 
ATOM     28  C   UNL A   1      42.897  29.421  34.487  1.00  0.00     0.049 A 
ATOM     29  C   UNL A   1      38.357  30.714  31.309  1.00  0.00     0.074 A 
ATOM     30  C   UNL A   1      42.920  29.967  35.755  1.00  0.00     0.029 A 
ATOM     31  N   UNL A   1      41.722  29.849  33.879  1.00  0.00    -0.354 N 
ATOM     32  N   UNL A   1      39.355  30.495  32.136  1.00  0.00    -0.248 NA
ATOM     33  C   UNL A   1      37.286  31.549  31.859  1.00  0.00     0.031 C 
ATOM     34  C   UNL A   1      41.728  30.679  35.934  1.00  0.00     0.029 A 
ATOM     35  C   UNL A   1      40.999  30.636  34.754  1.00  0.00     0.049 A 
ATOM     36  H   UNL A   1      41.446  29.624  32.962  1.00  0.00     0.167 HD
ATOM     37  C   UNL A   1      39.045  31.187  33.295  1.00  0.00     0.074 A 
ATOM     38  C   UNL A   1      37.775  31.847  33.055  1.00  0.00     0.031 C 
ATOM     39  C   UNL A   1      39.740  31.275  34.458  1.00  0.00     0.031 A 
BRANCH  26  40
ATOM     40  C   UNL A   1      45.103  28.148  34.585  1.00  0.00    -0.014 A 
ATOM     41  C   UNL A   1      46.325  28.829  34.456  1.00  0.00     0.009 A 
ATOM     42  C   UNL A   1      45.056  26.987  35.373  1.00  0.00     0.009 A 
ATOM     43  C   UNL A   1      47.480  28.327  35.061  1.00  0.00     0.001 A 
ATOM     44  C   UNL A   1      46.206  26.505  36.000  1.00  0.00     0.001 A 
ATOM     45  C   UNL A   1      47.419  27.167  35.832  1.00  0.00     0.000 A 
ENDBRANCH  26  40
BRANCH  27  46
ATOM     46  C   UNL A   1      37.001  30.620  29.076  1.00  0.00    -0.014 A 
ATOM     47  C   UNL A   1      36.833  31.940  28.633  1.00  0.00     0.009 A 
ATOM     48  C   UNL A   1      36.018  29.671  28.742  1.00  0.00     0.009 A 
ATOM     49  C   UNL A   1      35.698  32.305  27.902  1.00  0.00     0.001 A 
ATOM     50  C   UNL A   1      34.903  30.029  27.984  1.00  0.00     0.001 A 
ATOM     51  C   UNL A   1      34.737  31.350  27.575  1.00  0.00     0.000 A 
ENDBRANCH  27  46
BRANCH  39  52
ATOM     52  C   UNL A   1      39.160  32.162  35.518  1.00  0.00    -0.014 A 
ATOM     53  C   UNL A   1      38.291  31.662  36.498  1.00  0.00     0.009 A 
ATOM     54  C   UNL A   1      39.527  33.516  35.550  1.00  0.00     0.009 A 
ATOM     55  C   UNL A   1      37.768  32.514  37.471  1.00  0.00     0.001 A 
ATOM     56  C   UNL A   1      39.032  34.356  36.544  1.00  0.00     0.001 A 
ATOM     57  C   UNL A   1      38.144  33.858  37.495  1.00  0.00     0.000 A 
ENDBRANCH  39  52
ENDBRANCH  13  14
ENDBRANCH   6   8
ENDBRANCH   5   6
ENDBRANCH   4   5
ENDBRANCH   3   4
ENDBRANCH   2   3
ENDBRANCH   1   2
BRANCH   1  58
ATOM     58  C   UNL A   1      38.873  21.644  25.723  1.00  0.00     0.261 C 
BRANCH  58  59
ATOM     59  O   UNL A   1      37.469  21.907  25.838  1.00  0.00    -0.463 OA
BRANCH  59  60
ATOM     60  C   UNL A   1      36.875  22.195  24.648  1.00  0.00     0.310 C 
ATOM     61  O   UNL A   1      37.370  21.928  23.560  1.00  0.00    -0.252 OA
BRANCH  60  62
ATOM     62  C   UNL A   1      35.524  22.859  24.844  1.00  0.00     0.119 C 
ATOM     63  C   UNL A   1      35.652  24.136  25.712  1.00  0.00     0.019 C 
ATOM     64  C   UNL A   1      34.847  23.084  23.473  1.00  0.00     0.134 C 
ATOM     65  C   UNL A   1      34.383  24.924  25.694  1.00  0.00     0.022 C 
ATOM     66  N   UNL A   1      33.854  24.172  23.490  1.00  0.00    -0.342 N 
ATOM     67  C   UNL A   1      34.269  25.302  24.251  1.00  0.00     0.119 C 
BRANCH  66  68
ATOM     68  C   UNL A   1      32.659  24.121  22.802  1.00  0.00     0.226 C 
ATOM     69  O   UNL A   1      32.387  24.999  21.976  1.00  0.00    -0.275 OA
BRANCH  68  70
ATOM     70  C   UNL A   1      31.601  23.003  23.077  1.00  0.00     0.090 C 
ATOM     71  C   UNL A   1      31.146  22.890  24.532  1.00  0.00     0.075 C 
ATOM     72  C   UNL A   1      31.766  21.617  22.439  1.00  0.00     0.075 C 
ATOM     73  C   UNL A   1      31.930  21.893  25.383  1.00  0.00     0.263 C 
ATOM     74  C   UNL A   1      32.307  20.470  23.325  1.00  0.00     0.263 C 
ATOM     75  N   UNL A   1      32.168  20.584  24.780  1.00  0.00    -0.329 N 
ATOM     76  H   UNL A   1      31.234  20.190  24.893  1.00  0.00     0.348 HD
BRANCH  75  77
ATOM     77  C   UNL A   1      33.111  19.721  25.541  1.00  0.00     0.338 C 
BRANCH  77  78
ATOM     78  C   UNL A   1      33.438  18.355  24.983  1.00  0.00     0.157 A 
ATOM     79  C   UNL A   1      34.540  17.819  24.337  1.00  0.00     0.052 A 
ATOM     80  O   UNL A   1      32.514  17.362  25.181  1.00  0.00    -0.463 OA
ATOM     81  C   UNL A   1      34.254  16.452  24.086  1.00  0.00     0.042 A 
ATOM     82  C   UNL A   1      33.021  16.218  24.644  1.00  0.00     0.195 A 
ENDBRANCH  77  78
ENDBRANCH  75  77
ENDBRANCH  68  70
ENDBRANCH  66  68
ENDBRANCH  60  62
ENDBRANCH  59  60
ENDBRANCH  58  59
ENDBRANCH   1  58
TORSDOF 18
ENDMDL
MODEL 2
REMARK VINA RESULT:     -10.4      2.110      4.205
REMARK SMILES O=C(OCCOCCOC(=O)[C@H]1CCCN(C(=O)C2CC[NH+](Cc3ccco3)CC2)C1)c1ccc(-c2c3nc(c(-c4ccccc4)c4ccc([nH]4)c(-c4ccccc4)c4nc(c(-c5ccccc5)c5ccc2[nH]5)C=C4)C=C3)cc1
REMARK SMILES IDX 7 1 6 2 5 3 4 4 3 5 2 6 1 7 32 8 33 9 79 10 34 11 78 12
REMARK SMILES IDX 35 13 36 14 37 15 72 16 38 17 77 18 71 19 73 20 39 21 76 22
REMARK SMILES IDX 70 23 69 24 40 26 62 27 47 28 61 29 48 30 51 31 60 32 74 33
REMARK SMILES IDX 49 34 50 35 59 37 75 38 52 39 41 40 42 41 46 42 43 43 45 44
REMARK SMILES IDX 44 45 63 46 64 47 68 48 65 49 67 50 66 51 53 52 54 53 58 54
REMARK SMILES IDX 55 55 57 56 56 57 8 58 9 59 10 60 11 61 12 62 13 63 31 64
REMARK SMILES IDX 14 65 16 66 15 67 17 68 18 69 19 70 20 71 30 72 21 73 29 74
REMARK SMILES IDX 22 75 23 77 24 78 25 79 28 80 26 81 27 82
REMARK H PARENT 73 25 51 36 22 76
REMARK Flexibility Score: inf
ROOT
ATOM      1  C   UNL A   1      40.639  19.950  26.115  1.00  0.00     0.202 C 
ENDROOT
BRANCH   1   2
ATOM      2  O   UNL A   1      41.895  20.168  26.772  1.00  0.00    -0.374 OA
BRANCH   2   3
ATOM      3  C   UNL A   1      42.525  21.461  26.783  1.00  0.00     0.202 C 
BRANCH   3   4
ATOM      4  C   UNL A   1      43.293  21.994  25.562  1.00  0.00     0.261 C 
BRANCH   4   5
ATOM      5  O   UNL A   1      42.767  23.219  25.031  1.00  0.00    -0.460 OA
BRANCH   5   6
ATOM      6  C   UNL A   1      43.250  24.462  25.296  1.00  0.00     0.338 C 
ATOM      7  O   UNL A   1      44.268  24.856  24.735  1.00  0.00    -0.246 OA
BRANCH   6   8
ATOM      8  C   UNL A   1      42.591  25.344  26.302  1.00  0.00     0.060 A 
ATOM      9  C   UNL A   1      43.026  26.639  26.564  1.00  0.00     0.016 A 
ATOM     10  C   UNL A   1      41.452  24.891  26.972  1.00  0.00     0.016 A 
ATOM     11  C   UNL A   1      42.493  27.415  27.556  1.00  0.00     0.010 A 
ATOM     12  C   UNL A   1      40.833  25.705  27.929  1.00  0.00     0.010 A 
ATOM     13  C   UNL A   1      41.387  26.954  28.244  1.00  0.00    -0.014 A 
BRANCH  13  14
ATOM     14  C   UNL A   1      40.990  27.771  29.395  1.00  0.00     0.031 A 
ATOM     15  C   UNL A   1      41.902  27.780  30.579  1.00  0.00     0.074 A 
ATOM     16  C   UNL A   1      39.992  28.662  29.248  1.00  0.00     0.049 A 
ATOM     17  N   UNL A   1      41.793  28.436  31.699  1.00  0.00    -0.248 NA
ATOM     18  C   UNL A   1      43.120  26.953  30.479  1.00  0.00     0.031 C 
ATOM     19  C   UNL A   1      39.200  28.854  28.025  1.00  0.00     0.029 A 
ATOM     20  N   UNL A   1      39.522  29.621  30.098  1.00  0.00    -0.354 N 
ATOM     21  C   UNL A   1      42.892  28.057  32.457  1.00  0.00     0.074 A 
ATOM     22  C   UNL A   1      43.666  27.126  31.671  1.00  0.00     0.031 C 
ATOM     23  C   UNL A   1      38.376  29.900  28.194  1.00  0.00     0.029 A 
ATOM     24  C   UNL A   1      38.516  30.384  29.559  1.00  0.00     0.049 A 
ATOM     25  H   UNL A   1      39.872  29.752  31.009  1.00  0.00     0.167 HD
ATOM     26  C   UNL A   1      43.203  28.444  33.713  1.00  0.00     0.031 A 
ATOM     27  C   UNL A   1      37.770  31.342  30.135  1.00  0.00     0.031 A 
ATOM     28  C   UNL A   1      42.399  29.372  34.458  1.00  0.00     0.049 A 
ATOM     29  C   UNL A   1      38.060  31.662  31.574  1.00  0.00     0.074 A 
ATOM     30  C   UNL A   1      42.538  29.788  35.766  1.00  0.00     0.029 A 
ATOM     31  N   UNL A   1      41.296  30.037  33.933  1.00  0.00    -0.354 N 
ATOM     32  N   UNL A   1      39.027  31.211  32.341  1.00  0.00    -0.248 NA
ATOM     33  C   UNL A   1      37.151  32.603  32.234  1.00  0.00     0.031 C 
ATOM     34  C   UNL A   1      41.482  30.662  36.051  1.00  0.00     0.029 A 
ATOM     35  C   UNL A   1      40.729  30.845  34.899  1.00  0.00     0.049 A 
ATOM     36  H   UNL A   1      40.967  29.944  33.010  1.00  0.00     0.167 HD
ATOM     37  C   UNL A   1      38.860  31.834  33.568  1.00  0.00     0.074 A 
ATOM     38  C   UNL A   1      37.708  32.707  33.433  1.00  0.00     0.031 C 
ATOM     39  C   UNL A   1      39.585  31.701  34.707  1.00  0.00     0.031 A 
BRANCH  26  40
ATOM     40  C   UNL A   1      44.370  27.759  34.363  1.00  0.00    -0.014 A 
ATOM     41  C   UNL A   1      44.232  26.556  35.075  1.00  0.00     0.009 A 
ATOM     42  C   UNL A   1      45.629  28.378  34.319  1.00  0.00     0.009 A 
ATOM     43  C   UNL A   1      45.320  26.017  35.766  1.00  0.00     0.001 A 
ATOM     44  C   UNL A   1      46.720  27.821  34.986  1.00  0.00     0.001 A 
ATOM     45  C   UNL A   1      46.562  26.649  35.721  1.00  0.00     0.000 A 
ENDBRANCH  26  40
BRANCH  27  46
ATOM     46  C   UNL A   1      36.657  31.992  29.393  1.00  0.00    -0.014 A 
ATOM     47  C   UNL A   1      35.384  31.408  29.336  1.00  0.00     0.009 A 
ATOM     48  C   UNL A   1      36.869  33.205  28.714  1.00  0.00     0.009 A 
ATOM     49  C   UNL A   1      34.360  32.006  28.592  1.00  0.00     0.001 A 
ATOM     50  C   UNL A   1      35.837  33.818  28.000  1.00  0.00     0.001 A 
ATOM     51  C   UNL A   1      34.587  33.211  27.930  1.00  0.00     0.000 A 
ENDBRANCH  27  46
BRANCH  39  52
ATOM     52  C   UNL A   1      39.181  32.568  35.861  1.00  0.00    -0.014 A 
ATOM     53  C   UNL A   1      38.191  32.165  36.770  1.00  0.00     0.009 A 
ATOM     54  C   UNL A   1      39.836  33.794  36.057  1.00  0.00     0.009 A 
ATOM     55  C   UNL A   1      37.838  32.996  37.833  1.00  0.00     0.001 A 
ATOM     56  C   UNL A   1      39.506  34.604  37.140  1.00  0.00     0.001 A 
ATOM     57  C   UNL A   1      38.499  34.211  38.020  1.00  0.00     0.000 A 
ENDBRANCH  39  52
ENDBRANCH  13  14
ENDBRANCH   6   8
ENDBRANCH   5   6
ENDBRANCH   4   5
ENDBRANCH   3   4
ENDBRANCH   2   3
ENDBRANCH   1   2
BRANCH   1  58
ATOM     58  C   UNL A   1      39.776  21.223  26.181  1.00  0.00     0.261 C 
BRANCH  58  59
ATOM     59  O   UNL A   1      38.572  21.065  25.420  1.00  0.00    -0.463 OA
BRANCH  59  60
ATOM     60  C   UNL A   1      37.782  22.173  25.425  1.00  0.00     0.310 C 
ATOM     61  O   UNL A   1      38.084  23.220  25.987  1.00  0.00    -0.252 OA
BRANCH  60  62
ATOM     62  C   UNL A   1      36.507  21.955  24.631  1.00  0.00     0.119 C 
ATOM     63  C   UNL A   1      35.623  20.865  25.287  1.00  0.00     0.019 C 
ATOM     64  C   UNL A   1      35.792  23.307  24.405  1.00  0.00     0.134 C 
ATOM     65  C   UNL A   1      34.267  20.829  24.661  1.00  0.00     0.022 C 
ATOM     66  N   UNL A   1      34.346  23.162  24.164  1.00  0.00    -0.342 N 
ATOM     67  C   UNL A   1      33.731  22.184  24.996  1.00  0.00     0.119 C 
BRANCH  66  68
ATOM     68  C   UNL A   1      33.648  23.929  23.253  1.00  0.00     0.226 C 
ATOM     69  O   UNL A   1      32.869  23.387  22.462  1.00  0.00    -0.275 OA
BRANCH  68  70
ATOM     70  C   UNL A   1      33.855  25.477  23.154  1.00  0.00     0.090 C 
ATOM     71  C   UNL A   1      33.630  26.241  24.457  1.00  0.00     0.075 C 
ATOM     72  C   UNL A   1      33.294  26.249  21.953  1.00  0.00     0.075 C 
ATOM     73  C   UNL A   1      32.215  26.780  24.659  1.00  0.00     0.263 C 
ATOM     74  C   UNL A   1      31.987  27.054  22.155  1.00  0.00     0.263 C 
ATOM     75  N   UNL A   1      31.620  27.462  23.514  1.00  0.00    -0.329 N 
ATOM     76  H   UNL A   1      32.134  28.341  23.572  1.00  0.00     0.348 HD
BRANCH  75  77
ATOM     77  C   UNL A   1      30.175  27.779  23.672  1.00  0.00     0.338 C 
BRANCH  77  78
ATOM     78  C   UNL A   1      29.669  29.097  23.135  1.00  0.00     0.157 A 
ATOM     79  C   UNL A   1      29.501  30.359  23.684  1.00  0.00     0.052 A 
ATOM     80  O   UNL A   1      29.351  29.150  21.802  1.00  0.00    -0.463 OA
ATOM     81  C   UNL A   1      29.010  31.202  22.654  1.00  0.00     0.042 A 
ATOM     82  C   UNL A   1      28.963  30.425  21.523  1.00  0.00     0.195 A 
ENDBRANCH  77  78
ENDBRANCH  75  77
ENDBRANCH  68  70
ENDBRANCH  66  68
ENDBRANCH  60  62
ENDBRANCH  59  60
ENDBRANCH  58  59
ENDBRANCH   1  58
TORSDOF 18
ENDMDL
MODEL 3
REMARK VINA RESULT:     -10.4      3.837      9.380
REMARK SMILES O=C(OCCOCCOC(=O)[C@H]1CCCN(C(=O)C2CC[NH+](Cc3ccco3)CC2)C1)c1ccc(-c2c3nc(c(-c4ccccc4)c4ccc([nH]4)c(-c4ccccc4)c4nc(c(-c5ccccc5)c5ccc2[nH]5)C=C4)C=C3)cc1
REMARK SMILES IDX 7 1 6 2 5 3 4 4 3 5 2 6 1 7 32 8 33 9 79 10 34 11 78 12
REMARK SMILES IDX 35 13 36 14 37 15 72 16 38 17 77 18 71 19 73 20 39 21 76 22
REMARK SMILES IDX 70 23 69 24 40 26 62 27 47 28 61 29 48 30 51 31 60 32 74 33
REMARK SMILES IDX 49 34 50 35 59 37 75 38 52 39 41 40 42 41 46 42 43 43 45 44
REMARK SMILES IDX 44 45 63 46 64 47 68 48 65 49 67 50 66 51 53 52 54 53 58 54
REMARK SMILES IDX 55 55 57 56 56 57 8 58 9 59 10 60 11 61 12 62 13 63 31 64
REMARK SMILES IDX 14 65 16 66 15 67 17 68 18 69 19 70 20 71 30 72 21 73 29 74
REMARK SMILES IDX 22 75 23 77 24 78 25 79 28 80 26 81 27 82
REMARK H PARENT 73 25 51 36 22 76
REMARK Flexibility Score: inf
ROOT
ATOM      1  C   UNL A   1      34.398  32.441  29.092  1.00  0.00     0.202 C 
ENDROOT
BRANCH   1   2
ATOM      2  O   UNL A   1      35.173  33.645  29.013  1.00  0.00    -0.374 OA
BRANCH   2   3
ATOM      3  C   UNL A   1      34.589  34.891  28.596  1.00  0.00     0.202 C 
BRANCH   3   4
ATOM      4  C   UNL A   1      33.238  35.374  29.151  1.00  0.00     0.261 C 
BRANCH   4   5
ATOM      5  O   UNL A   1      33.328  36.007  30.436  1.00  0.00    -0.460 OA
BRANCH   5   6
ATOM      6  C   UNL A   1      33.174  35.382  31.633  1.00  0.00     0.338 C 
ATOM      7  O   UNL A   1      32.091  35.416  32.207  1.00  0.00    -0.246 OA
BRANCH   6   8
ATOM      8  C   UNL A   1      34.320  34.694  32.293  1.00  0.00     0.060 A 
ATOM      9  C   UNL A   1      35.611  35.211  32.286  1.00  0.00     0.016 A 
ATOM     10  C   UNL A   1      34.096  33.513  33.005  1.00  0.00     0.016 A 
ATOM     11  C   UNL A   1      36.685  34.536  32.800  1.00  0.00     0.010 A 
ATOM     12  C   UNL A   1      35.167  32.850  33.618  1.00  0.00     0.010 A 
ATOM     13  C   UNL A   1      36.469  33.350  33.475  1.00  0.00    -0.014 A 
BRANCH  13  14
ATOM     14  C   UNL A   1      37.684  32.617  33.841  1.00  0.00     0.031 A 
ATOM     15  C   UNL A   1      38.287  31.725  32.804  1.00  0.00     0.074 A 
ATOM     16  C   UNL A   1      38.341  32.964  34.963  1.00  0.00     0.049 A 
ATOM     17  N   UNL A   1      39.365  30.997  32.869  1.00  0.00    -0.248 NA
ATOM     18  C   UNL A   1      37.592  31.661  31.504  1.00  0.00     0.031 C 
ATOM     19  C   UNL A   1      37.908  33.997  35.914  1.00  0.00     0.029 A 
ATOM     20  N   UNL A   1      39.543  32.545  35.456  1.00  0.00    -0.354 N 
ATOM     21  C   UNL A   1      39.445  30.347  31.645  1.00  0.00     0.074 A 
ATOM     22  C   UNL A   1      38.319  30.772  30.849  1.00  0.00     0.031 C 
ATOM     23  C   UNL A   1      38.858  34.160  36.848  1.00  0.00     0.029 A 
ATOM     24  C   UNL A   1      39.911  33.183  36.615  1.00  0.00     0.049 A 
ATOM     25  H   UNL A   1      40.093  31.854  35.022  1.00  0.00     0.167 HD
ATOM     26  C   UNL A   1      40.375  29.453  31.243  1.00  0.00     0.031 A 
ATOM     27  C   UNL A   1      40.969  32.961  37.412  1.00  0.00     0.031 A 
ATOM     28  C   UNL A   1      41.479  29.059  32.073  1.00  0.00     0.049 A 
ATOM     29  C   UNL A   1      41.919  31.872  37.000  1.00  0.00     0.074 A 
ATOM     30  C   UNL A   1      42.445  28.103  31.838  1.00  0.00     0.029 A 
ATOM     31  N   UNL A   1      41.757  29.625  33.312  1.00  0.00    -0.354 N 
ATOM     32  N   UNL A   1      41.930  31.161  35.895  1.00  0.00    -0.248 NA
ATOM     33  C   UNL A   1      42.990  31.541  37.945  1.00  0.00     0.031 C 
ATOM     34  C   UNL A   1      43.276  28.050  32.962  1.00  0.00     0.029 A 
ATOM     35  C   UNL A   1      42.870  29.023  33.865  1.00  0.00     0.049 A 
ATOM     36  H   UNL A   1      41.238  30.348  33.733  1.00  0.00     0.167 HD
ATOM     37  C   UNL A   1      43.022  30.315  35.999  1.00  0.00     0.074 A 
ATOM     38  C   UNL A   1      43.658  30.618  37.268  1.00  0.00     0.031 C 
ATOM     39  C   UNL A   1      43.466  29.370  35.132  1.00  0.00     0.031 A 
BRANCH  26  40
ATOM     40  C   UNL A   1      40.138  28.779  29.923  1.00  0.00    -0.014 A 
ATOM     41  C   UNL A   1      39.451  27.558  29.818  1.00  0.00     0.009 A 
ATOM     42  C   UNL A   1      40.684  29.350  28.763  1.00  0.00     0.009 A 
ATOM     43  C   UNL A   1      39.359  26.904  28.586  1.00  0.00     0.001 A 
ATOM     44  C   UNL A   1      40.566  28.708  27.530  1.00  0.00     0.001 A 
ATOM     45  C   UNL A   1      39.916  27.479  27.445  1.00  0.00     0.000 A 
ENDBRANCH  26  40
BRANCH  27  46
ATOM     46  C   UNL A   1      41.137  33.712  38.685  1.00  0.00    -0.014 A 
ATOM     47  C   UNL A   1      41.845  34.921  38.727  1.00  0.00     0.009 A 
ATOM     48  C   UNL A   1      40.602  33.206  39.884  1.00  0.00     0.009 A 
ATOM     49  C   UNL A   1      42.038  35.590  39.941  1.00  0.00     0.001 A 
ATOM     50  C   UNL A   1      40.766  33.892  41.088  1.00  0.00     0.001 A 
ATOM     51  C   UNL A   1      41.495  35.078  41.118  1.00  0.00     0.000 A 
ENDBRANCH  27  46
BRANCH  39  52
ATOM     52  C   UNL A   1      44.727  28.654  35.512  1.00  0.00    -0.014 A 
ATOM     53  C   UNL A   1      45.988  29.135  35.131  1.00  0.00     0.009 A 
ATOM     54  C   UNL A   1      44.642  27.495  36.299  1.00  0.00     0.009 A 
ATOM     55  C   UNL A   1      47.142  28.445  35.501  1.00  0.00     0.001 A 
ATOM     56  C   UNL A   1      45.798  26.828  36.696  1.00  0.00     0.001 A 
ATOM     57  C   UNL A   1      47.045  27.296  36.287  1.00  0.00     0.000 A 
ENDBRANCH  39  52
ENDBRANCH  13  14
ENDBRANCH   6   8
ENDBRANCH   5   6
ENDBRANCH   4   5
ENDBRANCH   3   4
ENDBRANCH   2   3
ENDBRANCH   1   2
BRANCH   1  58
ATOM     58  C   UNL A   1      33.936  32.013  27.686  1.00  0.00     0.261 C 
BRANCH  58  59
ATOM     59  O   UNL A   1      33.380  30.693  27.711  1.00  0.00    -0.463 OA
BRANCH  59  60
ATOM     60  C   UNL A   1      32.328  30.536  26.861  1.00  0.00     0.310 C 
ATOM     61  O   UNL A   1      31.465  31.388  26.685  1.00  0.00    -0.252 OA
BRANCH  60  62
ATOM     62  C   UNL A   1      32.378  29.197  26.149  1.00  0.00     0.119 C 
ATOM     63  C   UNL A   1      31.733  28.083  27.013  1.00  0.00     0.019 C 
ATOM     64  C   UNL A   1      31.780  29.333  24.731  1.00  0.00     0.134 C 
ATOM     65  C   UNL A   1      31.552  26.830  26.220  1.00  0.00     0.022 C 
ATOM     66  N   UNL A   1      31.277  28.058  24.191  1.00  0.00    -0.342 N 
ATOM     67  C   UNL A   1      30.594  27.267  25.158  1.00  0.00     0.119 C 
BRANCH  66  68
ATOM     68  C   UNL A   1      31.415  27.686  22.869  1.00  0.00     0.226 C 
ATOM     69  O   UNL A   1      30.481  27.866  22.080  1.00  0.00    -0.275 OA
BRANCH  68  70
ATOM     70  C   UNL A   1      32.711  26.985  22.345  1.00  0.00     0.090 C 
ATOM     71  C   UNL A   1      32.469  25.811  21.397  1.00  0.00     0.075 C 
ATOM     72  C   UNL A   1      33.867  26.691  23.310  1.00  0.00     0.075 C 
ATOM     73  C   UNL A   1      32.399  24.439  22.066  1.00  0.00     0.263 C 
ATOM     74  C   UNL A   1      34.029  25.241  23.827  1.00  0.00     0.263 C 
ATOM     75  N   UNL A   1      33.445  24.149  23.043  1.00  0.00    -0.329 N 
ATOM     76  H   UNL A   1      34.214  23.972  22.397  1.00  0.00     0.348 HD
BRANCH  75  77
ATOM     77  C   UNL A   1      33.223  22.903  23.826  1.00  0.00     0.338 C 
BRANCH  77  78
ATOM     78  C   UNL A   1      32.387  22.988  25.081  1.00  0.00     0.157 A 
ATOM     79  C   UNL A   1      31.028  23.116  25.324  1.00  0.00     0.052 A 
ATOM     80  O   UNL A   1      33.039  22.848  26.278  1.00  0.00    -0.463 OA
ATOM     81  C   UNL A   1      30.852  23.106  26.732  1.00  0.00     0.042 A 
ATOM     82  C   UNL A   1      32.103  22.913  27.265  1.00  0.00     0.195 A 
ENDBRANCH  77  78
ENDBRANCH  75  77
ENDBRANCH  68  70
ENDBRANCH  66  68
ENDBRANCH  60  62
ENDBRANCH  59  60
ENDBRANCH  58  59
ENDBRANCH   1  58
TORSDOF 18
ENDMDL
