MODEL 1
REMARK VINA RESULT:      -9.9      0.000      0.000
REMARK SMILES CCSC(=S)N1[C@@H](C(=O)OCCOCCOC(=O)c2ccc(-c3c4nc(c(-c5ccccc5)c5ccc([nH]5)c(-c5ccccc5)c5nc(c(-c6ccccc6)c6ccc3[nH]6)C=C5)C=C4)cc2)CS[C@@H]1c1ccc(C)cc1
REMARK SMILES IDX 12 1 11 2 10 3 8 4 9 5 7 6 6 7 69 8 67 9 68 10 4 11 5 12
REMARK SMILES IDX 3 13 2 14 1 15 70 16 71 17 76 18 72 19 75 20 73 21 74 22
REMARK SMILES IDX 13 23 14 24 15 25 16 26 17 27 18 28 19 29 20 30 66 31 21 32
REMARK SMILES IDX 65 33 22 34 23 35 24 36 59 37 25 38 64 39 58 40 60 41 26 42
REMARK SMILES IDX 63 43 57 44 56 45 27 47 49 48 34 49 48 50 35 51 38 52 47 53
REMARK SMILES IDX 61 54 36 55 37 56 46 58 62 59 39 60 28 61 29 62 33 63 30 64
REMARK SMILES IDX 32 65 31 66 50 67 51 68 55 69 52 70 54 71 53 72 40 73 41 74
REMARK SMILES IDX 45 75 42 76 44 77 43 78
REMARK H PARENT 60 46 38 57
REMARK Flexibility Score: inf
ROOT
ATOM      1  C   UNL A   1      35.976  20.232  25.089  1.00  0.00     0.202 C 
ENDROOT
BRANCH   1   2
ATOM      2  C   UNL A   1      34.713  19.407  24.793  1.00  0.00     0.261 C 
BRANCH   2   3
ATOM      3  O   UNL A   1      33.668  20.084  24.060  1.00  0.00    -0.462 OA
BRANCH   3   4
ATOM      4  C   UNL A   1      32.568  20.466  24.784  1.00  0.00     0.329 C 
ATOM      5  O   UNL A   1      31.791  19.691  25.323  1.00  0.00    -0.250 OA
BRANCH   4   6
ATOM      6  C   UNL A   1      32.410  22.008  24.785  1.00  0.00     0.205 C 
ATOM      7  N   UNL A   1      33.669  22.853  24.718  1.00  0.00    -0.327 N 
ATOM      8  C   UNL A   1      33.895  23.627  25.951  1.00  0.00     0.173 C 
ATOM      9  C   UNL A   1      31.693  22.271  26.125  1.00  0.00     0.109 C 
ATOM     10  S   UNL A   1      33.033  22.693  27.258  1.00  0.00    -0.129 SA
BRANCH   7  11
ATOM     11  C   UNL A   1      34.381  23.213  23.554  1.00  0.00     0.138 C 
ATOM     12  S   UNL A   1      36.051  23.429  23.509  1.00  0.00    -0.053 S 
BRANCH  11  13
ATOM     13  S   UNL A   1      33.308  23.474  22.158  1.00  0.00    -0.097 SA
BRANCH  13  14
ATOM     14  C   UNL A   1      32.505  25.109  22.313  1.00  0.00     0.074 C 
ATOM     15  C   UNL A   1      33.389  26.336  22.117  1.00  0.00     0.016 C 
ENDBRANCH  13  14
ENDBRANCH  11  13
ENDBRANCH   7  11
BRANCH   8  16
ATOM     16  C   UNL A   1      33.270  25.028  25.904  1.00  0.00    -0.015 A 
ATOM     17  C   UNL A   1      34.085  26.140  25.637  1.00  0.00     0.007 A 
ATOM     18  C   UNL A   1      31.934  25.278  26.267  1.00  0.00     0.007 A 
ATOM     19  C   UNL A   1      33.587  27.441  25.763  1.00  0.00     0.004 A 
ATOM     20  C   UNL A   1      31.429  26.571  26.372  1.00  0.00     0.004 A 
ATOM     21  C   UNL A   1      32.255  27.665  26.131  1.00  0.00    -0.051 A 
ATOM     22  C   UNL A   1      31.736  29.055  26.333  1.00  0.00     0.044 C 
ENDBRANCH   8  16
ENDBRANCH   4   6
ENDBRANCH   3   4
ENDBRANCH   2   3
ENDBRANCH   1   2
BRANCH   1  23
ATOM     23  O   UNL A   1      37.171  19.504  24.879  1.00  0.00    -0.374 OA
BRANCH  23  24
ATOM     24  C   UNL A   1      38.416  20.139  25.144  1.00  0.00     0.202 C 
BRANCH  24  25
ATOM     25  C   UNL A   1      39.548  19.313  25.730  1.00  0.00     0.261 C 
BRANCH  25  26
ATOM     26  O   UNL A   1      40.834  19.488  25.171  1.00  0.00    -0.460 OA
BRANCH  26  27
ATOM     27  C   UNL A   1      41.850  19.341  26.035  1.00  0.00     0.338 C 
ATOM     28  O   UNL A   1      42.486  18.341  26.313  1.00  0.00    -0.246 OA
BRANCH  27  29
ATOM     29  C   UNL A   1      42.090  20.685  26.531  1.00  0.00     0.060 A 
ATOM     30  C   UNL A   1      42.280  21.699  25.595  1.00  0.00     0.016 A 
ATOM     31  C   UNL A   1      42.038  20.931  27.908  1.00  0.00     0.016 A 
ATOM     32  C   UNL A   1      42.479  22.988  26.052  1.00  0.00     0.010 A 
ATOM     33  C   UNL A   1      42.221  22.227  28.362  1.00  0.00     0.010 A 
ATOM     34  C   UNL A   1      42.477  23.246  27.433  1.00  0.00    -0.014 A 
BRANCH  34  35
ATOM     35  C   UNL A   1      42.866  24.587  27.888  1.00  0.00     0.031 A 
ATOM     36  C   UNL A   1      44.311  24.968  27.828  1.00  0.00     0.074 A 
ATOM     37  C   UNL A   1      41.907  25.453  28.253  1.00  0.00     0.049 A 
ATOM     38  N   UNL A   1      44.865  26.130  28.047  1.00  0.00    -0.248 NA
ATOM     39  C   UNL A   1      45.261  23.901  27.468  1.00  0.00     0.031 C 
ATOM     40  C   UNL A   1      40.476  25.149  28.313  1.00  0.00     0.029 A 
ATOM     41  N   UNL A   1      41.990  26.769  28.610  1.00  0.00    -0.354 N 
ATOM     42  C   UNL A   1      46.225  25.936  27.844  1.00  0.00     0.074 A 
ATOM     43  C   UNL A   1      46.420  24.540  27.527  1.00  0.00     0.031 C 
ATOM     44  C   UNL A   1      39.809  26.264  28.654  1.00  0.00     0.029 A 
ATOM     45  C   UNL A   1      40.769  27.343  28.861  1.00  0.00     0.049 A 
ATOM     46  H   UNL A   1      42.841  27.258  28.680  1.00  0.00     0.167 HD
ATOM     47  C   UNL A   1      47.217  26.852  27.906  1.00  0.00     0.031 A 
ATOM     48  C   UNL A   1      40.472  28.605  29.215  1.00  0.00     0.031 A 
ATOM     49  C   UNL A   1      46.993  28.229  28.250  1.00  0.00     0.049 A 
ATOM     50  C   UNL A   1      41.600  29.591  29.331  1.00  0.00     0.074 A 
ATOM     51  C   UNL A   1      47.911  29.258  28.349  1.00  0.00     0.029 A 
ATOM     52  N   UNL A   1      45.749  28.765  28.560  1.00  0.00    -0.354 N 
ATOM     53  N   UNL A   1      42.880  29.410  29.101  1.00  0.00    -0.248 NA
ATOM     54  C   UNL A   1      41.246  30.953  29.746  1.00  0.00     0.031 C 
ATOM     55  C   UNL A   1      47.230  30.403  28.775  1.00  0.00     0.029 A 
ATOM     56  C   UNL A   1      45.879  30.104  28.882  1.00  0.00     0.049 A 
ATOM     57  H   UNL A   1      44.902  28.265  28.553  1.00  0.00     0.167 HD
ATOM     58  C   UNL A   1      43.484  30.638  29.330  1.00  0.00     0.074 A 
ATOM     59  C   UNL A   1      42.424  31.559  29.692  1.00  0.00     0.031 C 
ATOM     60  C   UNL A   1      44.795  30.979  29.253  1.00  0.00     0.031 A 
BRANCH  47  61
ATOM     61  C   UNL A   1      48.616  26.372  27.643  1.00  0.00    -0.014 A 
ATOM     62  C   UNL A   1      49.173  26.408  26.353  1.00  0.00     0.009 A 
ATOM     63  C   UNL A   1      49.388  25.867  28.699  1.00  0.00     0.009 A 
ATOM     64  C   UNL A   1      50.459  25.913  26.123  1.00  0.00     0.001 A 
ATOM     65  C   UNL A   1      50.684  25.398  28.471  1.00  0.00     0.001 A 
ATOM     66  C   UNL A   1      51.214  25.412  27.183  1.00  0.00     0.000 A 
ENDBRANCH  47  61
BRANCH  48  67
ATOM     67  C   UNL A   1      39.062  28.990  29.478  1.00  0.00    -0.014 A 
ATOM     68  C   UNL A   1      38.220  29.406  28.437  1.00  0.00     0.009 A 
ATOM     69  C   UNL A   1      38.542  28.918  30.781  1.00  0.00     0.009 A 
ATOM     70  C   UNL A   1      36.892  29.760  28.699  1.00  0.00     0.001 A 
ATOM     71  C   UNL A   1      37.208  29.243  31.035  1.00  0.00     0.001 A 
ATOM     72  C   UNL A   1      36.386  29.672  29.995  1.00  0.00     0.000 A 
ENDBRANCH  48  67
BRANCH  60  73
ATOM     73  C   UNL A   1      45.136  32.408  29.560  1.00  0.00    -0.014 A 
ATOM     74  C   UNL A   1      45.541  32.795  30.846  1.00  0.00     0.009 A 
ATOM     75  C   UNL A   1      45.089  33.367  28.537  1.00  0.00     0.009 A 
ATOM     76  C   UNL A   1      45.858  34.128  31.111  1.00  0.00     0.001 A 
ATOM     77  C   UNL A   1      45.438  34.692  28.797  1.00  0.00     0.001 A 
ATOM     78  C   UNL A   1      45.811  35.072  30.086  1.00  0.00     0.000 A 
ENDBRANCH  60  73
ENDBRANCH  34  35
ENDBRANCH  27  29
ENDBRANCH  26  27
ENDBRANCH  25  26
ENDBRANCH  24  25
ENDBRANCH  23  24
ENDBRANCH   1  23
TORSDOF 18
ENDMDL
MODEL 2
REMARK VINA RESULT:      -9.7      1.216      6.070
REMARK SMILES CCSC(=S)N1[C@@H](C(=O)OCCOCCOC(=O)c2ccc(-c3c4nc(c(-c5ccccc5)c5ccc([nH]5)c(-c5ccccc5)c5nc(c(-c6ccccc6)c6ccc3[nH]6)C=C5)C=C4)cc2)CS[C@@H]1c1ccc(C)cc1
REMARK SMILES IDX 12 1 11 2 10 3 8 4 9 5 7 6 6 7 69 8 67 9 68 10 4 11 5 12
REMARK SMILES IDX 3 13 2 14 1 15 70 16 71 17 76 18 72 19 75 20 73 21 74 22
REMARK SMILES IDX 13 23 14 24 15 25 16 26 17 27 18 28 19 29 20 30 66 31 21 32
REMARK SMILES IDX 65 33 22 34 23 35 24 36 59 37 25 38 64 39 58 40 60 41 26 42
REMARK SMILES IDX 63 43 57 44 56 45 27 47 49 48 34 49 48 50 35 51 38 52 47 53
REMARK SMILES IDX 61 54 36 55 37 56 46 58 62 59 39 60 28 61 29 62 33 63 30 64
REMARK SMILES IDX 32 65 31 66 50 67 51 68 55 69 52 70 54 71 53 72 40 73 41 74
REMARK SMILES IDX 45 75 42 76 44 77 43 78
REMARK H PARENT 60 46 38 57
REMARK Flexibility Score: inf
ROOT
ATOM      1  C   UNL A   1      36.178  21.070  25.416  1.00  0.00     0.202 C 
ENDROOT
BRANCH   1   2
ATOM      2  C   UNL A   1      34.885  20.772  24.640  1.00  0.00     0.261 C 
BRANCH   2   3
ATOM      3  O   UNL A   1      34.141  21.921  24.178  1.00  0.00    -0.462 OA
BRANCH   3   4
ATOM      4  C   UNL A   1      32.904  22.110  24.739  1.00  0.00     0.329 C 
ATOM      5  O   UNL A   1      32.092  21.219  24.941  1.00  0.00    -0.250 OA
BRANCH   4   6
ATOM      6  C   UNL A   1      32.651  23.611  25.036  1.00  0.00     0.205 C 
ATOM      7  N   UNL A   1      32.947  24.614  23.936  1.00  0.00    -0.327 N 
ATOM      8  C   UNL A   1      34.067  25.509  24.274  1.00  0.00     0.173 C 
ATOM      9  C   UNL A   1      33.589  23.878  26.231  1.00  0.00     0.109 C 
ATOM     10  S   UNL A   1      35.072  24.573  25.472  1.00  0.00    -0.129 SA
BRANCH   7  11
ATOM     11  C   UNL A   1      32.091  24.975  22.873  1.00  0.00     0.138 C 
ATOM     12  S   UNL A   1      32.638  25.532  21.381  1.00  0.00    -0.053 S 
BRANCH  11  13
ATOM     13  S   UNL A   1      30.371  24.835  23.312  1.00  0.00    -0.097 SA
BRANCH  13  14
ATOM     14  C   UNL A   1      29.919  26.214  24.423  1.00  0.00     0.074 C 
ATOM     15  C   UNL A   1      30.059  27.627  23.866  1.00  0.00     0.016 C 
ENDBRANCH  13  14
ENDBRANCH  11  13
ENDBRANCH   7  11
BRANCH   8  16
ATOM     16  C   UNL A   1      33.616  26.801  24.969  1.00  0.00    -0.015 A 
ATOM     17  C   UNL A   1      33.696  28.021  24.278  1.00  0.00     0.007 A 
ATOM     18  C   UNL A   1      33.263  26.850  26.330  1.00  0.00     0.007 A 
ATOM     19  C   UNL A   1      33.465  29.234  24.936  1.00  0.00     0.004 A 
ATOM     20  C   UNL A   1      33.012  28.054  26.982  1.00  0.00     0.004 A 
ATOM     21  C   UNL A   1      33.121  29.258  26.292  1.00  0.00    -0.051 A 
ATOM     22  C   UNL A   1      32.939  30.556  27.016  1.00  0.00     0.044 C 
ENDBRANCH   8  16
ENDBRANCH   4   6
ENDBRANCH   3   4
ENDBRANCH   2   3
ENDBRANCH   1   2
BRANCH   1  23
ATOM     23  O   UNL A   1      37.305  20.397  24.888  1.00  0.00    -0.374 OA
BRANCH  23  24
ATOM     24  C   UNL A   1      38.598  20.738  25.374  1.00  0.00     0.202 C 
BRANCH  24  25
ATOM     25  C   UNL A   1      39.549  19.622  25.770  1.00  0.00     0.261 C 
BRANCH  25  26
ATOM     26  O   UNL A   1      40.886  19.721  25.323  1.00  0.00    -0.460 OA
BRANCH  26  27
ATOM     27  C   UNL A   1      41.813  19.608  26.286  1.00  0.00     0.338 C 
ATOM     28  O   UNL A   1      42.372  18.611  26.704  1.00  0.00    -0.246 OA
BRANCH  27  29
ATOM     29  C   UNL A   1      42.073  20.979  26.689  1.00  0.00     0.060 A 
ATOM     30  C   UNL A   1      42.352  21.908  25.690  1.00  0.00     0.016 A 
ATOM     31  C   UNL A   1      41.953  21.335  28.038  1.00  0.00     0.016 A 
ATOM     32  C   UNL A   1      42.572  23.223  26.057  1.00  0.00     0.010 A 
ATOM     33  C   UNL A   1      42.158  22.657  28.400  1.00  0.00     0.010 A 
ATOM     34  C   UNL A   1      42.502  23.590  27.411  1.00  0.00    -0.014 A 
BRANCH  34  35
ATOM     35  C   UNL A   1      42.913  24.950  27.782  1.00  0.00     0.031 A 
ATOM     36  C   UNL A   1      41.850  25.970  28.042  1.00  0.00     0.074 A 
ATOM     37  C   UNL A   1      44.218  25.207  27.965  1.00  0.00     0.049 A 
ATOM     38  N   UNL A   1      41.971  27.182  28.509  1.00  0.00    -0.248 NA
ATOM     39  C   UNL A   1      40.464  25.570  27.742  1.00  0.00     0.031 C 
ATOM     40  C   UNL A   1      45.304  24.249  27.748  1.00  0.00     0.029 A 
ATOM     41  N   UNL A   1      44.846  26.338  28.405  1.00  0.00    -0.354 N 
ATOM     42  C   UNL A   1      40.678  27.687  28.567  1.00  0.00     0.074 A 
ATOM     43  C   UNL A   1      39.793  26.670  28.048  1.00  0.00     0.031 C 
ATOM     44  C   UNL A   1      46.467  24.826  28.090  1.00  0.00     0.029 A 
ATOM     45  C   UNL A   1      46.206  26.196  28.519  1.00  0.00     0.049 A 
ATOM     46  H   UNL A   1      44.370  27.172  28.619  1.00  0.00     0.167 HD
ATOM     47  C   UNL A   1      40.273  28.893  29.026  1.00  0.00     0.031 A 
ATOM     48  C   UNL A   1      47.128  27.083  28.933  1.00  0.00     0.031 A 
ATOM     49  C   UNL A   1      41.182  29.894  29.511  1.00  0.00     0.049 A 
ATOM     50  C   UNL A   1      46.656  28.436  29.385  1.00  0.00     0.074 A 
ATOM     51  C   UNL A   1      40.901  31.155  30.002  1.00  0.00     0.029 A 
ATOM     52  N   UNL A   1      42.562  29.741  29.555  1.00  0.00    -0.354 N 
ATOM     53  N   UNL A   1      45.428  28.893  29.472  1.00  0.00    -0.248 NA
ATOM     54  C   UNL A   1      47.689  29.389  29.803  1.00  0.00     0.031 C 
ATOM     55  C   UNL A   1      42.115  31.786  30.290  1.00  0.00     0.029 A 
ATOM     56  C   UNL A   1      43.150  30.896  30.036  1.00  0.00     0.049 A 
ATOM     57  H   UNL A   1      43.049  28.930  29.283  1.00  0.00     0.167 HD
ATOM     58  C   UNL A   1      45.539  30.184  29.968  1.00  0.00     0.074 A 
ATOM     59  C   UNL A   1      46.953  30.424  30.185  1.00  0.00     0.031 C 
ATOM     60  C   UNL A   1      44.566  31.095  30.220  1.00  0.00     0.031 A 
BRANCH  47  61
ATOM     61  C   UNL A   1      38.801  29.191  28.973  1.00  0.00    -0.014 A 
ATOM     62  C   UNL A   1      37.981  29.035  30.103  1.00  0.00     0.009 A 
ATOM     63  C   UNL A   1      38.223  29.627  27.772  1.00  0.00     0.009 A 
ATOM     64  C   UNL A   1      36.607  29.273  30.019  1.00  0.00     0.001 A 
ATOM     65  C   UNL A   1      36.853  29.890  27.698  1.00  0.00     0.001 A 
ATOM     66  C   UNL A   1      36.045  29.703  28.817  1.00  0.00     0.000 A 
ENDBRANCH  47  61
BRANCH  48  67
ATOM     67  C   UNL A   1      48.567  26.712  28.932  1.00  0.00    -0.014 A 
ATOM     68  C   UNL A   1      49.377  26.965  27.816  1.00  0.00     0.009 A 
ATOM     69  C   UNL A   1      49.144  26.123  30.068  1.00  0.00     0.009 A 
ATOM     70  C   UNL A   1      50.732  26.617  27.831  1.00  0.00     0.001 A 
ATOM     71  C   UNL A   1      50.504  25.803  30.092  1.00  0.00     0.001 A 
ATOM     72  C   UNL A   1      51.294  26.043  28.971  1.00  0.00     0.000 A 
ENDBRANCH  48  67
BRANCH  60  73
ATOM     73  C   UNL A   1      45.012  32.421  30.764  1.00  0.00    -0.014 A 
ATOM     74  C   UNL A   1      45.152  32.627  32.145  1.00  0.00     0.009 A 
ATOM     75  C   UNL A   1      45.334  33.461  29.879  1.00  0.00     0.009 A 
ATOM     76  C   UNL A   1      45.571  33.865  32.631  1.00  0.00     0.001 A 
ATOM     77  C   UNL A   1      45.784  34.687  30.367  1.00  0.00     0.001 A 
ATOM     78  C   UNL A   1      45.892  34.891  31.742  1.00  0.00     0.000 A 
ENDBRANCH  60  73
ENDBRANCH  34  35
ENDBRANCH  27  29
ENDBRANCH  26  27
ENDBRANCH  25  26
ENDBRANCH  24  25
ENDBRANCH  23  24
ENDBRANCH   1  23
TORSDOF 18
ENDMDL
MODEL 3
REMARK VINA RESULT:      -9.7      2.650      7.601
REMARK SMILES CCSC(=S)N1[C@@H](C(=O)OCCOCCOC(=O)c2ccc(-c3c4nc(c(-c5ccccc5)c5ccc([nH]5)c(-c5ccccc5)c5nc(c(-c6ccccc6)c6ccc3[nH]6)C=C5)C=C4)cc2)CS[C@@H]1c1ccc(C)cc1
REMARK SMILES IDX 12 1 11 2 10 3 8 4 9 5 7 6 6 7 69 8 67 9 68 10 4 11 5 12
REMARK SMILES IDX 3 13 2 14 1 15 70 16 71 17 76 18 72 19 75 20 73 21 74 22
REMARK SMILES IDX 13 23 14 24 15 25 16 26 17 27 18 28 19 29 20 30 66 31 21 32
REMARK SMILES IDX 65 33 22 34 23 35 24 36 59 37 25 38 64 39 58 40 60 41 26 42
REMARK SMILES IDX 63 43 57 44 56 45 27 47 49 48 34 49 48 50 35 51 38 52 47 53
REMARK SMILES IDX 61 54 36 55 37 56 46 58 62 59 39 60 28 61 29 62 33 63 30 64
REMARK SMILES IDX 32 65 31 66 50 67 51 68 55 69 52 70 54 71 53 72 40 73 41 74
REMARK SMILES IDX 45 75 42 76 44 77 43 78
REMARK H PARENT 60 46 38 57
REMARK Flexibility Score: inf
ROOT
ATOM      1  C   UNL A   1      32.085  27.886  24.223  1.00  0.00     0.202 C 
ENDROOT
BRANCH   1   2
ATOM      2  C   UNL A   1      31.836  26.370  24.162  1.00  0.00     0.261 C 
BRANCH   2   3
ATOM      3  O   UNL A   1      32.349  25.595  25.267  1.00  0.00    -0.462 OA
BRANCH   3   4
ATOM      4  C   UNL A   1      31.454  24.771  25.900  1.00  0.00     0.329 C 
ATOM      5  O   UNL A   1      30.483  25.160  26.533  1.00  0.00    -0.250 OA
BRANCH   4   6
ATOM      6  C   UNL A   1      31.864  23.284  25.749  1.00  0.00     0.205 C 
ATOM      7  N   UNL A   1      33.268  22.978  25.259  1.00  0.00    -0.327 N 
ATOM      8  C   UNL A   1      33.275  22.335  23.933  1.00  0.00     0.173 C 
ATOM      9  C   UNL A   1      30.842  22.757  24.721  1.00  0.00     0.109 C 
ATOM     10  S   UNL A   1      31.718  22.861  23.146  1.00  0.00    -0.129 SA
BRANCH   7  11
ATOM     11  C   UNL A   1      34.440  22.924  26.043  1.00  0.00     0.138 C 
ATOM     12  S   UNL A   1      34.502  22.250  27.584  1.00  0.00    -0.053 S 
BRANCH  11  13
ATOM     13  S   UNL A   1      35.825  23.704  25.243  1.00  0.00    -0.097 SA
BRANCH  13  14
ATOM     14  C   UNL A   1      37.353  22.788  25.655  1.00  0.00     0.074 C 
ATOM     15  C   UNL A   1      37.506  21.394  25.057  1.00  0.00     0.016 C 
ENDBRANCH  13  14
ENDBRANCH  11  13
ENDBRANCH   7  11
BRANCH   8  16
ATOM     16  C   UNL A   1      33.252  20.802  24.009  1.00  0.00    -0.015 A 
ATOM     17  C   UNL A   1      34.293  20.127  24.666  1.00  0.00     0.007 A 
ATOM     18  C   UNL A   1      32.309  20.020  23.316  1.00  0.00     0.007 A 
ATOM     19  C   UNL A   1      34.398  18.733  24.599  1.00  0.00     0.004 A 
ATOM     20  C   UNL A   1      32.399  18.632  23.266  1.00  0.00     0.004 A 
ATOM     21  C   UNL A   1      33.452  17.977  23.899  1.00  0.00    -0.051 A 
ATOM     22  C   UNL A   1      33.597  16.492  23.769  1.00  0.00     0.044 C 
ENDBRANCH   8  16
ENDBRANCH   4   6
ENDBRANCH   3   4
ENDBRANCH   2   3
ENDBRANCH   1   2
BRANCH   1  23
ATOM     23  O   UNL A   1      31.363  28.520  25.262  1.00  0.00    -0.374 OA
BRANCH  23  24
ATOM     24  C   UNL A   1      32.040  28.836  26.473  1.00  0.00     0.202 C 
BRANCH  24  25
ATOM     25  C   UNL A   1      33.556  28.932  26.460  1.00  0.00     0.261 C 
BRANCH  25  26
ATOM     26  O   UNL A   1      34.214  28.947  27.710  1.00  0.00    -0.460 OA
BRANCH  26  27
ATOM     27  C   UNL A   1      34.753  30.128  28.051  1.00  0.00     0.338 C 
ATOM     28  O   UNL A   1      34.224  31.221  28.131  1.00  0.00    -0.246 OA
BRANCH  27  29
ATOM     29  C   UNL A   1      36.128  29.805  28.388  1.00  0.00     0.060 A 
ATOM     30  C   UNL A   1      37.104  30.024  27.419  1.00  0.00     0.016 A 
ATOM     31  C   UNL A   1      36.436  29.371  29.683  1.00  0.00     0.016 A 
ATOM     32  C   UNL A   1      38.421  29.748  27.737  1.00  0.00     0.010 A 
ATOM     33  C   UNL A   1      37.759  29.111  30.003  1.00  0.00     0.010 A 
ATOM     34  C   UNL A   1      38.743  29.268  29.016  1.00  0.00    -0.014 A 
BRANCH  34  35
ATOM     35  C   UNL A   1      40.120  28.820  29.262  1.00  0.00     0.031 A 
ATOM     36  C   UNL A   1      40.500  27.430  28.857  1.00  0.00     0.074 A 
ATOM     37  C   UNL A   1      41.011  29.696  29.753  1.00  0.00     0.049 A 
ATOM     38  N   UNL A   1      41.678  26.869  28.851  1.00  0.00    -0.248 NA
ATOM     39  C   UNL A   1      39.409  26.557  28.389  1.00  0.00     0.031 C 
ATOM     40  C   UNL A   1      40.709  31.072  30.148  1.00  0.00     0.029 A 
ATOM     41  N   UNL A   1      42.354  29.567  29.971  1.00  0.00    -0.354 N 
ATOM     42  C   UNL A   1      41.472  25.581  28.374  1.00  0.00     0.074 A 
ATOM     43  C   UNL A   1      40.054  25.428  28.141  1.00  0.00     0.031 C 
ATOM     44  C   UNL A   1      41.847  31.674  30.531  1.00  0.00     0.029 A 
ATOM     45  C   UNL A   1      42.942  30.716  30.434  1.00  0.00     0.049 A 
ATOM     46  H   UNL A   1      42.850  28.731  29.813  1.00  0.00     0.167 HD
ATOM     47  C   UNL A   1      42.394  24.620  28.141  1.00  0.00     0.031 A 
ATOM     48  C   UNL A   1      44.230  30.958  30.736  1.00  0.00     0.031 A 
ATOM     49  C   UNL A   1      43.795  24.794  28.409  1.00  0.00     0.049 A 
ATOM     50  C   UNL A   1      45.226  29.854  30.521  1.00  0.00     0.074 A 
ATOM     51  C   UNL A   1      44.831  23.900  28.219  1.00  0.00     0.029 A 
ATOM     52  N   UNL A   1      44.351  25.953  28.937  1.00  0.00    -0.354 N 
ATOM     53  N   UNL A   1      45.030  28.650  30.034  1.00  0.00    -0.248 NA
ATOM     54  C   UNL A   1      46.618  30.140  30.887  1.00  0.00     0.031 C 
ATOM     55  C   UNL A   1      46.007  24.498  28.685  1.00  0.00     0.029 A 
ATOM     56  C   UNL A   1      45.713  25.787  29.109  1.00  0.00     0.049 A 
ATOM     57  H   UNL A   1      43.849  26.771  29.156  1.00  0.00     0.167 HD
ATOM     58  C   UNL A   1      46.275  28.038  30.021  1.00  0.00     0.074 A 
ATOM     59  C   UNL A   1      47.221  29.015  30.527  1.00  0.00     0.031 C 
ATOM     60  C   UNL A   1      46.613  26.783  29.632  1.00  0.00     0.031 A 
BRANCH  47  61
ATOM     61  C   UNL A   1      41.898  23.300  27.621  1.00  0.00    -0.014 A 
ATOM     62  C   UNL A   1      41.593  23.116  26.262  1.00  0.00     0.009 A 
ATOM     63  C   UNL A   1      41.723  22.226  28.505  1.00  0.00     0.009 A 
ATOM     64  C   UNL A   1      41.089  21.895  25.808  1.00  0.00     0.001 A 
ATOM     65  C   UNL A   1      41.244  20.997  28.044  1.00  0.00     0.001 A 
ATOM     66  C   UNL A   1      40.918  20.836  26.699  1.00  0.00     0.000 A 
ENDBRANCH  47  61
BRANCH  48  67
ATOM     67  C   UNL A   1      44.632  32.285  31.267  1.00  0.00    -0.014 A 
ATOM     68  C   UNL A   1      44.701  32.520  32.648  1.00  0.00     0.009 A 
ATOM     69  C   UNL A   1      44.974  33.324  30.386  1.00  0.00     0.009 A 
ATOM     70  C   UNL A   1      45.087  33.774  33.134  1.00  0.00     0.001 A 
ATOM     71  C   UNL A   1      45.387  34.566  30.874  1.00  0.00     0.001 A 
ATOM     72  C   UNL A   1      45.436  34.792  32.248  1.00  0.00     0.000 A 
ENDBRANCH  48  67
BRANCH  60  73
ATOM     73  C   UNL A   1      48.065  26.416  29.736  1.00  0.00    -0.014 A 
ATOM     74  C   UNL A   1      48.577  25.814  30.895  1.00  0.00     0.009 A 
ATOM     75  C   UNL A   1      48.916  26.639  28.645  1.00  0.00     0.009 A 
ATOM     76  C   UNL A   1      49.929  25.476  30.972  1.00  0.00     0.001 A 
ATOM     77  C   UNL A   1      50.260  26.271  28.712  1.00  0.00     0.001 A 
ATOM     78  C   UNL A   1      50.766  25.700  29.879  1.00  0.00     0.000 A 
ENDBRANCH  60  73
ENDBRANCH  34  35
ENDBRANCH  27  29
ENDBRANCH  26  27
ENDBRANCH  25  26
ENDBRANCH  24  25
ENDBRANCH  23  24
ENDBRANCH   1  23
TORSDOF 18
ENDMDL
