MODEL 1
REMARK VINA RESULT:     -11.0      0.000      0.000
REMARK SMILES Cc1cccc2c1N=CN1C2=[NH+]NC(=O)[C@@H]1CC(=O)OCCOCCOC(=O)c1ccc(-c2c3nc(c(-c4ccccc4)c4ccc([nH]4)c(-c4ccccc4)c4nc(c(-c5ccccc5)c5ccc2[nH]5)C=C4)C=C3)cc1
REMARK SMILES IDX 24 1 23 2 22 3 21 4 20 5 18 6 19 7 17 8 16 9 1 10 2 11 3 12
REMARK SMILES IDX 7 13 4 14 6 15 8 16 5 17 11 18 9 19 10 20 12 21 13 22 14 24
REMARK SMILES IDX 15 26 25 27 26 28 27 29 28 30 29 31 30 32 76 33 31 34 75 35
REMARK SMILES IDX 32 36 33 37 34 38 69 39 35 40 74 41 68 42 70 43 36 44 73 45
REMARK SMILES IDX 67 46 66 47 37 49 59 50 44 51 58 52 45 53 48 54 57 55 71 56
REMARK SMILES IDX 46 57 47 58 56 60 72 61 49 62 38 63 39 64 43 65 40 66 42 67
REMARK SMILES IDX 41 68 60 69 61 70 65 71 62 72 64 73 63 74 50 75 51 76 55 77
REMARK SMILES IDX 52 78 54 79 53 80
REMARK H PARENT 12 23 13 25 70 48 48 59
REMARK Flexibility Score: inf
ROOT
ATOM      1  C   UNL A   1      42.790  20.607  26.189  1.00  0.00     0.202 C 
ENDROOT
BRANCH   1   2
ATOM      2  O   UNL A   1      41.514  21.102  26.610  1.00  0.00    -0.374 OA
BRANCH   2   3
ATOM      3  C   UNL A   1      40.353  20.497  26.042  1.00  0.00     0.202 C 
BRANCH   3   4
ATOM      4  C   UNL A   1      39.160  21.429  25.804  1.00  0.00     0.261 C 
BRANCH   4   5
ATOM      5  O   UNL A   1      37.925  20.705  25.663  1.00  0.00    -0.463 OA
BRANCH   5   6
ATOM      6  C   UNL A   1      36.960  21.377  24.993  1.00  0.00     0.310 C 
ATOM      7  O   UNL A   1      37.139  22.042  23.981  1.00  0.00    -0.252 OA
BRANCH   6   8
ATOM      8  C   UNL A   1      35.588  21.137  25.557  1.00  0.00     0.183 C 
BRANCH   8   9
ATOM      9  C   UNL A   1      34.396  21.719  24.799  1.00  0.00     0.286 C 
ATOM     10  C   UNL A   1      33.553  27.911  26.610  1.00  0.00     0.047 C 
ATOM     11  C   UNL A   1      32.566  26.837  26.246  1.00  0.00    -0.024 A 
ATOM     12  C   UNL A   1      31.199  27.161  26.184  1.00  0.00     0.006 A 
ATOM     13  C   UNL A   1      32.993  25.542  25.902  1.00  0.00     0.085 A 
ATOM     14  C   UNL A   1      30.258  26.215  25.781  1.00  0.00     0.001 A 
ATOM     15  C   UNL A   1      32.025  24.589  25.535  1.00  0.00     0.092 A 
ATOM     16  N   UNL A   1      34.377  25.253  25.893  1.00  0.00    -0.215 NA
ATOM     17  C   UNL A   1      30.671  24.929  25.447  1.00  0.00     0.019 A 
ATOM     18  C   UNL A   1      32.493  23.205  25.224  1.00  0.00     0.309 C 
ATOM     19  C   UNL A   1      34.719  24.049  25.570  1.00  0.00     0.317 C 
ATOM     20  N   UNL A   1      33.868  23.005  25.277  1.00  0.00    -0.202 N 
ATOM     21  N   UNL A   1      31.596  22.313  24.922  1.00  0.00    -0.169 N 
ATOM     22  N   UNL A   1      32.020  21.059  24.646  1.00  0.00    -0.193 N 
ATOM     23  H   UNL A   1      30.639  22.542  24.897  1.00  0.00     0.340 HD
ATOM     24  C   UNL A   1      33.322  20.648  24.621  1.00  0.00     0.300 C 
ATOM     25  H   UNL A   1      31.331  20.385  24.446  1.00  0.00     0.216 HD
ATOM     26  O   UNL A   1      33.592  19.469  24.379  1.00  0.00    -0.267 OA
ENDBRANCH   8   9
ENDBRANCH   6   8
ENDBRANCH   5   6
ENDBRANCH   4   5
ENDBRANCH   3   4
ENDBRANCH   2   3
ENDBRANCH   1   2
BRANCH   1  27
ATOM     27  C   UNL A   1      43.717  21.614  25.497  1.00  0.00     0.261 C 
BRANCH  27  28
ATOM     28  O   UNL A   1      42.999  22.742  24.957  1.00  0.00    -0.460 OA
BRANCH  28  29
ATOM     29  C   UNL A   1      43.706  23.898  24.938  1.00  0.00     0.338 C 
ATOM     30  O   UNL A   1      44.742  24.120  24.339  1.00  0.00    -0.246 OA
BRANCH  29  31
ATOM     31  C   UNL A   1      43.049  24.925  25.767  1.00  0.00     0.060 A 
ATOM     32  C   UNL A   1      43.595  26.209  25.889  1.00  0.00     0.016 A 
ATOM     33  C   UNL A   1      41.991  24.535  26.582  1.00  0.00     0.016 A 
ATOM     34  C   UNL A   1      43.087  27.098  26.847  1.00  0.00     0.010 A 
ATOM     35  C   UNL A   1      41.482  25.429  27.526  1.00  0.00     0.010 A 
ATOM     36  C   UNL A   1      42.036  26.711  27.691  1.00  0.00    -0.014 A 
BRANCH  36  37
ATOM     37  C   UNL A   1      41.595  27.558  28.838  1.00  0.00     0.031 A 
ATOM     38  C   UNL A   1      42.346  27.478  30.144  1.00  0.00     0.074 A 
ATOM     39  C   UNL A   1      40.532  28.382  28.750  1.00  0.00     0.049 A 
ATOM     40  N   UNL A   1      42.065  28.030  31.300  1.00  0.00    -0.248 NA
ATOM     41  C   UNL A   1      43.567  26.654  30.156  1.00  0.00     0.031 C 
ATOM     42  C   UNL A   1      39.711  28.594  27.560  1.00  0.00     0.029 A 
ATOM     43  N   UNL A   1      39.956  29.194  29.701  1.00  0.00    -0.354 N 
ATOM     44  C   UNL A   1      43.056  27.599  32.174  1.00  0.00     0.074 A 
ATOM     45  C   UNL A   1      43.916  26.703  31.432  1.00  0.00     0.031 C 
ATOM     46  C   UNL A   1      38.745  29.483  27.847  1.00  0.00     0.029 A 
ATOM     47  C   UNL A   1      38.854  29.878  29.251  1.00  0.00     0.049 A 
ATOM     48  H   UNL A   1      40.302  29.275  30.619  1.00  0.00     0.167 HD
ATOM     49  C   UNL A   1      43.262  27.938  33.467  1.00  0.00     0.031 A 
ATOM     50  C   UNL A   1      38.017  30.720  29.891  1.00  0.00     0.031 A 
ATOM     51  C   UNL A   1      42.461  28.872  34.208  1.00  0.00     0.049 A 
ATOM     52  C   UNL A   1      38.236  31.055  31.340  1.00  0.00     0.074 A 
ATOM     53  C   UNL A   1      42.643  29.315  35.508  1.00  0.00     0.029 A 
ATOM     54  N   UNL A   1      41.345  29.521  33.712  1.00  0.00    -0.354 N 
ATOM     55  N   UNL A   1      39.178  30.636  32.148  1.00  0.00    -0.248 NA
ATOM     56  C   UNL A   1      37.280  31.986  31.963  1.00  0.00     0.031 C 
ATOM     57  C   UNL A   1      41.620  30.218  35.807  1.00  0.00     0.029 A 
ATOM     58  C   UNL A   1      40.824  30.358  34.682  1.00  0.00     0.049 A 
ATOM     59  H   UNL A   1      40.978  29.406  32.806  1.00  0.00     0.167 HD
ATOM     60  C   UNL A   1      38.951  31.279  33.360  1.00  0.00     0.074 A 
ATOM     61  C   UNL A   1      37.777  32.107  33.188  1.00  0.00     0.031 C 
ATOM     62  C   UNL A   1      39.665  31.192  34.506  1.00  0.00     0.031 A 
BRANCH  49  63
ATOM     63  C   UNL A   1      44.431  27.310  34.167  1.00  0.00    -0.014 A 
ATOM     64  C   UNL A   1      45.686  27.937  34.172  1.00  0.00     0.009 A 
ATOM     65  C   UNL A   1      44.263  26.109  34.873  1.00  0.00     0.009 A 
ATOM     66  C   UNL A   1      46.761  27.357  34.846  1.00  0.00     0.001 A 
ATOM     67  C   UNL A   1      45.334  25.544  35.566  1.00  0.00     0.001 A 
ATOM     68  C   UNL A   1      46.583  26.164  35.546  1.00  0.00     0.000 A 
ENDBRANCH  49  63
BRANCH  50  69
ATOM     69  C   UNL A   1      36.885  31.332  29.149  1.00  0.00    -0.014 A 
ATOM     70  C   UNL A   1      35.727  30.585  28.886  1.00  0.00     0.009 A 
ATOM     71  C   UNL A   1      36.957  32.661  28.706  1.00  0.00     0.009 A 
ATOM     72  C   UNL A   1      34.665  31.156  28.183  1.00  0.00     0.001 A 
ATOM     73  C   UNL A   1      35.885  33.234  28.018  1.00  0.00     0.001 A 
ATOM     74  C   UNL A   1      34.743  32.480  27.753  1.00  0.00     0.000 A 
ENDBRANCH  50  69
BRANCH  62  75
ATOM     75  C   UNL A   1      39.243  32.034  35.674  1.00  0.00    -0.014 A 
ATOM     76  C   UNL A   1      39.710  33.347  35.823  1.00  0.00     0.009 A 
ATOM     77  C   UNL A   1      38.268  31.548  36.561  1.00  0.00     0.009 A 
ATOM     78  C   UNL A   1      39.206  34.160  36.841  1.00  0.00     0.001 A 
ATOM     79  C   UNL A   1      37.754  32.369  37.565  1.00  0.00     0.001 A 
ATOM     80  C   UNL A   1      38.223  33.674  37.704  1.00  0.00     0.000 A 
ENDBRANCH  62  75
ENDBRANCH  36  37
ENDBRANCH  29  31
ENDBRANCH  28  29
ENDBRANCH  27  28
ENDBRANCH   1  27
TORSDOF 15
ENDMDL
MODEL 2
REMARK VINA RESULT:     -10.8      3.934      7.756
REMARK SMILES Cc1cccc2c1N=CN1C2=[NH+]NC(=O)[C@@H]1CC(=O)OCCOCCOC(=O)c1ccc(-c2c3nc(c(-c4ccccc4)c4ccc([nH]4)c(-c4ccccc4)c4nc(c(-c5ccccc5)c5ccc2[nH]5)C=C4)C=C3)cc1
REMARK SMILES IDX 24 1 23 2 22 3 21 4 20 5 18 6 19 7 17 8 16 9 1 10 2 11 3 12
REMARK SMILES IDX 7 13 4 14 6 15 8 16 5 17 11 18 9 19 10 20 12 21 13 22 14 24
REMARK SMILES IDX 15 26 25 27 26 28 27 29 28 30 29 31 30 32 76 33 31 34 75 35
REMARK SMILES IDX 32 36 33 37 34 38 69 39 35 40 74 41 68 42 70 43 36 44 73 45
REMARK SMILES IDX 67 46 66 47 37 49 59 50 44 51 58 52 45 53 48 54 57 55 71 56
REMARK SMILES IDX 46 57 47 58 56 60 72 61 49 62 38 63 39 64 43 65 40 66 42 67
REMARK SMILES IDX 41 68 60 69 61 70 65 71 62 72 64 73 63 74 50 75 51 76 55 77
REMARK SMILES IDX 52 78 54 79 53 80
REMARK H PARENT 12 23 13 25 70 48 48 59
REMARK Flexibility Score: inf
ROOT
ATOM      1  C   UNL A   1      36.011  22.433  23.874  1.00  0.00     0.202 C 
ENDROOT
BRANCH   1   2
ATOM      2  O   UNL A   1      35.269  23.046  24.933  1.00  0.00    -0.374 OA
BRANCH   2   3
ATOM      3  C   UNL A   1      34.790  24.373  24.720  1.00  0.00     0.202 C 
BRANCH   3   4
ATOM      4  C   UNL A   1      33.649  24.519  23.706  1.00  0.00     0.261 C 
BRANCH   4   5
ATOM      5  O   UNL A   1      34.051  25.261  22.541  1.00  0.00    -0.463 OA
BRANCH   5   6
ATOM      6  C   UNL A   1      33.041  25.922  21.928  1.00  0.00     0.310 C 
ATOM      7  O   UNL A   1      32.862  25.965  20.718  1.00  0.00    -0.252 OA
BRANCH   6   8
ATOM      8  C   UNL A   1      32.068  26.525  22.901  1.00  0.00     0.183 C 
BRANCH   8   9
ATOM      9  C   UNL A   1      32.107  28.038  23.101  1.00  0.00     0.286 C 
ATOM     10  C   UNL A   1      36.037  29.416  28.099  1.00  0.00     0.047 C 
ATOM     11  C   UNL A   1      34.761  30.057  27.631  1.00  0.00    -0.024 A 
ATOM     12  C   UNL A   1      34.301  31.214  28.283  1.00  0.00     0.006 A 
ATOM     13  C   UNL A   1      34.064  29.560  26.515  1.00  0.00     0.085 A 
ATOM     14  C   UNL A   1      33.162  31.882  27.836  1.00  0.00     0.001 A 
ATOM     15  C   UNL A   1      32.894  30.225  26.102  1.00  0.00     0.092 A 
ATOM     16  N   UNL A   1      34.581  28.442  25.821  1.00  0.00    -0.215 NA
ATOM     17  C   UNL A   1      32.462  31.393  26.738  1.00  0.00     0.019 A 
ATOM     18  C   UNL A   1      32.139  29.651  24.947  1.00  0.00     0.309 C 
ATOM     19  C   UNL A   1      33.904  28.024  24.803  1.00  0.00     0.317 C 
ATOM     20  N   UNL A   1      32.704  28.529  24.351  1.00  0.00    -0.202 N 
ATOM     21  N   UNL A   1      31.037  30.242  24.588  1.00  0.00    -0.169 N 
ATOM     22  N   UNL A   1      30.351  29.719  23.546  1.00  0.00    -0.193 N 
ATOM     23  H   UNL A   1      30.712  31.042  25.060  1.00  0.00     0.340 HD
ATOM     24  C   UNL A   1      30.733  28.636  22.807  1.00  0.00     0.300 C 
ATOM     25  H   UNL A   1      29.504  30.156  23.301  1.00  0.00     0.216 HD
ATOM     26  O   UNL A   1      30.013  28.231  21.891  1.00  0.00    -0.267 OA
ENDBRANCH   8   9
ENDBRANCH   6   8
ENDBRANCH   5   6
ENDBRANCH   4   5
ENDBRANCH   3   4
ENDBRANCH   2   3
ENDBRANCH   1   2
BRANCH   1  27
ATOM     27  C   UNL A   1      37.028  21.360  24.286  1.00  0.00     0.261 C 
BRANCH  27  28
ATOM     28  O   UNL A   1      37.348  21.417  25.690  1.00  0.00    -0.460 OA
BRANCH  28  29
ATOM     29  C   UNL A   1      38.671  21.312  25.967  1.00  0.00     0.338 C 
ATOM     30  O   UNL A   1      39.391  20.348  25.779  1.00  0.00    -0.246 OA
BRANCH  29  31
ATOM     31  C   UNL A   1      39.182  22.564  26.553  1.00  0.00     0.060 A 
ATOM     32  C   UNL A   1      38.633  23.802  26.198  1.00  0.00     0.016 A 
ATOM     33  C   UNL A   1      40.349  22.508  27.309  1.00  0.00     0.016 A 
ATOM     34  C   UNL A   1      39.269  24.990  26.588  1.00  0.00     0.010 A 
ATOM     35  C   UNL A   1      40.971  23.694  27.705  1.00  0.00     0.010 A 
ATOM     36  C   UNL A   1      40.458  24.949  27.331  1.00  0.00    -0.014 A 
BRANCH  36  37
ATOM     37  C   UNL A   1      41.256  26.179  27.605  1.00  0.00     0.031 A 
ATOM     38  C   UNL A   1      40.671  27.256  28.487  1.00  0.00     0.074 A 
ATOM     39  C   UNL A   1      42.480  26.370  27.075  1.00  0.00     0.049 A 
ATOM     40  N   UNL A   1      41.135  28.451  28.759  1.00  0.00    -0.248 NA
ATOM     41  C   UNL A   1      39.383  26.952  29.135  1.00  0.00     0.031 C 
ATOM     42  C   UNL A   1      43.199  25.425  26.222  1.00  0.00     0.029 A 
ATOM     43  N   UNL A   1      43.335  27.444  27.176  1.00  0.00    -0.354 N 
ATOM     44  C   UNL A   1      40.187  29.045  29.584  1.00  0.00     0.074 A 
ATOM     45  C   UNL A   1      39.100  28.101  29.728  1.00  0.00     0.031 C 
ATOM     46  C   UNL A   1      44.388  25.956  25.886  1.00  0.00     0.029 A 
ATOM     47  C   UNL A   1      44.502  27.291  26.468  1.00  0.00     0.049 A 
ATOM     48  H   UNL A   1      43.129  28.248  27.706  1.00  0.00     0.167 HD
ATOM     49  C   UNL A   1      40.223  30.250  30.198  1.00  0.00     0.031 A 
ATOM     50  C   UNL A   1      45.544  28.130  26.295  1.00  0.00     0.031 A 
ATOM     51  C   UNL A   1      41.316  31.178  30.121  1.00  0.00     0.049 A 
ATOM     52  C   UNL A   1      45.550  29.482  26.952  1.00  0.00     0.074 A 
ATOM     53  C   UNL A   1      41.453  32.396  30.766  1.00  0.00     0.029 A 
ATOM     54  N   UNL A   1      42.464  30.984  29.375  1.00  0.00    -0.354 N 
ATOM     55  N   UNL A   1      44.644  30.025  27.727  1.00  0.00    -0.248 NA
ATOM     56  C   UNL A   1      46.727  30.336  26.717  1.00  0.00     0.031 C 
ATOM     57  C   UNL A   1      42.678  32.952  30.391  1.00  0.00     0.029 A 
ATOM     58  C   UNL A   1      43.313  32.064  29.539  1.00  0.00     0.049 A 
ATOM     59  H   UNL A   1      42.649  30.197  28.813  1.00  0.00     0.167 HD
ATOM     60  C   UNL A   1      45.156  31.262  28.100  1.00  0.00     0.074 A 
ATOM     61  C   UNL A   1      46.446  31.399  27.460  1.00  0.00     0.031 C 
ATOM     62  C   UNL A   1      44.602  32.192  28.913  1.00  0.00     0.031 A 
BRANCH  49  63
ATOM     63  C   UNL A   1      39.043  30.627  31.043  1.00  0.00    -0.014 A 
ATOM     64  C   UNL A   1      37.985  31.375  30.505  1.00  0.00     0.009 A 
ATOM     65  C   UNL A   1      38.962  30.185  32.373  1.00  0.00     0.009 A 
ATOM     66  C   UNL A   1      36.879  31.701  31.292  1.00  0.00     0.001 A 
ATOM     67  C   UNL A   1      37.844  30.492  33.151  1.00  0.00     0.001 A 
ATOM     68  C   UNL A   1      36.808  31.255  32.612  1.00  0.00     0.000 A 
ENDBRANCH  49  63
BRANCH  50  69
ATOM     69  C   UNL A   1      46.699  27.703  25.465  1.00  0.00    -0.014 A 
ATOM     70  C   UNL A   1      47.762  26.995  26.046  1.00  0.00     0.009 A 
ATOM     71  C   UNL A   1      46.742  27.997  24.094  1.00  0.00     0.009 A 
ATOM     72  C   UNL A   1      48.853  26.599  25.270  1.00  0.00     0.001 A 
ATOM     73  C   UNL A   1      47.827  27.584  23.318  1.00  0.00     0.001 A 
ATOM     74  C   UNL A   1      48.883  26.890  23.907  1.00  0.00     0.000 A 
ENDBRANCH  50  69
BRANCH  62  75
ATOM     75  C   UNL A   1      45.384  33.438  29.206  1.00  0.00    -0.014 A 
ATOM     76  C   UNL A   1      46.323  33.473  30.247  1.00  0.00     0.009 A 
ATOM     77  C   UNL A   1      45.272  34.544  28.348  1.00  0.00     0.009 A 
ATOM     78  C   UNL A   1      47.135  34.596  30.423  1.00  0.00     0.001 A 
ATOM     79  C   UNL A   1      46.098  35.657  28.515  1.00  0.00     0.001 A 
ATOM     80  C   UNL A   1      47.029  35.681  29.552  1.00  0.00     0.000 A 
ENDBRANCH  62  75
ENDBRANCH  36  37
ENDBRANCH  29  31
ENDBRANCH  28  29
ENDBRANCH  27  28
ENDBRANCH   1  27
TORSDOF 15
ENDMDL
MODEL 3
REMARK VINA RESULT:     -10.8      3.461      4.842
REMARK SMILES Cc1cccc2c1N=CN1C2=[NH+]NC(=O)[C@@H]1CC(=O)OCCOCCOC(=O)c1ccc(-c2c3nc(c(-c4ccccc4)c4ccc([nH]4)c(-c4ccccc4)c4nc(c(-c5ccccc5)c5ccc2[nH]5)C=C4)C=C3)cc1
REMARK SMILES IDX 24 1 23 2 22 3 21 4 20 5 18 6 19 7 17 8 16 9 1 10 2 11 3 12
REMARK SMILES IDX 7 13 4 14 6 15 8 16 5 17 11 18 9 19 10 20 12 21 13 22 14 24
REMARK SMILES IDX 15 26 25 27 26 28 27 29 28 30 29 31 30 32 76 33 31 34 75 35
REMARK SMILES IDX 32 36 33 37 34 38 69 39 35 40 74 41 68 42 70 43 36 44 73 45
REMARK SMILES IDX 67 46 66 47 37 49 59 50 44 51 58 52 45 53 48 54 57 55 71 56
REMARK SMILES IDX 46 57 47 58 56 60 72 61 49 62 38 63 39 64 43 65 40 66 42 67
REMARK SMILES IDX 41 68 60 69 61 70 65 71 62 72 64 73 63 74 50 75 51 76 55 77
REMARK SMILES IDX 52 78 54 79 53 80
REMARK H PARENT 12 23 13 25 70 48 48 59
REMARK Flexibility Score: inf
ROOT
ATOM      1  C   UNL A   1      38.409  21.026  25.494  1.00  0.00     0.202 C 
ENDROOT
BRANCH   1   2
ATOM      2  O   UNL A   1      37.664  21.366  24.320  1.00  0.00    -0.374 OA
BRANCH   2   3
ATOM      3  C   UNL A   1      36.334  21.850  24.501  1.00  0.00     0.202 C 
BRANCH   3   4
ATOM      4  C   UNL A   1      35.761  21.722  25.916  1.00  0.00     0.261 C 
BRANCH   4   5
ATOM      5  O   UNL A   1      34.768  22.726  26.193  1.00  0.00    -0.463 OA
BRANCH   5   6
ATOM      6  C   UNL A   1      33.718  22.283  26.924  1.00  0.00     0.310 C 
ATOM      7  O   UNL A   1      33.586  21.140  27.343  1.00  0.00    -0.252 OA
BRANCH   6   8
ATOM      8  C   UNL A   1      32.756  23.381  27.281  1.00  0.00     0.183 C 
BRANCH   8   9
ATOM      9  C   UNL A   1      31.681  23.743  26.258  1.00  0.00     0.286 C 
ATOM     10  C   UNL A   1      33.934  28.479  22.407  1.00  0.00     0.047 C 
ATOM     11  C   UNL A   1      32.558  28.206  22.947  1.00  0.00    -0.024 A 
ATOM     12  C   UNL A   1      31.489  29.023  22.537  1.00  0.00     0.006 A 
ATOM     13  C   UNL A   1      32.313  27.111  23.796  1.00  0.00     0.085 A 
ATOM     14  C   UNL A   1      30.187  28.760  22.956  1.00  0.00     0.001 A 
ATOM     15  C   UNL A   1      30.997  26.884  24.240  1.00  0.00     0.092 A 
ATOM     16  N   UNL A   1      33.383  26.251  24.137  1.00  0.00    -0.215 NA
ATOM     17  C   UNL A   1      29.937  27.684  23.802  1.00  0.00     0.019 A 
ATOM     18  C   UNL A   1      30.767  25.747  25.182  1.00  0.00     0.309 C 
ATOM     19  C   UNL A   1      33.107  25.260  24.919  1.00  0.00     0.317 C 
ATOM     20  N   UNL A   1      31.885  24.980  25.490  1.00  0.00    -0.202 N 
ATOM     21  N   UNL A   1      29.558  25.560  25.625  1.00  0.00    -0.169 N 
ATOM     22  N   UNL A   1      29.351  24.534  26.481  1.00  0.00    -0.193 N 
ATOM     23  H   UNL A   1      28.818  26.146  25.345  1.00  0.00     0.340 HD
ATOM     24  C   UNL A   1      30.300  23.647  26.901  1.00  0.00     0.300 C 
ATOM     25  H   UNL A   1      28.439  24.419  26.831  1.00  0.00     0.216 HD
ATOM     26  O   UNL A   1      30.001  22.762  27.707  1.00  0.00    -0.267 OA
ENDBRANCH   8   9
ENDBRANCH   6   8
ENDBRANCH   5   6
ENDBRANCH   4   5
ENDBRANCH   3   4
ENDBRANCH   2   3
ENDBRANCH   1   2
BRANCH   1  27
ATOM     27  C   UNL A   1      39.242  19.739  25.424  1.00  0.00     0.261 C 
BRANCH  27  28
ATOM     28  O   UNL A   1      40.243  19.675  26.459  1.00  0.00    -0.460 OA
BRANCH  28  29
ATOM     29  C   UNL A   1      41.512  19.865  26.022  1.00  0.00     0.338 C 
ATOM     30  O   UNL A   1      42.145  19.155  25.262  1.00  0.00    -0.246 OA
BRANCH  29  31
ATOM     31  C   UNL A   1      42.081  21.099  26.593  1.00  0.00     0.060 A 
ATOM     32  C   UNL A   1      42.093  21.312  27.977  1.00  0.00     0.016 A 
ATOM     33  C   UNL A   1      42.423  22.129  25.724  1.00  0.00     0.016 A 
ATOM     34  C   UNL A   1      42.431  22.573  28.489  1.00  0.00     0.010 A 
ATOM     35  C   UNL A   1      42.771  23.379  26.240  1.00  0.00     0.010 A 
ATOM     36  C   UNL A   1      42.755  23.629  27.624  1.00  0.00    -0.014 A 
BRANCH  36  37
ATOM     37  C   UNL A   1      42.941  25.024  28.120  1.00  0.00     0.031 A 
ATOM     38  C   UNL A   1      44.323  25.490  28.507  1.00  0.00     0.074 A 
ATOM     39  C   UNL A   1      41.907  25.878  28.252  1.00  0.00     0.049 A 
ATOM     40  N   UNL A   1      44.693  26.614  29.073  1.00  0.00    -0.248 NA
ATOM     41  C   UNL A   1      45.434  24.562  28.237  1.00  0.00     0.031 C 
ATOM     42  C   UNL A   1      40.515  25.597  27.906  1.00  0.00     0.029 A 
ATOM     43  N   UNL A   1      41.877  27.170  28.729  1.00  0.00    -0.354 N 
ATOM     44  C   UNL A   1      46.068  26.513  29.246  1.00  0.00     0.074 A 
ATOM     45  C   UNL A   1      46.461  25.203  28.774  1.00  0.00     0.031 C 
ATOM     46  C   UNL A   1      39.770  26.683  28.171  1.00  0.00     0.029 A 
ATOM     47  C   UNL A   1      40.621  27.726  28.740  1.00  0.00     0.049 A 
ATOM     48  H   UNL A   1      42.681  27.649  29.034  1.00  0.00     0.167 HD
ATOM     49  C   UNL A   1      46.940  27.432  29.721  1.00  0.00     0.031 A 
ATOM     50  C   UNL A   1      40.196  28.933  29.167  1.00  0.00     0.031 A 
ATOM     51  C   UNL A   1      46.586  28.760  30.138  1.00  0.00     0.049 A 
ATOM     52  C   UNL A   1      41.172  29.928  29.730  1.00  0.00     0.074 A 
ATOM     53  C   UNL A   1      47.424  29.772  30.576  1.00  0.00     0.029 A 
ATOM     54  N   UNL A   1      45.299  29.266  30.149  1.00  0.00    -0.354 N 
ATOM     55  N   UNL A   1      42.467  29.813  29.887  1.00  0.00    -0.248 NA
ATOM     56  C   UNL A   1      40.628  31.224  30.170  1.00  0.00     0.031 C 
ATOM     57  C   UNL A   1      46.638  30.888  30.875  1.00  0.00     0.029 A 
ATOM     58  C   UNL A   1      45.318  30.577  30.592  1.00  0.00     0.049 A 
ATOM     59  H   UNL A   1      44.492  28.769  29.882  1.00  0.00     0.167 HD
ATOM     60  C   UNL A   1      42.896  31.029  30.406  1.00  0.00     0.074 A 
ATOM     61  C   UNL A   1      41.725  31.866  30.549  1.00  0.00     0.031 C 
ATOM     62  C   UNL A   1      44.155  31.413  30.721  1.00  0.00     0.031 A 
BRANCH  49  63
ATOM     63  C   UNL A   1      48.386  27.039  29.791  1.00  0.00    -0.014 A 
ATOM     64  C   UNL A   1      48.904  26.404  30.929  1.00  0.00     0.009 A 
ATOM     65  C   UNL A   1      49.225  27.257  28.687  1.00  0.00     0.009 A 
ATOM     66  C   UNL A   1      50.244  26.019  30.974  1.00  0.00     0.001 A 
ATOM     67  C   UNL A   1      50.560  26.851  28.726  1.00  0.00     0.001 A 
ATOM     68  C   UNL A   1      51.070  26.239  29.871  1.00  0.00     0.000 A 
ENDBRANCH  49  63
BRANCH  50  69
ATOM     69  C   UNL A   1      38.757  29.283  29.059  1.00  0.00    -0.014 A 
ATOM     70  C   UNL A   1      38.238  29.773  27.852  1.00  0.00     0.009 A 
ATOM     71  C   UNL A   1      37.899  29.127  30.158  1.00  0.00     0.009 A 
ATOM     72  C   UNL A   1      36.888  30.110  27.749  1.00  0.00     0.001 A 
ATOM     73  C   UNL A   1      36.545  29.449  30.047  1.00  0.00     0.001 A 
ATOM     74  C   UNL A   1      36.041  29.945  28.845  1.00  0.00     0.000 A 
ENDBRANCH  50  69
BRANCH  62  75
ATOM     75  C   UNL A   1      44.369  32.811  31.222  1.00  0.00    -0.014 A 
ATOM     76  C   UNL A   1      44.402  33.090  32.595  1.00  0.00     0.009 A 
ATOM     77  C   UNL A   1      44.671  33.834  30.308  1.00  0.00     0.009 A 
ATOM     78  C   UNL A   1      44.732  34.370  33.044  1.00  0.00     0.001 A 
ATOM     79  C   UNL A   1      45.019  35.107  30.761  1.00  0.00     0.001 A 
ATOM     80  C   UNL A   1      45.049  35.374  32.129  1.00  0.00     0.000 A 
ENDBRANCH  62  75
ENDBRANCH  36  37
ENDBRANCH  29  31
ENDBRANCH  28  29
ENDBRANCH  27  28
ENDBRANCH   1  27
TORSDOF 15
ENDMDL
