MODEL 1
REMARK VINA RESULT:     -11.5      0.000      0.000
REMARK SMILES CC(C)c1ccc(NC(=O)C(=O)N/N=C/c2ccccc2C(=O)OCCOCCOC(=O)c2ccc(-c3c4nc(c(-c5ccccc5)c5ccc([nH]5)c(-c5ccccc5)c5nc(c(-c6ccccc6)c6ccc3[nH]6)C=C5)C=C4)cc2)cc1
REMARK SMILES IDX 25 1 24 2 22 3 23 4 21 5 16 6 17 7 18 8 20 9 19 10 15 11
REMARK SMILES IDX 14 12 13 13 11 14 12 15 9 17 8 18 10 20 7 21 4 22 5 23 82 24
REMARK SMILES IDX 6 25 81 26 2 27 1 28 3 29 26 30 27 31 28 32 29 33 30 34
REMARK SMILES IDX 31 35 32 36 33 37 34 38 80 39 35 40 79 41 36 42 37 43 38 44
REMARK SMILES IDX 73 45 39 46 78 47 72 48 74 49 40 50 77 51 71 52 70 53 41 55
REMARK SMILES IDX 63 56 48 57 62 58 49 59 52 60 61 61 75 62 50 63 51 64 60 66
REMARK SMILES IDX 76 67 53 68 42 69 43 70 47 71 44 72 46 73 45 74 64 75 65 76
REMARK SMILES IDX 69 77 66 78 68 79 67 80 54 81 55 82 59 83 56 84 58 85 57 86
REMARK H PARENT 13 16 8 19 74 54 52 65
REMARK Flexibility Score: inf
ROOT
ATOM      1  C   UNL A   1      35.287  22.535  25.794  1.00  0.00     0.261 C 
ENDROOT
BRANCH   1   2
ATOM      2  O   UNL A   1      34.240  21.730  26.360  1.00  0.00    -0.460 OA
BRANCH   2   3
ATOM      3  C   UNL A   1      33.030  21.785  25.761  1.00  0.00     0.338 C 
ATOM      4  O   UNL A   1      32.264  22.739  25.784  1.00  0.00    -0.246 OA
BRANCH   3   5
ATOM      5  C   UNL A   1      32.783  20.581  24.920  1.00  0.00     0.068 A 
ATOM      6  C   UNL A   1      32.526  20.591  23.540  1.00  0.00     0.009 A 
ATOM      7  C   UNL A   1      32.328  19.400  22.833  1.00  0.00     0.010 A 
ATOM      8  C   UNL A   1      32.340  18.183  23.513  1.00  0.00     0.001 A 
ATOM      9  C   UNL A   1      32.786  19.345  25.587  1.00  0.00     0.016 A 
ATOM     10  C   UNL A   1      32.552  18.157  24.891  1.00  0.00     0.001 A 
BRANCH   6  11
ATOM     11  C   UNL A   1      32.260  21.836  22.825  1.00  0.00     0.142 C 
ATOM     12  N   UNL A   1      33.189  22.637  22.406  1.00  0.00    -0.180 NA
BRANCH  12  13
ATOM     13  N   UNL A   1      32.688  23.767  21.811  1.00  0.00    -0.239 N 
ATOM     14  C   UNL A   1      33.159  25.053  22.025  1.00  0.00     0.329 C 
ATOM     15  O   UNL A   1      33.256  25.842  21.094  1.00  0.00    -0.262 OA
ATOM     16  H   UNL A   1      31.937  23.657  21.183  1.00  0.00     0.194 HD
BRANCH  14  17
ATOM     17  C   UNL A   1      33.556  25.444  23.460  1.00  0.00     0.315 C 
ATOM     18  N   UNL A   1      32.787  26.314  24.207  1.00  0.00    -0.318 N 
ATOM     19  H   UNL A   1      33.161  26.488  25.101  1.00  0.00     0.170 HD
ATOM     20  O   UNL A   1      34.615  25.042  23.938  1.00  0.00    -0.263 OA
BRANCH  18  21
ATOM     21  C   UNL A   1      31.587  27.005  23.966  1.00  0.00     0.041 A 
ATOM     22  C   UNL A   1      29.316  28.572  23.295  1.00  0.00    -0.045 A 
ATOM     23  C   UNL A   1      29.210  27.197  23.527  1.00  0.00     0.006 A 
ATOM     24  C   UNL A   1      30.576  29.162  23.447  1.00  0.00     0.006 A 
ATOM     25  C   UNL A   1      30.326  26.430  23.883  1.00  0.00     0.026 A 
ATOM     26  C   UNL A   1      31.694  28.389  23.782  1.00  0.00     0.026 A 
BRANCH  22  27
ATOM     27  C   UNL A   1      28.135  29.425  22.860  1.00  0.00     0.013 C 
ATOM     28  C   UNL A   1      26.821  28.714  23.198  1.00  0.00     0.012 C 
ATOM     29  C   UNL A   1      28.121  30.841  23.445  1.00  0.00     0.012 C 
ENDBRANCH  22  27
ENDBRANCH  18  21
ENDBRANCH  14  17
ENDBRANCH  12  13
ENDBRANCH   6  11
ENDBRANCH   3   5
ENDBRANCH   2   3
ENDBRANCH   1   2
BRANCH   1  30
ATOM     30  C   UNL A   1      36.108  21.702  24.805  1.00  0.00     0.202 C 
BRANCH  30  31
ATOM     31  O   UNL A   1      36.905  20.674  25.396  1.00  0.00    -0.374 OA
BRANCH  31  32
ATOM     32  C   UNL A   1      38.251  20.560  24.932  1.00  0.00     0.202 C 
BRANCH  32  33
ATOM     33  C   UNL A   1      39.304  20.251  26.002  1.00  0.00     0.261 C 
BRANCH  33  34
ATOM     34  O   UNL A   1      40.143  19.143  25.632  1.00  0.00    -0.460 OA
BRANCH  34  35
ATOM     35  C   UNL A   1      41.433  19.253  26.028  1.00  0.00     0.338 C 
ATOM     36  O   UNL A   1      42.321  18.419  25.910  1.00  0.00    -0.246 OA
BRANCH  35  37
ATOM     37  C   UNL A   1      41.699  20.617  26.512  1.00  0.00     0.060 A 
ATOM     38  C   UNL A   1      41.964  21.606  25.558  1.00  0.00     0.016 A 
ATOM     39  C   UNL A   1      41.759  20.907  27.875  1.00  0.00     0.016 A 
ATOM     40  C   UNL A   1      42.314  22.893  25.966  1.00  0.00     0.010 A 
ATOM     41  C   UNL A   1      42.113  22.199  28.281  1.00  0.00     0.010 A 
ATOM     42  C   UNL A   1      42.413  23.193  27.331  1.00  0.00    -0.014 A 
BRANCH  42  43
ATOM     43  C   UNL A   1      42.938  24.511  27.766  1.00  0.00     0.031 A 
ATOM     44  C   UNL A   1      41.968  25.592  28.157  1.00  0.00     0.074 A 
ATOM     45  C   UNL A   1      44.262  24.750  27.806  1.00  0.00     0.049 A 
ATOM     46  N   UNL A   1      42.203  26.830  28.511  1.00  0.00    -0.248 NA
ATOM     47  C   UNL A   1      40.541  25.231  28.135  1.00  0.00     0.031 C 
ATOM     48  C   UNL A   1      45.309  23.788  27.464  1.00  0.00     0.029 A 
ATOM     49  N   UNL A   1      44.950  25.893  28.132  1.00  0.00    -0.354 N 
ATOM     50  C   UNL A   1      40.955  27.404  28.720  1.00  0.00     0.074 A 
ATOM     51  C   UNL A   1      39.967  26.384  28.443  1.00  0.00     0.031 C 
ATOM     52  C   UNL A   1      46.507  24.385  27.585  1.00  0.00     0.029 A 
ATOM     53  C   UNL A   1      46.309  25.781  27.971  1.00  0.00     0.049 A 
ATOM     54  H   UNL A   1      44.510  26.714  28.451  1.00  0.00     0.167 HD
ATOM     55  C   UNL A   1      40.654  28.669  29.101  1.00  0.00     0.031 A 
ATOM     56  C   UNL A   1      47.280  26.709  28.084  1.00  0.00     0.031 A 
ATOM     57  C   UNL A   1      41.633  29.694  29.342  1.00  0.00     0.049 A 
ATOM     58  C   UNL A   1      46.919  28.123  28.455  1.00  0.00     0.074 A 
ATOM     59  C   UNL A   1      41.430  30.994  29.771  1.00  0.00     0.029 A 
ATOM     60  N   UNL A   1      42.998  29.542  29.158  1.00  0.00    -0.354 N 
ATOM     61  N   UNL A   1      45.740  28.637  28.710  1.00  0.00    -0.248 NA
ATOM     62  C   UNL A   1      48.026  29.086  28.549  1.00  0.00     0.031 C 
ATOM     63  C   UNL A   1      42.667  31.647  29.790  1.00  0.00     0.029 A 
ATOM     64  C   UNL A   1      43.647  30.733  29.436  1.00  0.00     0.049 A 
ATOM     65  H   UNL A   1      43.440  28.710  28.872  1.00  0.00     0.167 HD
ATOM     66  C   UNL A   1      45.967  29.971  29.022  1.00  0.00     0.074 A 
ATOM     67  C   UNL A   1      47.396  30.185  28.939  1.00  0.00     0.031 C 
ATOM     68  C   UNL A   1      45.070  30.933  29.351  1.00  0.00     0.031 A 
BRANCH  55  69
ATOM     69  C   UNL A   1      39.199  29.018  29.246  1.00  0.00    -0.014 A 
ATOM     70  C   UNL A   1      38.464  29.535  28.168  1.00  0.00     0.009 A 
ATOM     71  C   UNL A   1      38.547  28.798  30.470  1.00  0.00     0.009 A 
ATOM     72  C   UNL A   1      37.114  29.862  28.324  1.00  0.00     0.001 A 
ATOM     73  C   UNL A   1      37.192  29.096  30.614  1.00  0.00     0.001 A 
ATOM     74  C   UNL A   1      36.478  29.636  29.544  1.00  0.00     0.000 A 
ENDBRANCH  55  69
BRANCH  56  75
ATOM     75  C   UNL A   1      48.694  26.346  27.805  1.00  0.00    -0.014 A 
ATOM     76  C   UNL A   1      49.198  26.391  26.496  1.00  0.00     0.009 A 
ATOM     77  C   UNL A   1      49.539  25.924  28.844  1.00  0.00     0.009 A 
ATOM     78  C   UNL A   1      50.511  25.996  26.230  1.00  0.00     0.001 A 
ATOM     79  C   UNL A   1      50.861  25.558  28.578  1.00  0.00     0.001 A 
ATOM     80  C   UNL A   1      51.342  25.585  27.270  1.00  0.00     0.000 A 
ENDBRANCH  56  75
BRANCH  68  81
ATOM     81  C   UNL A   1      45.611  32.294  29.697  1.00  0.00    -0.014 A 
ATOM     82  C   UNL A   1      45.747  33.298  28.727  1.00  0.00     0.009 A 
ATOM     83  C   UNL A   1      45.949  32.585  31.028  1.00  0.00     0.009 A 
ATOM     84  C   UNL A   1      46.244  34.556  29.077  1.00  0.00     0.001 A 
ATOM     85  C   UNL A   1      46.416  33.851  31.382  1.00  0.00     0.001 A 
ATOM     86  C   UNL A   1      46.572  34.833  30.404  1.00  0.00     0.000 A 
ENDBRANCH  68  81
ENDBRANCH  42  43
ENDBRANCH  35  37
ENDBRANCH  34  35
ENDBRANCH  33  34
ENDBRANCH  32  33
ENDBRANCH  31  32
ENDBRANCH  30  31
ENDBRANCH   1  30
TORSDOF 19
ENDMDL
MODEL 2
REMARK VINA RESULT:     -11.3      2.598      8.023
REMARK SMILES CC(C)c1ccc(NC(=O)C(=O)N/N=C/c2ccccc2C(=O)OCCOCCOC(=O)c2ccc(-c3c4nc(c(-c5ccccc5)c5ccc([nH]5)c(-c5ccccc5)c5nc(c(-c6ccccc6)c6ccc3[nH]6)C=C5)C=C4)cc2)cc1
REMARK SMILES IDX 25 1 24 2 22 3 23 4 21 5 16 6 17 7 18 8 20 9 19 10 15 11
REMARK SMILES IDX 14 12 13 13 11 14 12 15 9 17 8 18 10 20 7 21 4 22 5 23 82 24
REMARK SMILES IDX 6 25 81 26 2 27 1 28 3 29 26 30 27 31 28 32 29 33 30 34
REMARK SMILES IDX 31 35 32 36 33 37 34 38 80 39 35 40 79 41 36 42 37 43 38 44
REMARK SMILES IDX 73 45 39 46 78 47 72 48 74 49 40 50 77 51 71 52 70 53 41 55
REMARK SMILES IDX 63 56 48 57 62 58 49 59 52 60 61 61 75 62 50 63 51 64 60 66
REMARK SMILES IDX 76 67 53 68 42 69 43 70 47 71 44 72 46 73 45 74 64 75 65 76
REMARK SMILES IDX 69 77 66 78 68 79 67 80 54 81 55 82 59 83 56 84 58 85 57 86
REMARK H PARENT 13 16 8 19 74 54 52 65
REMARK Flexibility Score: inf
ROOT
ATOM      1  C   UNL A   1      29.743  25.648  25.629  1.00  0.00     0.261 C 
ENDROOT
BRANCH   1   2
ATOM      2  O   UNL A   1      29.821  26.690  24.640  1.00  0.00    -0.460 OA
BRANCH   2   3
ATOM      3  C   UNL A   1      28.698  26.952  23.936  1.00  0.00     0.338 C 
ATOM      4  O   UNL A   1      27.654  26.318  23.993  1.00  0.00    -0.246 OA
BRANCH   3   5
ATOM      5  C   UNL A   1      28.821  28.222  23.167  1.00  0.00     0.068 A 
ATOM      6  C   UNL A   1      29.903  28.574  22.345  1.00  0.00     0.009 A 
ATOM      7  C   UNL A   1      29.915  29.785  21.644  1.00  0.00     0.010 A 
ATOM      8  C   UNL A   1      28.858  30.680  21.794  1.00  0.00     0.001 A 
ATOM      9  C   UNL A   1      27.769  29.140  23.309  1.00  0.00     0.016 A 
ATOM     10  C   UNL A   1      27.794  30.366  22.640  1.00  0.00     0.001 A 
BRANCH   6  11
ATOM     11  C   UNL A   1      31.139  27.795  22.340  1.00  0.00     0.142 C 
ATOM     12  N   UNL A   1      31.311  26.725  21.627  1.00  0.00    -0.180 NA
BRANCH  12  13
ATOM     13  N   UNL A   1      32.535  26.140  21.834  1.00  0.00    -0.239 N 
ATOM     14  C   UNL A   1      32.739  24.796  22.102  1.00  0.00     0.329 C 
ATOM     15  O   UNL A   1      33.679  24.197  21.597  1.00  0.00    -0.262 OA
ATOM     16  H   UNL A   1      33.330  26.719  21.788  1.00  0.00     0.194 HD
BRANCH  14  17
ATOM     17  C   UNL A   1      31.744  24.092  23.043  1.00  0.00     0.315 C 
ATOM     18  N   UNL A   1      32.177  23.369  24.136  1.00  0.00    -0.318 N 
ATOM     19  H   UNL A   1      31.440  22.960  24.646  1.00  0.00     0.170 HD
ATOM     20  O   UNL A   1      30.541  24.100  22.788  1.00  0.00    -0.263 OA
BRANCH  18  21
ATOM     21  C   UNL A   1      33.443  23.090  24.679  1.00  0.00     0.041 A 
ATOM     22  C   UNL A   1      36.052  22.362  25.536  1.00  0.00    -0.045 A 
ATOM     23  C   UNL A   1      35.533  23.638  25.781  1.00  0.00     0.006 A 
ATOM     24  C   UNL A   1      35.224  21.437  24.890  1.00  0.00     0.006 A 
ATOM     25  C   UNL A   1      34.238  23.987  25.381  1.00  0.00     0.026 A 
ATOM     26  C   UNL A   1      33.936  21.796  24.471  1.00  0.00     0.026 A 
BRANCH  22  27
ATOM     27  C   UNL A   1      37.470  21.965  25.914  1.00  0.00     0.013 C 
ATOM     28  C   UNL A   1      37.977  20.872  24.968  1.00  0.00     0.012 C 
ATOM     29  C   UNL A   1      38.470  23.124  25.946  1.00  0.00     0.012 C 
ENDBRANCH  22  27
ENDBRANCH  18  21
ENDBRANCH  14  17
ENDBRANCH  12  13
ENDBRANCH   6  11
ENDBRANCH   3   5
ENDBRANCH   2   3
ENDBRANCH   1   2
BRANCH   1  30
ATOM     30  C   UNL A   1      31.005  25.658  26.496  1.00  0.00     0.202 C 
BRANCH  30  31
ATOM     31  O   UNL A   1      31.296  26.906  27.126  1.00  0.00    -0.374 OA
BRANCH  31  32
ATOM     32  C   UNL A   1      32.563  27.494  26.828  1.00  0.00     0.202 C 
BRANCH  32  33
ATOM     33  C   UNL A   1      32.765  28.933  27.316  1.00  0.00     0.261 C 
BRANCH  33  34
ATOM     34  O   UNL A   1      34.055  29.454  26.952  1.00  0.00    -0.460 OA
BRANCH  34  35
ATOM     35  C   UNL A   1      34.516  30.438  27.757  1.00  0.00     0.338 C 
ATOM     36  O   UNL A   1      33.894  31.401  28.187  1.00  0.00    -0.246 OA
BRANCH  35  37
ATOM     37  C   UNL A   1      35.884  30.128  28.202  1.00  0.00     0.060 A 
ATOM     38  C   UNL A   1      36.916  30.237  27.262  1.00  0.00     0.016 A 
ATOM     39  C   UNL A   1      36.144  29.671  29.495  1.00  0.00     0.016 A 
ATOM     40  C   UNL A   1      38.215  29.866  27.606  1.00  0.00     0.010 A 
ATOM     41  C   UNL A   1      37.449  29.297  29.836  1.00  0.00     0.010 A 
ATOM     42  C   UNL A   1      38.487  29.372  28.889  1.00  0.00    -0.014 A 
BRANCH  42  43
ATOM     43  C   UNL A   1      39.831  28.829  29.207  1.00  0.00     0.031 A 
ATOM     44  C   UNL A   1      40.829  29.709  29.907  1.00  0.00     0.074 A 
ATOM     45  C   UNL A   1      40.166  27.570  28.870  1.00  0.00     0.049 A 
ATOM     46  N   UNL A   1      42.074  29.461  30.227  1.00  0.00    -0.248 NA
ATOM     47  C   UNL A   1      40.365  31.054  30.286  1.00  0.00     0.031 C 
ATOM     48  C   UNL A   1      39.291  26.609  28.199  1.00  0.00     0.029 A 
ATOM     49  N   UNL A   1      41.350  26.892  29.028  1.00  0.00    -0.354 N 
ATOM     50  C   UNL A   1      42.550  30.628  30.814  1.00  0.00     0.074 A 
ATOM     51  C   UNL A   1      41.466  31.586  30.794  1.00  0.00     0.031 C 
ATOM     52  C   UNL A   1      39.972  25.469  27.990  1.00  0.00     0.029 A 
ATOM     53  C   UNL A   1      41.342  25.634  28.474  1.00  0.00     0.049 A 
ATOM     54  H   UNL A   1      42.130  27.270  29.494  1.00  0.00     0.167 HD
ATOM     55  C   UNL A   1      43.781  30.884  31.317  1.00  0.00     0.031 A 
ATOM     56  C   UNL A   1      42.336  24.736  28.338  1.00  0.00     0.031 A 
ATOM     57  C   UNL A   1      44.871  29.947  31.305  1.00  0.00     0.049 A 
ATOM     58  C   UNL A   1      43.712  25.062  28.856  1.00  0.00     0.074 A 
ATOM     59  C   UNL A   1      46.143  30.098  31.828  1.00  0.00     0.029 A 
ATOM     60  N   UNL A   1      44.823  28.688  30.727  1.00  0.00    -0.354 N 
ATOM     61  N   UNL A   1      44.132  26.145  29.463  1.00  0.00    -0.248 NA
ATOM     62  C   UNL A   1      44.752  24.040  28.664  1.00  0.00     0.031 C 
ATOM     63  C   UNL A   1      46.884  28.955  31.513  1.00  0.00     0.029 A 
ATOM     64  C   UNL A   1      46.052  28.065  30.853  1.00  0.00     0.049 A 
ATOM     65  H   UNL A   1      44.033  28.296  30.290  1.00  0.00     0.167 HD
ATOM     66  C   UNL A   1      45.473  25.924  29.751  1.00  0.00     0.074 A 
ATOM     67  C   UNL A   1      45.793  24.598  29.265  1.00  0.00     0.031 C 
ATOM     68  C   UNL A   1      46.359  26.745  30.366  1.00  0.00     0.031 A 
BRANCH  55  69
ATOM     69  C   UNL A   1      44.019  32.253  31.893  1.00  0.00    -0.014 A 
ATOM     70  C   UNL A   1      43.810  32.516  33.256  1.00  0.00     0.009 A 
ATOM     71  C   UNL A   1      44.489  33.286  31.066  1.00  0.00     0.009 A 
ATOM     72  C   UNL A   1      44.029  33.796  33.771  1.00  0.00     0.001 A 
ATOM     73  C   UNL A   1      44.736  34.555  31.590  1.00  0.00     0.001 A 
ATOM     74  C   UNL A   1      44.498  34.812  32.940  1.00  0.00     0.000 A 
ENDBRANCH  55  69
BRANCH  56  75
ATOM     75  C   UNL A   1      42.084  23.444  27.646  1.00  0.00    -0.014 A 
ATOM     76  C   UNL A   1      41.557  22.349  28.349  1.00  0.00     0.009 A 
ATOM     77  C   UNL A   1      42.395  23.292  26.286  1.00  0.00     0.009 A 
ATOM     78  C   UNL A   1      41.372  21.122  27.709  1.00  0.00     0.001 A 
ATOM     79  C   UNL A   1      42.181  22.071  25.642  1.00  0.00     0.001 A 
ATOM     80  C   UNL A   1      41.679  20.985  26.357  1.00  0.00     0.000 A 
ENDBRANCH  56  75
BRANCH  68  81
ATOM     81  C   UNL A   1      47.749  26.215  30.596  1.00  0.00    -0.014 A 
ATOM     82  C   UNL A   1      48.135  25.680  31.834  1.00  0.00     0.009 A 
ATOM     83  C   UNL A   1      48.672  26.216  29.538  1.00  0.00     0.009 A 
ATOM     84  C   UNL A   1      49.428  25.187  32.018  1.00  0.00     0.001 A 
ATOM     85  C   UNL A   1      49.954  25.695  29.715  1.00  0.00     0.001 A 
ATOM     86  C   UNL A   1      50.335  25.190  30.957  1.00  0.00     0.000 A 
ENDBRANCH  68  81
ENDBRANCH  42  43
ENDBRANCH  35  37
ENDBRANCH  34  35
ENDBRANCH  33  34
ENDBRANCH  32  33
ENDBRANCH  31  32
ENDBRANCH  30  31
ENDBRANCH   1  30
TORSDOF 19
ENDMDL
MODEL 3
REMARK VINA RESULT:     -11.0      3.073      8.483
REMARK SMILES CC(C)c1ccc(NC(=O)C(=O)N/N=C/c2ccccc2C(=O)OCCOCCOC(=O)c2ccc(-c3c4nc(c(-c5ccccc5)c5ccc([nH]5)c(-c5ccccc5)c5nc(c(-c6ccccc6)c6ccc3[nH]6)C=C5)C=C4)cc2)cc1
REMARK SMILES IDX 25 1 24 2 22 3 23 4 21 5 16 6 17 7 18 8 20 9 19 10 15 11
REMARK SMILES IDX 14 12 13 13 11 14 12 15 9 17 8 18 10 20 7 21 4 22 5 23 82 24
REMARK SMILES IDX 6 25 81 26 2 27 1 28 3 29 26 30 27 31 28 32 29 33 30 34
REMARK SMILES IDX 31 35 32 36 33 37 34 38 80 39 35 40 79 41 36 42 37 43 38 44
REMARK SMILES IDX 73 45 39 46 78 47 72 48 74 49 40 50 77 51 71 52 70 53 41 55
REMARK SMILES IDX 63 56 48 57 62 58 49 59 52 60 61 61 75 62 50 63 51 64 60 66
REMARK SMILES IDX 76 67 53 68 42 69 43 70 47 71 44 72 46 73 45 74 64 75 65 76
REMARK SMILES IDX 69 77 66 78 68 79 67 80 54 81 55 82 59 83 56 84 58 85 57 86
REMARK H PARENT 13 16 8 19 74 54 52 65
REMARK Flexibility Score: inf
ROOT
ATOM      1  C   UNL A   1      30.018  26.214  25.843  1.00  0.00     0.261 C 
ENDROOT
BRANCH   1   2
ATOM      2  O   UNL A   1      29.901  26.452  24.430  1.00  0.00    -0.460 OA
BRANCH   2   3
ATOM      3  C   UNL A   1      28.706  26.893  23.979  1.00  0.00     0.338 C 
ATOM      4  O   UNL A   1      27.619  26.393  24.229  1.00  0.00    -0.246 OA
BRANCH   3   5
ATOM      5  C   UNL A   1      28.844  28.181  23.241  1.00  0.00     0.068 A 
ATOM      6  C   UNL A   1      29.921  28.533  22.415  1.00  0.00     0.009 A 
ATOM      7  C   UNL A   1      29.947  29.761  21.745  1.00  0.00     0.010 A 
ATOM      8  C   UNL A   1      28.908  30.672  21.931  1.00  0.00     0.001 A 
ATOM      9  C   UNL A   1      27.810  29.113  23.420  1.00  0.00     0.016 A 
ATOM     10  C   UNL A   1      27.849  30.355  22.782  1.00  0.00     0.001 A 
BRANCH   6  11
ATOM     11  C   UNL A   1      31.142  27.733  22.374  1.00  0.00     0.142 C 
ATOM     12  N   UNL A   1      31.299  26.699  21.607  1.00  0.00    -0.180 NA
BRANCH  12  13
ATOM     13  N   UNL A   1      32.511  26.081  21.788  1.00  0.00    -0.239 N 
ATOM     14  C   UNL A   1      32.682  24.739  22.087  1.00  0.00     0.329 C 
ATOM     15  O   UNL A   1      33.585  24.097  21.568  1.00  0.00    -0.262 OA
ATOM     16  H   UNL A   1      33.321  26.634  21.698  1.00  0.00     0.194 HD
BRANCH  14  17
ATOM     17  C   UNL A   1      31.700  24.094  23.082  1.00  0.00     0.315 C 
ATOM     18  N   UNL A   1      32.147  23.432  24.207  1.00  0.00    -0.318 N 
ATOM     19  H   UNL A   1      31.416  23.056  24.750  1.00  0.00     0.170 HD
ATOM     20  O   UNL A   1      30.493  24.092  22.844  1.00  0.00    -0.263 OA
BRANCH  18  21
ATOM     21  C   UNL A   1      33.420  23.179  24.746  1.00  0.00     0.041 A 
ATOM     22  C   UNL A   1      36.038  22.488  25.606  1.00  0.00    -0.045 A 
ATOM     23  C   UNL A   1      35.534  23.782  25.772  1.00  0.00     0.006 A 
ATOM     24  C   UNL A   1      35.191  21.528  25.039  1.00  0.00     0.006 A 
ATOM     25  C   UNL A   1      34.234  24.115  25.371  1.00  0.00     0.026 A 
ATOM     26  C   UNL A   1      33.899  21.869  24.619  1.00  0.00     0.026 A 
BRANCH  22  27
ATOM     27  C   UNL A   1      37.459  22.104  25.985  1.00  0.00     0.013 C 
ATOM     28  C   UNL A   1      37.993  21.047  25.015  1.00  0.00     0.012 C 
ATOM     29  C   UNL A   1      38.439  23.279  26.059  1.00  0.00     0.012 C 
ENDBRANCH  22  27
ENDBRANCH  18  21
ENDBRANCH  14  17
ENDBRANCH  12  13
ENDBRANCH   6  11
ENDBRANCH   3   5
ENDBRANCH   2   3
ENDBRANCH   1   2
BRANCH   1  30
ATOM     30  C   UNL A   1      31.426  26.586  26.318  1.00  0.00     0.202 C 
BRANCH  30  31
ATOM     31  O   UNL A   1      31.521  27.832  27.011  1.00  0.00    -0.374 OA
BRANCH  31  32
ATOM     32  C   UNL A   1      31.788  28.988  26.215  1.00  0.00     0.202 C 
BRANCH  32  33
ATOM     33  C   UNL A   1      32.442  30.166  26.946  1.00  0.00     0.261 C 
BRANCH  33  34
ATOM     34  O   UNL A   1      33.878  30.105  26.896  1.00  0.00    -0.460 OA
BRANCH  34  35
ATOM     35  C   UNL A   1      34.509  30.812  27.861  1.00  0.00     0.338 C 
ATOM     36  O   UNL A   1      34.061  31.749  28.510  1.00  0.00    -0.246 OA
BRANCH  35  37
ATOM     37  C   UNL A   1      35.814  30.204  28.163  1.00  0.00     0.060 A 
ATOM     38  C   UNL A   1      36.006  29.677  29.446  1.00  0.00     0.016 A 
ATOM     39  C   UNL A   1      36.855  30.214  27.233  1.00  0.00     0.016 A 
ATOM     40  C   UNL A   1      37.254  29.174  29.813  1.00  0.00     0.010 A 
ATOM     41  C   UNL A   1      38.106  29.710  27.607  1.00  0.00     0.010 A 
ATOM     42  C   UNL A   1      38.319  29.206  28.903  1.00  0.00    -0.014 A 
BRANCH  42  43
ATOM     43  C   UNL A   1      39.683  28.820  29.342  1.00  0.00     0.031 A 
ATOM     44  C   UNL A   1      40.250  27.501  28.893  1.00  0.00     0.074 A 
ATOM     45  C   UNL A   1      40.409  29.627  30.138  1.00  0.00     0.049 A 
ATOM     46  N   UNL A   1      41.391  26.940  29.203  1.00  0.00    -0.248 NA
ATOM     47  C   UNL A   1      39.412  26.704  27.983  1.00  0.00     0.031 C 
ATOM     48  C   UNL A   1      39.984  30.935  30.635  1.00  0.00     0.029 A 
ATOM     49  N   UNL A   1      41.655  29.449  30.687  1.00  0.00    -0.354 N 
ATOM     50  C   UNL A   1      41.393  25.711  28.553  1.00  0.00     0.074 A 
ATOM     51  C   UNL A   1      40.136  25.604  27.844  1.00  0.00     0.031 C 
ATOM     52  C   UNL A   1      40.947  31.435  31.428  1.00  0.00     0.029 A 
ATOM     53  C   UNL A   1      42.037  30.466  31.527  1.00  0.00     0.049 A 
ATOM     54  H   UNL A   1      42.221  28.666  30.496  1.00  0.00     0.167 HD
ATOM     55  C   UNL A   1      42.350  24.752  28.552  1.00  0.00     0.031 A 
ATOM     56  C   UNL A   1      43.123  30.583  32.317  1.00  0.00     0.031 A 
ATOM     57  C   UNL A   1      43.584  24.840  29.285  1.00  0.00     0.049 A 
ATOM     58  C   UNL A   1      44.148  29.481  32.342  1.00  0.00     0.074 A 
ATOM     59  C   UNL A   1      44.634  23.940  29.315  1.00  0.00     0.029 A 
ATOM     60  N   UNL A   1      43.926  25.884  30.131  1.00  0.00    -0.354 N 
ATOM     61  N   UNL A   1      44.167  28.352  31.676  1.00  0.00    -0.248 NA
ATOM     62  C   UNL A   1      45.301  29.670  33.234  1.00  0.00     0.031 C 
ATOM     63  C   UNL A   1      45.587  24.409  30.225  1.00  0.00     0.029 A 
ATOM     64  C   UNL A   1      45.158  25.634  30.711  1.00  0.00     0.049 A 
ATOM     65  H   UNL A   1      43.375  26.682  30.295  1.00  0.00     0.167 HD
ATOM     66  C   UNL A   1      45.343  27.712  32.046  1.00  0.00     0.074 A 
ATOM     67  C   UNL A   1      46.018  28.584  32.983  1.00  0.00     0.031 C 
ATOM     68  C   UNL A   1      45.822  26.510  31.642  1.00  0.00     0.031 A 
BRANCH  55  69
ATOM     69  C   UNL A   1      42.077  23.507  27.755  1.00  0.00    -0.014 A 
ATOM     70  C   UNL A   1      41.404  22.413  28.321  1.00  0.00     0.009 A 
ATOM     71  C   UNL A   1      42.473  23.439  26.410  1.00  0.00     0.009 A 
ATOM     72  C   UNL A   1      41.166  21.261  27.567  1.00  0.00     0.001 A 
ATOM     73  C   UNL A   1      42.208  22.299  25.650  1.00  0.00     0.001 A 
ATOM     74  C   UNL A   1      41.563  21.207  26.231  1.00  0.00     0.000 A 
ENDBRANCH  55  69
BRANCH  56  75
ATOM     75  C   UNL A   1      43.286  31.779  33.186  1.00  0.00    -0.014 A 
ATOM     76  C   UNL A   1      42.683  31.827  34.452  1.00  0.00     0.009 A 
ATOM     77  C   UNL A   1      44.021  32.888  32.740  1.00  0.00     0.009 A 
ATOM     78  C   UNL A   1      42.792  32.973  35.244  1.00  0.00     0.001 A 
ATOM     79  C   UNL A   1      44.153  34.021  33.547  1.00  0.00     0.001 A 
ATOM     80  C   UNL A   1      43.531  34.066  34.793  1.00  0.00     0.000 A 
ENDBRANCH  56  75
BRANCH  68  81
ATOM     81  C   UNL A   1      47.165  26.087  32.171  1.00  0.00    -0.014 A 
ATOM     82  C   UNL A   1      47.286  25.339  33.352  1.00  0.00     0.009 A 
ATOM     83  C   UNL A   1      48.325  26.409  31.449  1.00  0.00     0.009 A 
ATOM     84  C   UNL A   1      48.545  24.952  33.816  1.00  0.00     0.001 A 
ATOM     85  C   UNL A   1      49.579  25.995  31.899  1.00  0.00     0.001 A 
ATOM     86  C   UNL A   1      49.689  25.275  33.087  1.00  0.00     0.000 A 
ENDBRANCH  68  81
ENDBRANCH  42  43
ENDBRANCH  35  37
ENDBRANCH  34  35
ENDBRANCH  33  34
ENDBRANCH  32  33
ENDBRANCH  31  32
ENDBRANCH  30  31
ENDBRANCH   1  30
TORSDOF 19
ENDMDL
