MODEL 1
REMARK VINA RESULT:     -10.4      0.000      0.000
REMARK SMILES CCCCCCNC(=O)Oc1cccc(-c2ccc([C@@H](C)C(=O)OCCOCCOC(=O)c3ccc(-c4c5nc(c(-c6ccccc6)c6ccc([nH]6)c(-c6ccccc6)c6nc(c(-c7ccccc7)c7ccc4[nH]7)C=C6)C=C5)cc3)cc2C(F)(F)F)c1
REMARK SMILES IDX 22 1 23 2 20 3 21 4 19 5 16 6 17 7 82 8 18 9 81 10 15 11
REMARK SMILES IDX 11 12 12 13 87 14 13 15 14 16 10 17 8 18 7 19 9 21 6 22 5 23
REMARK SMILES IDX 4 24 3 25 2 26 1 27 83 28 84 29 85 30 86 31 24 32 25 33
REMARK SMILES IDX 26 34 27 35 28 36 29 37 30 38 31 39 32 40 33 41 34 42 80 43
REMARK SMILES IDX 35 44 79 45 36 46 37 47 38 48 73 49 39 50 78 51 72 52 74 53
REMARK SMILES IDX 40 54 77 55 71 56 70 57 41 59 63 60 48 61 62 62 49 63 52 64
REMARK SMILES IDX 61 65 75 66 50 67 51 68 60 70 76 71 53 72 42 73 43 74 47 75
REMARK SMILES IDX 44 76 46 77 45 78 64 79 65 80 69 81 66 82 68 83 67 84 54 85
REMARK SMILES IDX 55 86 59 87 56 88 58 89 57 90
REMARK H PARENT 7 20 74 58 52 69
REMARK Flexibility Score: inf
ROOT
ATOM      1  C   UNL A   1      41.908  20.259  26.626  1.00  0.00     0.313 C 
ATOM      2  O   UNL A   1      41.774  19.498  27.580  1.00  0.00    -0.252 OA
ENDROOT
BRANCH   1   3
ATOM      3  C   UNL A   1      41.578  21.740  26.736  1.00  0.00     0.126 C 
ATOM      4  C   UNL A   1      42.294  22.321  27.952  1.00  0.00     0.025 C 
BRANCH   3   5
ATOM      5  C   UNL A   1      40.112  22.166  26.686  1.00  0.00    -0.033 A 
ATOM      6  C   UNL A   1      37.395  22.991  26.314  1.00  0.00    -0.006 A 
ATOM      7  C   UNL A   1      38.310  23.750  27.074  1.00  0.00     0.009 A 
ATOM      8  C   UNL A   1      37.854  21.782  25.750  1.00  0.00     0.064 A 
ATOM      9  C   UNL A   1      39.643  23.354  27.249  1.00  0.00     0.005 A 
ATOM     10  C   UNL A   1      39.196  21.382  25.965  1.00  0.00     0.018 A 
BRANCH   6  11
ATOM     11  C   UNL A   1      36.040  23.534  26.077  1.00  0.00    -0.014 A 
ATOM     12  C   UNL A   1      33.655  23.614  26.521  1.00  0.00     0.133 A 
ATOM     13  C   UNL A   1      33.451  24.469  25.440  1.00  0.00     0.047 A 
ATOM     14  C   UNL A   1      34.933  23.155  26.855  1.00  0.00     0.056 A 
ATOM     15  C   UNL A   1      34.543  24.884  24.685  1.00  0.00     0.004 A 
ATOM     16  C   UNL A   1      35.822  24.415  24.997  1.00  0.00     0.009 A 
BRANCH  12  17
ATOM     17  O   UNL A   1      32.489  23.118  27.139  1.00  0.00    -0.410 OA
BRANCH  17  18
ATOM     18  C   UNL A   1      31.369  22.804  26.388  1.00  0.00     0.412 C 
ATOM     19  N   UNL A   1      31.467  21.601  25.749  1.00  0.00    -0.321 N 
ATOM     20  H   UNL A   1      30.701  21.336  25.191  1.00  0.00     0.167 HD
ATOM     21  O   UNL A   1      30.367  23.510  26.266  1.00  0.00    -0.224 OA
BRANCH  19  22
ATOM     22  C   UNL A   1      32.581  20.671  25.805  1.00  0.00     0.119 C 
BRANCH  22  23
ATOM     23  C   UNL A   1      33.252  20.489  24.442  1.00  0.00     0.021 C 
BRANCH  23  24
ATOM     24  C   UNL A   1      32.298  20.147  23.290  1.00  0.00     0.002 C 
BRANCH  24  25
ATOM     25  C   UNL A   1      32.079  21.258  22.258  1.00  0.00    -0.000 C 
BRANCH  25  26
ATOM     26  C   UNL A   1      32.729  22.603  22.591  1.00  0.00    -0.003 C 
ATOM     27  C   UNL A   1      33.267  23.333  21.369  1.00  0.00     0.004 C 
ENDBRANCH  25  26
ENDBRANCH  24  25
ENDBRANCH  23  24
ENDBRANCH  22  23
ENDBRANCH  19  22
ENDBRANCH  17  18
ENDBRANCH  12  17
ENDBRANCH   6  11
BRANCH   8  28
ATOM     28  C   UNL A   1      36.986  20.866  24.909  1.00  0.00     0.417 C 
ATOM     29  F   UNL A   1      37.683  19.795  24.423  1.00  0.00    -0.166 F 
ATOM     30  F   UNL A   1      35.964  20.329  25.634  1.00  0.00    -0.166 F 
ATOM     31  F   UNL A   1      36.419  21.436  23.813  1.00  0.00    -0.166 F 
ENDBRANCH   8  28
ENDBRANCH   3   5
ENDBRANCH   1   3
BRANCH   1  32
ATOM     32  O   UNL A   1      42.320  19.875  25.390  1.00  0.00    -0.463 OA
BRANCH  32  33
ATOM     33  C   UNL A   1      43.553  19.135  25.344  1.00  0.00     0.261 C 
BRANCH  33  34
ATOM     34  C   UNL A   1      44.733  20.051  25.008  1.00  0.00     0.202 C 
BRANCH  34  35
ATOM     35  O   UNL A   1      44.780  20.556  23.674  1.00  0.00    -0.374 OA
BRANCH  35  36
ATOM     36  C   UNL A   1      44.794  21.972  23.501  1.00  0.00     0.202 C 
BRANCH  36  37
ATOM     37  C   UNL A   1      44.681  22.827  24.770  1.00  0.00     0.261 C 
BRANCH  37  38
ATOM     38  O   UNL A   1      43.910  24.023  24.564  1.00  0.00    -0.460 OA
BRANCH  38  39
ATOM     39  C   UNL A   1      44.494  25.151  25.035  1.00  0.00     0.338 C 
ATOM     40  O   UNL A   1      45.576  25.613  24.716  1.00  0.00    -0.246 OA
BRANCH  39  41
ATOM     41  C   UNL A   1      43.554  25.900  25.892  1.00  0.00     0.060 A 
ATOM     42  C   UNL A   1      43.897  27.223  26.197  1.00  0.00     0.016 A 
ATOM     43  C   UNL A   1      42.431  25.306  26.473  1.00  0.00     0.016 A 
ATOM     44  C   UNL A   1      43.165  27.933  27.144  1.00  0.00     0.010 A 
ATOM     45  C   UNL A   1      41.696  26.023  27.427  1.00  0.00     0.010 A 
ATOM     46  C   UNL A   1      42.092  27.320  27.804  1.00  0.00    -0.014 A 
BRANCH  46  47
ATOM     47  C   UNL A   1      41.530  27.984  29.007  1.00  0.00     0.031 A 
ATOM     48  C   UNL A   1      42.251  27.840  30.322  1.00  0.00     0.074 A 
ATOM     49  C   UNL A   1      40.456  28.789  28.916  1.00  0.00     0.049 A 
ATOM     50  N   UNL A   1      41.988  28.399  31.478  1.00  0.00    -0.248 NA
ATOM     51  C   UNL A   1      43.430  26.958  30.335  1.00  0.00     0.031 C 
ATOM     52  C   UNL A   1      39.702  29.060  27.693  1.00  0.00     0.029 A 
ATOM     53  N   UNL A   1      39.828  29.546  29.874  1.00  0.00    -0.354 N 
ATOM     54  C   UNL A   1      42.969  27.940  32.349  1.00  0.00     0.074 A 
ATOM     55  C   UNL A   1      43.808  27.028  31.603  1.00  0.00     0.031 C 
ATOM     56  C   UNL A   1      38.719  29.935  27.973  1.00  0.00     0.029 A 
ATOM     57  C   UNL A   1      38.761  30.265  29.396  1.00  0.00     0.049 A 
ATOM     58  H   UNL A   1      40.116  29.569  30.815  1.00  0.00     0.167 HD
ATOM     59  C   UNL A   1      43.169  28.261  33.650  1.00  0.00     0.031 A 
ATOM     60  C   UNL A   1      37.912  31.093  30.035  1.00  0.00     0.031 A 
ATOM     61  C   UNL A   1      42.334  29.156  34.404  1.00  0.00     0.049 A 
ATOM     62  C   UNL A   1      38.099  31.358  31.506  1.00  0.00     0.074 A 
ATOM     63  C   UNL A   1      42.456  29.540  35.728  1.00  0.00     0.029 A 
ATOM     64  N   UNL A   1      41.220  29.805  33.899  1.00  0.00    -0.354 N 
ATOM     65  N   UNL A   1      39.043  30.933  32.310  1.00  0.00    -0.248 NA
ATOM     66  C   UNL A   1      37.105  32.228  32.152  1.00  0.00     0.031 C 
ATOM     67  C   UNL A   1      41.383  30.383  36.039  1.00  0.00     0.029 A 
ATOM     68  C   UNL A   1      40.627  30.565  34.893  1.00  0.00     0.049 A 
ATOM     69  H   UNL A   1      40.896  29.735  32.972  1.00  0.00     0.167 HD
ATOM     70  C   UNL A   1      38.773  31.506  33.547  1.00  0.00     0.074 A 
ATOM     71  C   UNL A   1      37.587  32.320  33.383  1.00  0.00     0.031 C 
ATOM     72  C   UNL A   1      39.447  31.371  34.716  1.00  0.00     0.031 A 
BRANCH  59  73
ATOM     73  C   UNL A   1      44.332  27.613  34.349  1.00  0.00    -0.014 A 
ATOM     74  C   UNL A   1      45.575  28.258  34.442  1.00  0.00     0.009 A 
ATOM     75  C   UNL A   1      44.172  26.353  34.947  1.00  0.00     0.009 A 
ATOM     76  C   UNL A   1      46.644  27.640  35.095  1.00  0.00     0.001 A 
ATOM     77  C   UNL A   1      45.235  25.750  35.622  1.00  0.00     0.001 A 
ATOM     78  C   UNL A   1      46.472  26.391  35.688  1.00  0.00     0.000 A 
ENDBRANCH  59  73
BRANCH  60  79
ATOM     79  C   UNL A   1      36.791  31.732  29.296  1.00  0.00    -0.014 A 
ATOM     80  C   UNL A   1      36.915  33.034  28.788  1.00  0.00     0.009 A 
ATOM     81  C   UNL A   1      35.572  31.053  29.134  1.00  0.00     0.009 A 
ATOM     82  C   UNL A   1      35.833  33.654  28.158  1.00  0.00     0.001 A 
ATOM     83  C   UNL A   1      34.502  31.665  28.478  1.00  0.00     0.001 A 
ATOM     84  C   UNL A   1      34.630  32.968  28.001  1.00  0.00     0.000 A 
ENDBRANCH  60  79
BRANCH  72  85
ATOM     85  C   UNL A   1      38.937  32.145  35.899  1.00  0.00    -0.014 A 
ATOM     86  C   UNL A   1      38.003  31.588  36.786  1.00  0.00     0.009 A 
ATOM     87  C   UNL A   1      39.425  33.437  36.147  1.00  0.00     0.009 A 
ATOM     88  C   UNL A   1      37.542  32.325  37.879  1.00  0.00     0.001 A 
ATOM     89  C   UNL A   1      38.984  34.160  37.257  1.00  0.00     0.001 A 
ATOM     90  C   UNL A   1      38.036  33.607  38.116  1.00  0.00     0.000 A 
ENDBRANCH  72  85
ENDBRANCH  46  47
ENDBRANCH  39  41
ENDBRANCH  38  39
ENDBRANCH  37  38
ENDBRANCH  36  37
ENDBRANCH  35  36
ENDBRANCH  34  35
ENDBRANCH  33  34
ENDBRANCH  32  33
ENDBRANCH   1  32
TORSDOF 24
ENDMDL
MODEL 2
REMARK VINA RESULT:     -10.0      5.068     10.904
REMARK SMILES CCCCCCNC(=O)Oc1cccc(-c2ccc([C@@H](C)C(=O)OCCOCCOC(=O)c3ccc(-c4c5nc(c(-c6ccccc6)c6ccc([nH]6)c(-c6ccccc6)c6nc(c(-c7ccccc7)c7ccc4[nH]7)C=C6)C=C5)cc3)cc2C(F)(F)F)c1
REMARK SMILES IDX 22 1 23 2 20 3 21 4 19 5 16 6 17 7 82 8 18 9 81 10 15 11
REMARK SMILES IDX 11 12 12 13 87 14 13 15 14 16 10 17 8 18 7 19 9 21 6 22 5 23
REMARK SMILES IDX 4 24 3 25 2 26 1 27 83 28 84 29 85 30 86 31 24 32 25 33
REMARK SMILES IDX 26 34 27 35 28 36 29 37 30 38 31 39 32 40 33 41 34 42 80 43
REMARK SMILES IDX 35 44 79 45 36 46 37 47 38 48 73 49 39 50 78 51 72 52 74 53
REMARK SMILES IDX 40 54 77 55 71 56 70 57 41 59 63 60 48 61 62 62 49 63 52 64
REMARK SMILES IDX 61 65 75 66 50 67 51 68 60 70 76 71 53 72 42 73 43 74 47 75
REMARK SMILES IDX 44 76 46 77 45 78 64 79 65 80 69 81 66 82 68 83 67 84 54 85
REMARK SMILES IDX 55 86 59 87 56 88 58 89 57 90
REMARK H PARENT 7 20 74 58 52 69
REMARK Flexibility Score: inf
ROOT
ATOM      1  C   UNL A   1      33.215  35.749  29.454  1.00  0.00     0.313 C 
ATOM      2  O   UNL A   1      32.197  36.276  29.013  1.00  0.00    -0.252 OA
ENDROOT
BRANCH   1   3
ATOM      3  C   UNL A   1      34.132  34.922  28.567  1.00  0.00     0.126 C 
ATOM      4  C   UNL A   1      34.556  35.764  27.367  1.00  0.00     0.025 C 
BRANCH   3   5
ATOM      5  C   UNL A   1      33.676  33.527  28.146  1.00  0.00    -0.033 A 
ATOM      6  C   UNL A   1      33.015  30.921  27.157  1.00  0.00    -0.006 A 
ATOM      7  C   UNL A   1      32.093  31.989  27.127  1.00  0.00     0.009 A 
ATOM      8  C   UNL A   1      34.286  31.167  27.718  1.00  0.00     0.064 A 
ATOM      9  C   UNL A   1      32.417  33.268  27.600  1.00  0.00     0.005 A 
ATOM     10  C   UNL A   1      34.584  32.458  28.222  1.00  0.00     0.018 A 
BRANCH   6  11
ATOM     11  C   UNL A   1      32.639  29.635  26.531  1.00  0.00    -0.014 A 
ATOM     12  C   UNL A   1      32.440  28.164  24.611  1.00  0.00     0.133 A 
ATOM     13  C   UNL A   1      31.719  27.235  25.360  1.00  0.00     0.047 A 
ATOM     14  C   UNL A   1      32.912  29.349  25.183  1.00  0.00     0.056 A 
ATOM     15  C   UNL A   1      31.475  27.487  26.705  1.00  0.00     0.004 A 
ATOM     16  C   UNL A   1      31.926  28.678  27.281  1.00  0.00     0.009 A 
BRANCH  12  17
ATOM     17  O   UNL A   1      32.511  27.912  23.226  1.00  0.00    -0.410 OA
BRANCH  17  18
ATOM     18  C   UNL A   1      31.372  27.603  22.503  1.00  0.00     0.412 C 
ATOM     19  N   UNL A   1      31.337  26.305  22.079  1.00  0.00    -0.321 N 
ATOM     20  H   UNL A   1      30.552  26.036  21.550  1.00  0.00     0.167 HD
ATOM     21  O   UNL A   1      30.461  28.386  22.231  1.00  0.00    -0.224 OA
BRANCH  19  22
ATOM     22  C   UNL A   1      32.334  25.278  22.328  1.00  0.00     0.119 C 
BRANCH  22  23
ATOM     23  C   UNL A   1      31.743  24.058  23.037  1.00  0.00     0.021 C 
BRANCH  23  24
ATOM     24  C   UNL A   1      32.740  22.927  23.320  1.00  0.00     0.002 C 
BRANCH  24  25
ATOM     25  C   UNL A   1      34.149  23.127  22.750  1.00  0.00    -0.000 C 
BRANCH  25  26
ATOM     26  C   UNL A   1      35.245  23.399  23.784  1.00  0.00    -0.003 C 
ATOM     27  C   UNL A   1      36.577  22.751  23.437  1.00  0.00     0.004 C 
ENDBRANCH  25  26
ENDBRANCH  24  25
ENDBRANCH  23  24
ENDBRANCH  22  23
ENDBRANCH  19  22
ENDBRANCH  17  18
ENDBRANCH  12  17
ENDBRANCH   6  11
BRANCH   8  28
ATOM     28  C   UNL A   1      35.376  30.119  27.816  1.00  0.00     0.417 C 
ATOM     29  F   UNL A   1      35.185  29.270  28.871  1.00  0.00    -0.166 F 
ATOM     30  F   UNL A   1      35.411  29.317  26.714  1.00  0.00    -0.166 F 
ATOM     31  F   UNL A   1      36.638  30.596  27.982  1.00  0.00    -0.166 F 
ENDBRANCH   8  28
ENDBRANCH   3   5
ENDBRANCH   1   3
BRANCH   1  32
ATOM     32  O   UNL A   1      33.610  35.814  30.752  1.00  0.00    -0.463 OA
BRANCH  32  33
ATOM     33  C   UNL A   1      33.129  36.947  31.497  1.00  0.00     0.261 C 
BRANCH  33  34
ATOM     34  C   UNL A   1      33.875  37.087  32.827  1.00  0.00     0.202 C 
BRANCH  34  35
ATOM     35  O   UNL A   1      34.953  36.179  33.045  1.00  0.00    -0.374 OA
BRANCH  35  36
ATOM     36  C   UNL A   1      34.727  35.078  33.925  1.00  0.00     0.202 C 
BRANCH  36  37
ATOM     37  C   UNL A   1      34.555  33.698  33.278  1.00  0.00     0.261 C 
BRANCH  37  38
ATOM     38  O   UNL A   1      35.383  32.694  33.890  1.00  0.00    -0.460 OA
BRANCH  38  39
ATOM     39  C   UNL A   1      36.707  32.975  33.870  1.00  0.00     0.338 C 
ATOM     40  O   UNL A   1      37.331  33.663  34.662  1.00  0.00    -0.246 OA
BRANCH  39  41
ATOM     41  C   UNL A   1      37.391  32.173  32.836  1.00  0.00     0.060 A 
ATOM     42  C   UNL A   1      38.326  31.232  33.283  1.00  0.00     0.016 A 
ATOM     43  C   UNL A   1      37.212  32.402  31.469  1.00  0.00     0.016 A 
ATOM     44  C   UNL A   1      39.143  30.573  32.370  1.00  0.00     0.010 A 
ATOM     45  C   UNL A   1      38.037  31.737  30.552  1.00  0.00     0.010 A 
ATOM     46  C   UNL A   1      39.041  30.860  31.003  1.00  0.00    -0.014 A 
BRANCH  46  47
ATOM     47  C   UNL A   1      40.114  30.377  30.097  1.00  0.00     0.031 A 
ATOM     48  C   UNL A   1      41.330  31.241  29.883  1.00  0.00     0.074 A 
ATOM     49  C   UNL A   1      40.061  29.147  29.555  1.00  0.00     0.049 A 
ATOM     50  N   UNL A   1      42.421  30.984  29.204  1.00  0.00    -0.248 NA
ATOM     51  C   UNL A   1      41.320  32.564  30.527  1.00  0.00     0.031 C 
ATOM     52  C   UNL A   1      38.971  28.190  29.730  1.00  0.00     0.029 A 
ATOM     53  N   UNL A   1      40.966  28.486  28.762  1.00  0.00    -0.354 N 
ATOM     54  C   UNL A   1      43.225  32.109  29.345  1.00  0.00     0.074 A 
ATOM     55  C   UNL A   1      42.484  33.065  30.137  1.00  0.00     0.031 C 
ATOM     56  C   UNL A   1      39.276  27.056  29.074  1.00  0.00     0.029 A 
ATOM     57  C   UNL A   1      40.570  27.218  28.414  1.00  0.00     0.049 A 
ATOM     58  H   UNL A   1      41.818  28.884  28.469  1.00  0.00     0.167 HD
ATOM     59  C   UNL A   1      44.476  32.324  28.873  1.00  0.00     0.031 A 
ATOM     60  C   UNL A   1      41.182  26.294  27.648  1.00  0.00     0.031 A 
ATOM     61  C   UNL A   1      45.216  31.386  28.074  1.00  0.00     0.049 A 
ATOM     62  C   UNL A   1      42.533  26.596  27.056  1.00  0.00     0.074 A 
ATOM     63  C   UNL A   1      46.489  31.517  27.548  1.00  0.00     0.029 A 
ATOM     64  N   UNL A   1      44.747  30.144  27.683  1.00  0.00    -0.354 N 
ATOM     65  N   UNL A   1      43.288  27.656  27.215  1.00  0.00    -0.248 NA
ATOM     66  C   UNL A   1      43.118  25.565  26.185  1.00  0.00     0.031 C 
ATOM     67  C   UNL A   1      46.771  30.372  26.794  1.00  0.00     0.029 A 
ATOM     68  C   UNL A   1      45.694  29.507  26.899  1.00  0.00     0.049 A 
ATOM     69  H   UNL A   1      43.869  29.768  27.926  1.00  0.00     0.167 HD
ATOM     70  C   UNL A   1      44.447  27.407  26.489  1.00  0.00     0.074 A 
ATOM     71  C   UNL A   1      44.302  26.091  25.904  1.00  0.00     0.031 C 
ATOM     72  C   UNL A   1      45.536  28.197  26.323  1.00  0.00     0.031 A 
BRANCH  59  73
ATOM     73  C   UNL A   1      45.115  33.647  29.194  1.00  0.00    -0.014 A 
ATOM     74  C   UNL A   1      44.978  34.747  28.333  1.00  0.00     0.009 A 
ATOM     75  C   UNL A   1      45.838  33.803  30.387  1.00  0.00     0.009 A 
ATOM     76  C   UNL A   1      45.578  35.969  28.646  1.00  0.00     0.001 A 
ATOM     77  C   UNL A   1      46.414  35.033  30.710  1.00  0.00     0.001 A 
ATOM     78  C   UNL A   1      46.291  36.112  29.835  1.00  0.00     0.000 A 
ENDBRANCH  59  73
BRANCH  60  79
ATOM     79  C   UNL A   1      40.522  24.988  27.379  1.00  0.00    -0.014 A 
ATOM     80  C   UNL A   1      40.991  23.810  27.979  1.00  0.00     0.009 A 
ATOM     81  C   UNL A   1      39.443  24.912  26.484  1.00  0.00     0.009 A 
ATOM     82  C   UNL A   1      40.411  22.577  27.666  1.00  0.00     0.001 A 
ATOM     83  C   UNL A   1      38.847  23.682  26.196  1.00  0.00     0.001 A 
ATOM     84  C   UNL A   1      39.338  22.516  26.778  1.00  0.00     0.000 A 
ENDBRANCH  60  79
BRANCH  72  85
ATOM     85  C   UNL A   1      46.668  27.647  25.501  1.00  0.00    -0.014 A 
ATOM     86  C   UNL A   1      46.750  27.887  24.121  1.00  0.00     0.009 A 
ATOM     87  C   UNL A   1      47.684  26.907  26.125  1.00  0.00     0.009 A 
ATOM     88  C   UNL A   1      47.811  27.366  23.376  1.00  0.00     0.001 A 
ATOM     89  C   UNL A   1      48.758  26.412  25.383  1.00  0.00     0.001 A 
ATOM     90  C   UNL A   1      48.815  26.633  24.008  1.00  0.00     0.000 A 
ENDBRANCH  72  85
ENDBRANCH  46  47
ENDBRANCH  39  41
ENDBRANCH  38  39
ENDBRANCH  37  38
ENDBRANCH  36  37
ENDBRANCH  35  36
ENDBRANCH  34  35
ENDBRANCH  33  34
ENDBRANCH  32  33
ENDBRANCH   1  32
TORSDOF 24
ENDMDL
MODEL 3
REMARK VINA RESULT:     -10.0      4.423     10.116
REMARK SMILES CCCCCCNC(=O)Oc1cccc(-c2ccc([C@@H](C)C(=O)OCCOCCOC(=O)c3ccc(-c4c5nc(c(-c6ccccc6)c6ccc([nH]6)c(-c6ccccc6)c6nc(c(-c7ccccc7)c7ccc4[nH]7)C=C6)C=C5)cc3)cc2C(F)(F)F)c1
REMARK SMILES IDX 22 1 23 2 20 3 21 4 19 5 16 6 17 7 82 8 18 9 81 10 15 11
REMARK SMILES IDX 11 12 12 13 87 14 13 15 14 16 10 17 8 18 7 19 9 21 6 22 5 23
REMARK SMILES IDX 4 24 3 25 2 26 1 27 83 28 84 29 85 30 86 31 24 32 25 33
REMARK SMILES IDX 26 34 27 35 28 36 29 37 30 38 31 39 32 40 33 41 34 42 80 43
REMARK SMILES IDX 35 44 79 45 36 46 37 47 38 48 73 49 39 50 78 51 72 52 74 53
REMARK SMILES IDX 40 54 77 55 71 56 70 57 41 59 63 60 48 61 62 62 49 63 52 64
REMARK SMILES IDX 61 65 75 66 50 67 51 68 60 70 76 71 53 72 42 73 43 74 47 75
REMARK SMILES IDX 44 76 46 77 45 78 64 79 65 80 69 81 66 82 68 83 67 84 54 85
REMARK SMILES IDX 55 86 59 87 56 88 58 89 57 90
REMARK H PARENT 7 20 74 58 52 69
REMARK Flexibility Score: inf
ROOT
ATOM      1  C   UNL A   1      33.337  31.850  27.616  1.00  0.00     0.313 C 
ATOM      2  O   UNL A   1      34.290  31.256  28.114  1.00  0.00    -0.252 OA
ENDROOT
BRANCH   1   3
ATOM      3  C   UNL A   1      32.504  31.229  26.506  1.00  0.00     0.126 C 
ATOM      4  C   UNL A   1      31.112  31.854  26.518  1.00  0.00     0.025 C 
BRANCH   3   5
ATOM      5  C   UNL A   1      32.439  29.707  26.408  1.00  0.00    -0.033 A 
ATOM      6  C   UNL A   1      32.176  26.886  25.985  1.00  0.00    -0.006 A 
ATOM      7  C   UNL A   1      31.603  27.532  27.101  1.00  0.00     0.009 A 
ATOM      8  C   UNL A   1      32.915  27.675  25.078  1.00  0.00     0.064 A 
ATOM      9  C   UNL A   1      31.721  28.914  27.305  1.00  0.00     0.005 A 
ATOM     10  C   UNL A   1      33.051  29.064  25.319  1.00  0.00     0.018 A 
BRANCH   6  11
ATOM     11  C   UNL A   1      31.907  25.447  25.777  1.00  0.00    -0.014 A 
ATOM     12  C   UNL A   1      32.394  23.099  26.155  1.00  0.00     0.133 A 
ATOM     13  C   UNL A   1      31.469  22.720  25.185  1.00  0.00     0.047 A 
ATOM     14  C   UNL A   1      32.610  24.445  26.467  1.00  0.00     0.056 A 
ATOM     15  C   UNL A   1      30.738  23.699  24.521  1.00  0.00     0.004 A 
ATOM     16  C   UNL A   1      30.960  25.048  24.811  1.00  0.00     0.009 A 
BRANCH  12  17
ATOM     17  O   UNL A   1      33.203  22.066  26.669  1.00  0.00    -0.410 OA
BRANCH  17  18
ATOM     18  C   UNL A   1      33.313  20.856  26.005  1.00  0.00     0.412 C 
ATOM     19  N   UNL A   1      34.561  20.627  25.502  1.00  0.00    -0.321 N 
ATOM     20  H   UNL A   1      34.690  19.785  25.010  1.00  0.00     0.167 HD
ATOM     21  O   UNL A   1      32.403  20.040  25.845  1.00  0.00    -0.224 OA
BRANCH  19  22
ATOM     22  C   UNL A   1      35.721  21.494  25.617  1.00  0.00     0.119 C 
BRANCH  22  23
ATOM     23  C   UNL A   1      36.578  21.486  24.350  1.00  0.00     0.021 C 
BRANCH  23  24
ATOM     24  C   UNL A   1      36.511  22.770  23.513  1.00  0.00     0.002 C 
BRANCH  24  25
ATOM     25  C   UNL A   1      35.172  23.515  23.549  1.00  0.00    -0.000 C 
BRANCH  25  26
ATOM     26  C   UNL A   1      34.026  22.846  22.786  1.00  0.00    -0.003 C 
ATOM     27  C   UNL A   1      33.282  23.795  21.858  1.00  0.00     0.004 C 
ENDBRANCH  25  26
ENDBRANCH  24  25
ENDBRANCH  23  24
ENDBRANCH  22  23
ENDBRANCH  19  22
ENDBRANCH  17  18
ENDBRANCH  12  17
ENDBRANCH   6  11
BRANCH   8  28
ATOM     28  C   UNL A   1      33.583  27.119  23.836  1.00  0.00     0.417 C 
ATOM     29  F   UNL A   1      34.386  28.042  23.224  1.00  0.00    -0.166 F 
ATOM     30  F   UNL A   1      34.402  26.069  24.127  1.00  0.00    -0.166 F 
ATOM     31  F   UNL A   1      32.743  26.690  22.858  1.00  0.00    -0.166 F 
ENDBRANCH   8  28
ENDBRANCH   3   5
ENDBRANCH   1   3
BRANCH   1  32
ATOM     32  O   UNL A   1      32.949  33.104  27.965  1.00  0.00    -0.463 OA
BRANCH  32  33
ATOM     33  C   UNL A   1      34.000  34.082  28.056  1.00  0.00     0.261 C 
BRANCH  33  34
ATOM     34  C   UNL A   1      33.585  35.254  28.949  1.00  0.00     0.202 C 
BRANCH  34  35
ATOM     35  O   UNL A   1      32.758  34.934  30.067  1.00  0.00    -0.374 OA
BRANCH  35  36
ATOM     36  C   UNL A   1      33.209  35.332  31.361  1.00  0.00     0.202 C 
BRANCH  36  37
ATOM     37  C   UNL A   1      34.542  34.745  31.842  1.00  0.00     0.261 C 
BRANCH  37  38
ATOM     38  O   UNL A   1      34.636  33.328  31.612  1.00  0.00    -0.460 OA
BRANCH  38  39
ATOM     39  C   UNL A   1      35.473  32.680  32.457  1.00  0.00     0.338 C 
ATOM     40  O   UNL A   1      35.375  32.588  33.670  1.00  0.00    -0.246 OA
BRANCH  39  41
ATOM     41  C   UNL A   1      36.474  31.903  31.701  1.00  0.00     0.060 A 
ATOM     42  C   UNL A   1      37.272  31.018  32.435  1.00  0.00     0.016 A 
ATOM     43  C   UNL A   1      36.707  32.106  30.338  1.00  0.00     0.016 A 
ATOM     44  C   UNL A   1      38.357  30.391  31.831  1.00  0.00     0.010 A 
ATOM     45  C   UNL A   1      37.801  31.473  29.731  1.00  0.00     0.010 A 
ATOM     46  C   UNL A   1      38.661  30.656  30.489  1.00  0.00    -0.014 A 
BRANCH  46  47
ATOM     47  C   UNL A   1      39.979  30.218  29.963  1.00  0.00     0.031 A 
ATOM     48  C   UNL A   1      40.098  28.849  29.346  1.00  0.00     0.074 A 
ATOM     49  C   UNL A   1      41.028  31.060  29.937  1.00  0.00     0.049 A 
ATOM     50  N   UNL A   1      41.125  28.294  28.751  1.00  0.00    -0.248 NA
ATOM     51  C   UNL A   1      38.899  27.996  29.395  1.00  0.00     0.031 C 
ATOM     52  C   UNL A   1      41.029  32.429  30.448  1.00  0.00     0.029 A 
ATOM     53  N   UNL A   1      42.294  30.886  29.436  1.00  0.00    -0.354 N 
ATOM     54  C   UNL A   1      40.694  27.034  28.354  1.00  0.00     0.074 A 
ATOM     55  C   UNL A   1      39.329  26.889  28.808  1.00  0.00     0.031 C 
ATOM     56  C   UNL A   1      42.236  32.978  30.222  1.00  0.00     0.029 A 
ATOM     57  C   UNL A   1      43.097  31.991  29.574  1.00  0.00     0.049 A 
ATOM     58  H   UNL A   1      42.598  30.047  29.020  1.00  0.00     0.167 HD
ATOM     59  C   UNL A   1      41.365  26.086  27.657  1.00  0.00     0.031 A 
ATOM     60  C   UNL A   1      44.383  32.183  29.219  1.00  0.00     0.031 A 
ATOM     61  C   UNL A   1      42.726  26.215  27.213  1.00  0.00     0.049 A 
ATOM     62  C   UNL A   1      45.137  31.077  28.530  1.00  0.00     0.074 A 
ATOM     63  C   UNL A   1      43.492  25.306  26.503  1.00  0.00     0.029 A 
ATOM     64  N   UNL A   1      43.526  27.322  27.439  1.00  0.00    -0.354 N 
ATOM     65  N   UNL A   1      44.709  29.899  28.144  1.00  0.00    -0.248 NA
ATOM     66  C   UNL A   1      46.551  31.334  28.221  1.00  0.00     0.031 C 
ATOM     67  C   UNL A   1      44.774  25.844  26.344  1.00  0.00     0.029 A 
ATOM     68  C   UNL A   1      44.787  27.110  26.907  1.00  0.00     0.049 A 
ATOM     69  H   UNL A   1      43.241  28.140  27.909  1.00  0.00     0.167 HD
ATOM     70  C   UNL A   1      45.791  29.288  27.522  1.00  0.00     0.074 A 
ATOM     71  C   UNL A   1      46.889  30.231  27.568  1.00  0.00     0.031 C 
ATOM     72  C   UNL A   1      45.870  28.057  26.960  1.00  0.00     0.031 A 
BRANCH  59  73
ATOM     73  C   UNL A   1      40.636  24.807  27.355  1.00  0.00    -0.014 A 
ATOM     74  C   UNL A   1      41.096  23.575  27.845  1.00  0.00     0.009 A 
ATOM     75  C   UNL A   1      39.456  24.839  26.596  1.00  0.00     0.009 A 
ATOM     76  C   UNL A   1      40.405  22.396  27.555  1.00  0.00     0.001 A 
ATOM     77  C   UNL A   1      38.752  23.662  26.330  1.00  0.00     0.001 A 
ATOM     78  C   UNL A   1      39.233  22.441  26.802  1.00  0.00     0.000 A 
ENDBRANCH  59  73
BRANCH  60  79
ATOM     79  C   UNL A   1      45.056  33.475  29.516  1.00  0.00    -0.014 A 
ATOM     80  C   UNL A   1      45.008  34.537  28.601  1.00  0.00     0.009 A 
ATOM     81  C   UNL A   1      45.789  33.635  30.704  1.00  0.00     0.009 A 
ATOM     82  C   UNL A   1      45.703  35.723  28.855  1.00  0.00     0.001 A 
ATOM     83  C   UNL A   1      46.458  34.832  30.968  1.00  0.00     0.001 A 
ATOM     84  C   UNL A   1      46.423  35.870  30.039  1.00  0.00     0.000 A 
ENDBRANCH  60  79
BRANCH  72  85
ATOM     85  C   UNL A   1      47.176  27.672  26.324  1.00  0.00    -0.014 A 
ATOM     86  C   UNL A   1      48.218  27.113  27.080  1.00  0.00     0.009 A 
ATOM     87  C   UNL A   1      47.352  27.839  24.941  1.00  0.00     0.009 A 
ATOM     88  C   UNL A   1      49.423  26.762  26.467  1.00  0.00     0.001 A 
ATOM     89  C   UNL A   1      48.547  27.461  24.328  1.00  0.00     0.001 A 
ATOM     90  C   UNL A   1      49.585  26.932  25.093  1.00  0.00     0.000 A 
ENDBRANCH  72  85
ENDBRANCH  46  47
ENDBRANCH  39  41
ENDBRANCH  38  39
ENDBRANCH  37  38
ENDBRANCH  36  37
ENDBRANCH  35  36
ENDBRANCH  34  35
ENDBRANCH  33  34
ENDBRANCH  32  33
ENDBRANCH   1  32
TORSDOF 24
ENDMDL
