MODEL 1
REMARK VINA RESULT:     -10.5      0.000      0.000
REMARK SMILES C[C@@H]1CCN(c2cncc(C(=O)OCCOCCOC(=O)c3ccc(-c4c5nc(c(-c6ccccc6)c6ccc([nH]6)c(-c6ccccc6)c6nc(c(-c7ccccc7)c7ccc4[nH]7)C=C6)C=C5)cc3)n2)[C@H](C)C1
REMARK SMILES IDX 17 1 16 2 15 3 14 4 13 5 11 6 12 7 10 8 6 9 7 10 70 11 8 12
REMARK SMILES IDX 9 13 5 14 1 15 2 16 3 17 73 18 4 19 71 20 72 21 18 22 19 23
REMARK SMILES IDX 20 24 21 25 22 26 23 27 69 28 24 29 68 30 25 31 26 32 27 33
REMARK SMILES IDX 62 34 28 35 67 36 61 37 63 38 29 39 66 40 60 41 59 42 30 44
REMARK SMILES IDX 52 45 37 46 51 47 38 48 41 49 50 50 64 51 39 52 40 53 49 55
REMARK SMILES IDX 65 56 42 57 31 58 32 59 36 60 33 61 35 62 34 63 53 64 54 65
REMARK SMILES IDX 58 66 55 67 57 68 56 69 43 70 44 71 48 72 45 73 47 74 46 75
REMARK H PARENT 63 43 41 54
REMARK Flexibility Score: inf
ROOT
ATOM      1  C   UNL A   1      45.138  21.347  24.819  1.00  0.00     0.202 C 
ENDROOT
BRANCH   1   2
ATOM      2  O   UNL A   1      44.027  20.965  25.634  1.00  0.00    -0.374 OA
BRANCH   2   3
ATOM      3  C   UNL A   1      43.541  19.633  25.458  1.00  0.00     0.202 C 
BRANCH   3   4
ATOM      4  C   UNL A   1      42.276  19.295  26.255  1.00  0.00     0.261 C 
BRANCH   4   5
ATOM      5  O   UNL A   1      41.407  20.438  26.346  1.00  0.00    -0.458 OA
BRANCH   5   6
ATOM      6  C   UNL A   1      40.128  20.237  25.942  1.00  0.00     0.358 C 
ATOM      7  O   UNL A   1      39.622  19.170  25.624  1.00  0.00    -0.244 OA
BRANCH   6   8
ATOM      8  C   UNL A   1      39.334  21.472  26.132  1.00  0.00     0.169 A 
ATOM      9  C   UNL A   1      37.383  22.693  25.859  1.00  0.00     0.148 A 
ATOM     10  C   UNL A   1      38.084  23.795  26.373  1.00  0.00     0.157 A 
ATOM     11  N   UNL A   1      38.037  21.513  25.719  1.00  0.00    -0.221 NA
ATOM     12  N   UNL A   1      39.383  23.771  26.776  1.00  0.00    -0.258 NA
ATOM     13  C   UNL A   1      39.988  22.572  26.656  1.00  0.00     0.147 A 
BRANCH   9  14
ATOM     14  N   UNL A   1      36.040  22.745  25.532  1.00  0.00    -0.353 N 
ATOM     15  C   UNL A   1      32.501  22.531  24.190  1.00  0.00     0.008 C 
ATOM     16  C   UNL A   1      33.834  21.856  23.866  1.00  0.00    -0.011 C 
ATOM     17  C   UNL A   1      34.367  21.024  25.044  1.00  0.00     0.025 C 
ATOM     18  C   UNL A   1      34.901  22.846  23.369  1.00  0.00     0.028 C 
ATOM     19  C   UNL A   1      35.024  21.880  26.126  1.00  0.00     0.118 C 
ATOM     20  C   UNL A   1      35.624  23.657  24.460  1.00  0.00     0.081 C 
ATOM     21  C   UNL A   1      34.813  24.827  25.012  1.00  0.00     0.031 C 
ENDBRANCH   9  14
ENDBRANCH   6   8
ENDBRANCH   5   6
ENDBRANCH   4   5
ENDBRANCH   3   4
ENDBRANCH   2   3
ENDBRANCH   1   2
BRANCH   1  22
ATOM     22  C   UNL A   1      44.967  22.659  24.045  1.00  0.00     0.261 C 
BRANCH  22  23
ATOM     23  O   UNL A   1      44.145  23.588  24.773  1.00  0.00    -0.460 OA
BRANCH  23  24
ATOM     24  C   UNL A   1      44.750  24.748  25.107  1.00  0.00     0.338 C 
ATOM     25  O   UNL A   1      45.778  25.214  24.631  1.00  0.00    -0.246 OA
BRANCH  24  26
ATOM     26  C   UNL A   1      43.902  25.505  26.045  1.00  0.00     0.060 A 
ATOM     27  C   UNL A   1      44.190  26.865  26.220  1.00  0.00     0.016 A 
ATOM     28  C   UNL A   1      42.885  24.896  26.784  1.00  0.00     0.016 A 
ATOM     29  C   UNL A   1      43.498  27.609  27.173  1.00  0.00     0.010 A 
ATOM     30  C   UNL A   1      42.194  25.644  27.745  1.00  0.00     0.010 A 
ATOM     31  C   UNL A   1      42.522  26.993  27.967  1.00  0.00    -0.014 A 
BRANCH  31  32
ATOM     32  C   UNL A   1      41.948  27.727  29.120  1.00  0.00     0.031 A 
ATOM     33  C   UNL A   1      42.620  27.626  30.461  1.00  0.00     0.074 A 
ATOM     34  C   UNL A   1      40.858  28.501  28.969  1.00  0.00     0.049 A 
ATOM     35  N   UNL A   1      42.281  28.171  31.601  1.00  0.00    -0.248 NA
ATOM     36  C   UNL A   1      43.837  26.800  30.525  1.00  0.00     0.031 C 
ATOM     37  C   UNL A   1      40.140  28.716  27.714  1.00  0.00     0.029 A 
ATOM     38  N   UNL A   1      40.166  29.249  29.888  1.00  0.00    -0.354 N 
ATOM     39  C   UNL A   1      43.236  27.750  32.518  1.00  0.00     0.074 A 
ATOM     40  C   UNL A   1      44.151  26.882  31.810  1.00  0.00     0.031 C 
ATOM     41  C   UNL A   1      39.102  29.541  27.944  1.00  0.00     0.029 A 
ATOM     42  C   UNL A   1      39.068  29.884  29.364  1.00  0.00     0.049 A 
ATOM     43  H   UNL A   1      40.433  29.323  30.833  1.00  0.00     0.167 HD
ATOM     44  C   UNL A   1      43.347  28.062  33.831  1.00  0.00     0.031 A 
ATOM     45  C   UNL A   1      38.131  30.642  29.966  1.00  0.00     0.031 A 
ATOM     46  C   UNL A   1      42.432  28.915  34.543  1.00  0.00     0.049 A 
ATOM     47  C   UNL A   1      38.233  30.911  31.443  1.00  0.00     0.074 A 
ATOM     48  C   UNL A   1      42.471  29.304  35.870  1.00  0.00     0.029 A 
ATOM     49  N   UNL A   1      41.309  29.504  33.985  1.00  0.00    -0.354 N 
ATOM     50  N   UNL A   1      39.156  30.530  32.293  1.00  0.00    -0.248 NA
ATOM     51  C   UNL A   1      37.163  31.723  32.042  1.00  0.00     0.031 C 
ATOM     52  C   UNL A   1      41.340  30.084  36.130  1.00  0.00     0.029 A 
ATOM     53  C   UNL A   1      40.630  30.230  34.949  1.00  0.00     0.049 A 
ATOM     54  H   UNL A   1      41.035  29.420  33.043  1.00  0.00     0.167 HD
ATOM     55  C   UNL A   1      38.793  31.077  33.517  1.00  0.00     0.074 A 
ATOM     56  C   UNL A   1      37.575  31.827  33.298  1.00  0.00     0.031 C 
ATOM     57  C   UNL A   1      39.417  30.970  34.716  1.00  0.00     0.031 A 
BRANCH  44  58
ATOM     58  C   UNL A   1      44.486  27.446  34.594  1.00  0.00    -0.014 A 
ATOM     59  C   UNL A   1      45.704  28.123  34.761  1.00  0.00     0.009 A 
ATOM     60  C   UNL A   1      44.326  26.180  35.179  1.00  0.00     0.009 A 
ATOM     61  C   UNL A   1      46.750  27.530  35.473  1.00  0.00     0.001 A 
ATOM     62  C   UNL A   1      45.363  25.601  35.912  1.00  0.00     0.001 A 
ATOM     63  C   UNL A   1      46.577  26.273  36.051  1.00  0.00     0.000 A 
ENDBRANCH  44  58
BRANCH  45  64
ATOM     64  C   UNL A   1      36.997  31.188  29.176  1.00  0.00    -0.014 A 
ATOM     65  C   UNL A   1      37.009  32.518  28.729  1.00  0.00     0.009 A 
ATOM     66  C   UNL A   1      35.884  30.384  28.883  1.00  0.00     0.009 A 
ATOM     67  C   UNL A   1      35.920  33.038  28.026  1.00  0.00     0.001 A 
ATOM     68  C   UNL A   1      34.809  30.898  28.156  1.00  0.00     0.001 A 
ATOM     69  C   UNL A   1      34.823  32.227  27.737  1.00  0.00     0.000 A 
ENDBRANCH  45  64
BRANCH  57  70
ATOM     70  C   UNL A   1      38.812  31.711  35.877  1.00  0.00    -0.014 A 
ATOM     71  C   UNL A   1      38.993  33.093  36.035  1.00  0.00     0.009 A 
ATOM     72  C   UNL A   1      38.014  31.018  36.801  1.00  0.00     0.009 A 
ATOM     73  C   UNL A   1      38.414  33.762  37.115  1.00  0.00     0.001 A 
ATOM     74  C   UNL A   1      37.411  31.695  37.864  1.00  0.00     0.001 A 
ATOM     75  C   UNL A   1      37.620  33.064  38.025  1.00  0.00     0.000 A 
ENDBRANCH  57  70
ENDBRANCH  31  32
ENDBRANCH  24  26
ENDBRANCH  23  24
ENDBRANCH  22  23
ENDBRANCH   1  22
TORSDOF 15
ENDMDL
MODEL 2
REMARK VINA RESULT:     -10.4      0.500      5.994
REMARK SMILES C[C@@H]1CCN(c2cncc(C(=O)OCCOCCOC(=O)c3ccc(-c4c5nc(c(-c6ccccc6)c6ccc([nH]6)c(-c6ccccc6)c6nc(c(-c7ccccc7)c7ccc4[nH]7)C=C6)C=C5)cc3)n2)[C@H](C)C1
REMARK SMILES IDX 17 1 16 2 15 3 14 4 13 5 11 6 12 7 10 8 6 9 7 10 70 11 8 12
REMARK SMILES IDX 9 13 5 14 1 15 2 16 3 17 73 18 4 19 71 20 72 21 18 22 19 23
REMARK SMILES IDX 20 24 21 25 22 26 23 27 69 28 24 29 68 30 25 31 26 32 27 33
REMARK SMILES IDX 62 34 28 35 67 36 61 37 63 38 29 39 66 40 60 41 59 42 30 44
REMARK SMILES IDX 52 45 37 46 51 47 38 48 41 49 50 50 64 51 39 52 40 53 49 55
REMARK SMILES IDX 65 56 42 57 31 58 32 59 36 60 33 61 35 62 34 63 53 64 54 65
REMARK SMILES IDX 58 66 55 67 57 68 56 69 43 70 44 71 48 72 45 73 47 74 46 75
REMARK H PARENT 63 43 41 54
REMARK Flexibility Score: inf
ROOT
ATOM      1  C   UNL A   1      44.596  21.381  24.873  1.00  0.00     0.202 C 
ENDROOT
BRANCH   1   2
ATOM      2  O   UNL A   1      43.344  21.024  25.465  1.00  0.00    -0.374 OA
BRANCH   2   3
ATOM      3  C   UNL A   1      43.095  19.627  25.626  1.00  0.00     0.202 C 
BRANCH   3   4
ATOM      4  C   UNL A   1      41.930  19.280  26.560  1.00  0.00     0.261 C 
BRANCH   4   5
ATOM      5  O   UNL A   1      41.034  20.397  26.698  1.00  0.00    -0.458 OA
BRANCH   5   6
ATOM      6  C   UNL A   1      39.895  20.330  25.965  1.00  0.00     0.358 C 
ATOM      7  O   UNL A   1      39.453  19.344  25.393  1.00  0.00    -0.244 OA
BRANCH   6   8
ATOM      8  C   UNL A   1      39.121  21.583  26.111  1.00  0.00     0.169 A 
ATOM      9  C   UNL A   1      37.188  22.824  25.799  1.00  0.00     0.148 A 
ATOM     10  C   UNL A   1      37.908  23.933  26.270  1.00  0.00     0.157 A 
ATOM     11  N   UNL A   1      37.823  21.630  25.701  1.00  0.00    -0.221 NA
ATOM     12  N   UNL A   1      39.208  23.904  26.671  1.00  0.00    -0.258 NA
ATOM     13  C   UNL A   1      39.794  22.692  26.593  1.00  0.00     0.147 A 
BRANCH   9  14
ATOM     14  N   UNL A   1      35.845  22.885  25.474  1.00  0.00    -0.353 N 
ATOM     15  C   UNL A   1      32.299  22.678  24.149  1.00  0.00     0.008 C 
ATOM     16  C   UNL A   1      33.621  21.972  23.845  1.00  0.00    -0.011 C 
ATOM     17  C   UNL A   1      34.145  21.173  25.049  1.00  0.00     0.025 C 
ATOM     18  C   UNL A   1      34.701  22.928  23.311  1.00  0.00     0.028 C 
ATOM     19  C   UNL A   1      34.818  22.056  26.099  1.00  0.00     0.118 C 
ATOM     20  C   UNL A   1      35.439  23.765  24.372  1.00  0.00     0.081 C 
ATOM     21  C   UNL A   1      34.648  24.966  24.885  1.00  0.00     0.031 C 
ENDBRANCH   9  14
ENDBRANCH   6   8
ENDBRANCH   5   6
ENDBRANCH   4   5
ENDBRANCH   3   4
ENDBRANCH   2   3
ENDBRANCH   1   2
BRANCH   1  22
ATOM     22  C   UNL A   1      44.574  22.630  23.986  1.00  0.00     0.261 C 
BRANCH  22  23
ATOM     23  O   UNL A   1      43.807  23.685  24.593  1.00  0.00    -0.460 OA
BRANCH  23  24
ATOM     24  C   UNL A   1      44.534  24.705  25.097  1.00  0.00     0.338 C 
ATOM     25  O   UNL A   1      45.637  25.085  24.726  1.00  0.00    -0.246 OA
BRANCH  24  26
ATOM     26  C   UNL A   1      43.738  25.447  26.092  1.00  0.00     0.060 A 
ATOM     27  C   UNL A   1      43.963  26.826  26.198  1.00  0.00     0.016 A 
ATOM     28  C   UNL A   1      42.832  24.810  26.944  1.00  0.00     0.016 A 
ATOM     29  C   UNL A   1      43.324  27.564  27.191  1.00  0.00     0.010 A 
ATOM     30  C   UNL A   1      42.196  25.552  27.945  1.00  0.00     0.010 A 
ATOM     31  C   UNL A   1      42.466  26.923  28.095  1.00  0.00    -0.014 A 
BRANCH  31  32
ATOM     32  C   UNL A   1      41.963  27.665  29.276  1.00  0.00     0.031 A 
ATOM     33  C   UNL A   1      40.648  28.388  29.181  1.00  0.00     0.074 A 
ATOM     34  C   UNL A   1      42.652  27.668  30.431  1.00  0.00     0.049 A 
ATOM     35  N   UNL A   1      40.030  29.107  30.083  1.00  0.00    -0.248 NA
ATOM     36  C   UNL A   1      39.935  28.289  27.897  1.00  0.00     0.031 C 
ATOM     37  C   UNL A   1      43.916  26.972  30.665  1.00  0.00     0.029 A 
ATOM     38  N   UNL A   1      42.379  28.285  31.626  1.00  0.00    -0.354 N 
ATOM     39  C   UNL A   1      38.861  29.550  29.477  1.00  0.00     0.074 A 
ATOM     40  C   UNL A   1      38.869  29.044  28.121  1.00  0.00     0.031 C 
ATOM     41  C   UNL A   1      44.312  27.204  31.929  1.00  0.00     0.029 A 
ATOM     42  C   UNL A   1      43.347  28.089  32.579  1.00  0.00     0.049 A 
ATOM     43  H   UNL A   1      41.566  28.818  31.784  1.00  0.00     0.167 HD
ATOM     44  C   UNL A   1      37.867  30.304  30.001  1.00  0.00     0.031 A 
ATOM     45  C   UNL A   1      43.451  28.582  33.828  1.00  0.00     0.031 A 
ATOM     46  C   UNL A   1      37.861  30.819  31.345  1.00  0.00     0.049 A 
ATOM     47  C   UNL A   1      42.371  29.483  34.362  1.00  0.00     0.074 A 
ATOM     48  C   UNL A   1      36.890  31.580  31.972  1.00  0.00     0.029 A 
ATOM     49  N   UNL A   1      38.881  30.633  32.263  1.00  0.00    -0.354 N 
ATOM     50  N   UNL A   1      41.258  29.871  33.787  1.00  0.00    -0.248 NA
ATOM     51  C   UNL A   1      42.560  30.007  35.723  1.00  0.00     0.031 C 
ATOM     52  C   UNL A   1      37.347  31.899  33.254  1.00  0.00     0.029 A 
ATOM     53  C   UNL A   1      38.576  31.288  33.445  1.00  0.00     0.049 A 
ATOM     54  H   UNL A   1      39.700  30.111  32.102  1.00  0.00     0.167 HD
ATOM     55  C   UNL A   1      40.604  30.661  34.724  1.00  0.00     0.074 A 
ATOM     56  C   UNL A   1      41.435  30.686  35.909  1.00  0.00     0.031 C 
ATOM     57  C   UNL A   1      39.416  31.306  34.614  1.00  0.00     0.031 A 
BRANCH  44  58
ATOM     58  C   UNL A   1      36.713  30.647  29.101  1.00  0.00    -0.014 A 
ATOM     59  C   UNL A   1      35.783  29.674  28.704  1.00  0.00     0.009 A 
ATOM     60  C   UNL A   1      36.538  31.972  28.670  1.00  0.00     0.009 A 
ATOM     61  C   UNL A   1      34.718  30.016  27.865  1.00  0.00     0.001 A 
ATOM     62  C   UNL A   1      35.459  32.315  27.855  1.00  0.00     0.001 A 
ATOM     63  C   UNL A   1      34.554  31.335  27.446  1.00  0.00     0.000 A 
ENDBRANCH  44  58
BRANCH  45  64
ATOM     64  C   UNL A   1      44.638  28.252  34.660  1.00  0.00    -0.014 A 
ATOM     65  C   UNL A   1      44.627  27.137  35.512  1.00  0.00     0.009 A 
ATOM     66  C   UNL A   1      45.781  29.066  34.622  1.00  0.00     0.009 A 
ATOM     67  C   UNL A   1      45.729  26.858  36.325  1.00  0.00     0.001 A 
ATOM     68  C   UNL A   1      46.891  28.769  35.414  1.00  0.00     0.001 A 
ATOM     69  C   UNL A   1      46.860  27.672  36.273  1.00  0.00     0.000 A 
ENDBRANCH  45  64
BRANCH  57  70
ATOM     70  C   UNL A   1      38.928  32.063  35.818  1.00  0.00    -0.014 A 
ATOM     71  C   UNL A   1      39.229  33.423  35.996  1.00  0.00     0.009 A 
ATOM     72  C   UNL A   1      38.121  31.415  36.766  1.00  0.00     0.009 A 
ATOM     73  C   UNL A   1      38.757  34.109  37.117  1.00  0.00     0.001 A 
ATOM     74  C   UNL A   1      37.627  32.111  37.871  1.00  0.00     0.001 A 
ATOM     75  C   UNL A   1      37.953  33.454  38.050  1.00  0.00     0.000 A 
ENDBRANCH  57  70
ENDBRANCH  31  32
ENDBRANCH  24  26
ENDBRANCH  23  24
ENDBRANCH  22  23
ENDBRANCH   1  22
TORSDOF 15
ENDMDL
MODEL 3
REMARK VINA RESULT:     -10.4      5.453     11.407
REMARK SMILES C[C@@H]1CCN(c2cncc(C(=O)OCCOCCOC(=O)c3ccc(-c4c5nc(c(-c6ccccc6)c6ccc([nH]6)c(-c6ccccc6)c6nc(c(-c7ccccc7)c7ccc4[nH]7)C=C6)C=C5)cc3)n2)[C@H](C)C1
REMARK SMILES IDX 17 1 16 2 15 3 14 4 13 5 11 6 12 7 10 8 6 9 7 10 70 11 8 12
REMARK SMILES IDX 9 13 5 14 1 15 2 16 3 17 73 18 4 19 71 20 72 21 18 22 19 23
REMARK SMILES IDX 20 24 21 25 22 26 23 27 69 28 24 29 68 30 25 31 26 32 27 33
REMARK SMILES IDX 62 34 28 35 67 36 61 37 63 38 29 39 66 40 60 41 59 42 30 44
REMARK SMILES IDX 52 45 37 46 51 47 38 48 41 49 50 50 64 51 39 52 40 53 49 55
REMARK SMILES IDX 65 56 42 57 31 58 32 59 36 60 33 61 35 62 34 63 53 64 54 65
REMARK SMILES IDX 58 66 55 67 57 68 56 69 43 70 44 71 48 72 45 73 47 74 46 75
REMARK H PARENT 63 43 41 54
REMARK Flexibility Score: inf
ROOT
ATOM      1  C   UNL A   1      32.994  36.600  32.818  1.00  0.00     0.202 C 
ENDROOT
BRANCH   1   2
ATOM      2  O   UNL A   1      34.215  36.560  33.560  1.00  0.00    -0.374 OA
BRANCH   2   3
ATOM      3  C   UNL A   1      34.789  35.268  33.769  1.00  0.00     0.202 C 
BRANCH   3   4
ATOM      4  C   UNL A   1      36.140  35.040  33.081  1.00  0.00     0.261 C 
BRANCH   4   5
ATOM      5  O   UNL A   1      36.793  33.872  33.609  1.00  0.00    -0.458 OA
BRANCH   5   6
ATOM      6  C   UNL A   1      37.876  34.108  34.391  1.00  0.00     0.358 C 
ATOM      7  O   UNL A   1      38.342  35.200  34.681  1.00  0.00    -0.244 OA
BRANCH   6   8
ATOM      8  C   UNL A   1      38.322  32.852  35.035  1.00  0.00     0.169 A 
ATOM      9  C   UNL A   1      39.553  30.888  35.021  1.00  0.00     0.148 A 
ATOM     10  C   UNL A   1      38.900  30.553  36.217  1.00  0.00     0.157 A 
ATOM     11  N   UNL A   1      39.235  32.058  34.412  1.00  0.00    -0.221 NA
ATOM     12  N   UNL A   1      37.975  31.330  36.843  1.00  0.00    -0.258 NA
ATOM     13  C   UNL A   1      37.714  32.500  36.227  1.00  0.00     0.147 A 
BRANCH   9  14
ATOM     14  N   UNL A   1      40.541  30.100  34.460  1.00  0.00    -0.353 N 
ATOM     15  C   UNL A   1      42.981  27.492  33.188  1.00  0.00     0.008 C 
ATOM     16  C   UNL A   1      41.668  27.469  33.971  1.00  0.00    -0.011 C 
ATOM     17  C   UNL A   1      40.493  28.028  33.154  1.00  0.00     0.025 C 
ATOM     18  C   UNL A   1      41.771  28.174  35.334  1.00  0.00     0.028 C 
ATOM     19  C   UNL A   1      40.477  29.556  33.106  1.00  0.00     0.118 C 
ATOM     20  C   UNL A   1      41.678  29.711  35.303  1.00  0.00     0.081 C 
ATOM     21  C   UNL A   1      42.962  30.408  34.858  1.00  0.00     0.031 C 
ENDBRANCH   9  14
ENDBRANCH   6   8
ENDBRANCH   5   6
ENDBRANCH   4   5
ENDBRANCH   3   4
ENDBRANCH   2   3
ENDBRANCH   1   2
BRANCH   1  22
ATOM     22  C   UNL A   1      33.140  36.432  31.302  1.00  0.00     0.261 C 
BRANCH  22  23
ATOM     23  O   UNL A   1      32.946  35.062  30.909  1.00  0.00    -0.460 OA
BRANCH  23  24
ATOM     24  C   UNL A   1      33.237  34.790  29.618  1.00  0.00     0.338 C 
ATOM     25  O   UNL A   1      32.662  35.210  28.623  1.00  0.00    -0.246 OA
BRANCH  24  26
ATOM     26  C   UNL A   1      34.490  34.017  29.539  1.00  0.00     0.060 A 
ATOM     27  C   UNL A   1      34.693  33.020  30.501  1.00  0.00     0.016 A 
ATOM     28  C   UNL A   1      35.474  34.292  28.586  1.00  0.00     0.016 A 
ATOM     29  C   UNL A   1      35.902  32.329  30.548  1.00  0.00     0.010 A 
ATOM     30  C   UNL A   1      36.690  33.602  28.638  1.00  0.00     0.010 A 
ATOM     31  C   UNL A   1      36.922  32.644  29.640  1.00  0.00    -0.014 A 
BRANCH  31  32
ATOM     32  C   UNL A   1      38.274  32.066  29.831  1.00  0.00     0.031 A 
ATOM     33  C   UNL A   1      39.317  32.870  30.556  1.00  0.00     0.074 A 
ATOM     34  C   UNL A   1      38.562  30.827  29.393  1.00  0.00     0.049 A 
ATOM     35  N   UNL A   1      40.563  32.566  30.821  1.00  0.00    -0.248 NA
ATOM     36  C   UNL A   1      38.903  34.194  31.048  1.00  0.00     0.031 C 
ATOM     37  C   UNL A   1      37.627  29.931  28.715  1.00  0.00     0.029 A 
ATOM     38  N   UNL A   1      39.732  30.113  29.456  1.00  0.00    -0.354 N 
ATOM     39  C   UNL A   1      41.081  33.660  31.502  1.00  0.00     0.074 A 
ATOM     40  C   UNL A   1      40.026  34.647  31.585  1.00  0.00     0.031 C 
ATOM     41  C   UNL A   1      38.263  28.783  28.420  1.00  0.00     0.029 A 
ATOM     42  C   UNL A   1      39.654  28.879  28.860  1.00  0.00     0.049 A 
ATOM     43  H   UNL A   1      40.548  30.454  29.888  1.00  0.00     0.167 HD
ATOM     44  C   UNL A   1      42.321  33.828  32.018  1.00  0.00     0.031 A 
ATOM     45  C   UNL A   1      40.601  27.940  28.675  1.00  0.00     0.031 A 
ATOM     46  C   UNL A   1      43.377  32.854  31.927  1.00  0.00     0.049 A 
ATOM     47  C   UNL A   1      41.995  28.183  29.190  1.00  0.00     0.074 A 
ATOM     48  C   UNL A   1      44.663  32.927  32.434  1.00  0.00     0.029 A 
ATOM     49  N   UNL A   1      43.269  31.635  31.278  1.00  0.00    -0.354 N 
ATOM     50  N   UNL A   1      42.464  29.210  29.856  1.00  0.00    -0.248 NA
ATOM     51  C   UNL A   1      42.988  27.129  28.931  1.00  0.00     0.031 C 
ATOM     52  C   UNL A   1      45.351  31.773  32.044  1.00  0.00     0.029 A 
ATOM     53  C   UNL A   1      44.475  30.957  31.346  1.00  0.00     0.049 A 
ATOM     54  H   UNL A   1      42.457  31.300  30.835  1.00  0.00     0.167 HD
ATOM     55  C   UNL A   1      43.796  28.914  30.119  1.00  0.00     0.074 A 
ATOM     56  C   UNL A   1      44.057  27.607  29.554  1.00  0.00     0.031 C 
ATOM     57  C   UNL A   1      44.720  29.658  30.776  1.00  0.00     0.031 A 
BRANCH  44  58
ATOM     58  C   UNL A   1      42.614  35.134  32.702  1.00  0.00    -0.014 A 
ATOM     59  C   UNL A   1      42.168  35.390  34.008  1.00  0.00     0.009 A 
ATOM     60  C   UNL A   1      43.374  36.111  32.039  1.00  0.00     0.009 A 
ATOM     61  C   UNL A   1      42.450  36.612  34.624  1.00  0.00     0.001 A 
ATOM     62  C   UNL A   1      43.677  37.320  32.666  1.00  0.00     0.001 A 
ATOM     63  C   UNL A   1      43.208  37.573  33.955  1.00  0.00     0.000 A 
ENDBRANCH  44  58
BRANCH  45  64
ATOM     64  C   UNL A   1      40.273  26.686  27.949  1.00  0.00    -0.014 A 
ATOM     65  C   UNL A   1      39.554  25.660  28.580  1.00  0.00     0.009 A 
ATOM     66  C   UNL A   1      40.699  26.501  26.624  1.00  0.00     0.009 A 
ATOM     67  C   UNL A   1      39.288  24.465  27.906  1.00  0.00     0.001 A 
ATOM     68  C   UNL A   1      40.407  25.317  25.944  1.00  0.00     0.001 A 
ATOM     69  C   UNL A   1      39.711  24.297  26.588  1.00  0.00     0.000 A 
ENDBRANCH  45  64
BRANCH  57  70
ATOM     70  C   UNL A   1      46.090  29.062  30.948  1.00  0.00    -0.014 A 
ATOM     71  C   UNL A   1      46.407  28.272  32.064  1.00  0.00     0.009 A 
ATOM     72  C   UNL A   1      47.062  29.260  29.955  1.00  0.00     0.009 A 
ATOM     73  C   UNL A   1      47.683  27.721  32.198  1.00  0.00     0.001 A 
ATOM     74  C   UNL A   1      48.328  28.683  30.078  1.00  0.00     0.001 A 
ATOM     75  C   UNL A   1      48.640  27.922  31.203  1.00  0.00     0.000 A 
ENDBRANCH  57  70
ENDBRANCH  31  32
ENDBRANCH  24  26
ENDBRANCH  23  24
ENDBRANCH  22  23
ENDBRANCH   1  22
TORSDOF 15
ENDMDL
