MODEL 1
REMARK VINA RESULT:      -9.9      0.000      0.000
REMARK SMILES COc1ccc(NS(=O)(=O)c2ccc(NC(=O)[C@H]3CCCC[C@@H]3C(=O)OCCOCCOC(=O)c3ccc(-c4c5nc(c(-c6ccccc6)c6ccc([nH]6)c(-c6ccccc6)c6nc(c(-c7ccccc7)c7ccc4[nH]7)C=C6)C=C5)cc3)cc2)cc1
REMARK SMILES IDX 27 1 26 2 24 3 25 4 23 5 18 6 19 7 20 8 22 9 21 10 16 11
REMARK SMILES IDX 15 12 17 14 14 15 11 16 12 17 84 18 13 19 83 20 8 21 9 22
REMARK SMILES IDX 10 23 7 24 6 26 3 27 4 28 86 29 5 30 85 31 2 32 1 33 28 34
REMARK SMILES IDX 29 35 30 36 31 37 32 38 33 39 34 40 35 41 36 42 82 43 37 44
REMARK SMILES IDX 81 45 38 46 39 47 40 48 75 49 41 50 80 51 74 52 76 53 42 54
REMARK SMILES IDX 79 55 73 56 72 57 43 59 65 60 50 61 64 62 51 63 54 64 63 65
REMARK SMILES IDX 77 66 52 67 53 68 62 70 78 71 55 72 44 73 45 74 49 75 46 76
REMARK SMILES IDX 48 77 47 78 66 79 67 80 71 81 68 82 70 83 69 84 56 85 57 86
REMARK SMILES IDX 61 87 58 88 60 89 59 90
REMARK H PARENT 15 13 7 25 76 58 54 69
REMARK Flexibility Score: inf
ROOT
ATOM      1  C   UNL A   1      39.513  29.383  30.140  1.00  0.00     0.261 C 
ENDROOT
BRANCH   1   2
ATOM      2  O   UNL A   1      38.105  29.194  30.261  1.00  0.00    -0.463 OA
BRANCH   2   3
ATOM      3  C   UNL A   1      37.415  29.542  29.132  1.00  0.00     0.309 C 
ATOM      4  O   UNL A   1      37.797  29.333  27.991  1.00  0.00    -0.252 OA
BRANCH   3   5
ATOM      5  C   UNL A   1      36.169  30.322  29.503  1.00  0.00     0.111 C 
ATOM      6  C   UNL A   1      35.796  31.333  28.416  1.00  0.00     0.093 C 
ATOM      7  C   UNL A   1      36.785  32.533  28.511  1.00  0.00     0.014 C 
ATOM      8  C   UNL A   1      36.896  33.136  29.918  1.00  0.00     0.001 C 
ATOM      9  C   UNL A   1      36.233  30.928  30.903  1.00  0.00     0.016 C 
ATOM     10  C   UNL A   1      37.196  32.097  30.989  1.00  0.00     0.001 C 
BRANCH   6  11
ATOM     11  C   UNL A   1      34.342  31.851  28.376  1.00  0.00     0.228 C 
ATOM     12  N   UNL A   1      33.277  31.218  27.806  1.00  0.00    -0.326 N 
ATOM     13  H   UNL A   1      32.436  31.725  27.885  1.00  0.00     0.169 HD
ATOM     14  O   UNL A   1      34.071  32.942  28.898  1.00  0.00    -0.274 OA
BRANCH  12  15
ATOM     15  C   UNL A   1      33.128  30.003  27.134  1.00  0.00     0.041 A 
ATOM     16  C   UNL A   1      32.787  27.374  26.273  1.00  0.00     0.087 A 
ATOM     17  C   UNL A   1      33.987  28.037  26.002  1.00  0.00     0.024 A 
ATOM     18  C   UNL A   1      31.714  28.063  26.847  1.00  0.00     0.024 A 
ATOM     19  C   UNL A   1      34.151  29.368  26.423  1.00  0.00     0.027 A 
ATOM     20  C   UNL A   1      31.878  29.387  27.249  1.00  0.00     0.027 A 
BRANCH  16  21
ATOM     21  S   UNL A   1      32.599  25.618  26.051  1.00  0.00     0.261 S 
ATOM     22  O   UNL A   1      31.536  25.211  26.944  1.00  0.00    -0.201 OA
ATOM     23  O   UNL A   1      33.916  25.024  26.126  1.00  0.00    -0.201 OA
BRANCH  21  24
ATOM     24  N   UNL A   1      32.001  25.400  24.503  1.00  0.00    -0.280 N 
ATOM     25  H   UNL A   1      32.384  24.663  23.973  1.00  0.00     0.180 HD
BRANCH  24  26
ATOM     26  C   UNL A   1      30.986  26.186  23.882  1.00  0.00     0.049 A 
ATOM     27  C   UNL A   1      28.876  27.884  23.124  1.00  0.00     0.119 A 
ATOM     28  C   UNL A   1      30.176  28.121  22.678  1.00  0.00     0.048 A 
ATOM     29  C   UNL A   1      28.610  26.748  23.876  1.00  0.00     0.048 A 
ATOM     30  C   UNL A   1      31.234  27.295  23.078  1.00  0.00     0.030 A 
ATOM     31  C   UNL A   1      29.664  25.910  24.260  1.00  0.00     0.030 A 
BRANCH  27  32
ATOM     32  O   UNL A   1      27.942  28.821  22.783  1.00  0.00    -0.497 OA
ATOM     33  C   UNL A   1      28.459  30.051  22.273  1.00  0.00     0.278 C 
ENDBRANCH  27  32
ENDBRANCH  24  26
ENDBRANCH  21  24
ENDBRANCH  16  21
ENDBRANCH  12  15
ENDBRANCH   6  11
ENDBRANCH   3   5
ENDBRANCH   2   3
ENDBRANCH   1   2
BRANCH   1  34
ATOM     34  C   UNL A   1      40.418  28.245  30.599  1.00  0.00     0.202 C 
BRANCH  34  35
ATOM     35  O   UNL A   1      41.103  27.419  29.673  1.00  0.00    -0.374 OA
BRANCH  35  36
ATOM     36  C   UNL A   1      40.452  27.040  28.467  1.00  0.00     0.202 C 
BRANCH  36  37
ATOM     37  C   UNL A   1      40.061  25.571  28.228  1.00  0.00     0.261 C 
BRANCH  37  38
ATOM     38  O   UNL A   1      41.125  24.629  28.388  1.00  0.00    -0.460 OA
BRANCH  38  39
ATOM     39  C   UNL A   1      41.670  24.214  27.217  1.00  0.00     0.338 C 
ATOM     40  O   UNL A   1      41.190  23.445  26.401  1.00  0.00    -0.246 OA
BRANCH  39  41
ATOM     41  C   UNL A   1      42.886  25.004  26.951  1.00  0.00     0.060 A 
ATOM     42  C   UNL A   1      43.687  25.348  28.050  1.00  0.00     0.016 A 
ATOM     43  C   UNL A   1      43.224  25.413  25.660  1.00  0.00     0.016 A 
ATOM     44  C   UNL A   1      44.802  26.159  27.870  1.00  0.00     0.010 A 
ATOM     45  C   UNL A   1      44.325  26.252  25.483  1.00  0.00     0.010 A 
ATOM     46  C   UNL A   1      45.081  26.666  26.595  1.00  0.00    -0.014 A 
BRANCH  46  47
ATOM     47  C   UNL A   1      45.958  27.851  26.480  1.00  0.00     0.031 A 
ATOM     48  C   UNL A   1      47.426  27.604  26.263  1.00  0.00     0.074 A 
ATOM     49  C   UNL A   1      45.469  29.100  26.531  1.00  0.00     0.049 A 
ATOM     50  N   UNL A   1      48.409  28.459  26.177  1.00  0.00    -0.248 NA
ATOM     51  C   UNL A   1      47.839  26.194  26.126  1.00  0.00     0.031 C 
ATOM     52  C   UNL A   1      44.059  29.458  26.670  1.00  0.00     0.029 A 
ATOM     53  N   UNL A   1      46.122  30.304  26.474  1.00  0.00    -0.354 N 
ATOM     54  C   UNL A   1      49.553  27.693  25.986  1.00  0.00     0.074 A 
ATOM     55  C   UNL A   1      49.149  26.307  25.990  1.00  0.00     0.031 C 
ATOM     56  C   UNL A   1      43.954  30.798  26.702  1.00  0.00     0.029 A 
ATOM     57  C   UNL A   1      45.290  31.387  26.618  1.00  0.00     0.049 A 
ATOM     58  H   UNL A   1      47.094  30.385  26.342  1.00  0.00     0.167 HD
ATOM     59  C   UNL A   1      50.830  28.107  25.821  1.00  0.00     0.031 A 
ATOM     60  C   UNL A   1      45.586  32.697  26.699  1.00  0.00     0.031 A 
ATOM     61  C   UNL A   1      51.231  29.486  25.841  1.00  0.00     0.049 A 
ATOM     62  C   UNL A   1      47.026  33.131  26.603  1.00  0.00     0.074 A 
ATOM     63  C   UNL A   1      52.498  30.019  25.692  1.00  0.00     0.029 A 
ATOM     64  N   UNL A   1      50.363  30.549  26.034  1.00  0.00    -0.354 N 
ATOM     65  N   UNL A   1      48.099  32.401  26.413  1.00  0.00    -0.248 NA
ATOM     66  C   UNL A   1      47.292  34.571  26.729  1.00  0.00     0.031 C 
ATOM     67  C   UNL A   1      52.403  31.405  25.845  1.00  0.00     0.029 A 
ATOM     68  C   UNL A   1      51.070  31.738  26.033  1.00  0.00     0.049 A 
ATOM     69  H   UNL A   1      49.389  30.470  26.154  1.00  0.00     0.167 HD
ATOM     70  C   UNL A   1      49.164  33.293  26.371  1.00  0.00     0.074 A 
ATOM     71  C   UNL A   1      48.605  34.619  26.541  1.00  0.00     0.031 C 
ATOM     72  C   UNL A   1      50.486  33.043  26.203  1.00  0.00     0.031 A 
BRANCH  59  73
ATOM     73  C   UNL A   1      51.880  27.047  25.655  1.00  0.00    -0.014 A 
ATOM     74  C   UNL A   1      52.556  26.508  26.761  1.00  0.00     0.009 A 
ATOM     75  C   UNL A   1      52.197  26.582  24.369  1.00  0.00     0.009 A 
ATOM     76  C   UNL A   1      53.554  25.548  26.579  1.00  0.00     0.001 A 
ATOM     77  C   UNL A   1      53.176  25.603  24.193  1.00  0.00     0.001 A 
ATOM     78  C   UNL A   1      53.860  25.093  25.296  1.00  0.00     0.000 A 
ENDBRANCH  59  73
BRANCH  60  79
ATOM     79  C   UNL A   1      44.506  33.696  26.913  1.00  0.00    -0.014 A 
ATOM     80  C   UNL A   1      43.881  34.323  25.824  1.00  0.00     0.009 A 
ATOM     81  C   UNL A   1      44.107  34.044  28.214  1.00  0.00     0.009 A 
ATOM     82  C   UNL A   1      42.898  35.294  26.034  1.00  0.00     0.001 A 
ATOM     83  C   UNL A   1      43.105  34.994  28.420  1.00  0.00     0.001 A 
ATOM     84  C   UNL A   1      42.508  35.625  27.331  1.00  0.00     0.000 A 
ENDBRANCH  60  79
BRANCH  72  85
ATOM     85  C   UNL A   1      51.410  34.225  26.158  1.00  0.00    -0.014 A 
ATOM     86  C   UNL A   1      52.052  34.693  27.315  1.00  0.00     0.009 A 
ATOM     87  C   UNL A   1      51.683  34.844  24.928  1.00  0.00     0.009 A 
ATOM     88  C   UNL A   1      52.927  35.780  27.243  1.00  0.00     0.001 A 
ATOM     89  C   UNL A   1      52.579  35.910  24.855  1.00  0.00     0.001 A 
ATOM     90  C   UNL A   1      53.193  36.383  26.014  1.00  0.00     0.000 A 
ENDBRANCH  72  85
ENDBRANCH  46  47
ENDBRANCH  39  41
ENDBRANCH  38  39
ENDBRANCH  37  38
ENDBRANCH  36  37
ENDBRANCH  35  36
ENDBRANCH  34  35
ENDBRANCH   1  34
TORSDOF 20
ENDMDL
MODEL 2
REMARK VINA RESULT:      -9.9      4.515      9.318
REMARK SMILES COc1ccc(NS(=O)(=O)c2ccc(NC(=O)[C@H]3CCCC[C@@H]3C(=O)OCCOCCOC(=O)c3ccc(-c4c5nc(c(-c6ccccc6)c6ccc([nH]6)c(-c6ccccc6)c6nc(c(-c7ccccc7)c7ccc4[nH]7)C=C6)C=C5)cc3)cc2)cc1
REMARK SMILES IDX 27 1 26 2 24 3 25 4 23 5 18 6 19 7 20 8 22 9 21 10 16 11
REMARK SMILES IDX 15 12 17 14 14 15 11 16 12 17 84 18 13 19 83 20 8 21 9 22
REMARK SMILES IDX 10 23 7 24 6 26 3 27 4 28 86 29 5 30 85 31 2 32 1 33 28 34
REMARK SMILES IDX 29 35 30 36 31 37 32 38 33 39 34 40 35 41 36 42 82 43 37 44
REMARK SMILES IDX 81 45 38 46 39 47 40 48 75 49 41 50 80 51 74 52 76 53 42 54
REMARK SMILES IDX 79 55 73 56 72 57 43 59 65 60 50 61 64 62 51 63 54 64 63 65
REMARK SMILES IDX 77 66 52 67 53 68 62 70 78 71 55 72 44 73 45 74 49 75 46 76
REMARK SMILES IDX 48 77 47 78 66 79 67 80 71 81 68 82 70 83 69 84 56 85 57 86
REMARK SMILES IDX 61 87 58 88 60 89 59 90
REMARK H PARENT 15 13 7 25 76 58 54 69
REMARK Flexibility Score: inf
ROOT
ATOM      1  C   UNL A   1      35.216  34.537  30.216  1.00  0.00     0.261 C 
ENDROOT
BRANCH   1   2
ATOM      2  O   UNL A   1      35.563  33.641  29.162  1.00  0.00    -0.463 OA
BRANCH   2   3
ATOM      3  C   UNL A   1      36.701  32.924  29.416  1.00  0.00     0.309 C 
ATOM      4  O   UNL A   1      37.837  33.356  29.291  1.00  0.00    -0.252 OA
BRANCH   3   5
ATOM      5  C   UNL A   1      36.349  31.492  29.762  1.00  0.00     0.111 C 
ATOM      6  C   UNL A   1      37.565  30.570  29.649  1.00  0.00     0.093 C 
ATOM      7  C   UNL A   1      37.843  30.319  28.137  1.00  0.00     0.014 C 
ATOM      8  C   UNL A   1      36.615  29.836  27.352  1.00  0.00     0.001 C 
ATOM      9  C   UNL A   1      35.122  30.976  29.012  1.00  0.00     0.016 C 
ATOM     10  C   UNL A   1      35.398  30.731  27.541  1.00  0.00     0.001 C 
BRANCH   6  11
ATOM     11  C   UNL A   1      37.532  29.227  30.409  1.00  0.00     0.228 C 
ATOM     12  N   UNL A   1      38.395  28.185  30.242  1.00  0.00    -0.326 N 
ATOM     13  H   UNL A   1      38.193  27.415  30.823  1.00  0.00     0.169 HD
ATOM     14  O   UNL A   1      36.654  29.034  31.262  1.00  0.00    -0.274 OA
BRANCH  12  15
ATOM     15  C   UNL A   1      39.504  27.978  29.419  1.00  0.00     0.041 A 
ATOM     16  C   UNL A   1      41.763  27.114  28.033  1.00  0.00     0.087 A 
ATOM     17  C   UNL A   1      41.838  28.266  28.821  1.00  0.00     0.024 A 
ATOM     18  C   UNL A   1      40.535  26.477  27.829  1.00  0.00     0.024 A 
ATOM     19  C   UNL A   1      40.694  28.710  29.506  1.00  0.00     0.027 A 
ATOM     20  C   UNL A   1      39.401  26.931  28.499  1.00  0.00     0.027 A 
BRANCH  16  21
ATOM     21  S   UNL A   1      43.212  26.313  27.377  1.00  0.00     0.261 S 
ATOM     22  O   UNL A   1      43.646  25.376  28.390  1.00  0.00    -0.201 OA
ATOM     23  O   UNL A   1      44.094  27.346  26.877  1.00  0.00    -0.201 OA
BRANCH  21  24
ATOM     24  N   UNL A   1      42.693  25.382  26.088  1.00  0.00    -0.280 N 
ATOM     25  H   UNL A   1      41.922  25.717  25.574  1.00  0.00     0.180 HD
BRANCH  24  26
ATOM     26  C   UNL A   1      43.269  24.148  25.665  1.00  0.00     0.049 A 
ATOM     27  C   UNL A   1      44.795  21.851  25.110  1.00  0.00     0.119 A 
ATOM     28  C   UNL A   1      43.569  21.750  25.766  1.00  0.00     0.048 A 
ATOM     29  C   UNL A   1      45.220  23.091  24.650  1.00  0.00     0.048 A 
ATOM     30  C   UNL A   1      42.820  22.894  26.071  1.00  0.00     0.030 A 
ATOM     31  C   UNL A   1      44.463  24.232  24.936  1.00  0.00     0.030 A 
BRANCH  27  32
ATOM     32  O   UNL A   1      45.505  20.692  24.977  1.00  0.00    -0.497 OA
ATOM     33  C   UNL A   1      45.018  19.779  23.994  1.00  0.00     0.278 C 
ENDBRANCH  27  32
ENDBRANCH  24  26
ENDBRANCH  21  24
ENDBRANCH  16  21
ENDBRANCH  12  15
ENDBRANCH   6  11
ENDBRANCH   3   5
ENDBRANCH   2   3
ENDBRANCH   1   2
BRANCH   1  34
ATOM     34  C   UNL A   1      33.905  34.282  30.951  1.00  0.00     0.202 C 
BRANCH  34  35
ATOM     35  O   UNL A   1      33.876  33.661  32.225  1.00  0.00    -0.374 OA
BRANCH  35  36
ATOM     36  C   UNL A   1      35.101  33.308  32.855  1.00  0.00     0.202 C 
BRANCH  36  37
ATOM     37  C   UNL A   1      35.508  33.970  34.182  1.00  0.00     0.261 C 
BRANCH  37  38
ATOM     38  O   UNL A   1      36.916  34.012  34.429  1.00  0.00    -0.460 OA
BRANCH  38  39
ATOM     39  C   UNL A   1      37.335  33.116  35.358  1.00  0.00     0.338 C 
ATOM     40  O   UNL A   1      36.835  32.877  36.444  1.00  0.00    -0.246 OA
BRANCH  39  41
ATOM     41  C   UNL A   1      38.406  32.288  34.773  1.00  0.00     0.060 A 
ATOM     42  C   UNL A   1      39.728  32.591  35.134  1.00  0.00     0.016 A 
ATOM     43  C   UNL A   1      38.125  31.254  33.879  1.00  0.00     0.016 A 
ATOM     44  C   UNL A   1      40.783  31.898  34.551  1.00  0.00     0.010 A 
ATOM     45  C   UNL A   1      39.184  30.578  33.272  1.00  0.00     0.010 A 
ATOM     46  C   UNL A   1      40.512  30.937  33.570  1.00  0.00    -0.014 A 
BRANCH  46  47
ATOM     47  C   UNL A   1      41.599  30.536  32.651  1.00  0.00     0.031 A 
ATOM     48  C   UNL A   1      42.229  29.189  32.874  1.00  0.00     0.074 A 
ATOM     49  C   UNL A   1      41.992  31.322  31.635  1.00  0.00     0.049 A 
ATOM     50  N   UNL A   1      43.224  28.622  32.246  1.00  0.00    -0.248 NA
ATOM     51  C   UNL A   1      41.654  28.369  33.958  1.00  0.00     0.031 C 
ATOM     52  C   UNL A   1      41.409  32.616  31.285  1.00  0.00     0.029 A 
ATOM     53  N   UNL A   1      42.988  31.135  30.713  1.00  0.00    -0.354 N 
ATOM     54  C   UNL A   1      43.399  27.389  32.863  1.00  0.00     0.074 A 
ATOM     55  C   UNL A   1      42.426  27.296  33.926  1.00  0.00     0.031 C 
ATOM     56  C   UNL A   1      42.072  33.116  30.226  1.00  0.00     0.029 A 
ATOM     57  C   UNL A   1      43.141  32.192  29.849  1.00  0.00     0.049 A 
ATOM     58  H   UNL A   1      43.541  30.322  30.672  1.00  0.00     0.167 HD
ATOM     59  C   UNL A   1      44.292  26.416  32.569  1.00  0.00     0.031 A 
ATOM     60  C   UNL A   1      44.059  32.393  28.886  1.00  0.00     0.031 A 
ATOM     61  C   UNL A   1      45.274  26.522  31.527  1.00  0.00     0.049 A 
ATOM     62  C   UNL A   1      45.103  31.335  28.636  1.00  0.00     0.074 A 
ATOM     63  C   UNL A   1      46.233  25.602  31.148  1.00  0.00     0.029 A 
ATOM     64  N   UNL A   1      45.424  27.628  30.704  1.00  0.00    -0.354 N 
ATOM     65  N   UNL A   1      45.255  30.169  29.217  1.00  0.00    -0.248 NA
ATOM     66  C   UNL A   1      46.098  31.622  27.593  1.00  0.00     0.031 C 
ATOM     67  C   UNL A   1      46.998  26.172  30.126  1.00  0.00     0.029 A 
ATOM     68  C   UNL A   1      46.478  27.424  29.832  1.00  0.00     0.049 A 
ATOM     69  H   UNL A   1      44.864  28.437  30.736  1.00  0.00     0.167 HD
ATOM     70  C   UNL A   1      46.345  29.572  28.595  1.00  0.00     0.074 A 
ATOM     71  C   UNL A   1      46.806  30.500  27.582  1.00  0.00     0.031 C 
ATOM     72  C   UNL A   1      46.913  28.365  28.834  1.00  0.00     0.031 A 
BRANCH  59  73
ATOM     73  C   UNL A   1      44.270  25.183  33.426  1.00  0.00    -0.014 A 
ATOM     74  C   UNL A   1      43.696  23.986  32.969  1.00  0.00     0.009 A 
ATOM     75  C   UNL A   1      44.831  25.223  34.712  1.00  0.00     0.009 A 
ATOM     76  C   UNL A   1      43.655  22.863  33.797  1.00  0.00     0.001 A 
ATOM     77  C   UNL A   1      44.812  24.090  35.527  1.00  0.00     0.001 A 
ATOM     78  C   UNL A   1      44.216  22.914  35.073  1.00  0.00     0.000 A 
ENDBRANCH  59  73
BRANCH  60  79
ATOM     79  C   UNL A   1      44.059  33.657  28.104  1.00  0.00    -0.014 A 
ATOM     80  C   UNL A   1      43.559  33.691  26.794  1.00  0.00     0.009 A 
ATOM     81  C   UNL A   1      44.580  34.836  28.660  1.00  0.00     0.009 A 
ATOM     82  C   UNL A   1      43.603  34.873  26.049  1.00  0.00     0.001 A 
ATOM     83  C   UNL A   1      44.598  36.023  27.924  1.00  0.00     0.001 A 
ATOM     84  C   UNL A   1      44.118  36.038  26.616  1.00  0.00     0.000 A 
ENDBRANCH  60  79
BRANCH  72  85
ATOM     85  C   UNL A   1      48.070  27.964  27.964  1.00  0.00    -0.014 A 
ATOM     86  C   UNL A   1      49.395  28.212  28.353  1.00  0.00     0.009 A 
ATOM     87  C   UNL A   1      47.828  27.279  26.762  1.00  0.00     0.009 A 
ATOM     88  C   UNL A   1      50.455  27.807  27.537  1.00  0.00     0.001 A 
ATOM     89  C   UNL A   1      48.889  26.851  25.965  1.00  0.00     0.001 A 
ATOM     90  C   UNL A   1      50.201  27.123  26.349  1.00  0.00     0.000 A 
ENDBRANCH  72  85
ENDBRANCH  46  47
ENDBRANCH  39  41
ENDBRANCH  38  39
ENDBRANCH  37  38
ENDBRANCH  36  37
ENDBRANCH  35  36
ENDBRANCH  34  35
ENDBRANCH   1  34
TORSDOF 20
ENDMDL
MODEL 3
REMARK VINA RESULT:      -9.9      4.288      9.991
REMARK SMILES COc1ccc(NS(=O)(=O)c2ccc(NC(=O)[C@H]3CCCC[C@@H]3C(=O)OCCOCCOC(=O)c3ccc(-c4c5nc(c(-c6ccccc6)c6ccc([nH]6)c(-c6ccccc6)c6nc(c(-c7ccccc7)c7ccc4[nH]7)C=C6)C=C5)cc3)cc2)cc1
REMARK SMILES IDX 27 1 26 2 24 3 25 4 23 5 18 6 19 7 20 8 22 9 21 10 16 11
REMARK SMILES IDX 15 12 17 14 14 15 11 16 12 17 84 18 13 19 83 20 8 21 9 22
REMARK SMILES IDX 10 23 7 24 6 26 3 27 4 28 86 29 5 30 85 31 2 32 1 33 28 34
REMARK SMILES IDX 29 35 30 36 31 37 32 38 33 39 34 40 35 41 36 42 82 43 37 44
REMARK SMILES IDX 81 45 38 46 39 47 40 48 75 49 41 50 80 51 74 52 76 53 42 54
REMARK SMILES IDX 79 55 73 56 72 57 43 59 65 60 50 61 64 62 51 63 54 64 63 65
REMARK SMILES IDX 77 66 52 67 53 68 62 70 78 71 55 72 44 73 45 74 49 75 46 76
REMARK SMILES IDX 48 77 47 78 66 79 67 80 71 81 68 82 70 83 69 84 56 85 57 86
REMARK SMILES IDX 61 87 58 88 60 89 59 90
REMARK H PARENT 15 13 7 25 76 58 54 69
REMARK Flexibility Score: inf
ROOT
ATOM      1  C   UNL A   1      34.890  34.652  28.425  1.00  0.00     0.261 C 
ENDROOT
BRANCH   1   2
ATOM      2  O   UNL A   1      35.263  33.351  27.973  1.00  0.00    -0.463 OA
BRANCH   2   3
ATOM      3  C   UNL A   1      36.349  32.842  28.631  1.00  0.00     0.309 C 
ATOM      4  O   UNL A   1      37.475  33.312  28.583  1.00  0.00    -0.252 OA
BRANCH   3   5
ATOM      5  C   UNL A   1      35.975  31.552  29.333  1.00  0.00     0.111 C 
ATOM      6  C   UNL A   1      37.105  30.523  29.258  1.00  0.00     0.093 C 
ATOM      7  C   UNL A   1      37.129  29.934  27.816  1.00  0.00     0.014 C 
ATOM      8  C   UNL A   1      35.768  29.408  27.339  1.00  0.00     0.001 C 
ATOM      9  C   UNL A   1      34.619  31.001  28.897  1.00  0.00     0.016 C 
ATOM     10  C   UNL A   1      34.648  30.427  27.494  1.00  0.00     0.001 C 
BRANCH   6  11
ATOM     11  C   UNL A   1      37.116  29.379  30.295  1.00  0.00     0.228 C 
ATOM     12  N   UNL A   1      38.075  28.419  30.426  1.00  0.00    -0.326 N 
ATOM     13  H   UNL A   1      37.887  27.777  31.149  1.00  0.00     0.169 HD
ATOM     14  O   UNL A   1      36.183  29.285  31.105  1.00  0.00    -0.274 OA
BRANCH  12  15
ATOM     15  C   UNL A   1      39.269  28.155  29.751  1.00  0.00     0.041 A 
ATOM     16  C   UNL A   1      41.582  27.140  28.573  1.00  0.00     0.087 A 
ATOM     17  C   UNL A   1      41.688  28.116  29.569  1.00  0.00     0.024 A 
ATOM     18  C   UNL A   1      40.328  26.774  28.073  1.00  0.00     0.024 A 
ATOM     19  C   UNL A   1      40.520  28.638  30.150  1.00  0.00     0.027 A 
ATOM     20  C   UNL A   1      39.175  27.308  28.644  1.00  0.00     0.027 A 
BRANCH  16  21
ATOM     21  S   UNL A   1      42.988  26.211  27.996  1.00  0.00     0.261 S 
ATOM     22  O   UNL A   1      44.135  26.739  28.703  1.00  0.00    -0.201 OA
ATOM     23  O   UNL A   1      42.936  26.191  26.551  1.00  0.00    -0.201 OA
BRANCH  21  24
ATOM     24  N   UNL A   1      42.784  24.649  28.561  1.00  0.00    -0.280 N 
ATOM     25  H   UNL A   1      42.993  24.484  29.509  1.00  0.00     0.180 HD
BRANCH  24  26
ATOM     26  C   UNL A   1      42.332  23.537  27.792  1.00  0.00     0.049 A 
ATOM     27  C   UNL A   1      41.840  21.109  26.460  1.00  0.00     0.119 A 
ATOM     28  C   UNL A   1      40.928  21.609  27.389  1.00  0.00     0.048 A 
ATOM     29  C   UNL A   1      42.956  21.865  26.127  1.00  0.00     0.048 A 
ATOM     30  C   UNL A   1      41.184  22.802  28.076  1.00  0.00     0.030 A 
ATOM     31  C   UNL A   1      43.203  23.067  26.799  1.00  0.00     0.030 A 
BRANCH  27  32
ATOM     32  O   UNL A   1      41.559  19.876  25.943  1.00  0.00    -0.497 OA
ATOM     33  C   UNL A   1      42.497  18.847  26.257  1.00  0.00     0.278 C 
ENDBRANCH  27  32
ENDBRANCH  24  26
ENDBRANCH  21  24
ENDBRANCH  16  21
ENDBRANCH  12  15
ENDBRANCH   6  11
ENDBRANCH   3   5
ENDBRANCH   2   3
ENDBRANCH   1   2
BRANCH   1  34
ATOM     34  C   UNL A   1      33.537  34.795  29.113  1.00  0.00     0.202 C 
BRANCH  34  35
ATOM     35  O   UNL A   1      33.406  34.705  30.522  1.00  0.00    -0.374 OA
BRANCH  35  36
ATOM     36  C   UNL A   1      34.565  34.482  31.315  1.00  0.00     0.202 C 
BRANCH  36  37
ATOM     37  C   UNL A   1      34.685  35.125  32.708  1.00  0.00     0.261 C 
BRANCH  37  38
ATOM     38  O   UNL A   1      35.999  35.101  33.272  1.00  0.00    -0.460 OA
BRANCH  38  39
ATOM     39  C   UNL A   1      36.173  34.141  34.214  1.00  0.00     0.338 C 
ATOM     40  O   UNL A   1      35.405  33.823  35.107  1.00  0.00    -0.246 OA
BRANCH  39  41
ATOM     41  C   UNL A   1      37.378  33.360  33.883  1.00  0.00     0.060 A 
ATOM     42  C   UNL A   1      38.550  33.642  34.601  1.00  0.00     0.016 A 
ATOM     43  C   UNL A   1      37.367  32.388  32.881  1.00  0.00     0.016 A 
ATOM     44  C   UNL A   1      39.737  32.994  34.277  1.00  0.00     0.010 A 
ATOM     45  C   UNL A   1      38.564  31.760  32.535  1.00  0.00     0.010 A 
ATOM     46  C   UNL A   1      39.757  32.102  33.198  1.00  0.00    -0.014 A 
BRANCH  46  47
ATOM     47  C   UNL A   1      41.057  31.770  32.577  1.00  0.00     0.031 A 
ATOM     48  C   UNL A   1      41.605  32.738  31.565  1.00  0.00     0.074 A 
ATOM     49  C   UNL A   1      41.744  30.668  32.921  1.00  0.00     0.049 A 
ATOM     50  N   UNL A   1      42.692  32.661  30.845  1.00  0.00    -0.248 NA
ATOM     51  C   UNL A   1      40.815  33.962  31.337  1.00  0.00     0.031 C 
ATOM     52  C   UNL A   1      41.341  29.695  33.934  1.00  0.00     0.029 A 
ATOM     53  N   UNL A   1      42.932  30.185  32.438  1.00  0.00    -0.354 N 
ATOM     54  C   UNL A   1      42.710  33.818  30.074  1.00  0.00     0.074 A 
ATOM     55  C   UNL A   1      41.519  34.569  30.396  1.00  0.00     0.031 C 
ATOM     56  C   UNL A   1      42.266  28.719  33.988  1.00  0.00     0.029 A 
ATOM     57  C   UNL A   1      43.303  28.985  32.992  1.00  0.00     0.049 A 
ATOM     58  H   UNL A   1      43.470  30.654  31.760  1.00  0.00     0.167 HD
ATOM     59  C   UNL A   1      43.638  34.220  29.176  1.00  0.00     0.031 A 
ATOM     60  C   UNL A   1      44.347  28.187  32.703  1.00  0.00     0.031 A 
ATOM     61  C   UNL A   1      44.808  33.459  28.842  1.00  0.00     0.049 A 
ATOM     62  C   UNL A   1      45.320  28.612  31.634  1.00  0.00     0.074 A 
ATOM     63  C   UNL A   1      45.810  33.768  27.940  1.00  0.00     0.029 A 
ATOM     64  N   UNL A   1      45.123  32.227  29.394  1.00  0.00    -0.354 N 
ATOM     65  N   UNL A   1      45.335  29.711  30.917  1.00  0.00    -0.248 NA
ATOM     66  C   UNL A   1      46.424  27.687  31.338  1.00  0.00     0.031 C 
ATOM     67  C   UNL A   1      46.708  32.696  27.911  1.00  0.00     0.029 A 
ATOM     68  C   UNL A   1      46.294  31.749  28.834  1.00  0.00     0.049 A 
ATOM     69  H   UNL A   1      44.593  31.763  30.081  1.00  0.00     0.167 HD
ATOM     70  C   UNL A   1      46.459  29.622  30.105  1.00  0.00     0.074 A 
ATOM     71  C   UNL A   1      47.109  28.368  30.428  1.00  0.00     0.031 C 
ATOM     72  C   UNL A   1      46.918  30.497  29.177  1.00  0.00     0.031 A 
BRANCH  59  73
ATOM     73  C   UNL A   1      43.386  35.518  28.465  1.00  0.00    -0.014 A 
ATOM     74  C   UNL A   1      43.813  36.742  29.003  1.00  0.00     0.009 A 
ATOM     75  C   UNL A   1      42.706  35.515  27.237  1.00  0.00     0.009 A 
ATOM     76  C   UNL A   1      43.536  37.940  28.342  1.00  0.00     0.001 A 
ATOM     77  C   UNL A   1      42.454  36.712  26.565  1.00  0.00     0.001 A 
ATOM     78  C   UNL A   1      42.860  37.924  27.121  1.00  0.00     0.000 A 
ENDBRANCH  59  73
BRANCH  60  79
ATOM     79  C   UNL A   1      44.515  26.889  33.408  1.00  0.00    -0.014 A 
ATOM     80  C   UNL A   1      44.024  25.700  32.851  1.00  0.00     0.009 A 
ATOM     81  C   UNL A   1      45.153  26.839  34.659  1.00  0.00     0.009 A 
ATOM     82  C   UNL A   1      44.146  24.491  33.541  1.00  0.00     0.001 A 
ATOM     83  C   UNL A   1      45.298  25.625  35.334  1.00  0.00     0.001 A 
ATOM     84  C   UNL A   1      44.787  24.454  34.779  1.00  0.00     0.000 A 
ENDBRANCH  60  79
BRANCH  72  85
ATOM     85  C   UNL A   1      48.199  30.148  28.475  1.00  0.00    -0.014 A 
ATOM     86  C   UNL A   1      48.199  29.397  27.289  1.00  0.00     0.009 A 
ATOM     87  C   UNL A   1      49.418  30.626  28.981  1.00  0.00     0.009 A 
ATOM     88  C   UNL A   1      49.402  29.107  26.642  1.00  0.00     0.001 A 
ATOM     89  C   UNL A   1      50.614  30.358  28.316  1.00  0.00     0.001 A 
ATOM     90  C   UNL A   1      50.606  29.591  27.152  1.00  0.00     0.000 A 
ENDBRANCH  72  85
ENDBRANCH  46  47
ENDBRANCH  39  41
ENDBRANCH  38  39
ENDBRANCH  37  38
ENDBRANCH  36  37
ENDBRANCH  35  36
ENDBRANCH  34  35
ENDBRANCH   1  34
TORSDOF 20
ENDMDL
