MODEL 1
REMARK VINA RESULT:      -9.4      0.000      0.000
REMARK SMILES C[C@@](O)(CC1(C(=O)OCCOCCOC(=O)c2ccc(-c3c4nc(c(-c5ccccc5)c5ccc([nH]5)c(-c5ccccc5)c5nc(c(-c6ccccc6)c6ccc3[nH]6)C=C5)C=C4)cc2)CC1)c1ccccc1
REMARK SMILES IDX 10 1 9 2 8 3 6 4 7 5 5 6 65 7 66 8 4 9 2 10 1 11 3 12 67 14
REMARK SMILES IDX 68 15 72 16 69 17 71 18 70 19 11 20 12 21 13 22 14 23 15 24
REMARK SMILES IDX 16 25 17 26 18 27 64 28 19 29 63 30 20 31 21 32 22 33 57 34
REMARK SMILES IDX 23 35 62 36 56 37 58 38 24 39 61 40 55 41 54 42 25 44 47 45
REMARK SMILES IDX 32 46 46 47 33 48 36 49 45 50 59 51 34 52 35 53 44 55 60 56
REMARK SMILES IDX 37 57 26 58 27 59 31 60 28 61 30 62 29 63 48 64 49 65 53 66
REMARK SMILES IDX 50 67 52 68 51 69 38 70 39 71 43 72 40 73 42 74 41 75
REMARK H PARENT 3 13 58 43 36 54
REMARK Flexibility Score: inf
ROOT
ATOM      1  C   UNL A   1      38.016  23.405  26.150  1.00  0.00     0.202 C 
ENDROOT
BRANCH   1   2
ATOM      2  C   UNL A   1      36.670  23.395  25.413  1.00  0.00     0.261 C 
BRANCH   2   3
ATOM      3  O   UNL A   1      35.674  22.853  26.290  1.00  0.00    -0.463 OA
BRANCH   3   4
ATOM      4  C   UNL A   1      34.420  23.345  26.136  1.00  0.00     0.312 C 
ATOM      5  O   UNL A   1      34.103  24.333  25.493  1.00  0.00    -0.252 OA
BRANCH   4   6
ATOM      6  C   UNL A   1      33.391  22.405  26.719  1.00  0.00     0.071 C 
ATOM      7  C   UNL A   1      31.986  22.959  26.932  1.00  0.00     0.020 C 
ATOM      8  C   UNL A   1      32.863  22.739  28.120  1.00  0.00     0.020 C 
BRANCH   6   9
ATOM      9  C   UNL A   1      33.696  20.927  26.437  1.00  0.00     0.058 C 
BRANCH   9  10
ATOM     10  C   UNL A   1      33.562  20.329  25.019  1.00  0.00     0.088 C 
ATOM     11  C   UNL A   1      32.451  21.039  24.231  1.00  0.00     0.047 C 
BRANCH  10  12
ATOM     12  O   UNL A   1      34.782  20.708  24.333  1.00  0.00    -0.385 OA
ATOM     13  H   UNL A   1      35.470  20.909  24.985  1.00  0.00     0.211 HD
ENDBRANCH  10  12
BRANCH  10  14
ATOM     14  C   UNL A   1      33.550  18.801  24.989  1.00  0.00    -0.017 A 
ATOM     15  C   UNL A   1      34.525  18.111  24.240  1.00  0.00     0.007 A 
ATOM     16  C   UNL A   1      32.578  18.034  25.650  1.00  0.00     0.007 A 
ATOM     17  C   UNL A   1      34.559  16.716  24.194  1.00  0.00     0.000 A 
ATOM     18  C   UNL A   1      32.605  16.637  25.596  1.00  0.00     0.000 A 
ATOM     19  C   UNL A   1      33.601  15.978  24.877  1.00  0.00     0.000 A 
ENDBRANCH  10  14
ENDBRANCH   9  10
ENDBRANCH   6   9
ENDBRANCH   4   6
ENDBRANCH   3   4
ENDBRANCH   2   3
ENDBRANCH   1   2
BRANCH   1  20
ATOM     20  O   UNL A   1      38.692  22.145  26.216  1.00  0.00    -0.374 OA
BRANCH  20  21
ATOM     21  C   UNL A   1      38.274  21.130  25.303  1.00  0.00     0.202 C 
BRANCH  21  22
ATOM     22  C   UNL A   1      39.120  19.854  25.275  1.00  0.00     0.261 C 
BRANCH  22  23
ATOM     23  O   UNL A   1      40.031  19.794  26.385  1.00  0.00    -0.460 OA
BRANCH  23  24
ATOM     24  C   UNL A   1      41.338  19.870  26.041  1.00  0.00     0.338 C 
ATOM     25  O   UNL A   1      41.965  19.111  25.321  1.00  0.00    -0.246 OA
BRANCH  24  26
ATOM     26  C   UNL A   1      41.910  21.132  26.540  1.00  0.00     0.060 A 
ATOM     27  C   UNL A   1      41.878  21.347  27.923  1.00  0.00     0.016 A 
ATOM     28  C   UNL A   1      42.397  22.115  25.676  1.00  0.00     0.016 A 
ATOM     29  C   UNL A   1      42.291  22.568  28.447  1.00  0.00     0.010 A 
ATOM     30  C   UNL A   1      42.802  23.346  26.204  1.00  0.00     0.010 A 
ATOM     31  C   UNL A   1      42.718  23.587  27.587  1.00  0.00    -0.014 A 
BRANCH  31  32
ATOM     32  C   UNL A   1      42.932  24.948  28.129  1.00  0.00     0.031 A 
ATOM     33  C   UNL A   1      44.317  25.357  28.546  1.00  0.00     0.074 A 
ATOM     34  C   UNL A   1      41.913  25.818  28.224  1.00  0.00     0.049 A 
ATOM     35  N   UNL A   1      44.732  26.497  29.037  1.00  0.00    -0.248 NA
ATOM     36  C   UNL A   1      45.376  24.345  28.389  1.00  0.00     0.031 C 
ATOM     37  C   UNL A   1      40.532  25.550  27.825  1.00  0.00     0.029 A 
ATOM     38  N   UNL A   1      41.888  27.107  28.690  1.00  0.00    -0.354 N 
ATOM     39  C   UNL A   1      46.094  26.339  29.253  1.00  0.00     0.074 A 
ATOM     40  C   UNL A   1      46.433  24.987  28.864  1.00  0.00     0.031 C 
ATOM     41  C   UNL A   1      39.789  26.641  28.077  1.00  0.00     0.029 A 
ATOM     42  C   UNL A   1      40.637  27.672  28.673  1.00  0.00     0.049 A 
ATOM     43  H   UNL A   1      42.690  27.582  29.007  1.00  0.00     0.167 HD
ATOM     44  C   UNL A   1      46.986  27.239  29.729  1.00  0.00     0.031 A 
ATOM     45  C   UNL A   1      40.221  28.876  29.106  1.00  0.00     0.031 A 
ATOM     46  C   UNL A   1      46.650  28.578  30.129  1.00  0.00     0.049 A 
ATOM     47  C   UNL A   1      41.220  29.841  29.684  1.00  0.00     0.074 A 
ATOM     48  C   UNL A   1      47.489  29.576  30.595  1.00  0.00     0.029 A 
ATOM     49  N   UNL A   1      45.368  29.103  30.122  1.00  0.00    -0.354 N 
ATOM     50  N   UNL A   1      42.513  29.696  29.840  1.00  0.00    -0.248 NA
ATOM     51  C   UNL A   1      40.700  31.139  30.139  1.00  0.00     0.031 C 
ATOM     52  C   UNL A   1      46.704  30.688  30.919  1.00  0.00     0.029 A 
ATOM     53  C   UNL A   1      45.386  30.400  30.607  1.00  0.00     0.049 A 
ATOM     54  H   UNL A   1      44.563  28.625  29.817  1.00  0.00     0.167 HD
ATOM     55  C   UNL A   1      42.965  30.889  30.390  1.00  0.00     0.074 A 
ATOM     56  C   UNL A   1      41.810  31.752  30.529  1.00  0.00     0.031 C 
ATOM     57  C   UNL A   1      44.225  31.241  30.746  1.00  0.00     0.031 A 
BRANCH  44  58
ATOM     58  C   UNL A   1      48.409  26.782  29.879  1.00  0.00    -0.014 A 
ATOM     59  C   UNL A   1      49.352  26.989  28.860  1.00  0.00     0.009 A 
ATOM     60  C   UNL A   1      48.813  26.148  31.063  1.00  0.00     0.009 A 
ATOM     61  C   UNL A   1      50.665  26.537  29.012  1.00  0.00     0.001 A 
ATOM     62  C   UNL A   1      50.132  25.720  31.222  1.00  0.00     0.001 A 
ATOM     63  C   UNL A   1      51.054  25.906  30.193  1.00  0.00     0.000 A 
ENDBRANCH  44  58
BRANCH  45  64
ATOM     64  C   UNL A   1      38.781  29.230  29.028  1.00  0.00    -0.014 A 
ATOM     65  C   UNL A   1      38.227  29.731  27.841  1.00  0.00     0.009 A 
ATOM     66  C   UNL A   1      37.953  29.068  30.150  1.00  0.00     0.009 A 
ATOM     67  C   UNL A   1      36.875  30.079  27.786  1.00  0.00     0.001 A 
ATOM     68  C   UNL A   1      36.598  29.393  30.085  1.00  0.00     0.001 A 
ATOM     69  C   UNL A   1      36.060  29.905  28.905  1.00  0.00     0.000 A 
ENDBRANCH  45  64
BRANCH  57  70
ATOM     70  C   UNL A   1      44.423  32.622  31.300  1.00  0.00    -0.014 A 
ATOM     71  C   UNL A   1      44.691  33.712  30.458  1.00  0.00     0.009 A 
ATOM     72  C   UNL A   1      44.294  32.843  32.680  1.00  0.00     0.009 A 
ATOM     73  C   UNL A   1      44.855  34.992  30.990  1.00  0.00     0.001 A 
ATOM     74  C   UNL A   1      44.433  34.129  33.208  1.00  0.00     0.001 A 
ATOM     75  C   UNL A   1      44.721  35.200  32.363  1.00  0.00     0.000 A 
ENDBRANCH  57  70
ENDBRANCH  31  32
ENDBRANCH  24  26
ENDBRANCH  23  24
ENDBRANCH  22  23
ENDBRANCH  21  22
ENDBRANCH  20  21
ENDBRANCH   1  20
TORSDOF 18
ENDMDL
MODEL 2
REMARK VINA RESULT:      -9.4      1.675      7.003
REMARK SMILES C[C@@](O)(CC1(C(=O)OCCOCCOC(=O)c2ccc(-c3c4nc(c(-c5ccccc5)c5ccc([nH]5)c(-c5ccccc5)c5nc(c(-c6ccccc6)c6ccc3[nH]6)C=C5)C=C4)cc2)CC1)c1ccccc1
REMARK SMILES IDX 10 1 9 2 8 3 6 4 7 5 5 6 65 7 66 8 4 9 2 10 1 11 3 12 67 14
REMARK SMILES IDX 68 15 72 16 69 17 71 18 70 19 11 20 12 21 13 22 14 23 15 24
REMARK SMILES IDX 16 25 17 26 18 27 64 28 19 29 63 30 20 31 21 32 22 33 57 34
REMARK SMILES IDX 23 35 62 36 56 37 58 38 24 39 61 40 55 41 54 42 25 44 47 45
REMARK SMILES IDX 32 46 46 47 33 48 36 49 45 50 59 51 34 52 35 53 44 55 60 56
REMARK SMILES IDX 37 57 26 58 27 59 31 60 28 61 30 62 29 63 48 64 49 65 53 66
REMARK SMILES IDX 50 67 52 68 51 69 38 70 39 71 43 72 40 73 42 74 41 75
REMARK H PARENT 3 13 58 43 36 54
REMARK Flexibility Score: inf
ROOT
ATOM      1  C   UNL A   1      36.612  21.690  24.812  1.00  0.00     0.202 C 
ENDROOT
BRANCH   1   2
ATOM      2  C   UNL A   1      36.557  22.684  25.979  1.00  0.00     0.261 C 
BRANCH   2   3
ATOM      3  O   UNL A   1      35.265  23.306  25.988  1.00  0.00    -0.463 OA
BRANCH   3   4
ATOM      4  C   UNL A   1      34.230  22.513  26.361  1.00  0.00     0.312 C 
ATOM      5  O   UNL A   1      34.172  21.822  27.365  1.00  0.00    -0.252 OA
BRANCH   4   6
ATOM      6  C   UNL A   1      33.036  22.718  25.460  1.00  0.00     0.071 C 
ATOM      7  C   UNL A   1      31.955  21.642  25.483  1.00  0.00     0.020 C 
ATOM      8  C   UNL A   1      32.863  21.727  24.301  1.00  0.00     0.020 C 
BRANCH   6   9
ATOM      9  C   UNL A   1      32.767  24.196  25.141  1.00  0.00     0.058 C 
BRANCH   9  10
ATOM     10  C   UNL A   1      31.744  25.025  25.949  1.00  0.00     0.088 C 
ATOM     11  C   UNL A   1      30.355  24.959  25.298  1.00  0.00     0.047 C 
BRANCH  10  12
ATOM     12  O   UNL A   1      31.584  24.310  27.200  1.00  0.00    -0.385 OA
ATOM     13  H   UNL A   1      31.411  23.374  27.017  1.00  0.00     0.211 HD
ENDBRANCH  10  12
BRANCH  10  14
ATOM     14  C   UNL A   1      32.246  26.412  26.347  1.00  0.00    -0.017 A 
ATOM     15  C   UNL A   1      31.379  27.303  27.013  1.00  0.00     0.007 A 
ATOM     16  C   UNL A   1      33.538  26.870  26.045  1.00  0.00     0.007 A 
ATOM     17  C   UNL A   1      31.799  28.575  27.406  1.00  0.00     0.000 A 
ATOM     18  C   UNL A   1      33.956  28.148  26.429  1.00  0.00     0.000 A 
ATOM     19  C   UNL A   1      33.091  28.996  27.118  1.00  0.00     0.000 A 
ENDBRANCH  10  14
ENDBRANCH   9  10
ENDBRANCH   6   9
ENDBRANCH   4   6
ENDBRANCH   3   4
ENDBRANCH   2   3
ENDBRANCH   1   2
BRANCH   1  20
ATOM     20  O   UNL A   1      36.865  20.328  25.174  1.00  0.00    -0.374 OA
BRANCH  20  21
ATOM     21  C   UNL A   1      38.114  19.765  24.774  1.00  0.00     0.202 C 
BRANCH  21  22
ATOM     22  C   UNL A   1      39.195  19.677  25.855  1.00  0.00     0.261 C 
BRANCH  22  23
ATOM     23  O   UNL A   1      40.459  19.262  25.312  1.00  0.00    -0.460 OA
BRANCH  23  24
ATOM     24  C   UNL A   1      41.497  19.353  26.176  1.00  0.00     0.338 C 
ATOM     25  O   UNL A   1      42.316  18.493  26.450  1.00  0.00    -0.246 OA
BRANCH  24  26
ATOM     26  C   UNL A   1      41.622  20.740  26.657  1.00  0.00     0.060 A 
ATOM     27  C   UNL A   1      41.921  21.723  25.707  1.00  0.00     0.016 A 
ATOM     28  C   UNL A   1      41.524  21.063  28.013  1.00  0.00     0.016 A 
ATOM     29  C   UNL A   1      42.170  23.030  26.113  1.00  0.00     0.010 A 
ATOM     30  C   UNL A   1      41.785  22.375  28.421  1.00  0.00     0.010 A 
ATOM     31  C   UNL A   1      42.143  23.355  27.476  1.00  0.00    -0.014 A 
BRANCH  31  32
ATOM     32  C   UNL A   1      42.633  24.681  27.913  1.00  0.00     0.031 A 
ATOM     33  C   UNL A   1      41.636  25.769  28.198  1.00  0.00     0.074 A 
ATOM     34  C   UNL A   1      43.947  24.906  28.082  1.00  0.00     0.049 A 
ATOM     35  N   UNL A   1      41.843  26.997  28.598  1.00  0.00    -0.248 NA
ATOM     36  C   UNL A   1      40.217  25.426  28.005  1.00  0.00     0.031 C 
ATOM     37  C   UNL A   1      45.008  23.923  27.867  1.00  0.00     0.029 A 
ATOM     38  N   UNL A   1      44.609  26.042  28.472  1.00  0.00    -0.354 N 
ATOM     39  C   UNL A   1      40.584  27.576  28.699  1.00  0.00     0.074 A 
ATOM     40  C   UNL A   1      39.622  26.574  28.295  1.00  0.00     0.031 C 
ATOM     41  C   UNL A   1      46.194  24.505  28.116  1.00  0.00     0.029 A 
ATOM     42  C   UNL A   1      45.974  25.902  28.486  1.00  0.00     0.049 A 
ATOM     43  H   UNL A   1      44.149  26.876  28.719  1.00  0.00     0.167 HD
ATOM     44  C   UNL A   1      40.257  28.828  29.096  1.00  0.00     0.031 A 
ATOM     45  C   UNL A   1      46.937  26.804  28.750  1.00  0.00     0.031 A 
ATOM     46  C   UNL A   1      41.212  29.830  29.485  1.00  0.00     0.049 A 
ATOM     47  C   UNL A   1      46.553  28.207  29.135  1.00  0.00     0.074 A 
ATOM     48  C   UNL A   1      40.977  31.118  29.934  1.00  0.00     0.029 A 
ATOM     49  N   UNL A   1      42.587  29.658  29.460  1.00  0.00    -0.354 N 
ATOM     50  N   UNL A   1      45.358  28.727  29.272  1.00  0.00    -0.248 NA
ATOM     51  C   UNL A   1      47.654  29.143  29.409  1.00  0.00     0.031 C 
ATOM     52  C   UNL A   1      42.214  31.743  30.129  1.00  0.00     0.029 A 
ATOM     53  C   UNL A   1      43.215  30.827  29.853  1.00  0.00     0.049 A 
ATOM     54  H   UNL A   1      43.048  28.827  29.202  1.00  0.00     0.167 HD
ATOM     55  C   UNL A   1      45.561  30.044  29.668  1.00  0.00     0.074 A 
ATOM     56  C   UNL A   1      46.993  30.238  29.762  1.00  0.00     0.031 C 
ATOM     57  C   UNL A   1      44.643  31.006  29.932  1.00  0.00     0.031 A 
BRANCH  44  58
ATOM     58  C   UNL A   1      38.800  29.192  29.089  1.00  0.00    -0.014 A 
ATOM     59  C   UNL A   1      38.018  29.091  30.250  1.00  0.00     0.009 A 
ATOM     60  C   UNL A   1      38.207  29.654  27.905  1.00  0.00     0.009 A 
ATOM     61  C   UNL A   1      36.660  29.415  30.215  1.00  0.00     0.001 A 
ATOM     62  C   UNL A   1      36.855  30.001  27.879  1.00  0.00     0.001 A 
ATOM     63  C   UNL A   1      36.080  29.871  29.032  1.00  0.00     0.000 A 
ENDBRANCH  44  58
BRANCH  45  64
ATOM     64  C   UNL A   1      48.365  26.412  28.638  1.00  0.00    -0.014 A 
ATOM     65  C   UNL A   1      49.053  26.544  27.422  1.00  0.00     0.009 A 
ATOM     66  C   UNL A   1      49.047  25.901  29.753  1.00  0.00     0.009 A 
ATOM     67  C   UNL A   1      50.390  26.153  27.323  1.00  0.00     0.001 A 
ATOM     68  C   UNL A   1      50.390  25.535  29.658  1.00  0.00     0.001 A 
ATOM     69  C   UNL A   1      51.060  25.655  28.441  1.00  0.00     0.000 A 
ENDBRANCH  45  64
BRANCH  57  70
ATOM     70  C   UNL A   1      45.158  32.347  30.368  1.00  0.00    -0.014 A 
ATOM     71  C   UNL A   1      45.577  32.570  31.689  1.00  0.00     0.009 A 
ATOM     72  C   UNL A   1      45.268  33.388  29.433  1.00  0.00     0.009 A 
ATOM     73  C   UNL A   1      46.070  33.819  32.071  1.00  0.00     0.001 A 
ATOM     74  C   UNL A   1      45.785  34.628  29.812  1.00  0.00     0.001 A 
ATOM     75  C   UNL A   1      46.178  34.845  31.132  1.00  0.00     0.000 A 
ENDBRANCH  57  70
ENDBRANCH  31  32
ENDBRANCH  24  26
ENDBRANCH  23  24
ENDBRANCH  22  23
ENDBRANCH  21  22
ENDBRANCH  20  21
ENDBRANCH   1  20
TORSDOF 18
ENDMDL
MODEL 3
REMARK VINA RESULT:      -9.2      3.654      5.354
REMARK SMILES C[C@@](O)(CC1(C(=O)OCCOCCOC(=O)c2ccc(-c3c4nc(c(-c5ccccc5)c5ccc([nH]5)c(-c5ccccc5)c5nc(c(-c6ccccc6)c6ccc3[nH]6)C=C5)C=C4)cc2)CC1)c1ccccc1
REMARK SMILES IDX 10 1 9 2 8 3 6 4 7 5 5 6 65 7 66 8 4 9 2 10 1 11 3 12 67 14
REMARK SMILES IDX 68 15 72 16 69 17 71 18 70 19 11 20 12 21 13 22 14 23 15 24
REMARK SMILES IDX 16 25 17 26 18 27 64 28 19 29 63 30 20 31 21 32 22 33 57 34
REMARK SMILES IDX 23 35 62 36 56 37 58 38 24 39 61 40 55 41 54 42 25 44 47 45
REMARK SMILES IDX 32 46 46 47 33 48 36 49 45 50 59 51 34 52 35 53 44 55 60 56
REMARK SMILES IDX 37 57 26 58 27 59 31 60 28 61 30 62 29 63 48 64 49 65 53 66
REMARK SMILES IDX 50 67 52 68 51 69 38 70 39 71 43 72 40 73 42 74 41 75
REMARK H PARENT 3 13 58 43 36 54
REMARK Flexibility Score: inf
ROOT
ATOM      1  C   UNL A   1      34.987  23.206  24.670  1.00  0.00     0.202 C 
ENDROOT
BRANCH   1   2
ATOM      2  C   UNL A   1      33.619  23.407  25.337  1.00  0.00     0.261 C 
BRANCH   2   3
ATOM      3  O   UNL A   1      33.049  24.628  24.847  1.00  0.00    -0.463 OA
BRANCH   3   4
ATOM      4  C   UNL A   1      31.858  24.510  24.209  1.00  0.00     0.312 C 
ATOM      5  O   UNL A   1      31.536  23.623  23.435  1.00  0.00    -0.252 OA
BRANCH   4   6
ATOM      6  C   UNL A   1      30.868  25.533  24.713  1.00  0.00     0.071 C 
ATOM      7  C   UNL A   1      31.121  26.124  26.096  1.00  0.00     0.020 C 
ATOM      8  C   UNL A   1      30.015  25.136  25.925  1.00  0.00     0.020 C 
BRANCH   6   9
ATOM      9  C   UNL A   1      30.143  26.279  23.582  1.00  0.00     0.058 C 
BRANCH   9  10
ATOM     10  C   UNL A   1      30.619  27.663  23.090  1.00  0.00     0.088 C 
ATOM     11  C   UNL A   1      32.000  28.002  23.670  1.00  0.00     0.047 C 
BRANCH  10  12
ATOM     12  O   UNL A   1      30.862  27.496  21.671  1.00  0.00    -0.385 OA
ATOM     13  H   UNL A   1      30.101  27.829  21.171  1.00  0.00     0.211 HD
ENDBRANCH  10  12
BRANCH  10  14
ATOM     14  C   UNL A   1      29.553  28.754  23.184  1.00  0.00    -0.017 A 
ATOM     15  C   UNL A   1      29.930  30.070  23.527  1.00  0.00     0.007 A 
ATOM     16  C   UNL A   1      28.187  28.505  22.980  1.00  0.00     0.007 A 
ATOM     17  C   UNL A   1      28.992  31.100  23.613  1.00  0.00     0.000 A 
ATOM     18  C   UNL A   1      27.246  29.534  23.076  1.00  0.00     0.000 A 
ATOM     19  C   UNL A   1      27.649  30.832  23.382  1.00  0.00     0.000 A 
ENDBRANCH  10  14
ENDBRANCH   9  10
ENDBRANCH   6   9
ENDBRANCH   4   6
ENDBRANCH   3   4
ENDBRANCH   2   3
ENDBRANCH   1   2
BRANCH   1  20
ATOM     20  O   UNL A   1      35.930  22.432  25.421  1.00  0.00    -0.374 OA
BRANCH  20  21
ATOM     21  C   UNL A   1      35.927  21.019  25.215  1.00  0.00     0.202 C 
BRANCH  21  22
ATOM     22  C   UNL A   1      37.289  20.322  25.288  1.00  0.00     0.261 C 
BRANCH  22  23
ATOM     23  O   UNL A   1      38.373  21.257  25.171  1.00  0.00    -0.460 OA
BRANCH  23  24
ATOM     24  C   UNL A   1      39.396  21.038  26.031  1.00  0.00     0.338 C 
ATOM     25  O   UNL A   1      40.006  19.999  26.215  1.00  0.00    -0.246 OA
BRANCH  24  26
ATOM     26  C   UNL A   1      39.812  22.313  26.642  1.00  0.00     0.060 A 
ATOM     27  C   UNL A   1      39.151  23.472  26.218  1.00  0.00     0.016 A 
ATOM     28  C   UNL A   1      40.870  22.386  27.551  1.00  0.00     0.016 A 
ATOM     29  C   UNL A   1      39.577  24.718  26.666  1.00  0.00     0.010 A 
ATOM     30  C   UNL A   1      41.304  23.640  27.992  1.00  0.00     0.010 A 
ATOM     31  C   UNL A   1      40.680  24.812  27.524  1.00  0.00    -0.014 A 
BRANCH  31  32
ATOM     32  C   UNL A   1      41.265  26.141  27.807  1.00  0.00     0.031 A 
ATOM     33  C   UNL A   1      42.597  26.496  27.206  1.00  0.00     0.074 A 
ATOM     34  C   UNL A   1      40.606  27.034  28.565  1.00  0.00     0.049 A 
ATOM     35  N   UNL A   1      43.286  27.602  27.315  1.00  0.00    -0.248 NA
ATOM     36  C   UNL A   1      43.236  25.464  26.373  1.00  0.00     0.031 C 
ATOM     37  C   UNL A   1      39.297  26.820  29.178  1.00  0.00     0.029 A 
ATOM     38  N   UNL A   1      40.959  28.303  28.950  1.00  0.00    -0.354 N 
ATOM     39  C   UNL A   1      44.441  27.399  26.571  1.00  0.00     0.074 A 
ATOM     40  C   UNL A   1      44.372  26.056  26.036  1.00  0.00     0.031 C 
ATOM     41  C   UNL A   1      38.960  27.919  29.876  1.00  0.00     0.029 A 
ATOM     42  C   UNL A   1      40.039  28.900  29.774  1.00  0.00     0.049 A 
ATOM     43  H   UNL A   1      41.791  28.742  28.661  1.00  0.00     0.167 HD
ATOM     44  C   UNL A   1      45.467  28.254  26.349  1.00  0.00     0.031 A 
ATOM     45  C   UNL A   1      40.072  30.096  30.391  1.00  0.00     0.031 A 
ATOM     46  C   UNL A   1      45.545  29.583  26.890  1.00  0.00     0.049 A 
ATOM     47  C   UNL A   1      41.248  31.009  30.175  1.00  0.00     0.074 A 
ATOM     48  C   UNL A   1      46.529  30.538  26.696  1.00  0.00     0.029 A 
ATOM     49  N   UNL A   1      44.606  30.142  27.743  1.00  0.00    -0.354 N 
ATOM     50  N   UNL A   1      42.312  30.823  29.432  1.00  0.00    -0.248 NA
ATOM     51  C   UNL A   1      41.223  32.299  30.879  1.00  0.00     0.031 C 
ATOM     52  C   UNL A   1      46.210  31.656  27.476  1.00  0.00     0.029 A 
ATOM     53  C   UNL A   1      45.003  31.416  28.111  1.00  0.00     0.049 A 
ATOM     54  H   UNL A   1      43.779  29.699  28.041  1.00  0.00     0.167 HD
ATOM     55  C   UNL A   1      43.072  31.979  29.561  1.00  0.00     0.074 A 
ATOM     56  C   UNL A   1      42.341  32.865  30.443  1.00  0.00     0.031 C 
ATOM     57  C   UNL A   1      44.267  32.281  28.998  1.00  0.00     0.031 A 
BRANCH  44  58
ATOM     58  C   UNL A   1      46.608  27.753  25.511  1.00  0.00    -0.014 A 
ATOM     59  C   UNL A   1      46.670  28.013  24.133  1.00  0.00     0.009 A 
ATOM     60  C   UNL A   1      47.644  27.023  26.114  1.00  0.00     0.009 A 
ATOM     61  C   UNL A   1      47.731  27.520  23.369  1.00  0.00     0.001 A 
ATOM     62  C   UNL A   1      48.715  26.553  25.353  1.00  0.00     0.001 A 
ATOM     63  C   UNL A   1      48.752  26.793  23.980  1.00  0.00     0.000 A 
ENDBRANCH  44  58
BRANCH  45  64
ATOM     64  C   UNL A   1      38.960  30.491  31.293  1.00  0.00    -0.014 A 
ATOM     65  C   UNL A   1      39.107  30.425  32.686  1.00  0.00     0.009 A 
ATOM     66  C   UNL A   1      37.741  30.936  30.757  1.00  0.00     0.009 A 
ATOM     67  C   UNL A   1      38.048  30.781  33.524  1.00  0.00     0.001 A 
ATOM     68  C   UNL A   1      36.693  31.315  31.597  1.00  0.00     0.001 A 
ATOM     69  C   UNL A   1      36.844  31.231  32.980  1.00  0.00     0.000 A 
ENDBRANCH  45  64
BRANCH  57  70
ATOM     70  C   UNL A   1      44.849  33.632  29.301  1.00  0.00    -0.014 A 
ATOM     71  C   UNL A   1      45.732  33.818  30.375  1.00  0.00     0.009 A 
ATOM     72  C   UNL A   1      44.543  34.722  28.472  1.00  0.00     0.009 A 
ATOM     73  C   UNL A   1      46.276  35.078  30.630  1.00  0.00     0.001 A 
ATOM     74  C   UNL A   1      45.109  35.976  28.714  1.00  0.00     0.001 A 
ATOM     75  C   UNL A   1      45.968  36.155  29.798  1.00  0.00     0.000 A 
ENDBRANCH  57  70
ENDBRANCH  31  32
ENDBRANCH  24  26
ENDBRANCH  23  24
ENDBRANCH  22  23
ENDBRANCH  21  22
ENDBRANCH  20  21
ENDBRANCH   1  20
TORSDOF 18
ENDMDL
