MODEL 1
REMARK VINA RESULT:     -12.0      0.000      0.000
REMARK SMILES COC(=O)c1c(NC(=O)[C@@H]2C[C@@H]2C(=O)OCCOCCOC(=O)c2ccc(-c3c4nc(c(-c5ccccc5)c5ccc([nH]5)c(-c5ccccc5)c5nc(c(-c6ccccc6)c6ccc3[nH]6)C=C5)C=C4)cc2)sc2c1CC[N@@H+](Cc1ccccc1)C2
REMARK SMILES IDX 17 1 16 2 15 3 13 4 14 5 12 6 10 7 11 8 8 9 7 10 9 12 6 13
REMARK SMILES IDX 5 14 74 15 72 16 73 17 75 18 85 19 76 20 77 21 3 23 4 24
REMARK SMILES IDX 2 25 1 26 78 27 79 28 80 29 84 30 81 31 83 32 82 33 18 34
REMARK SMILES IDX 19 35 20 36 21 37 22 38 23 39 24 40 25 41 71 42 26 43 70 44
REMARK SMILES IDX 27 45 28 46 29 47 64 48 30 49 69 50 63 51 65 52 31 53 68 54
REMARK SMILES IDX 62 55 61 56 32 58 54 59 39 60 53 61 40 62 43 63 52 64 66 65
REMARK SMILES IDX 41 66 42 67 51 69 67 70 44 71 33 72 34 73 38 74 35 75 37 76
REMARK SMILES IDX 36 77 55 78 56 79 60 80 57 81 59 82 58 83 45 84 46 85 50 86
REMARK SMILES IDX 47 87 49 88 48 89
REMARK H PARENT 7 11 77 22 65 57 43 68
REMARK Flexibility Score: inf
ROOT
ATOM      1  C   UNL A   1      40.344  20.864  26.881  1.00  0.00     0.202 C 
ENDROOT
BRANCH   1   2
ATOM      2  C   UNL A   1      39.455  21.478  25.791  1.00  0.00     0.261 C 
BRANCH   2   3
ATOM      3  O   UNL A   1      38.574  22.529  26.244  1.00  0.00    -0.463 OA
BRANCH   3   4
ATOM      4  C   UNL A   1      37.446  22.648  25.489  1.00  0.00     0.309 C 
ATOM      5  O   UNL A   1      37.268  22.127  24.398  1.00  0.00    -0.252 OA
BRANCH   4   6
ATOM      6  C   UNL A   1      36.340  23.439  26.075  1.00  0.00     0.112 C 
ATOM      7  C   UNL A   1      34.846  23.272  26.053  1.00  0.00     0.094 C 
ATOM      8  C   UNL A   1      35.497  24.276  25.144  1.00  0.00     0.030 C 
BRANCH   7   9
ATOM      9  C   UNL A   1      34.141  22.107  25.536  1.00  0.00     0.229 C 
ATOM     10  N   UNL A   1      32.960  22.234  24.870  1.00  0.00    -0.317 N 
ATOM     11  H   UNL A   1      32.542  21.365  24.671  1.00  0.00     0.170 HD
ATOM     12  O   UNL A   1      34.689  21.011  25.617  1.00  0.00    -0.274 OA
BRANCH  10  13
ATOM     13  C   UNL A   1      32.220  23.292  24.410  1.00  0.00     0.110 A 
ATOM     14  C   UNL A   1      31.277  24.217  24.828  1.00  0.00     0.098 A 
ATOM     15  C   UNL A   1      31.039  25.191  23.779  1.00  0.00    -0.006 A 
ATOM     16  S   UNL A   1      32.682  23.529  22.765  1.00  0.00    -0.116 S 
ATOM     17  C   UNL A   1      31.854  24.994  22.685  1.00  0.00     0.065 A 
ATOM     18  C   UNL A   1      30.209  26.440  23.894  1.00  0.00     0.099 C 
ATOM     19  C   UNL A   1      32.072  25.991  21.590  1.00  0.00     0.310 C 
ATOM     20  C   UNL A   1      30.439  27.408  22.705  1.00  0.00     0.267 C 
ATOM     21  N   UNL A   1      31.755  27.357  22.041  1.00  0.00    -0.326 N 
ATOM     22  H   UNL A   1      31.661  27.924  21.198  1.00  0.00     0.348 HD
BRANCH  14  23
ATOM     23  C   UNL A   1      30.629  24.354  26.124  1.00  0.00     0.341 C 
ATOM     24  O   UNL A   1      30.175  25.418  26.524  1.00  0.00    -0.246 OA
BRANCH  23  25
ATOM     25  O   UNL A   1      30.665  23.212  26.864  1.00  0.00    -0.465 OA
ATOM     26  C   UNL A   1      29.403  22.699  27.314  1.00  0.00     0.282 C 
ENDBRANCH  23  25
ENDBRANCH  14  23
BRANCH  21  27
ATOM     27  C   UNL A   1      32.850  28.074  22.720  1.00  0.00     0.299 C 
BRANCH  27  28
ATOM     28  C   UNL A   1      32.792  28.241  24.226  1.00  0.00     0.006 A 
ATOM     29  C   UNL A   1      32.087  29.310  24.799  1.00  0.00     0.009 A 
ATOM     30  C   UNL A   1      33.416  27.321  25.083  1.00  0.00     0.009 A 
ATOM     31  C   UNL A   1      31.936  29.404  26.186  1.00  0.00     0.001 A 
ATOM     32  C   UNL A   1      33.246  27.401  26.467  1.00  0.00     0.001 A 
ATOM     33  C   UNL A   1      32.498  28.438  27.016  1.00  0.00     0.000 A 
ENDBRANCH  27  28
ENDBRANCH  21  27
ENDBRANCH  10  13
ENDBRANCH   7   9
ENDBRANCH   4   6
ENDBRANCH   3   4
ENDBRANCH   2   3
ENDBRANCH   1   2
BRANCH   1  34
ATOM     34  O   UNL A   1      41.164  19.741  26.568  1.00  0.00    -0.374 OA
BRANCH  34  35
ATOM     35  C   UNL A   1      42.500  19.952  26.133  1.00  0.00     0.202 C 
BRANCH  35  36
ATOM     36  C   UNL A   1      43.262  18.777  25.540  1.00  0.00     0.261 C 
BRANCH  36  37
ATOM     37  O   UNL A   1      44.583  19.126  25.163  1.00  0.00    -0.460 OA
BRANCH  37  38
ATOM     38  C   UNL A   1      44.666  19.861  24.030  1.00  0.00     0.338 C 
ATOM     39  O   UNL A   1      44.579  19.471  22.885  1.00  0.00    -0.246 OA
BRANCH  38  40
ATOM     40  C   UNL A   1      45.024  21.236  24.402  1.00  0.00     0.060 A 
ATOM     41  C   UNL A   1      45.818  21.407  25.528  1.00  0.00     0.016 A 
ATOM     42  C   UNL A   1      44.339  22.308  23.818  1.00  0.00     0.016 A 
ATOM     43  C   UNL A   1      45.706  22.600  26.206  1.00  0.00     0.010 A 
ATOM     44  C   UNL A   1      44.279  23.519  24.449  1.00  0.00     0.010 A 
ATOM     45  C   UNL A   1      44.852  23.593  25.704  1.00  0.00    -0.014 A 
BRANCH  45  46
ATOM     46  C   UNL A   1      44.616  24.771  26.502  1.00  0.00     0.031 A 
ATOM     47  C   UNL A   1      45.738  25.715  26.389  1.00  0.00     0.074 A 
ATOM     48  C   UNL A   1      43.479  24.983  27.190  1.00  0.00     0.049 A 
ATOM     49  N   UNL A   1      46.697  25.875  27.236  1.00  0.00    -0.248 NA
ATOM     50  C   UNL A   1      45.969  26.347  25.078  1.00  0.00     0.031 C 
ATOM     51  C   UNL A   1      42.215  24.241  27.131  1.00  0.00     0.029 A 
ATOM     52  N   UNL A   1      43.191  25.991  28.052  1.00  0.00    -0.354 N 
ATOM     53  C   UNL A   1      47.525  26.828  26.664  1.00  0.00     0.074 A 
ATOM     54  C   UNL A   1      47.177  26.877  25.269  1.00  0.00     0.031 C 
ATOM     55  C   UNL A   1      41.240  24.965  27.735  1.00  0.00     0.029 A 
ATOM     56  C   UNL A   1      41.843  26.135  28.352  1.00  0.00     0.049 A 
ATOM     57  H   UNL A   1      43.884  26.576  28.435  1.00  0.00     0.167 HD
ATOM     58  C   UNL A   1      48.150  27.742  27.455  1.00  0.00     0.031 A 
ATOM     59  C   UNL A   1      41.277  27.175  29.017  1.00  0.00     0.031 A 
ATOM     60  C   UNL A   1      48.162  27.312  28.835  1.00  0.00     0.049 A 
ATOM     61  C   UNL A   1      42.361  27.871  29.748  1.00  0.00     0.074 A 
ATOM     62  C   UNL A   1      48.681  26.238  29.529  1.00  0.00     0.029 A 
ATOM     63  N   UNL A   1      47.186  27.854  29.637  1.00  0.00    -0.354 N 
ATOM     64  N   UNL A   1      43.000  27.342  30.751  1.00  0.00    -0.248 NA
ATOM     65  C   UNL A   1      43.053  28.957  29.071  1.00  0.00     0.031 C 
ATOM     66  C   UNL A   1      47.717  25.940  30.539  1.00  0.00     0.029 A 
ATOM     67  C   UNL A   1      46.690  26.884  30.464  1.00  0.00     0.049 A 
ATOM     68  H   UNL A   1      46.890  28.793  29.620  1.00  0.00     0.167 HD
ATOM     69  C   UNL A   1      44.326  27.700  30.554  1.00  0.00     0.074 A 
ATOM     70  C   UNL A   1      44.280  28.781  29.569  1.00  0.00     0.031 C 
ATOM     71  C   UNL A   1      45.339  26.890  30.986  1.00  0.00     0.031 A 
BRANCH  58  72
ATOM     72  C   UNL A   1      48.217  29.208  27.080  1.00  0.00    -0.014 A 
ATOM     73  C   UNL A   1      49.438  29.877  27.265  1.00  0.00     0.009 A 
ATOM     74  C   UNL A   1      47.085  30.020  26.861  1.00  0.00     0.009 A 
ATOM     75  C   UNL A   1      49.498  31.273  27.347  1.00  0.00     0.001 A 
ATOM     76  C   UNL A   1      47.147  31.413  26.904  1.00  0.00     0.001 A 
ATOM     77  C   UNL A   1      48.349  32.040  27.183  1.00  0.00     0.000 A 
ENDBRANCH  58  72
BRANCH  59  78
ATOM     78  C   UNL A   1      39.952  27.803  28.811  1.00  0.00    -0.014 A 
ATOM     79  C   UNL A   1      39.017  27.885  29.857  1.00  0.00     0.009 A 
ATOM     80  C   UNL A   1      39.718  28.587  27.666  1.00  0.00     0.009 A 
ATOM     81  C   UNL A   1      37.907  28.740  29.770  1.00  0.00     0.001 A 
ATOM     82  C   UNL A   1      38.614  29.443  27.580  1.00  0.00     0.001 A 
ATOM     83  C   UNL A   1      37.715  29.528  28.638  1.00  0.00     0.000 A 
ENDBRANCH  59  78
BRANCH  71  84
ATOM     84  C   UNL A   1      44.984  25.773  31.938  1.00  0.00    -0.014 A 
ATOM     85  C   UNL A   1      44.526  24.508  31.528  1.00  0.00     0.009 A 
ATOM     86  C   UNL A   1      45.258  25.972  33.299  1.00  0.00     0.009 A 
ATOM     87  C   UNL A   1      44.326  23.484  32.462  1.00  0.00     0.001 A 
ATOM     88  C   UNL A   1      45.079  24.945  34.227  1.00  0.00     0.001 A 
ATOM     89  C   UNL A   1      44.608  23.703  33.810  1.00  0.00     0.000 A 
ENDBRANCH  71  84
ENDBRANCH  45  46
ENDBRANCH  38  40
ENDBRANCH  37  38
ENDBRANCH  36  37
ENDBRANCH  35  36
ENDBRANCH  34  35
ENDBRANCH   1  34
TORSDOF 20
ENDMDL
MODEL 2
REMARK VINA RESULT:     -11.8      1.621      2.352
REMARK SMILES COC(=O)c1c(NC(=O)[C@@H]2C[C@@H]2C(=O)OCCOCCOC(=O)c2ccc(-c3c4nc(c(-c5ccccc5)c5ccc([nH]5)c(-c5ccccc5)c5nc(c(-c6ccccc6)c6ccc3[nH]6)C=C5)C=C4)cc2)sc2c1CC[N@@H+](Cc1ccccc1)C2
REMARK SMILES IDX 17 1 16 2 15 3 13 4 14 5 12 6 10 7 11 8 8 9 7 10 9 12 6 13
REMARK SMILES IDX 5 14 74 15 72 16 73 17 75 18 85 19 76 20 77 21 3 23 4 24
REMARK SMILES IDX 2 25 1 26 78 27 79 28 80 29 84 30 81 31 83 32 82 33 18 34
REMARK SMILES IDX 19 35 20 36 21 37 22 38 23 39 24 40 25 41 71 42 26 43 70 44
REMARK SMILES IDX 27 45 28 46 29 47 64 48 30 49 69 50 63 51 65 52 31 53 68 54
REMARK SMILES IDX 62 55 61 56 32 58 54 59 39 60 53 61 40 62 43 63 52 64 66 65
REMARK SMILES IDX 41 66 42 67 51 69 67 70 44 71 33 72 34 73 38 74 35 75 37 76
REMARK SMILES IDX 36 77 55 78 56 79 60 80 57 81 59 82 58 83 45 84 46 85 50 86
REMARK SMILES IDX 47 87 49 88 48 89
REMARK H PARENT 7 11 77 22 65 57 43 68
REMARK Flexibility Score: inf
ROOT
ATOM      1  C   UNL A   1      40.150  21.352  26.514  1.00  0.00     0.202 C 
ENDROOT
BRANCH   1   2
ATOM      2  C   UNL A   1      39.116  22.424  26.144  1.00  0.00     0.261 C 
BRANCH   2   3
ATOM      3  O   UNL A   1      38.108  21.996  25.201  1.00  0.00    -0.463 OA
BRANCH   3   4
ATOM      4  C   UNL A   1      36.976  22.754  25.244  1.00  0.00     0.309 C 
ATOM      5  O   UNL A   1      36.904  23.890  25.687  1.00  0.00    -0.252 OA
BRANCH   4   6
ATOM      6  C   UNL A   1      35.756  22.150  24.662  1.00  0.00     0.112 C 
ATOM      7  C   UNL A   1      34.338  22.046  25.153  1.00  0.00     0.094 C 
ATOM      8  C   UNL A   1      35.253  20.857  25.256  1.00  0.00     0.030 C 
BRANCH   7   9
ATOM      9  C   UNL A   1      33.809  22.716  26.332  1.00  0.00     0.229 C 
ATOM     10  N   UNL A   1      33.500  24.042  26.312  1.00  0.00    -0.317 N 
ATOM     11  H   UNL A   1      33.256  24.387  27.202  1.00  0.00     0.170 HD
ATOM     12  O   UNL A   1      33.541  22.035  27.318  1.00  0.00    -0.274 OA
BRANCH  10  13
ATOM     13  C   UNL A   1      33.450  25.008  25.341  1.00  0.00     0.110 A 
ATOM     14  C   UNL A   1      33.215  25.168  23.985  1.00  0.00     0.098 A 
ATOM     15  C   UNL A   1      33.183  26.580  23.653  1.00  0.00    -0.006 A 
ATOM     16  S   UNL A   1      33.753  26.509  26.134  1.00  0.00    -0.116 S 
ATOM     17  C   UNL A   1      33.315  27.385  24.763  1.00  0.00     0.065 A 
ATOM     18  C   UNL A   1      32.802  27.175  22.324  1.00  0.00     0.099 C 
ATOM     19  C   UNL A   1      33.015  28.851  24.799  1.00  0.00     0.310 C 
ATOM     20  C   UNL A   1      32.555  28.702  22.414  1.00  0.00     0.267 C 
ATOM     21  N   UNL A   1      32.098  29.235  23.712  1.00  0.00    -0.326 N 
ATOM     22  H   UNL A   1      32.156  30.250  23.631  1.00  0.00     0.348 HD
BRANCH  14  23
ATOM     23  C   UNL A   1      32.931  24.164  22.971  1.00  0.00     0.341 C 
ATOM     24  O   UNL A   1      33.556  24.094  21.920  1.00  0.00    -0.246 OA
BRANCH  23  25
ATOM     25  O   UNL A   1      31.858  23.384  23.275  1.00  0.00    -0.465 OA
ATOM     26  C   UNL A   1      30.577  24.031  23.282  1.00  0.00     0.282 C 
ENDBRANCH  23  25
ENDBRANCH  14  23
BRANCH  21  27
ATOM     27  C   UNL A   1      30.661  29.077  24.005  1.00  0.00     0.299 C 
BRANCH  27  28
ATOM     28  C   UNL A   1      29.670  30.003  23.328  1.00  0.00     0.006 A 
ATOM     29  C   UNL A   1      29.364  31.253  23.886  1.00  0.00     0.009 A 
ATOM     30  C   UNL A   1      29.056  29.648  22.117  1.00  0.00     0.009 A 
ATOM     31  C   UNL A   1      28.540  32.155  23.208  1.00  0.00     0.001 A 
ATOM     32  C   UNL A   1      28.250  30.558  21.427  1.00  0.00     0.001 A 
ATOM     33  C   UNL A   1      28.000  31.814  21.970  1.00  0.00     0.000 A 
ENDBRANCH  27  28
ENDBRANCH  21  27
ENDBRANCH  10  13
ENDBRANCH   7   9
ENDBRANCH   4   6
ENDBRANCH   3   4
ENDBRANCH   2   3
ENDBRANCH   1   2
BRANCH   1  34
ATOM     34  O   UNL A   1      40.141  20.102  25.829  1.00  0.00    -0.374 OA
BRANCH  34  35
ATOM     35  C   UNL A   1      41.086  19.103  26.186  1.00  0.00     0.202 C 
BRANCH  35  36
ATOM     36  C   UNL A   1      42.565  19.449  26.116  1.00  0.00     0.261 C 
BRANCH  36  37
ATOM     37  O   UNL A   1      43.040  19.517  24.782  1.00  0.00    -0.460 OA
BRANCH  37  38
ATOM     38  C   UNL A   1      44.372  19.729  24.672  1.00  0.00     0.338 C 
ATOM     39  O   UNL A   1      45.248  18.899  24.551  1.00  0.00    -0.246 OA
BRANCH  38  40
ATOM     40  C   UNL A   1      44.624  21.162  24.865  1.00  0.00     0.060 A 
ATOM     41  C   UNL A   1      45.632  21.522  25.751  1.00  0.00     0.016 A 
ATOM     42  C   UNL A   1      43.686  22.094  24.406  1.00  0.00     0.016 A 
ATOM     43  C   UNL A   1      45.527  22.749  26.366  1.00  0.00     0.010 A 
ATOM     44  C   UNL A   1      43.618  23.342  24.961  1.00  0.00     0.010 A 
ATOM     45  C   UNL A   1      44.456  23.591  26.031  1.00  0.00    -0.014 A 
BRANCH  45  46
ATOM     46  C   UNL A   1      44.262  24.800  26.793  1.00  0.00     0.031 A 
ATOM     47  C   UNL A   1      45.395  25.720  26.614  1.00  0.00     0.074 A 
ATOM     48  C   UNL A   1      43.149  25.055  27.505  1.00  0.00     0.049 A 
ATOM     49  N   UNL A   1      46.381  25.893  27.428  1.00  0.00    -0.248 NA
ATOM     50  C   UNL A   1      45.598  26.301  25.276  1.00  0.00     0.031 C 
ATOM     51  C   UNL A   1      41.872  24.333  27.509  1.00  0.00     0.029 A 
ATOM     52  N   UNL A   1      42.902  26.098  28.338  1.00  0.00    -0.354 N 
ATOM     53  C   UNL A   1      47.207  26.811  26.799  1.00  0.00     0.074 A 
ATOM     54  C   UNL A   1      46.819  26.817  25.413  1.00  0.00     0.031 C 
ATOM     55  C   UNL A   1      40.927  25.094  28.114  1.00  0.00     0.029 A 
ATOM     56  C   UNL A   1      41.566  26.275  28.672  1.00  0.00     0.049 A 
ATOM     57  H   UNL A   1      43.616  26.683  28.681  1.00  0.00     0.167 HD
ATOM     58  C   UNL A   1      47.869  27.741  27.538  1.00  0.00     0.031 A 
ATOM     59  C   UNL A   1      41.037  27.347  29.315  1.00  0.00     0.031 A 
ATOM     60  C   UNL A   1      47.915  27.360  28.932  1.00  0.00     0.049 A 
ATOM     61  C   UNL A   1      42.153  28.049  29.990  1.00  0.00     0.074 A 
ATOM     62  C   UNL A   1      48.436  26.302  29.648  1.00  0.00     0.029 A 
ATOM     63  N   UNL A   1      46.971  27.946  29.742  1.00  0.00    -0.354 N 
ATOM     64  N   UNL A   1      42.812  27.545  30.992  1.00  0.00    -0.248 NA
ATOM     65  C   UNL A   1      42.842  29.099  29.255  1.00  0.00     0.031 C 
ATOM     66  C   UNL A   1      47.497  26.057  30.695  1.00  0.00     0.029 A 
ATOM     67  C   UNL A   1      46.484  27.015  30.616  1.00  0.00     0.049 A 
ATOM     68  H   UNL A   1      46.691  28.889  29.699  1.00  0.00     0.167 HD
ATOM     69  C   UNL A   1      44.138  27.873  30.745  1.00  0.00     0.074 A 
ATOM     70  C   UNL A   1      44.080  28.920  29.723  1.00  0.00     0.031 C 
ATOM     71  C   UNL A   1      45.149  27.061  31.176  1.00  0.00     0.031 A 
BRANCH  58  72
ATOM     72  C   UNL A   1      47.948  29.192  27.109  1.00  0.00    -0.014 A 
ATOM     73  C   UNL A   1      49.210  29.811  27.119  1.00  0.00     0.009 A 
ATOM     74  C   UNL A   1      46.832  30.048  27.006  1.00  0.00     0.009 A 
ATOM     75  C   UNL A   1      49.337  31.204  27.147  1.00  0.00     0.001 A 
ATOM     76  C   UNL A   1      46.957  31.438  26.995  1.00  0.00     0.001 A 
ATOM     77  C   UNL A   1      48.209  32.017  27.101  1.00  0.00     0.000 A 
ENDBRANCH  58  72
BRANCH  59  78
ATOM     78  C   UNL A   1      39.716  27.990  29.125  1.00  0.00    -0.014 A 
ATOM     79  C   UNL A   1      38.840  28.181  30.206  1.00  0.00     0.009 A 
ATOM     80  C   UNL A   1      39.440  28.683  27.932  1.00  0.00     0.009 A 
ATOM     81  C   UNL A   1      37.746  29.054  30.105  1.00  0.00     0.001 A 
ATOM     82  C   UNL A   1      38.351  29.557  27.832  1.00  0.00     0.001 A 
ATOM     83  C   UNL A   1      37.511  29.752  28.922  1.00  0.00     0.000 A 
ENDBRANCH  59  78
BRANCH  71  84
ATOM     84  C   UNL A   1      44.805  25.985  32.177  1.00  0.00    -0.014 A 
ATOM     85  C   UNL A   1      44.509  26.238  33.529  1.00  0.00     0.009 A 
ATOM     86  C   UNL A   1      44.641  24.679  31.693  1.00  0.00     0.009 A 
ATOM     87  C   UNL A   1      44.086  25.202  34.372  1.00  0.00     0.001 A 
ATOM     88  C   UNL A   1      44.200  23.652  32.528  1.00  0.00     0.001 A 
ATOM     89  C   UNL A   1      43.927  23.912  33.868  1.00  0.00     0.000 A 
ENDBRANCH  71  84
ENDBRANCH  45  46
ENDBRANCH  38  40
ENDBRANCH  37  38
ENDBRANCH  36  37
ENDBRANCH  35  36
ENDBRANCH  34  35
ENDBRANCH   1  34
TORSDOF 20
ENDMDL
MODEL 3
REMARK VINA RESULT:     -11.4      4.994     10.285
REMARK SMILES COC(=O)c1c(NC(=O)[C@@H]2C[C@@H]2C(=O)OCCOCCOC(=O)c2ccc(-c3c4nc(c(-c5ccccc5)c5ccc([nH]5)c(-c5ccccc5)c5nc(c(-c6ccccc6)c6ccc3[nH]6)C=C5)C=C4)cc2)sc2c1CC[N@@H+](Cc1ccccc1)C2
REMARK SMILES IDX 17 1 16 2 15 3 13 4 14 5 12 6 10 7 11 8 8 9 7 10 9 12 6 13
REMARK SMILES IDX 5 14 74 15 72 16 73 17 75 18 85 19 76 20 77 21 3 23 4 24
REMARK SMILES IDX 2 25 1 26 78 27 79 28 80 29 84 30 81 31 83 32 82 33 18 34
REMARK SMILES IDX 19 35 20 36 21 37 22 38 23 39 24 40 25 41 71 42 26 43 70 44
REMARK SMILES IDX 27 45 28 46 29 47 64 48 30 49 69 50 63 51 65 52 31 53 68 54
REMARK SMILES IDX 62 55 61 56 32 58 54 59 39 60 53 61 40 62 43 63 52 64 66 65
REMARK SMILES IDX 41 66 42 67 51 69 67 70 44 71 33 72 34 73 38 74 35 75 37 76
REMARK SMILES IDX 36 77 55 78 56 79 60 80 57 81 59 82 58 83 45 84 46 85 50 86
REMARK SMILES IDX 47 87 49 88 48 89
REMARK H PARENT 7 11 77 22 65 57 43 68
REMARK Flexibility Score: inf
ROOT
ATOM      1  C   UNL A   1      35.046  32.577  27.977  1.00  0.00     0.202 C 
ENDROOT
BRANCH   1   2
ATOM      2  C   UNL A   1      33.769  31.726  27.931  1.00  0.00     0.261 C 
BRANCH   2   3
ATOM      3  O   UNL A   1      33.550  31.026  26.686  1.00  0.00    -0.463 OA
BRANCH   3   4
ATOM      4  C   UNL A   1      33.294  29.699  26.854  1.00  0.00     0.309 C 
ATOM      5  O   UNL A   1      32.527  29.226  27.679  1.00  0.00    -0.252 OA
BRANCH   4   6
ATOM      6  C   UNL A   1      33.977  28.773  25.921  1.00  0.00     0.112 C 
ATOM      7  C   UNL A   1      33.511  28.036  24.695  1.00  0.00     0.094 C 
ATOM      8  C   UNL A   1      33.634  27.305  26.003  1.00  0.00     0.030 C 
BRANCH   7   9
ATOM      9  C   UNL A   1      32.226  28.231  24.039  1.00  0.00     0.229 C 
ATOM     10  N   UNL A   1      31.497  27.175  23.585  1.00  0.00    -0.317 N 
ATOM     11  H   UNL A   1      30.706  27.454  23.069  1.00  0.00     0.170 HD
ATOM     12  O   UNL A   1      31.758  29.366  24.000  1.00  0.00    -0.274 OA
BRANCH  10  13
ATOM     13  C   UNL A   1      31.609  25.812  23.680  1.00  0.00     0.110 A 
ATOM     14  C   UNL A   1      32.358  24.751  23.198  1.00  0.00     0.098 A 
ATOM     15  C   UNL A   1      31.988  23.530  23.889  1.00  0.00    -0.006 A 
ATOM     16  S   UNL A   1      30.419  25.306  24.821  1.00  0.00    -0.116 S 
ATOM     17  C   UNL A   1      31.058  23.749  24.882  1.00  0.00     0.065 A 
ATOM     18  C   UNL A   1      32.672  22.196  23.770  1.00  0.00     0.099 C 
ATOM     19  C   UNL A   1      30.711  22.771  25.961  1.00  0.00     0.310 C 
ATOM     20  C   UNL A   1      32.233  21.210  24.883  1.00  0.00     0.267 C 
ATOM     21  N   UNL A   1      31.794  21.794  26.164  1.00  0.00    -0.326 N 
ATOM     22  H   UNL A   1      31.390  21.023  26.696  1.00  0.00     0.348 HD
BRANCH  14  23
ATOM     23  C   UNL A   1      33.442  24.750  22.227  1.00  0.00     0.341 C 
ATOM     24  O   UNL A   1      34.383  23.971  22.291  1.00  0.00    -0.246 OA
BRANCH  23  25
ATOM     25  O   UNL A   1      33.341  25.752  21.311  1.00  0.00    -0.465 OA
ATOM     26  C   UNL A   1      32.571  25.470  20.134  1.00  0.00     0.282 C 
ENDBRANCH  23  25
ENDBRANCH  14  23
BRANCH  21  27
ATOM     27  C   UNL A   1      32.868  22.214  27.085  1.00  0.00     0.299 C 
BRANCH  27  28
ATOM     28  C   UNL A   1      34.244  22.502  26.520  1.00  0.00     0.006 A 
ATOM     29  C   UNL A   1      35.157  21.460  26.294  1.00  0.00     0.009 A 
ATOM     30  C   UNL A   1      34.632  23.809  26.184  1.00  0.00     0.009 A 
ATOM     31  C   UNL A   1      36.382  21.707  25.670  1.00  0.00     0.001 A 
ATOM     32  C   UNL A   1      35.847  24.053  25.538  1.00  0.00     0.001 A 
ATOM     33  C   UNL A   1      36.717  23.000  25.274  1.00  0.00     0.000 A 
ENDBRANCH  27  28
ENDBRANCH  21  27
ENDBRANCH  10  13
ENDBRANCH   7   9
ENDBRANCH   4   6
ENDBRANCH   3   4
ENDBRANCH   2   3
ENDBRANCH   1   2
BRANCH   1  34
ATOM     34  O   UNL A   1      34.954  33.963  28.297  1.00  0.00    -0.374 OA
BRANCH  34  35
ATOM     35  C   UNL A   1      33.699  34.621  28.195  1.00  0.00     0.202 C 
BRANCH  35  36
ATOM     36  C   UNL A   1      33.221  35.454  29.374  1.00  0.00     0.261 C 
BRANCH  36  37
ATOM     37  O   UNL A   1      32.987  34.666  30.530  1.00  0.00    -0.460 OA
BRANCH  37  38
ATOM     38  C   UNL A   1      33.353  35.255  31.691  1.00  0.00     0.338 C 
ATOM     39  O   UNL A   1      32.943  36.297  32.157  1.00  0.00    -0.246 OA
BRANCH  38  40
ATOM     40  C   UNL A   1      34.463  34.483  32.265  1.00  0.00     0.060 A 
ATOM     41  C   UNL A   1      35.586  35.188  32.680  1.00  0.00     0.016 A 
ATOM     42  C   UNL A   1      34.489  33.093  32.107  1.00  0.00     0.016 A 
ATOM     43  C   UNL A   1      36.789  34.520  32.680  1.00  0.00     0.010 A 
ATOM     44  C   UNL A   1      35.670  32.408  32.174  1.00  0.00     0.010 A 
ATOM     45  C   UNL A   1      36.817  33.164  32.322  1.00  0.00    -0.014 A 
BRANCH  45  46
ATOM     46  C   UNL A   1      38.096  32.515  32.166  1.00  0.00     0.031 A 
ATOM     47  C   UNL A   1      38.858  32.552  33.424  1.00  0.00     0.074 A 
ATOM     48  C   UNL A   1      38.483  31.904  31.032  1.00  0.00     0.049 A 
ATOM     49  N   UNL A   1      39.808  33.370  33.724  1.00  0.00    -0.248 NA
ATOM     50  C   UNL A   1      38.329  31.784  34.565  1.00  0.00     0.031 C 
ATOM     51  C   UNL A   1      37.687  31.578  29.844  1.00  0.00     0.029 A 
ATOM     52  N   UNL A   1      39.692  31.361  30.737  1.00  0.00    -0.354 N 
ATOM     53  C   UNL A   1      40.167  33.042  35.022  1.00  0.00     0.074 A 
ATOM     54  C   UNL A   1      39.078  32.267  35.556  1.00  0.00     0.031 C 
ATOM     55  C   UNL A   1      38.369  30.693  29.075  1.00  0.00     0.029 A 
ATOM     56  C   UNL A   1      39.699  30.517  29.635  1.00  0.00     0.049 A 
ATOM     57  H   UNL A   1      40.501  31.551  31.265  1.00  0.00     0.167 HD
ATOM     58  C   UNL A   1      41.471  33.117  35.402  1.00  0.00     0.031 A 
ATOM     59  C   UNL A   1      40.717  29.702  29.257  1.00  0.00     0.031 A 
ATOM     60  C   UNL A   1      42.234  33.929  34.481  1.00  0.00     0.049 A 
ATOM     61  C   UNL A   1      41.945  30.195  29.923  1.00  0.00     0.074 A 
ATOM     62  C   UNL A   1      42.197  35.242  34.060  1.00  0.00     0.029 A 
ATOM     63  N   UNL A   1      42.949  33.240  33.531  1.00  0.00    -0.354 N 
ATOM     64  N   UNL A   1      42.507  31.333  29.633  1.00  0.00    -0.248 NA
ATOM     65  C   UNL A   1      42.277  29.651  31.230  1.00  0.00     0.031 C 
ATOM     66  C   UNL A   1      42.544  35.205  32.676  1.00  0.00     0.029 A 
ATOM     67  C   UNL A   1      42.845  33.886  32.330  1.00  0.00     0.049 A 
ATOM     68  H   UNL A   1      43.457  32.411  33.689  1.00  0.00     0.167 HD
ATOM     69  C   UNL A   1      42.886  31.863  30.858  1.00  0.00     0.074 A 
ATOM     70  C   UNL A   1      42.818  30.737  31.790  1.00  0.00     0.031 C 
ATOM     71  C   UNL A   1      42.931  33.216  31.049  1.00  0.00     0.031 A 
BRANCH  58  72
ATOM     72  C   UNL A   1      42.124  32.030  36.231  1.00  0.00    -0.014 A 
ATOM     73  C   UNL A   1      42.973  32.426  37.279  1.00  0.00     0.009 A 
ATOM     74  C   UNL A   1      42.197  30.677  35.843  1.00  0.00     0.009 A 
ATOM     75  C   UNL A   1      43.921  31.549  37.818  1.00  0.00     0.001 A 
ATOM     76  C   UNL A   1      43.115  29.788  36.405  1.00  0.00     0.001 A 
ATOM     77  C   UNL A   1      44.002  30.235  37.370  1.00  0.00     0.000 A 
ENDBRANCH  58  72
BRANCH  59  78
ATOM     78  C   UNL A   1      40.655  28.357  28.640  1.00  0.00    -0.014 A 
ATOM     79  C   UNL A   1      39.939  27.312  29.247  1.00  0.00     0.009 A 
ATOM     80  C   UNL A   1      41.057  28.181  27.304  1.00  0.00     0.009 A 
ATOM     81  C   UNL A   1      39.613  26.149  28.533  1.00  0.00     0.001 A 
ATOM     82  C   UNL A   1      40.730  27.022  26.590  1.00  0.00     0.001 A 
ATOM     83  C   UNL A   1      39.997  26.010  27.202  1.00  0.00     0.000 A 
ENDBRANCH  59  78
BRANCH  71  84
ATOM     84  C   UNL A   1      42.861  34.098  29.826  1.00  0.00    -0.014 A 
ATOM     85  C   UNL A   1      41.674  34.677  29.343  1.00  0.00     0.009 A 
ATOM     86  C   UNL A   1      44.073  34.464  29.222  1.00  0.00     0.009 A 
ATOM     87  C   UNL A   1      41.703  35.577  28.270  1.00  0.00     0.001 A 
ATOM     88  C   UNL A   1      44.105  35.377  28.168  1.00  0.00     0.001 A 
ATOM     89  C   UNL A   1      42.920  35.929  27.687  1.00  0.00     0.000 A 
ENDBRANCH  71  84
ENDBRANCH  45  46
ENDBRANCH  38  40
ENDBRANCH  37  38
ENDBRANCH  36  37
ENDBRANCH  35  36
ENDBRANCH  34  35
ENDBRANCH   1  34
TORSDOF 20
ENDMDL
