MODEL 1
REMARK VINA RESULT:     -10.5      0.000      0.000
REMARK SMILES COc1ccc(/C=C/c2nc(C(=O)OCCOCCOC(=O)c3ccc(-c4c5nc(c(-c6ccccc6)c6ccc([nH]6)c(-c6ccccc6)c6nc(c(-c7ccccc7)c7ccc4[nH]7)C=C6)C=C5)cc3)ccc2C#N)cc1F
REMARK SMILES IDX 16 1 15 2 14 3 12 4 13 5 11 6 9 7 10 8 73 9 72 10 71 11 8 12
REMARK SMILES IDX 7 13 6 14 3 15 4 16 77 17 5 18 76 19 78 20 2 21 1 22 74 23
REMARK SMILES IDX 75 24 17 25 18 26 19 27 20 28 21 29 22 30 23 31 24 32 70 33
REMARK SMILES IDX 25 34 69 35 26 36 27 37 28 38 63 39 29 40 68 41 62 42 64 43
REMARK SMILES IDX 30 44 67 45 61 46 60 47 31 49 53 50 38 51 52 52 39 53 42 54
REMARK SMILES IDX 51 55 65 56 40 57 41 58 50 60 66 61 43 62 32 63 33 64 37 65
REMARK SMILES IDX 34 66 36 67 35 68 54 69 55 70 59 71 56 72 58 73 57 74 44 75
REMARK SMILES IDX 45 76 49 77 46 78 48 79 47 80
REMARK H PARENT 64 48 42 59
REMARK Flexibility Score: inf
ROOT
ATOM      1  C   UNL A   1      42.021  20.941  26.627  1.00  0.00     0.202 C 
ENDROOT
BRANCH   1   2
ATOM      2  C   UNL A   1      40.820  21.656  27.250  1.00  0.00     0.261 C 
BRANCH   2   3
ATOM      3  O   UNL A   1      39.612  21.435  26.508  1.00  0.00    -0.459 OA
BRANCH   3   4
ATOM      4  C   UNL A   1      38.940  22.570  26.178  1.00  0.00     0.357 C 
ATOM      5  O   UNL A   1      39.391  23.704  26.197  1.00  0.00    -0.244 OA
BRANCH   4   6
ATOM      6  C   UNL A   1      37.594  22.218  25.635  1.00  0.00     0.149 A 
ATOM      7  C   UNL A   1      35.580  23.051  24.822  1.00  0.00     0.082 A 
ATOM      8  N   UNL A   1      36.830  23.283  25.278  1.00  0.00    -0.240 NA
ATOM      9  C   UNL A   1      35.061  21.765  24.676  1.00  0.00     0.078 A 
ATOM     10  C   UNL A   1      35.882  20.678  25.001  1.00  0.00     0.024 A 
ATOM     11  C   UNL A   1      37.171  20.903  25.487  1.00  0.00     0.037 A 
BRANCH   7  12
ATOM     12  C   UNL A   1      34.840  24.283  24.537  1.00  0.00     0.030 C 
ATOM     13  C   UNL A   1      34.221  24.948  25.524  1.00  0.00     0.010 C 
BRANCH  13  14
ATOM     14  C   UNL A   1      33.494  26.221  25.422  1.00  0.00    -0.022 A 
ATOM     15  C   UNL A   1      32.045  28.637  25.420  1.00  0.00     0.154 A 
ATOM     16  C   UNL A   1      32.977  28.377  24.416  1.00  0.00     0.050 A 
ATOM     17  C   UNL A   1      31.805  27.669  26.391  1.00  0.00     0.165 A 
ATOM     18  C   UNL A   1      33.706  27.179  24.423  1.00  0.00     0.012 A 
ATOM     19  C   UNL A   1      32.522  26.477  26.399  1.00  0.00     0.051 A 
ATOM     20  F   UNL A   1      30.869  27.847  27.334  1.00  0.00    -0.203 F 
BRANCH  15  21
ATOM     21  O   UNL A   1      31.381  29.832  25.344  1.00  0.00    -0.494 OA
ATOM     22  C   UNL A   1      31.804  30.759  26.346  1.00  0.00     0.278 C 
ENDBRANCH  15  21
ENDBRANCH  13  14
ENDBRANCH   7  12
BRANCH   9  23
ATOM     23  C   UNL A   1      33.719  21.531  24.232  1.00  0.00     0.101 C 
ATOM     24  N   UNL A   1      32.627  21.325  23.908  1.00  0.00    -0.192 NA
ENDBRANCH   9  23
ENDBRANCH   4   6
ENDBRANCH   3   4
ENDBRANCH   2   3
ENDBRANCH   1   2
BRANCH   1  25
ATOM     25  O   UNL A   1      42.575  21.448  25.417  1.00  0.00    -0.374 OA
BRANCH  25  26
ATOM     26  C   UNL A   1      43.967  21.279  25.169  1.00  0.00     0.202 C 
BRANCH  26  27
ATOM     27  C   UNL A   1      44.722  22.352  24.369  1.00  0.00     0.261 C 
BRANCH  27  28
ATOM     28  O   UNL A   1      44.077  23.636  24.354  1.00  0.00    -0.460 OA
BRANCH  28  29
ATOM     29  C   UNL A   1      44.778  24.607  24.992  1.00  0.00     0.338 C 
ATOM     30  O   UNL A   1      45.908  24.991  24.740  1.00  0.00    -0.246 OA
BRANCH  29  31
ATOM     31  C   UNL A   1      43.920  25.308  25.963  1.00  0.00     0.060 A 
ATOM     32  C   UNL A   1      44.180  26.667  26.181  1.00  0.00     0.016 A 
ATOM     33  C   UNL A   1      42.957  24.637  26.717  1.00  0.00     0.016 A 
ATOM     34  C   UNL A   1      43.514  27.346  27.195  1.00  0.00     0.010 A 
ATOM     35  C   UNL A   1      42.288  25.325  27.736  1.00  0.00     0.010 A 
ATOM     36  C   UNL A   1      42.589  26.672  28.006  1.00  0.00    -0.014 A 
BRANCH  36  37
ATOM     37  C   UNL A   1      42.018  27.380  29.179  1.00  0.00     0.031 A 
ATOM     38  C   UNL A   1      42.720  27.328  30.509  1.00  0.00     0.074 A 
ATOM     39  C   UNL A   1      40.911  28.131  29.033  1.00  0.00     0.049 A 
ATOM     40  N   UNL A   1      42.423  27.943  31.626  1.00  0.00    -0.248 NA
ATOM     41  C   UNL A   1      43.911  26.468  30.594  1.00  0.00     0.031 C 
ATOM     42  C   UNL A   1      40.157  28.288  27.790  1.00  0.00     0.029 A 
ATOM     43  N   UNL A   1      40.243  28.920  29.935  1.00  0.00    -0.354 N 
ATOM     44  C   UNL A   1      43.384  27.545  32.547  1.00  0.00     0.074 A 
ATOM     45  C   UNL A   1      44.247  26.599  31.869  1.00  0.00     0.031 C 
ATOM     46  C   UNL A   1      39.145  29.144  28.000  1.00  0.00     0.029 A 
ATOM     47  C   UNL A   1      39.155  29.563  29.398  1.00  0.00     0.049 A 
ATOM     48  H   UNL A   1      40.519  29.016  30.875  1.00  0.00     0.167 HD
ATOM     49  C   UNL A   1      43.542  27.935  33.835  1.00  0.00     0.031 A 
ATOM     50  C   UNL A   1      38.261  30.390  29.971  1.00  0.00     0.031 A 
ATOM     51  C   UNL A   1      42.668  28.858  34.516  1.00  0.00     0.049 A 
ATOM     52  C   UNL A   1      38.417  30.751  31.423  1.00  0.00     0.074 A 
ATOM     53  C   UNL A   1      42.756  29.331  35.815  1.00  0.00     0.029 A 
ATOM     54  N   UNL A   1      41.538  29.436  33.959  1.00  0.00    -0.354 N 
ATOM     55  N   UNL A   1      39.355  30.399  32.269  1.00  0.00    -0.248 NA
ATOM     56  C   UNL A   1      37.395  31.641  31.989  1.00  0.00     0.031 C 
ATOM     57  C   UNL A   1      41.635  30.132  36.066  1.00  0.00     0.029 A 
ATOM     58  C   UNL A   1      40.897  30.230  34.899  1.00  0.00     0.049 A 
ATOM     59  H   UNL A   1      41.234  29.303  33.032  1.00  0.00     0.167 HD
ATOM     60  C   UNL A   1      39.051  31.046  33.461  1.00  0.00     0.074 A 
ATOM     61  C   UNL A   1      37.862  31.836  33.214  1.00  0.00     0.031 C 
ATOM     62  C   UNL A   1      39.698  30.992  34.653  1.00  0.00     0.031 A 
BRANCH  49  63
ATOM     63  C   UNL A   1      44.684  27.327  34.610  1.00  0.00    -0.014 A 
ATOM     64  C   UNL A   1      45.951  27.933  34.655  1.00  0.00     0.009 A 
ATOM     65  C   UNL A   1      44.480  26.141  35.334  1.00  0.00     0.009 A 
ATOM     66  C   UNL A   1      46.996  27.341  35.368  1.00  0.00     0.001 A 
ATOM     67  C   UNL A   1      45.515  25.571  36.077  1.00  0.00     0.001 A 
ATOM     68  C   UNL A   1      46.776  26.164  36.083  1.00  0.00     0.000 A 
ENDBRANCH  49  63
BRANCH  50  69
ATOM     69  C   UNL A   1      37.130  30.931  29.170  1.00  0.00    -0.014 A 
ATOM     70  C   UNL A   1      36.089  30.096  28.736  1.00  0.00     0.009 A 
ATOM     71  C   UNL A   1      37.095  32.293  28.825  1.00  0.00     0.009 A 
ATOM     72  C   UNL A   1      35.054  30.606  27.950  1.00  0.00     0.001 A 
ATOM     73  C   UNL A   1      36.039  32.807  28.070  1.00  0.00     0.001 A 
ATOM     74  C   UNL A   1      35.026  31.962  27.623  1.00  0.00     0.000 A 
ENDBRANCH  50  69
BRANCH  62  75
ATOM     75  C   UNL A   1      39.141  31.839  35.770  1.00  0.00    -0.014 A 
ATOM     76  C   UNL A   1      39.558  33.166  35.968  1.00  0.00     0.009 A 
ATOM     77  C   UNL A   1      38.191  31.293  36.648  1.00  0.00     0.009 A 
ATOM     78  C   UNL A   1      39.090  33.901  37.061  1.00  0.00     0.001 A 
ATOM     79  C   UNL A   1      37.693  32.044  37.714  1.00  0.00     0.001 A 
ATOM     80  C   UNL A   1      38.158  33.339  37.931  1.00  0.00     0.000 A 
ENDBRANCH  62  75
ENDBRANCH  36  37
ENDBRANCH  29  31
ENDBRANCH  28  29
ENDBRANCH  27  28
ENDBRANCH  26  27
ENDBRANCH  25  26
ENDBRANCH   1  25
TORSDOF 18
ENDMDL
MODEL 2
REMARK VINA RESULT:     -10.1      3.512      8.802
REMARK SMILES COc1ccc(/C=C/c2nc(C(=O)OCCOCCOC(=O)c3ccc(-c4c5nc(c(-c6ccccc6)c6ccc([nH]6)c(-c6ccccc6)c6nc(c(-c7ccccc7)c7ccc4[nH]7)C=C6)C=C5)cc3)ccc2C#N)cc1F
REMARK SMILES IDX 16 1 15 2 14 3 12 4 13 5 11 6 9 7 10 8 73 9 72 10 71 11 8 12
REMARK SMILES IDX 7 13 6 14 3 15 4 16 77 17 5 18 76 19 78 20 2 21 1 22 74 23
REMARK SMILES IDX 75 24 17 25 18 26 19 27 20 28 21 29 22 30 23 31 24 32 70 33
REMARK SMILES IDX 25 34 69 35 26 36 27 37 28 38 63 39 29 40 68 41 62 42 64 43
REMARK SMILES IDX 30 44 67 45 61 46 60 47 31 49 53 50 38 51 52 52 39 53 42 54
REMARK SMILES IDX 51 55 65 56 40 57 41 58 50 60 66 61 43 62 32 63 33 64 37 65
REMARK SMILES IDX 34 66 36 67 35 68 54 69 55 70 59 71 56 72 58 73 57 74 44 75
REMARK SMILES IDX 45 76 49 77 46 78 48 79 47 80
REMARK H PARENT 64 48 42 59
REMARK Flexibility Score: inf
ROOT
ATOM      1  C   UNL A   1      31.500  28.573  22.919  1.00  0.00     0.202 C 
ENDROOT
BRANCH   1   2
ATOM      2  C   UNL A   1      30.621  27.496  22.278  1.00  0.00     0.261 C 
BRANCH   2   3
ATOM      3  O   UNL A   1      31.225  26.197  22.334  1.00  0.00    -0.459 OA
BRANCH   3   4
ATOM      4  C   UNL A   1      31.049  25.546  23.515  1.00  0.00     0.357 C 
ATOM      5  O   UNL A   1      29.979  25.237  24.013  1.00  0.00    -0.244 OA
BRANCH   4   6
ATOM      6  C   UNL A   1      32.374  25.121  24.058  1.00  0.00     0.149 A 
ATOM      7  C   UNL A   1      33.807  23.324  24.420  1.00  0.00     0.082 A 
ATOM      8  N   UNL A   1      32.648  23.798  23.913  1.00  0.00    -0.240 NA
ATOM      9  C   UNL A   1      34.740  24.144  25.054  1.00  0.00     0.078 A 
ATOM     10  C   UNL A   1      34.461  25.514  25.149  1.00  0.00     0.024 A 
ATOM     11  C   UNL A   1      33.262  26.015  24.643  1.00  0.00     0.037 A 
BRANCH   7  12
ATOM     12  C   UNL A   1      33.949  21.876  24.257  1.00  0.00     0.030 C 
ATOM     13  C   UNL A   1      33.277  21.032  25.057  1.00  0.00     0.010 C 
BRANCH  13  14
ATOM     14  C   UNL A   1      33.259  19.565  24.989  1.00  0.00    -0.022 A 
ATOM     15  C   UNL A   1      33.342  16.763  24.697  1.00  0.00     0.154 A 
ATOM     16  C   UNL A   1      32.915  17.331  25.896  1.00  0.00     0.050 A 
ATOM     17  C   UNL A   1      33.677  17.596  23.632  1.00  0.00     0.165 A 
ATOM     18  C   UNL A   1      32.885  18.725  26.046  1.00  0.00     0.012 A 
ATOM     19  C   UNL A   1      33.643  18.980  23.775  1.00  0.00     0.051 A 
ATOM     20  F   UNL A   1      34.026  17.095  22.439  1.00  0.00    -0.203 F 
BRANCH  15  21
ATOM     21  O   UNL A   1      33.350  15.396  24.635  1.00  0.00    -0.494 OA
ATOM     22  C   UNL A   1      32.318  14.805  25.424  1.00  0.00     0.278 C 
ENDBRANCH  15  21
ENDBRANCH  13  14
ENDBRANCH   7  12
BRANCH   9  23
ATOM     23  C   UNL A   1      35.946  23.625  25.627  1.00  0.00     0.101 C 
ATOM     24  N   UNL A   1      36.902  23.201  26.124  1.00  0.00    -0.192 NA
ENDBRANCH   9  23
ENDBRANCH   4   6
ENDBRANCH   3   4
ENDBRANCH   2   3
ENDBRANCH   1   2
BRANCH   1  25
ATOM     25  O   UNL A   1      31.066  29.191  24.126  1.00  0.00    -0.374 OA
BRANCH  25  26
ATOM     26  C   UNL A   1      32.039  29.632  25.067  1.00  0.00     0.202 C 
BRANCH  26  27
ATOM     27  C   UNL A   1      31.675  30.755  26.051  1.00  0.00     0.261 C 
BRANCH  27  28
ATOM     28  O   UNL A   1      32.461  30.761  27.254  1.00  0.00    -0.460 OA
BRANCH  28  29
ATOM     29  C   UNL A   1      33.268  31.846  27.373  1.00  0.00     0.338 C 
ATOM     30  O   UNL A   1      32.944  33.020  27.311  1.00  0.00    -0.246 OA
BRANCH  29  31
ATOM     31  C   UNL A   1      34.623  31.437  27.785  1.00  0.00     0.060 A 
ATOM     32  C   UNL A   1      34.831  30.074  28.033  1.00  0.00     0.016 A 
ATOM     33  C   UNL A   1      35.634  32.367  28.026  1.00  0.00     0.016 A 
ATOM     34  C   UNL A   1      36.036  29.644  28.576  1.00  0.00     0.010 A 
ATOM     35  C   UNL A   1      36.847  31.930  28.572  1.00  0.00     0.010 A 
ATOM     36  C   UNL A   1      37.041  30.572  28.884  1.00  0.00    -0.014 A 
BRANCH  36  37
ATOM     37  C   UNL A   1      38.248  30.103  29.610  1.00  0.00     0.031 A 
ATOM     38  C   UNL A   1      38.440  30.451  31.062  1.00  0.00     0.074 A 
ATOM     39  C   UNL A   1      39.134  29.304  28.988  1.00  0.00     0.049 A 
ATOM     40  N   UNL A   1      39.383  30.070  31.886  1.00  0.00    -0.248 NA
ATOM     41  C   UNL A   1      37.440  31.347  31.664  1.00  0.00     0.031 C 
ATOM     42  C   UNL A   1      39.045  28.871  27.594  1.00  0.00     0.029 A 
ATOM     43  N   UNL A   1      40.271  28.697  29.459  1.00  0.00    -0.354 N 
ATOM     44  C   UNL A   1      39.095  30.681  33.101  1.00  0.00     0.074 A 
ATOM     45  C   UNL A   1      37.915  31.492  32.892  1.00  0.00     0.031 C 
ATOM     46  C   UNL A   1      40.069  28.044  27.329  1.00  0.00     0.029 A 
ATOM     47  C   UNL A   1      40.907  27.924  28.519  1.00  0.00     0.049 A 
ATOM     48  H   UNL A   1      40.599  28.806  30.381  1.00  0.00     0.167 HD
ATOM     49  C   UNL A   1      39.747  30.569  34.284  1.00  0.00     0.031 A 
ATOM     50  C   UNL A   1      42.041  27.205  28.604  1.00  0.00     0.031 A 
ATOM     51  C   UNL A   1      40.937  29.779  34.484  1.00  0.00     0.049 A 
ATOM     52  C   UNL A   1      42.785  27.156  29.910  1.00  0.00     0.074 A 
ATOM     53  C   UNL A   1      41.659  29.587  35.650  1.00  0.00     0.029 A 
ATOM     54  N   UNL A   1      41.588  29.063  33.492  1.00  0.00    -0.354 N 
ATOM     55  N   UNL A   1      42.478  27.704  31.061  1.00  0.00    -0.248 NA
ATOM     56  C   UNL A   1      44.026  26.370  29.928  1.00  0.00     0.031 C 
ATOM     57  C   UNL A   1      42.790  28.821  35.344  1.00  0.00     0.029 A 
ATOM     58  C   UNL A   1      42.726  28.461  34.009  1.00  0.00     0.049 A 
ATOM     59  H   UNL A   1      41.288  28.993  32.557  1.00  0.00     0.167 HD
ATOM     60  C   UNL A   1      43.473  27.308  31.946  1.00  0.00     0.074 A 
ATOM     61  C   UNL A   1      44.372  26.447  31.205  1.00  0.00     0.031 C 
ATOM     62  C   UNL A   1      43.630  27.626  33.256  1.00  0.00     0.031 A 
BRANCH  49  63
ATOM     63  C   UNL A   1      39.209  31.360  35.450  1.00  0.00    -0.014 A 
ATOM     64  C   UNL A   1      38.235  30.831  36.314  1.00  0.00     0.009 A 
ATOM     65  C   UNL A   1      39.708  32.647  35.707  1.00  0.00     0.009 A 
ATOM     66  C   UNL A   1      37.742  31.590  37.378  1.00  0.00     0.001 A 
ATOM     67  C   UNL A   1      39.241  33.390  36.794  1.00  0.00     0.001 A 
ATOM     68  C   UNL A   1      38.249  32.866  37.621  1.00  0.00     0.000 A 
ENDBRANCH  49  63
BRANCH  50  69
ATOM     69  C   UNL A   1      42.549  26.475  27.412  1.00  0.00    -0.014 A 
ATOM     70  C   UNL A   1      43.417  27.096  26.501  1.00  0.00     0.009 A 
ATOM     71  C   UNL A   1      42.154  25.148  27.172  1.00  0.00     0.009 A 
ATOM     72  C   UNL A   1      43.855  26.416  25.363  1.00  0.00     0.001 A 
ATOM     73  C   UNL A   1      42.624  24.458  26.053  1.00  0.00     0.001 A 
ATOM     74  C   UNL A   1      43.464  25.096  25.144  1.00  0.00     0.000 A 
ENDBRANCH  50  69
BRANCH  62  75
ATOM     75  C   UNL A   1      44.806  27.011  33.972  1.00  0.00    -0.014 A 
ATOM     76  C   UNL A   1      44.745  25.717  34.517  1.00  0.00     0.009 A 
ATOM     77  C   UNL A   1      45.994  27.746  34.116  1.00  0.00     0.009 A 
ATOM     78  C   UNL A   1      45.818  25.203  35.248  1.00  0.00     0.001 A 
ATOM     79  C   UNL A   1      47.081  27.213  34.810  1.00  0.00     0.001 A 
ATOM     80  C   UNL A   1      46.985  25.951  35.392  1.00  0.00     0.000 A 
ENDBRANCH  62  75
ENDBRANCH  36  37
ENDBRANCH  29  31
ENDBRANCH  28  29
ENDBRANCH  27  28
ENDBRANCH  26  27
ENDBRANCH  25  26
ENDBRANCH   1  25
TORSDOF 18
ENDMDL
MODEL 3
REMARK VINA RESULT:     -10.1      0.735      5.843
REMARK SMILES COc1ccc(/C=C/c2nc(C(=O)OCCOCCOC(=O)c3ccc(-c4c5nc(c(-c6ccccc6)c6ccc([nH]6)c(-c6ccccc6)c6nc(c(-c7ccccc7)c7ccc4[nH]7)C=C6)C=C5)cc3)ccc2C#N)cc1F
REMARK SMILES IDX 16 1 15 2 14 3 12 4 13 5 11 6 9 7 10 8 73 9 72 10 71 11 8 12
REMARK SMILES IDX 7 13 6 14 3 15 4 16 77 17 5 18 76 19 78 20 2 21 1 22 74 23
REMARK SMILES IDX 75 24 17 25 18 26 19 27 20 28 21 29 22 30 23 31 24 32 70 33
REMARK SMILES IDX 25 34 69 35 26 36 27 37 28 38 63 39 29 40 68 41 62 42 64 43
REMARK SMILES IDX 30 44 67 45 61 46 60 47 31 49 53 50 38 51 52 52 39 53 42 54
REMARK SMILES IDX 51 55 65 56 40 57 41 58 50 60 66 61 43 62 32 63 33 64 37 65
REMARK SMILES IDX 34 66 36 67 35 68 54 69 55 70 59 71 56 72 58 73 57 74 44 75
REMARK SMILES IDX 45 76 49 77 46 78 48 79 47 80
REMARK H PARENT 64 48 42 59
REMARK Flexibility Score: inf
ROOT
ATOM      1  C   UNL A   1      41.881  20.825  26.459  1.00  0.00     0.202 C 
ENDROOT
BRANCH   1   2
ATOM      2  C   UNL A   1      40.404  21.043  26.798  1.00  0.00     0.261 C 
BRANCH   2   3
ATOM      3  O   UNL A   1      39.703  21.728  25.752  1.00  0.00    -0.459 OA
BRANCH   3   4
ATOM      4  C   UNL A   1      38.791  22.637  26.189  1.00  0.00     0.357 C 
ATOM      5  O   UNL A   1      39.038  23.684  26.765  1.00  0.00    -0.244 OA
BRANCH   4   6
ATOM      6  C   UNL A   1      37.426  22.243  25.727  1.00  0.00     0.149 A 
ATOM      7  C   UNL A   1      35.245  22.964  25.365  1.00  0.00     0.082 A 
ATOM      8  N   UNL A   1      36.515  23.249  25.725  1.00  0.00    -0.240 NA
ATOM      9  C   UNL A   1      34.846  21.688  24.968  1.00  0.00     0.078 A 
ATOM     10  C   UNL A   1      35.812  20.675  24.928  1.00  0.00     0.024 A 
ATOM     11  C   UNL A   1      37.124  20.952  25.311  1.00  0.00     0.037 A 
BRANCH   7  12
ATOM     12  C   UNL A   1      34.350  24.119  25.470  1.00  0.00     0.030 C 
ATOM     13  C   UNL A   1      34.664  25.280  24.875  1.00  0.00     0.010 C 
BRANCH  13  14
ATOM     14  C   UNL A   1      33.856  26.507  24.831  1.00  0.00    -0.022 A 
ATOM     15  C   UNL A   1      32.242  28.814  24.932  1.00  0.00     0.154 A 
ATOM     16  C   UNL A   1      33.249  28.703  23.974  1.00  0.00     0.050 A 
ATOM     17  C   UNL A   1      32.013  27.751  25.801  1.00  0.00     0.165 A 
ATOM     18  C   UNL A   1      34.060  27.561  23.931  1.00  0.00     0.012 A 
ATOM     19  C   UNL A   1      32.811  26.613  25.758  1.00  0.00     0.051 A 
ATOM     20  F   UNL A   1      31.011  27.784  26.691  1.00  0.00    -0.203 F 
BRANCH  15  21
ATOM     21  O   UNL A   1      31.501  29.964  24.912  1.00  0.00    -0.494 OA
ATOM     22  C   UNL A   1      30.247  29.798  24.249  1.00  0.00     0.278 C 
ENDBRANCH  15  21
ENDBRANCH  13  14
ENDBRANCH   7  12
BRANCH   9  23
ATOM     23  C   UNL A   1      33.487  21.386  24.630  1.00  0.00     0.101 C 
ATOM     24  N   UNL A   1      32.401  21.114  24.333  1.00  0.00    -0.192 NA
ENDBRANCH   9  23
ENDBRANCH   4   6
ENDBRANCH   3   4
ENDBRANCH   2   3
ENDBRANCH   1   2
BRANCH   1  25
ATOM     25  O   UNL A   1      42.603  21.868  25.813  1.00  0.00    -0.374 OA
BRANCH  25  26
ATOM     26  C   UNL A   1      43.922  21.609  25.343  1.00  0.00     0.202 C 
BRANCH  26  27
ATOM     27  C   UNL A   1      44.558  22.571  24.327  1.00  0.00     0.261 C 
BRANCH  27  28
ATOM     28  O   UNL A   1      43.990  23.890  24.331  1.00  0.00    -0.460 OA
BRANCH  28  29
ATOM     29  C   UNL A   1      44.732  24.802  25.011  1.00  0.00     0.338 C 
ATOM     30  O   UNL A   1      45.891  25.118  24.800  1.00  0.00    -0.246 OA
BRANCH  29  31
ATOM     31  C   UNL A   1      43.891  25.536  25.972  1.00  0.00     0.060 A 
ATOM     32  C   UNL A   1      44.056  26.926  26.034  1.00  0.00     0.016 A 
ATOM     33  C   UNL A   1      43.041  24.879  26.862  1.00  0.00     0.016 A 
ATOM     34  C   UNL A   1      43.411  27.657  27.025  1.00  0.00     0.010 A 
ATOM     35  C   UNL A   1      42.393  25.619  27.858  1.00  0.00     0.010 A 
ATOM     36  C   UNL A   1      42.603  27.006  27.968  1.00  0.00    -0.014 A 
BRANCH  36  37
ATOM     37  C   UNL A   1      42.061  27.789  29.107  1.00  0.00     0.031 A 
ATOM     38  C   UNL A   1      40.695  28.415  29.012  1.00  0.00     0.074 A 
ATOM     39  C   UNL A   1      42.761  27.876  30.253  1.00  0.00     0.049 A 
ATOM     40  N   UNL A   1      40.018  29.065  29.924  1.00  0.00    -0.248 NA
ATOM     41  C   UNL A   1      40.002  28.295  27.719  1.00  0.00     0.031 C 
ATOM     42  C   UNL A   1      44.081  27.289  30.481  1.00  0.00     0.029 A 
ATOM     43  N   UNL A   1      42.446  28.474  31.446  1.00  0.00    -0.354 N 
ATOM     44  C   UNL A   1      38.823  29.436  29.319  1.00  0.00     0.074 A 
ATOM     45  C   UNL A   1      38.889  28.976  27.947  1.00  0.00     0.031 C 
ATOM     46  C   UNL A   1      44.452  27.531  31.748  1.00  0.00     0.029 A 
ATOM     47  C   UNL A   1      43.418  28.325  32.406  1.00  0.00     0.049 A 
ATOM     48  H   UNL A   1      41.606  28.963  31.601  1.00  0.00     0.167 HD
ATOM     49  C   UNL A   1      37.764  30.090  29.855  1.00  0.00     0.031 A 
ATOM     50  C   UNL A   1      43.473  28.782  33.670  1.00  0.00     0.031 A 
ATOM     51  C   UNL A   1      37.710  30.568  31.215  1.00  0.00     0.049 A 
ATOM     52  C   UNL A   1      42.314  29.568  34.219  1.00  0.00     0.074 A 
ATOM     53  C   UNL A   1      36.674  31.224  31.858  1.00  0.00     0.029 A 
ATOM     54  N   UNL A   1      38.741  30.455  32.135  1.00  0.00    -0.354 N 
ATOM     55  N   UNL A   1      41.174  29.874  33.648  1.00  0.00    -0.248 NA
ATOM     56  C   UNL A   1      42.448  30.055  35.598  1.00  0.00     0.031 C 
ATOM     57  C   UNL A   1      37.108  31.578  33.141  1.00  0.00     0.029 A 
ATOM     58  C   UNL A   1      38.381  31.065  33.328  1.00  0.00     0.049 A 
ATOM     59  H   UNL A   1      39.602  30.009  31.968  1.00  0.00     0.167 HD
ATOM     60  C   UNL A   1      40.444  30.566  34.607  1.00  0.00     0.074 A 
ATOM     61  C   UNL A   1      41.259  30.603  35.804  1.00  0.00     0.031 C 
ATOM     62  C   UNL A   1      39.210  31.121  34.507  1.00  0.00     0.031 A 
BRANCH  49  63
ATOM     63  C   UNL A   1      36.589  30.366  28.952  1.00  0.00    -0.014 A 
ATOM     64  C   UNL A   1      35.772  29.332  28.466  1.00  0.00     0.009 A 
ATOM     65  C   UNL A   1      36.274  31.690  28.606  1.00  0.00     0.009 A 
ATOM     66  C   UNL A   1      34.698  29.614  27.619  1.00  0.00     0.001 A 
ATOM     67  C   UNL A   1      35.177  31.974  27.790  1.00  0.00     0.001 A 
ATOM     68  C   UNL A   1      34.398  30.934  27.286  1.00  0.00     0.000 A 
ENDBRANCH  49  63
BRANCH  50  69
ATOM     69  C   UNL A   1      44.674  28.514  34.506  1.00  0.00    -0.014 A 
ATOM     70  C   UNL A   1      45.775  29.383  34.486  1.00  0.00     0.009 A 
ATOM     71  C   UNL A   1      44.728  27.371  35.322  1.00  0.00     0.009 A 
ATOM     72  C   UNL A   1      46.914  29.100  35.242  1.00  0.00     0.001 A 
ATOM     73  C   UNL A   1      45.853  27.111  36.106  1.00  0.00     0.001 A 
ATOM     74  C   UNL A   1      46.949  27.968  36.057  1.00  0.00     0.000 A 
ENDBRANCH  50  69
BRANCH  62  75
ATOM     75  C   UNL A   1      38.661  31.789  35.743  1.00  0.00    -0.014 A 
ATOM     76  C   UNL A   1      37.960  31.067  36.724  1.00  0.00     0.009 A 
ATOM     77  C   UNL A   1      38.835  33.171  35.920  1.00  0.00     0.009 A 
ATOM     78  C   UNL A   1      37.388  31.723  37.816  1.00  0.00     0.001 A 
ATOM     79  C   UNL A   1      38.300  33.818  37.036  1.00  0.00     0.001 A 
ATOM     80  C   UNL A   1      37.560  33.098  37.971  1.00  0.00     0.000 A 
ENDBRANCH  62  75
ENDBRANCH  36  37
ENDBRANCH  29  31
ENDBRANCH  28  29
ENDBRANCH  27  28
ENDBRANCH  26  27
ENDBRANCH  25  26
ENDBRANCH   1  25
TORSDOF 18
ENDMDL
