MODEL 1
REMARK VINA RESULT:     -10.3      0.000      0.000
REMARK SMILES O=C(OCCOCCOC(=O)[C@@H]1CCC[N@@H+](Cc2ccc(F)cc2Cl)C1)c1ccc(-c2c3nc(c(-c4ccccc4)c4ccc([nH]4)c(-c4ccccc4)c4nc(c(-c5ccccc5)c5ccc2[nH]5)C=C4)C=C3)cc1
REMARK SMILES IDX 6 1 5 2 4 3 3 4 2 5 1 6 27 7 28 8 74 9 29 10 73 11 30 12
REMARK SMILES IDX 31 13 32 14 67 15 33 16 72 17 66 18 68 19 34 20 71 21 65 22
REMARK SMILES IDX 64 23 35 25 57 26 42 27 56 28 43 29 46 30 55 31 69 32 44 33
REMARK SMILES IDX 45 34 54 36 70 37 47 38 36 39 37 40 41 41 38 42 40 43 39 44
REMARK SMILES IDX 58 45 59 46 63 47 60 48 62 49 61 50 48 51 49 52 53 53 50 54
REMARK SMILES IDX 52 55 51 56 7 57 8 58 9 59 10 60 11 61 12 62 13 63 26 64
REMARK SMILES IDX 14 65 16 66 15 67 17 69 18 70 19 71 24 72 20 73 23 74 25 75
REMARK SMILES IDX 21 76 22 77
REMARK H PARENT 68 24 46 35 16 68
REMARK Flexibility Score: inf
ROOT
ATOM      1  O   UNL A   1      32.793  30.282  27.123  1.00  0.00    -0.374 OA
ENDROOT
BRANCH   1   2
ATOM      2  C   UNL A   1      31.860  31.093  26.403  1.00  0.00     0.202 C 
BRANCH   2   3
ATOM      3  C   UNL A   1      31.329  32.273  27.224  1.00  0.00     0.261 C 
BRANCH   3   4
ATOM      4  O   UNL A   1      32.175  33.422  27.075  1.00  0.00    -0.460 OA
BRANCH   4   5
ATOM      5  C   UNL A   1      32.918  34.043  28.021  1.00  0.00     0.338 C 
ATOM      6  O   UNL A   1      32.477  35.080  28.515  1.00  0.00    -0.246 OA
BRANCH   5   7
ATOM      7  C   UNL A   1      34.221  33.527  28.547  1.00  0.00     0.060 A 
ATOM      8  C   UNL A   1      35.493  33.866  28.076  1.00  0.00     0.016 A 
ATOM      9  C   UNL A   1      34.146  32.681  29.671  1.00  0.00     0.016 A 
ATOM     10  C   UNL A   1      36.646  33.353  28.655  1.00  0.00     0.010 A 
ATOM     11  C   UNL A   1      35.301  32.180  30.277  1.00  0.00     0.010 A 
ATOM     12  C   UNL A   1      36.553  32.503  29.752  1.00  0.00    -0.014 A 
BRANCH  12  13
ATOM     13  C   UNL A   1      37.790  31.878  30.246  1.00  0.00     0.031 A 
ATOM     14  C   UNL A   1      38.449  32.474  31.449  1.00  0.00     0.074 A 
ATOM     15  C   UNL A   1      38.218  30.728  29.697  1.00  0.00     0.049 A 
ATOM     16  N   UNL A   1      39.542  32.107  32.060  1.00  0.00    -0.248 NA
ATOM     17  C   UNL A   1      37.773  33.633  32.059  1.00  0.00     0.031 C 
ATOM     18  C   UNL A   1      37.554  30.015  28.604  1.00  0.00     0.029 A 
ATOM     19  N   UNL A   1      39.295  29.943  30.006  1.00  0.00    -0.354 N 
ATOM     20  C   UNL A   1      39.697  33.001  33.111  1.00  0.00     0.074 A 
ATOM     21  C   UNL A   1      38.592  33.930  33.056  1.00  0.00     0.031 C 
ATOM     22  C   UNL A   1      38.229  28.883  28.347  1.00  0.00     0.029 A 
ATOM     23  C   UNL A   1      39.401  28.827  29.212  1.00  0.00     0.049 A 
ATOM     24  H   UNL A   1      39.931  30.156  30.725  1.00  0.00     0.167 HD
ATOM     25  C   UNL A   1      40.688  33.044  34.030  1.00  0.00     0.031 A 
ATOM     26  C   UNL A   1      40.363  27.886  29.180  1.00  0.00     0.031 A 
ATOM     27  C   UNL A   1      41.790  32.123  34.040  1.00  0.00     0.049 A 
ATOM     28  C   UNL A   1      41.511  28.020  30.142  1.00  0.00     0.074 A 
ATOM     29  C   UNL A   1      42.897  32.104  34.867  1.00  0.00     0.029 A 
ATOM     30  N   UNL A   1      41.917  31.052  33.165  1.00  0.00    -0.354 N 
ATOM     31  N   UNL A   1      41.690  28.907  31.094  1.00  0.00    -0.248 NA
ATOM     32  C   UNL A   1      42.596  27.039  30.018  1.00  0.00     0.031 C 
ATOM     33  C   UNL A   1      43.718  31.046  34.459  1.00  0.00     0.029 A 
ATOM     34  C   UNL A   1      43.095  30.374  33.417  1.00  0.00     0.049 A 
ATOM     35  H   UNL A   1      41.264  30.811  32.469  1.00  0.00     0.167 HD
ATOM     36  C   UNL A   1      42.899  28.584  31.691  1.00  0.00     0.074 A 
ATOM     37  C   UNL A   1      43.398  27.405  31.008  1.00  0.00     0.031 C 
ATOM     38  C   UNL A   1      43.549  29.204  32.708  1.00  0.00     0.031 A 
BRANCH  25  39
ATOM     39  C   UNL A   1      40.646  34.171  35.019  1.00  0.00    -0.014 A 
ATOM     40  C   UNL A   1      40.009  34.036  36.263  1.00  0.00     0.009 A 
ATOM     41  C   UNL A   1      41.213  35.409  34.678  1.00  0.00     0.009 A 
ATOM     42  C   UNL A   1      39.905  35.131  37.126  1.00  0.00     0.001 A 
ATOM     43  C   UNL A   1      41.129  36.493  35.552  1.00  0.00     0.001 A 
ATOM     44  C   UNL A   1      40.465  36.358  36.770  1.00  0.00     0.000 A 
ENDBRANCH  25  39
BRANCH  26  45
ATOM     45  C   UNL A   1      40.311  26.788  28.177  1.00  0.00    -0.014 A 
ATOM     46  C   UNL A   1      39.662  25.576  28.462  1.00  0.00     0.009 A 
ATOM     47  C   UNL A   1      40.924  26.944  26.923  1.00  0.00     0.009 A 
ATOM     48  C   UNL A   1      39.647  24.542  27.521  1.00  0.00     0.001 A 
ATOM     49  C   UNL A   1      40.881  25.921  25.973  1.00  0.00     0.001 A 
ATOM     50  C   UNL A   1      40.251  24.717  26.277  1.00  0.00     0.000 A 
ENDBRANCH  26  45
BRANCH  38  51
ATOM     51  C   UNL A   1      44.848  28.597  33.148  1.00  0.00    -0.014 A 
ATOM     52  C   UNL A   1      44.881  27.568  34.101  1.00  0.00     0.009 A 
ATOM     53  C   UNL A   1      46.046  29.029  32.560  1.00  0.00     0.009 A 
ATOM     54  C   UNL A   1      46.098  27.002  34.479  1.00  0.00     0.001 A 
ATOM     55  C   UNL A   1      47.259  28.441  32.921  1.00  0.00     0.001 A 
ATOM     56  C   UNL A   1      47.284  27.435  33.885  1.00  0.00     0.000 A 
ENDBRANCH  38  51
ENDBRANCH  12  13
ENDBRANCH   5   7
ENDBRANCH   4   5
ENDBRANCH   3   4
ENDBRANCH   2   3
ENDBRANCH   1   2
BRANCH   1  57
ATOM     57  C   UNL A   1      33.613  29.435  26.303  1.00  0.00     0.202 C 
BRANCH  57  58
ATOM     58  C   UNL A   1      33.533  27.987  26.784  1.00  0.00     0.261 C 
BRANCH  58  59
ATOM     59  O   UNL A   1      32.929  27.203  25.748  1.00  0.00    -0.463 OA
BRANCH  59  60
ATOM     60  C   UNL A   1      33.160  25.866  25.865  1.00  0.00     0.314 C 
ATOM     61  O   UNL A   1      34.270  25.358  25.983  1.00  0.00    -0.252 OA
BRANCH  60  62
ATOM     62  C   UNL A   1      31.872  25.075  26.024  1.00  0.00     0.154 C 
ATOM     63  C   UNL A   1      31.963  23.754  25.267  1.00  0.00     0.027 C 
ATOM     64  C   UNL A   1      30.582  25.812  25.655  1.00  0.00     0.277 C 
ATOM     65  C   UNL A   1      31.908  24.035  23.775  1.00  0.00     0.062 C 
ATOM     66  N   UNL A   1      30.300  25.931  24.221  1.00  0.00    -0.330 N 
ATOM     67  C   UNL A   1      30.598  24.733  23.425  1.00  0.00     0.262 C 
ATOM     68  H   UNL A   1      30.973  26.623  23.893  1.00  0.00     0.348 HD
BRANCH  66  69
ATOM     69  C   UNL A   1      28.941  26.474  23.949  1.00  0.00     0.300 C 
BRANCH  69  70
ATOM     70  C   UNL A   1      28.910  27.789  23.174  1.00  0.00     0.025 A 
ATOM     71  C   UNL A   1      30.101  28.277  22.599  1.00  0.00     0.014 A 
ATOM     72  C   UNL A   1      27.764  28.609  23.122  1.00  0.00     0.052 A 
ATOM     73  C   UNL A   1      30.174  29.578  22.101  1.00  0.00     0.040 A 
ATOM     74  C   UNL A   1      27.841  29.912  22.624  1.00  0.00     0.060 A 
ATOM     75  Cl  UNL A   1      26.222  28.086  23.705  1.00  0.00    -0.084 Cl
ATOM     76  C   UNL A   1      29.051  30.390  22.143  1.00  0.00     0.124 A 
ATOM     77  F   UNL A   1      29.135  31.655  21.714  1.00  0.00    -0.207 F 
ENDBRANCH  69  70
ENDBRANCH  66  69
ENDBRANCH  60  62
ENDBRANCH  59  60
ENDBRANCH  58  59
ENDBRANCH  57  58
ENDBRANCH   1  57
TORSDOF 16
ENDMDL
MODEL 2
REMARK VINA RESULT:     -10.2      3.180      8.144
REMARK SMILES O=C(OCCOCCOC(=O)[C@@H]1CCC[N@@H+](Cc2ccc(F)cc2Cl)C1)c1ccc(-c2c3nc(c(-c4ccccc4)c4ccc([nH]4)c(-c4ccccc4)c4nc(c(-c5ccccc5)c5ccc2[nH]5)C=C4)C=C3)cc1
REMARK SMILES IDX 6 1 5 2 4 3 3 4 2 5 1 6 27 7 28 8 74 9 29 10 73 11 30 12
REMARK SMILES IDX 31 13 32 14 67 15 33 16 72 17 66 18 68 19 34 20 71 21 65 22
REMARK SMILES IDX 64 23 35 25 57 26 42 27 56 28 43 29 46 30 55 31 69 32 44 33
REMARK SMILES IDX 45 34 54 36 70 37 47 38 36 39 37 40 41 41 38 42 40 43 39 44
REMARK SMILES IDX 58 45 59 46 63 47 60 48 62 49 61 50 48 51 49 52 53 53 50 54
REMARK SMILES IDX 52 55 51 56 7 57 8 58 9 59 10 60 11 61 12 62 13 63 26 64
REMARK SMILES IDX 14 65 16 66 15 67 17 69 18 70 19 71 24 72 20 73 23 74 25 75
REMARK SMILES IDX 21 76 22 77
REMARK H PARENT 68 24 46 35 16 68
REMARK Flexibility Score: inf
ROOT
ATOM      1  O   UNL A   1      41.443  20.725  25.590  1.00  0.00    -0.374 OA
ENDROOT
BRANCH   1   2
ATOM      2  C   UNL A   1      42.750  20.309  25.993  1.00  0.00     0.202 C 
BRANCH   2   3
ATOM      3  C   UNL A   1      43.867  21.179  25.407  1.00  0.00     0.261 C 
BRANCH   3   4
ATOM      4  O   UNL A   1      43.339  22.406  24.884  1.00  0.00    -0.460 OA
BRANCH   4   5
ATOM      5  C   UNL A   1      43.755  23.670  25.136  1.00  0.00     0.338 C 
ATOM      6  O   UNL A   1      44.539  24.191  24.343  1.00  0.00    -0.246 OA
BRANCH   5   7
ATOM      7  C   UNL A   1      43.285  24.501  26.290  1.00  0.00     0.060 A 
ATOM      8  C   UNL A   1      42.710  24.022  27.470  1.00  0.00     0.016 A 
ATOM      9  C   UNL A   1      43.523  25.885  26.195  1.00  0.00     0.016 A 
ATOM     10  C   UNL A   1      42.335  24.876  28.498  1.00  0.00     0.010 A 
ATOM     11  C   UNL A   1      43.173  26.752  27.234  1.00  0.00     0.010 A 
ATOM     12  C   UNL A   1      42.558  26.244  28.380  1.00  0.00    -0.014 A 
BRANCH  12  13
ATOM     13  C   UNL A   1      42.023  27.124  29.431  1.00  0.00     0.031 A 
ATOM     14  C   UNL A   1      42.824  27.295  30.682  1.00  0.00     0.074 A 
ATOM     15  C   UNL A   1      40.912  27.842  29.193  1.00  0.00     0.049 A 
ATOM     16  N   UNL A   1      42.558  28.006  31.744  1.00  0.00    -0.248 NA
ATOM     17  C   UNL A   1      44.113  26.583  30.736  1.00  0.00     0.031 C 
ATOM     18  C   UNL A   1      40.147  27.827  27.945  1.00  0.00     0.029 A 
ATOM     19  N   UNL A   1      40.255  28.749  29.980  1.00  0.00    -0.354 N 
ATOM     20  C   UNL A   1      43.633  27.809  32.600  1.00  0.00     0.074 A 
ATOM     21  C   UNL A   1      44.554  26.913  31.941  1.00  0.00     0.031 C 
ATOM     22  C   UNL A   1      39.133  28.702  28.044  1.00  0.00     0.029 A 
ATOM     23  C   UNL A   1      39.144  29.288  29.379  1.00  0.00     0.049 A 
ATOM     24  H   UNL A   1      40.550  28.991  30.887  1.00  0.00     0.167 HD
ATOM     25  C   UNL A   1      43.820  28.327  33.835  1.00  0.00     0.031 A 
ATOM     26  C   UNL A   1      38.228  30.139  29.876  1.00  0.00     0.031 A 
ATOM     27  C   UNL A   1      42.871  29.194  34.476  1.00  0.00     0.049 A 
ATOM     28  C   UNL A   1      38.403  30.613  31.293  1.00  0.00     0.074 A 
ATOM     29  C   UNL A   1      42.903  29.724  35.752  1.00  0.00     0.029 A 
ATOM     30  N   UNL A   1      41.707  29.653  33.873  1.00  0.00    -0.354 N 
ATOM     31  N   UNL A   1      39.389  30.372  32.127  1.00  0.00    -0.248 NA
ATOM     32  C   UNL A   1      37.338  31.459  31.844  1.00  0.00     0.031 C 
ATOM     33  C   UNL A   1      41.732  30.467  35.936  1.00  0.00     0.029 A 
ATOM     34  C   UNL A   1      40.999  30.446  34.758  1.00  0.00     0.049 A 
ATOM     35  H   UNL A   1      41.428  29.445  32.953  1.00  0.00     0.167 HD
ATOM     36  C   UNL A   1      39.071  31.046  33.296  1.00  0.00     0.074 A 
ATOM     37  C   UNL A   1      37.811  31.725  33.053  1.00  0.00     0.031 C 
ATOM     38  C   UNL A   1      39.748  31.100  34.469  1.00  0.00     0.031 A 
BRANCH  25  39
ATOM     39  C   UNL A   1      45.049  27.885  34.575  1.00  0.00    -0.014 A 
ATOM     40  C   UNL A   1      46.257  28.595  34.485  1.00  0.00     0.009 A 
ATOM     41  C   UNL A   1      45.007  26.708  35.338  1.00  0.00     0.009 A 
ATOM     42  C   UNL A   1      47.409  28.109  35.111  1.00  0.00     0.001 A 
ATOM     43  C   UNL A   1      46.153  26.240  35.983  1.00  0.00     0.001 A 
ATOM     44  C   UNL A   1      47.356  26.933  35.859  1.00  0.00     0.000 A 
ENDBRANCH  25  39
BRANCH  26  45
ATOM     45  C   UNL A   1      37.050  30.542  29.060  1.00  0.00    -0.014 A 
ATOM     46  C   UNL A   1      36.903  31.860  28.602  1.00  0.00     0.009 A 
ATOM     47  C   UNL A   1      36.055  29.603  28.741  1.00  0.00     0.009 A 
ATOM     48  C   UNL A   1      35.777  32.232  27.862  1.00  0.00     0.001 A 
ATOM     49  C   UNL A   1      34.946  29.969  27.975  1.00  0.00     0.001 A 
ATOM     50  C   UNL A   1      34.803  31.286  27.544  1.00  0.00     0.000 A 
ENDBRANCH  26  45
BRANCH  38  51
ATOM     51  C   UNL A   1      39.147  31.941  35.557  1.00  0.00    -0.014 A 
ATOM     52  C   UNL A   1      38.249  31.393  36.484  1.00  0.00     0.009 A 
ATOM     53  C   UNL A   1      39.529  33.285  35.681  1.00  0.00     0.009 A 
ATOM     54  C   UNL A   1      37.719  32.187  37.500  1.00  0.00     0.001 A 
ATOM     55  C   UNL A   1      39.018  34.069  36.715  1.00  0.00     0.001 A 
ATOM     56  C   UNL A   1      38.109  33.521  37.619  1.00  0.00     0.000 A 
ENDBRANCH  38  51
ENDBRANCH  12  13
ENDBRANCH   5   7
ENDBRANCH   4   5
ENDBRANCH   3   4
ENDBRANCH   2   3
ENDBRANCH   1   2
BRANCH   1  57
ATOM     57  C   UNL A   1      40.501  20.875  26.663  1.00  0.00     0.202 C 
BRANCH  57  58
ATOM     58  C   UNL A   1      39.837  22.250  26.601  1.00  0.00     0.261 C 
BRANCH  58  59
ATOM     59  O   UNL A   1      38.756  22.184  25.663  1.00  0.00    -0.463 OA
BRANCH  59  60
ATOM     60  C   UNL A   1      37.691  22.966  25.994  1.00  0.00     0.314 C 
ATOM     61  O   UNL A   1      37.768  24.146  26.320  1.00  0.00    -0.252 OA
BRANCH  60  62
ATOM     62  C   UNL A   1      36.367  22.268  25.736  1.00  0.00     0.154 C 
ATOM     63  C   UNL A   1      36.145  22.086  24.238  1.00  0.00     0.027 C 
ATOM     64  C   UNL A   1      35.134  22.905  26.383  1.00  0.00     0.277 C 
ATOM     65  C   UNL A   1      35.846  23.440  23.616  1.00  0.00     0.062 C 
ATOM     66  N   UNL A   1      34.605  24.098  25.715  1.00  0.00    -0.330 N 
ATOM     67  C   UNL A   1      34.593  24.038  24.247  1.00  0.00     0.262 C 
ATOM     68  H   UNL A   1      35.287  24.826  25.929  1.00  0.00     0.348 HD
BRANCH  66  69
ATOM     69  C   UNL A   1      33.300  24.537  26.279  1.00  0.00     0.300 C 
BRANCH  69  70
ATOM     70  C   UNL A   1      32.702  25.787  25.637  1.00  0.00     0.025 A 
ATOM     71  C   UNL A   1      33.197  27.054  26.006  1.00  0.00     0.014 A 
ATOM     72  C   UNL A   1      31.578  25.737  24.787  1.00  0.00     0.052 A 
ATOM     73  C   UNL A   1      32.525  28.220  25.640  1.00  0.00     0.040 A 
ATOM     74  C   UNL A   1      30.906  26.906  24.422  1.00  0.00     0.060 A 
ATOM     75  Cl  UNL A   1      30.935  24.248  24.186  1.00  0.00    -0.084 Cl
ATOM     76  C   UNL A   1      31.372  28.132  24.874  1.00  0.00     0.124 A 
ATOM     77  F   UNL A   1      30.698  29.247  24.567  1.00  0.00    -0.207 F 
ENDBRANCH  69  70
ENDBRANCH  66  69
ENDBRANCH  60  62
ENDBRANCH  59  60
ENDBRANCH  58  59
ENDBRANCH  57  58
ENDBRANCH   1  57
TORSDOF 16
ENDMDL
MODEL 3
REMARK VINA RESULT:     -10.1      0.759      6.040
REMARK SMILES O=C(OCCOCCOC(=O)[C@@H]1CCC[N@@H+](Cc2ccc(F)cc2Cl)C1)c1ccc(-c2c3nc(c(-c4ccccc4)c4ccc([nH]4)c(-c4ccccc4)c4nc(c(-c5ccccc5)c5ccc2[nH]5)C=C4)C=C3)cc1
REMARK SMILES IDX 6 1 5 2 4 3 3 4 2 5 1 6 27 7 28 8 74 9 29 10 73 11 30 12
REMARK SMILES IDX 31 13 32 14 67 15 33 16 72 17 66 18 68 19 34 20 71 21 65 22
REMARK SMILES IDX 64 23 35 25 57 26 42 27 56 28 43 29 46 30 55 31 69 32 44 33
REMARK SMILES IDX 45 34 54 36 70 37 47 38 36 39 37 40 41 41 38 42 40 43 39 44
REMARK SMILES IDX 58 45 59 46 63 47 60 48 62 49 61 50 48 51 49 52 53 53 50 54
REMARK SMILES IDX 52 55 51 56 7 57 8 58 9 59 10 60 11 61 12 62 13 63 26 64
REMARK SMILES IDX 14 65 16 66 15 67 17 69 18 70 19 71 24 72 20 73 23 74 25 75
REMARK SMILES IDX 21 76 22 77
REMARK H PARENT 68 24 46 35 16 68
REMARK Flexibility Score: inf
ROOT
ATOM      1  O   UNL A   1      32.658  30.533  27.276  1.00  0.00    -0.374 OA
ENDROOT
BRANCH   1   2
ATOM      2  C   UNL A   1      31.679  31.512  26.914  1.00  0.00     0.202 C 
BRANCH   2   3
ATOM      3  C   UNL A   1      32.286  32.883  26.599  1.00  0.00     0.261 C 
BRANCH   3   4
ATOM      4  O   UNL A   1      32.054  33.804  27.674  1.00  0.00    -0.460 OA
BRANCH   4   5
ATOM      5  C   UNL A   1      32.969  34.455  28.430  1.00  0.00     0.338 C 
ATOM      6  O   UNL A   1      32.788  35.651  28.657  1.00  0.00    -0.246 OA
BRANCH   5   7
ATOM      7  C   UNL A   1      34.167  33.806  29.054  1.00  0.00     0.060 A 
ATOM      8  C   UNL A   1      34.151  32.719  29.932  1.00  0.00     0.016 A 
ATOM      9  C   UNL A   1      35.421  34.300  28.648  1.00  0.00     0.016 A 
ATOM     10  C   UNL A   1      35.324  32.170  30.433  1.00  0.00     0.010 A 
ATOM     11  C   UNL A   1      36.608  33.738  29.126  1.00  0.00     0.010 A 
ATOM     12  C   UNL A   1      36.555  32.682  30.038  1.00  0.00    -0.014 A 
BRANCH  12  13
ATOM     13  C   UNL A   1      37.763  32.161  30.696  1.00  0.00     0.031 A 
ATOM     14  C   UNL A   1      38.499  31.040  30.033  1.00  0.00     0.074 A 
ATOM     15  C   UNL A   1      38.242  32.778  31.789  1.00  0.00     0.049 A 
ATOM     16  N   UNL A   1      39.575  30.414  30.422  1.00  0.00    -0.248 NA
ATOM     17  C   UNL A   1      37.958  30.575  28.743  1.00  0.00     0.031 C 
ATOM     18  C   UNL A   1      37.650  33.960  32.420  1.00  0.00     0.029 A 
ATOM     19  N   UNL A   1      39.354  32.517  32.542  1.00  0.00    -0.354 N 
ATOM     20  C   UNL A   1      39.828  29.467  29.438  1.00  0.00     0.074 A 
ATOM     21  C   UNL A   1      38.795  29.595  28.437  1.00  0.00     0.031 C 
ATOM     22  C   UNL A   1      38.420  34.334  33.455  1.00  0.00     0.029 A 
ATOM     23  C   UNL A   1      39.517  33.384  33.594  1.00  0.00     0.049 A 
ATOM     24  H   UNL A   1      39.977  31.780  32.348  1.00  0.00     0.167 HD
ATOM     25  C   UNL A   1      40.832  28.562  29.391  1.00  0.00     0.031 A 
ATOM     26  C   UNL A   1      40.441  33.381  34.573  1.00  0.00     0.031 A 
ATOM     27  C   UNL A   1      41.829  28.439  30.418  1.00  0.00     0.049 A 
ATOM     28  C   UNL A   1      41.481  32.295  34.556  1.00  0.00     0.074 A 
ATOM     29  C   UNL A   1      42.851  27.517  30.529  1.00  0.00     0.029 A 
ATOM     30  N   UNL A   1      41.916  29.279  31.521  1.00  0.00    -0.354 N 
ATOM     31  N   UNL A   1      41.679  31.357  33.658  1.00  0.00    -0.248 NA
ATOM     32  C   UNL A   1      42.414  32.254  35.688  1.00  0.00     0.031 C 
ATOM     33  C   UNL A   1      43.529  27.770  31.727  1.00  0.00     0.029 A 
ATOM     34  C   UNL A   1      42.964  28.884  32.332  1.00  0.00     0.049 A 
ATOM     35  H   UNL A   1      41.319  30.041  31.699  1.00  0.00     0.167 HD
ATOM     36  C   UNL A   1      42.765  30.623  34.109  1.00  0.00     0.074 A 
ATOM     37  C   UNL A   1      43.198  31.240  35.349  1.00  0.00     0.031 C 
ATOM     38  C   UNL A   1      43.355  29.532  33.558  1.00  0.00     0.031 A 
BRANCH  25  39
ATOM     39  C   UNL A   1      40.824  27.601  28.238  1.00  0.00    -0.014 A 
ATOM     40  C   UNL A   1      41.491  27.888  27.036  1.00  0.00     0.009 A 
ATOM     41  C   UNL A   1      40.091  26.409  28.340  1.00  0.00     0.009 A 
ATOM     42  C   UNL A   1      41.390  27.017  25.948  1.00  0.00     0.001 A 
ATOM     43  C   UNL A   1      40.013  25.529  27.260  1.00  0.00     0.001 A 
ATOM     44  C   UNL A   1      40.651  25.839  26.060  1.00  0.00     0.000 A 
ENDBRANCH  25  39
BRANCH  26  45
ATOM     45  C   UNL A   1      40.385  34.388  35.667  1.00  0.00    -0.014 A 
ATOM     46  C   UNL A   1      39.645  34.149  36.835  1.00  0.00     0.009 A 
ATOM     47  C   UNL A   1      41.071  35.608  35.542  1.00  0.00     0.009 A 
ATOM     48  C   UNL A   1      39.577  35.117  37.842  1.00  0.00     0.001 A 
ATOM     49  C   UNL A   1      41.027  36.561  36.563  1.00  0.00     0.001 A 
ATOM     50  C   UNL A   1      40.272  36.318  37.708  1.00  0.00     0.000 A 
ENDBRANCH  26  45
BRANCH  38  51
ATOM     51  C   UNL A   1      44.539  28.966  34.285  1.00  0.00    -0.014 A 
ATOM     52  C   UNL A   1      44.385  27.957  35.247  1.00  0.00     0.009 A 
ATOM     53  C   UNL A   1      45.827  29.418  33.963  1.00  0.00     0.009 A 
ATOM     54  C   UNL A   1      45.502  27.430  35.895  1.00  0.00     0.001 A 
ATOM     55  C   UNL A   1      46.944  28.869  34.592  1.00  0.00     0.001 A 
ATOM     56  C   UNL A   1      46.779  27.882  35.563  1.00  0.00     0.000 A 
ENDBRANCH  38  51
ENDBRANCH  12  13
ENDBRANCH   5   7
ENDBRANCH   4   5
ENDBRANCH   3   4
ENDBRANCH   2   3
ENDBRANCH   1   2
BRANCH   1  57
ATOM     57  C   UNL A   1      32.242  29.171  27.099  1.00  0.00     0.202 C 
BRANCH  57  58
ATOM     58  C   UNL A   1      33.430  28.299  26.694  1.00  0.00     0.261 C 
BRANCH  58  59
ATOM     59  O   UNL A   1      33.030  27.482  25.587  1.00  0.00    -0.463 OA
BRANCH  59  60
ATOM     60  C   UNL A   1      33.243  26.151  25.780  1.00  0.00     0.314 C 
ATOM     61  O   UNL A   1      34.349  25.626  25.854  1.00  0.00    -0.252 OA
BRANCH  60  62
ATOM     62  C   UNL A   1      31.956  25.404  26.086  1.00  0.00     0.154 C 
ATOM     63  C   UNL A   1      32.017  23.987  25.526  1.00  0.00     0.027 C 
ATOM     64  C   UNL A   1      30.660  26.093  25.649  1.00  0.00     0.277 C 
ATOM     65  C   UNL A   1      31.922  24.050  24.011  1.00  0.00     0.062 C 
ATOM     66  N   UNL A   1      30.340  26.007  24.221  1.00  0.00    -0.330 N 
ATOM     67  C   UNL A   1      30.608  24.703  23.598  1.00  0.00     0.262 C 
ATOM     68  H   UNL A   1      31.008  26.638  23.778  1.00  0.00     0.348 HD
BRANCH  66  69
ATOM     69  C   UNL A   1      28.977  26.518  23.909  1.00  0.00     0.300 C 
BRANCH  69  70
ATOM     70  C   UNL A   1      28.938  27.841  23.147  1.00  0.00     0.025 A 
ATOM     71  C   UNL A   1      30.129  28.352  22.595  1.00  0.00     0.014 A 
ATOM     72  C   UNL A   1      27.781  28.644  23.086  1.00  0.00     0.052 A 
ATOM     73  C   UNL A   1      30.191  29.660  22.112  1.00  0.00     0.040 A 
ATOM     74  C   UNL A   1      27.846  29.954  22.603  1.00  0.00     0.060 A 
ATOM     75  Cl  UNL A   1      26.238  28.094  23.641  1.00  0.00    -0.084 Cl
ATOM     76  C   UNL A   1      29.056  30.455  22.145  1.00  0.00     0.124 A 
ATOM     77  F   UNL A   1      29.128  31.725  21.731  1.00  0.00    -0.207 F 
ENDBRANCH  69  70
ENDBRANCH  66  69
ENDBRANCH  60  62
ENDBRANCH  59  60
ENDBRANCH  58  59
ENDBRANCH  57  58
ENDBRANCH   1  57
TORSDOF 16
ENDMDL
