MODEL 1
REMARK VINA RESULT:     -10.3      0.000      0.000
REMARK SMILES O=C(CC1(NC(=O)c2cc(Cl)ccc2Cl)CCC1)OCCOCCOC(=O)c1ccc(-c2c3nc(c(-c4ccccc4)c4ccc([nH]4)c(-c4ccccc4)c4nc(c(-c5ccccc5)c5ccc2[nH]5)C=C4)C=C3)cc1
REMARK SMILES IDX 21 1 20 2 19 3 2 4 1 5 3 6 4 7 16 8 18 9 17 10 5 11 6 12
REMARK SMILES IDX 7 14 8 15 9 16 14 17 10 18 13 19 15 20 11 21 12 22 22 23
REMARK SMILES IDX 23 24 24 25 25 26 26 27 27 28 28 29 29 30 75 31 30 32 74 33
REMARK SMILES IDX 31 34 32 35 33 36 68 37 34 38 73 39 67 40 69 41 35 42 72 43
REMARK SMILES IDX 66 44 65 45 36 47 58 48 43 49 57 50 44 51 47 52 56 53 70 54
REMARK SMILES IDX 45 55 46 56 55 58 71 59 48 60 37 61 38 62 42 63 39 64 41 65
REMARK SMILES IDX 40 66 59 67 60 68 64 69 61 70 63 71 62 72 49 73 50 74 54 75
REMARK SMILES IDX 51 76 53 77 52 78
REMARK H PARENT 5 13 69 46 47 57
REMARK Flexibility Score: inf
ROOT
ATOM      1  C   UNL A   1      34.412  32.249  28.928  1.00  0.00     0.202 C 
ENDROOT
BRANCH   1   2
ATOM      2  C   UNL A   1      33.728  31.942  27.602  1.00  0.00     0.261 C 
BRANCH   2   3
ATOM      3  O   UNL A   1      32.919  30.761  27.556  1.00  0.00    -0.463 OA
BRANCH   3   4
ATOM      4  C   UNL A   1      33.164  29.600  26.924  1.00  0.00     0.308 C 
ATOM      5  O   UNL A   1      33.600  28.656  27.587  1.00  0.00    -0.252 OA
BRANCH   4   6
ATOM      6  C   UNL A   1      33.058  29.455  25.430  1.00  0.00     0.151 C 
BRANCH   6   7
ATOM      7  C   UNL A   1      31.965  28.639  24.748  1.00  0.00     0.051 C 
ATOM      8  C   UNL A   1      30.776  29.502  24.197  1.00  0.00     0.029 C 
ATOM      9  C   UNL A   1      32.258  28.238  23.260  1.00  0.00     0.029 C 
ATOM     10  C   UNL A   1      31.026  28.989  22.778  1.00  0.00     0.005 C 
BRANCH   7  11
ATOM     11  N   UNL A   1      31.408  27.472  25.511  1.00  0.00    -0.346 N 
ATOM     12  C   UNL A   1      31.773  26.180  25.855  1.00  0.00     0.253 C 
ATOM     13  H   UNL A   1      30.519  27.690  25.875  1.00  0.00     0.164 HD
ATOM     14  O   UNL A   1      31.168  25.720  26.825  1.00  0.00    -0.269 OA
BRANCH  12  15
ATOM     15  C   UNL A   1      32.762  25.327  25.145  1.00  0.00     0.059 A 
ATOM     16  C   UNL A   1      33.991  25.005  25.730  1.00  0.00     0.036 A 
ATOM     17  C   UNL A   1      32.482  24.812  23.860  1.00  0.00     0.053 A 
ATOM     18  C   UNL A   1      34.986  24.372  24.977  1.00  0.00     0.041 A 
ATOM     19  C   UNL A   1      33.482  24.160  23.121  1.00  0.00     0.023 A 
ATOM     20  Cl  UNL A   1      30.923  24.883  23.105  1.00  0.00    -0.083 Cl
ATOM     21  Cl  UNL A   1      36.541  24.121  25.668  1.00  0.00    -0.084 Cl
ATOM     22  C   UNL A   1      34.750  23.976  23.665  1.00  0.00     0.022 A 
ENDBRANCH  12  15
ENDBRANCH   7  11
ENDBRANCH   6   7
ENDBRANCH   4   6
ENDBRANCH   3   4
ENDBRANCH   2   3
ENDBRANCH   1   2
BRANCH   1  23
ATOM     23  O   UNL A   1      33.925  33.387  29.616  1.00  0.00    -0.374 OA
BRANCH  23  24
ATOM     24  C   UNL A   1      33.379  34.412  28.782  1.00  0.00     0.202 C 
BRANCH  24  25
ATOM     25  C   UNL A   1      33.141  35.686  29.588  1.00  0.00     0.261 C 
BRANCH  25  26
ATOM     26  O   UNL A   1      32.509  35.352  30.827  1.00  0.00    -0.460 OA
BRANCH  26  27
ATOM     27  C   UNL A   1      32.968  35.990  31.935  1.00  0.00     0.338 C 
ATOM     28  O   UNL A   1      32.523  36.975  32.471  1.00  0.00    -0.246 OA
BRANCH  27  29
ATOM     29  C   UNL A   1      33.994  35.105  32.514  1.00  0.00     0.060 A 
ATOM     30  C   UNL A   1      33.608  33.874  33.067  1.00  0.00     0.016 A 
ATOM     31  C   UNL A   1      35.338  35.441  32.359  1.00  0.00     0.016 A 
ATOM     32  C   UNL A   1      34.586  32.943  33.413  1.00  0.00     0.010 A 
ATOM     33  C   UNL A   1      36.305  34.516  32.694  1.00  0.00     0.010 A 
ATOM     34  C   UNL A   1      35.933  33.265  33.214  1.00  0.00    -0.014 A 
BRANCH  34  35
ATOM     35  C   UNL A   1      37.031  32.366  33.605  1.00  0.00     0.031 A 
ATOM     36  C   UNL A   1      37.771  32.695  34.863  1.00  0.00     0.074 A 
ATOM     37  C   UNL A   1      37.455  31.428  32.742  1.00  0.00     0.049 A 
ATOM     38  N   UNL A   1      38.932  32.266  35.272  1.00  0.00    -0.248 NA
ATOM     39  C   UNL A   1      37.134  33.681  35.756  1.00  0.00     0.031 C 
ATOM     40  C   UNL A   1      36.797  31.073  31.482  1.00  0.00     0.029 A 
ATOM     41  N   UNL A   1      38.577  30.644  32.766  1.00  0.00    -0.354 N 
ATOM     42  C   UNL A   1      39.184  32.958  36.450  1.00  0.00     0.074 A 
ATOM     43  C   UNL A   1      38.068  33.845  36.681  1.00  0.00     0.031 C 
ATOM     44  C   UNL A   1      37.547  30.164  30.838  1.00  0.00     0.029 A 
ATOM     45  C   UNL A   1      38.756  29.914  31.615  1.00  0.00     0.049 A 
ATOM     46  H   UNL A   1      39.196  30.607  33.532  1.00  0.00     0.167 HD
ATOM     47  C   UNL A   1      40.265  32.859  37.255  1.00  0.00     0.031 A 
ATOM     48  C   UNL A   1      39.806  29.167  31.223  1.00  0.00     0.031 A 
ATOM     49  C   UNL A   1      41.360  31.967  36.992  1.00  0.00     0.049 A 
ATOM     50  C   UNL A   1      41.000  29.084  32.138  1.00  0.00     0.074 A 
ATOM     51  C   UNL A   1      42.473  31.716  37.769  1.00  0.00     0.029 A 
ATOM     52  N   UNL A   1      41.476  31.188  35.849  1.00  0.00    -0.354 N 
ATOM     53  N   UNL A   1      41.195  29.671  33.295  1.00  0.00    -0.248 NA
ATOM     54  C   UNL A   1      42.116  28.238  31.696  1.00  0.00     0.031 C 
ATOM     55  C   UNL A   1      43.294  30.829  37.068  1.00  0.00     0.029 A 
ATOM     56  C   UNL A   1      42.662  30.482  35.883  1.00  0.00     0.049 A 
ATOM     57  H   UNL A   1      40.812  31.145  35.123  1.00  0.00     0.167 HD
ATOM     58  C   UNL A   1      42.444  29.249  33.730  1.00  0.00     0.074 A 
ATOM     59  C   UNL A   1      42.951  28.341  32.721  1.00  0.00     0.031 C 
ATOM     60  C   UNL A   1      43.122  29.583  34.856  1.00  0.00     0.031 A 
BRANCH  47  61
ATOM     61  C   UNL A   1      40.324  33.745  38.464  1.00  0.00    -0.014 A 
ATOM     62  C   UNL A   1      39.818  33.326  39.705  1.00  0.00     0.009 A 
ATOM     63  C   UNL A   1      40.935  35.006  38.371  1.00  0.00     0.009 A 
ATOM     64  C   UNL A   1      39.904  34.161  40.821  1.00  0.00     0.001 A 
ATOM     65  C   UNL A   1      41.042  35.828  39.493  1.00  0.00     0.001 A 
ATOM     66  C   UNL A   1      40.521  35.407  40.716  1.00  0.00     0.000 A 
ENDBRANCH  47  61
BRANCH  48  67
ATOM     67  C   UNL A   1      39.799  28.476  29.906  1.00  0.00    -0.014 A 
ATOM     68  C   UNL A   1      39.365  27.145  29.802  1.00  0.00     0.009 A 
ATOM     69  C   UNL A   1      40.247  29.130  28.747  1.00  0.00     0.009 A 
ATOM     70  C   UNL A   1      39.412  26.476  28.575  1.00  0.00     0.001 A 
ATOM     71  C   UNL A   1      40.264  28.469  27.516  1.00  0.00     0.001 A 
ATOM     72  C   UNL A   1      39.858  27.139  27.434  1.00  0.00     0.000 A 
ENDBRANCH  48  67
BRANCH  60  73
ATOM     73  C   UNL A   1      44.462  28.940  35.061  1.00  0.00    -0.014 A 
ATOM     74  C   UNL A   1      44.571  27.647  35.591  1.00  0.00     0.009 A 
ATOM     75  C   UNL A   1      45.623  29.614  34.652  1.00  0.00     0.009 A 
ATOM     76  C   UNL A   1      45.822  27.049  35.731  1.00  0.00     0.001 A 
ATOM     77  C   UNL A   1      46.870  29.002  34.763  1.00  0.00     0.001 A 
ATOM     78  C   UNL A   1      46.969  27.722  35.309  1.00  0.00     0.000 A 
ENDBRANCH  60  73
ENDBRANCH  34  35
ENDBRANCH  27  29
ENDBRANCH  26  27
ENDBRANCH  25  26
ENDBRANCH  24  25
ENDBRANCH  23  24
ENDBRANCH   1  23
TORSDOF 17
ENDMDL
MODEL 2
REMARK VINA RESULT:     -10.1      1.516      2.485
REMARK SMILES O=C(CC1(NC(=O)c2cc(Cl)ccc2Cl)CCC1)OCCOCCOC(=O)c1ccc(-c2c3nc(c(-c4ccccc4)c4ccc([nH]4)c(-c4ccccc4)c4nc(c(-c5ccccc5)c5ccc2[nH]5)C=C4)C=C3)cc1
REMARK SMILES IDX 21 1 20 2 19 3 2 4 1 5 3 6 4 7 16 8 18 9 17 10 5 11 6 12
REMARK SMILES IDX 7 14 8 15 9 16 14 17 10 18 13 19 15 20 11 21 12 22 22 23
REMARK SMILES IDX 23 24 24 25 25 26 26 27 27 28 28 29 29 30 75 31 30 32 74 33
REMARK SMILES IDX 31 34 32 35 33 36 68 37 34 38 73 39 67 40 69 41 35 42 72 43
REMARK SMILES IDX 66 44 65 45 36 47 58 48 43 49 57 50 44 51 47 52 56 53 70 54
REMARK SMILES IDX 45 55 46 56 55 58 71 59 48 60 37 61 38 62 42 63 39 64 41 65
REMARK SMILES IDX 40 66 59 67 60 68 64 69 61 70 63 71 62 72 49 73 50 74 54 75
REMARK SMILES IDX 51 76 53 77 52 78
REMARK H PARENT 5 13 69 46 47 57
REMARK Flexibility Score: inf
ROOT
ATOM      1  C   UNL A   1      33.622  33.696  28.398  1.00  0.00     0.202 C 
ENDROOT
BRANCH   1   2
ATOM      2  C   UNL A   1      33.818  32.357  27.699  1.00  0.00     0.261 C 
BRANCH   2   3
ATOM      3  O   UNL A   1      35.090  31.723  27.875  1.00  0.00    -0.463 OA
BRANCH   3   4
ATOM      4  C   UNL A   1      35.433  30.448  27.618  1.00  0.00     0.308 C 
ATOM      5  O   UNL A   1      36.532  30.234  27.101  1.00  0.00    -0.252 OA
BRANCH   4   6
ATOM      6  C   UNL A   1      34.481  29.300  27.811  1.00  0.00     0.151 C 
BRANCH   6   7
ATOM      7  C   UNL A   1      33.468  28.872  26.754  1.00  0.00     0.051 C 
ATOM      8  C   UNL A   1      32.832  27.461  27.015  1.00  0.00     0.029 C 
ATOM      9  C   UNL A   1      32.026  29.464  26.929  1.00  0.00     0.029 C 
ATOM     10  C   UNL A   1      31.431  28.070  27.059  1.00  0.00     0.005 C 
BRANCH   7  11
ATOM     11  N   UNL A   1      33.903  28.953  25.320  1.00  0.00    -0.346 N 
ATOM     12  C   UNL A   1      33.342  28.893  24.054  1.00  0.00     0.253 C 
ATOM     13  H   UNL A   1      34.877  29.088  25.261  1.00  0.00     0.164 HD
ATOM     14  O   UNL A   1      34.031  29.400  23.165  1.00  0.00    -0.269 OA
BRANCH  12  15
ATOM     15  C   UNL A   1      32.051  28.250  23.693  1.00  0.00     0.059 A 
ATOM     16  C   UNL A   1      30.911  29.016  23.429  1.00  0.00     0.036 A 
ATOM     17  C   UNL A   1      31.944  26.845  23.602  1.00  0.00     0.053 A 
ATOM     18  C   UNL A   1      29.664  28.399  23.288  1.00  0.00     0.041 A 
ATOM     19  C   UNL A   1      30.689  26.236  23.439  1.00  0.00     0.023 A 
ATOM     20  Cl  UNL A   1      33.299  25.764  23.631  1.00  0.00    -0.083 Cl
ATOM     21  Cl  UNL A   1      28.253  29.367  23.115  1.00  0.00    -0.084 Cl
ATOM     22  C   UNL A   1      29.541  27.014  23.323  1.00  0.00     0.022 A 
ENDBRANCH  12  15
ENDBRANCH   7  11
ENDBRANCH   6   7
ENDBRANCH   4   6
ENDBRANCH   3   4
ENDBRANCH   2   3
ENDBRANCH   1   2
BRANCH   1  23
ATOM     23  O   UNL A   1      34.320  34.790  27.829  1.00  0.00    -0.374 OA
BRANCH  23  24
ATOM     24  C   UNL A   1      34.266  36.003  28.585  1.00  0.00     0.202 C 
BRANCH  24  25
ATOM     25  C   UNL A   1      33.052  36.001  29.510  1.00  0.00     0.261 C 
BRANCH  25  26
ATOM     26  O   UNL A   1      33.385  36.670  30.730  1.00  0.00    -0.460 OA
BRANCH  26  27
ATOM     27  C   UNL A   1      32.832  36.171  31.866  1.00  0.00     0.338 C 
ATOM     28  O   UNL A   1      31.691  36.261  32.247  1.00  0.00    -0.246 OA
BRANCH  27  29
ATOM     29  C   UNL A   1      33.848  35.278  32.450  1.00  0.00     0.060 A 
ATOM     30  C   UNL A   1      33.451  34.046  32.994  1.00  0.00     0.016 A 
ATOM     31  C   UNL A   1      35.195  35.607  32.308  1.00  0.00     0.016 A 
ATOM     32  C   UNL A   1      34.421  33.108  33.343  1.00  0.00     0.010 A 
ATOM     33  C   UNL A   1      36.154  34.675  32.647  1.00  0.00     0.010 A 
ATOM     34  C   UNL A   1      35.771  33.424  33.157  1.00  0.00    -0.014 A 
BRANCH  34  35
ATOM     35  C   UNL A   1      36.861  32.517  33.554  1.00  0.00     0.031 A 
ATOM     36  C   UNL A   1      37.576  32.822  34.832  1.00  0.00     0.074 A 
ATOM     37  C   UNL A   1      37.301  31.595  32.681  1.00  0.00     0.049 A 
ATOM     38  N   UNL A   1      38.728  32.384  35.256  1.00  0.00    -0.248 NA
ATOM     39  C   UNL A   1      36.922  33.792  35.730  1.00  0.00     0.031 C 
ATOM     40  C   UNL A   1      36.668  31.264  31.403  1.00  0.00     0.029 A 
ATOM     41  N   UNL A   1      38.423  30.809  32.714  1.00  0.00    -0.354 N 
ATOM     42  C   UNL A   1      38.957  33.055  36.450  1.00  0.00     0.074 A 
ATOM     43  C   UNL A   1      37.837  33.938  36.676  1.00  0.00     0.031 C 
ATOM     44  C   UNL A   1      37.430  30.366  30.756  1.00  0.00     0.029 A 
ATOM     45  C   UNL A   1      38.624  30.100  31.553  1.00  0.00     0.049 A 
ATOM     46  H   UNL A   1      39.026  30.758  33.490  1.00  0.00     0.167 HD
ATOM     47  C   UNL A   1      40.022  32.940  37.275  1.00  0.00     0.031 A 
ATOM     48  C   UNL A   1      39.681  29.361  31.167  1.00  0.00     0.031 A 
ATOM     49  C   UNL A   1      41.122  32.052  37.017  1.00  0.00     0.049 A 
ATOM     50  C   UNL A   1      40.856  29.260  32.104  1.00  0.00     0.074 A 
ATOM     51  C   UNL A   1      42.219  31.786  37.811  1.00  0.00     0.029 A 
ATOM     52  N   UNL A   1      41.260  31.295  35.863  1.00  0.00    -0.354 N 
ATOM     53  N   UNL A   1      41.029  29.825  33.276  1.00  0.00    -0.248 NA
ATOM     54  C   UNL A   1      41.981  28.421  31.669  1.00  0.00     0.031 C 
ATOM     55  C   UNL A   1      43.053  30.911  37.110  1.00  0.00     0.029 A 
ATOM     56  C   UNL A   1      42.445  30.587  35.906  1.00  0.00     0.049 A 
ATOM     57  H   UNL A   1      40.610  31.266  35.123  1.00  0.00     0.167 HD
ATOM     58  C   UNL A   1      42.269  29.394  33.728  1.00  0.00     0.074 A 
ATOM     59  C   UNL A   1      42.795  28.504  32.712  1.00  0.00     0.031 C 
ATOM     60  C   UNL A   1      42.925  29.707  34.872  1.00  0.00     0.031 A 
BRANCH  47  61
ATOM     61  C   UNL A   1      40.058  33.804  38.501  1.00  0.00    -0.014 A 
ATOM     62  C   UNL A   1      40.584  35.105  38.464  1.00  0.00     0.009 A 
ATOM     63  C   UNL A   1      39.518  33.323  39.705  1.00  0.00     0.009 A 
ATOM     64  C   UNL A   1      40.588  35.898  39.613  1.00  0.00     0.001 A 
ATOM     65  C   UNL A   1      39.500  34.127  40.845  1.00  0.00     0.001 A 
ATOM     66  C   UNL A   1      40.040  35.412  40.800  1.00  0.00     0.000 A 
ENDBRANCH  47  61
BRANCH  48  67
ATOM     67  C   UNL A   1      39.699  28.694  29.839  1.00  0.00    -0.014 A 
ATOM     68  C   UNL A   1      39.308  27.352  29.708  1.00  0.00     0.009 A 
ATOM     69  C   UNL A   1      40.129  29.383  28.693  1.00  0.00     0.009 A 
ATOM     70  C   UNL A   1      39.380  26.707  28.470  1.00  0.00     0.001 A 
ATOM     71  C   UNL A   1      40.171  28.745  27.450  1.00  0.00     0.001 A 
ATOM     72  C   UNL A   1      39.808  27.405  27.342  1.00  0.00     0.000 A 
ENDBRANCH  48  67
BRANCH  60  73
ATOM     73  C   UNL A   1      44.260  29.059  35.092  1.00  0.00    -0.014 A 
ATOM     74  C   UNL A   1      45.446  29.692  34.693  1.00  0.00     0.009 A 
ATOM     75  C   UNL A   1      44.331  27.832  35.769  1.00  0.00     0.009 A 
ATOM     76  C   UNL A   1      46.679  29.095  34.947  1.00  0.00     0.001 A 
ATOM     77  C   UNL A   1      45.567  27.253  36.050  1.00  0.00     0.001 A 
ATOM     78  C   UNL A   1      46.740  27.882  35.633  1.00  0.00     0.000 A 
ENDBRANCH  60  73
ENDBRANCH  34  35
ENDBRANCH  27  29
ENDBRANCH  26  27
ENDBRANCH  25  26
ENDBRANCH  24  25
ENDBRANCH  23  24
ENDBRANCH   1  23
TORSDOF 17
ENDMDL
MODEL 3
REMARK VINA RESULT:     -10.0      4.041      8.949
REMARK SMILES O=C(CC1(NC(=O)c2cc(Cl)ccc2Cl)CCC1)OCCOCCOC(=O)c1ccc(-c2c3nc(c(-c4ccccc4)c4ccc([nH]4)c(-c4ccccc4)c4nc(c(-c5ccccc5)c5ccc2[nH]5)C=C4)C=C3)cc1
REMARK SMILES IDX 21 1 20 2 19 3 2 4 1 5 3 6 4 7 16 8 18 9 17 10 5 11 6 12
REMARK SMILES IDX 7 14 8 15 9 16 14 17 10 18 13 19 15 20 11 21 12 22 22 23
REMARK SMILES IDX 23 24 24 25 25 26 26 27 27 28 28 29 29 30 75 31 30 32 74 33
REMARK SMILES IDX 31 34 32 35 33 36 68 37 34 38 73 39 67 40 69 41 35 42 72 43
REMARK SMILES IDX 66 44 65 45 36 47 58 48 43 49 57 50 44 51 47 52 56 53 70 54
REMARK SMILES IDX 45 55 46 56 55 58 71 59 48 60 37 61 38 62 42 63 39 64 41 65
REMARK SMILES IDX 40 66 59 67 60 68 64 69 61 70 63 71 62 72 49 73 50 74 54 75
REMARK SMILES IDX 51 76 53 77 52 78
REMARK H PARENT 5 13 69 46 47 57
REMARK Flexibility Score: inf
ROOT
ATOM      1  C   UNL A   1      40.153  20.693  26.126  1.00  0.00     0.202 C 
ENDROOT
BRANCH   1   2
ATOM      2  C   UNL A   1      39.062  21.756  26.119  1.00  0.00     0.261 C 
BRANCH   2   3
ATOM      3  O   UNL A   1      37.952  21.529  25.242  1.00  0.00    -0.463 OA
BRANCH   3   4
ATOM      4  C   UNL A   1      36.873  22.305  25.037  1.00  0.00     0.308 C 
ATOM      5  O   UNL A   1      36.996  23.292  24.306  1.00  0.00    -0.252 OA
BRANCH   4   6
ATOM      6  C   UNL A   1      35.575  22.095  25.766  1.00  0.00     0.151 C 
BRANCH   6   7
ATOM      7  C   UNL A   1      34.283  22.814  25.392  1.00  0.00     0.051 C 
ATOM      8  C   UNL A   1      32.991  22.166  26.004  1.00  0.00     0.029 C 
ATOM      9  C   UNL A   1      33.952  24.087  26.247  1.00  0.00     0.029 C 
ATOM     10  C   UNL A   1      32.647  23.470  26.725  1.00  0.00     0.005 C 
BRANCH   7  11
ATOM     11  N   UNL A   1      34.049  23.080  23.933  1.00  0.00    -0.346 N 
ATOM     12  C   UNL A   1      33.641  24.121  23.114  1.00  0.00     0.253 C 
ATOM     13  H   UNL A   1      34.243  22.276  23.399  1.00  0.00     0.164 HD
ATOM     14  O   UNL A   1      33.971  24.002  21.932  1.00  0.00    -0.269 OA
BRANCH  12  15
ATOM     15  C   UNL A   1      32.829  25.297  23.525  1.00  0.00     0.059 A 
ATOM     16  C   UNL A   1      33.409  26.561  23.670  1.00  0.00     0.036 A 
ATOM     17  C   UNL A   1      31.445  25.169  23.775  1.00  0.00     0.053 A 
ATOM     18  C   UNL A   1      32.683  27.610  24.245  1.00  0.00     0.041 A 
ATOM     19  C   UNL A   1      30.721  26.234  24.334  1.00  0.00     0.023 A 
ATOM     20  Cl  UNL A   1      30.517  23.756  23.391  1.00  0.00    -0.083 Cl
ATOM     21  Cl  UNL A   1      33.461  29.112  24.553  1.00  0.00    -0.084 Cl
ATOM     22  C   UNL A   1      31.351  27.444  24.608  1.00  0.00     0.022 A 
ENDBRANCH  12  15
ENDBRANCH   7  11
ENDBRANCH   6   7
ENDBRANCH   4   6
ENDBRANCH   3   4
ENDBRANCH   2   3
ENDBRANCH   1   2
BRANCH   1  23
ATOM     23  O   UNL A   1      41.419  21.114  25.648  1.00  0.00    -0.374 OA
BRANCH  23  24
ATOM     24  C   UNL A   1      42.515  20.273  26.015  1.00  0.00     0.202 C 
BRANCH  24  25
ATOM     25  C   UNL A   1      43.840  20.928  25.637  1.00  0.00     0.261 C 
BRANCH  25  26
ATOM     26  O   UNL A   1      43.934  22.207  26.269  1.00  0.00    -0.460 OA
BRANCH  26  27
ATOM     27  C   UNL A   1      43.727  23.293  25.479  1.00  0.00     0.338 C 
ATOM     28  O   UNL A   1      43.778  23.365  24.276  1.00  0.00    -0.246 OA
BRANCH  27  29
ATOM     29  C   UNL A   1      43.184  24.338  26.365  1.00  0.00     0.060 A 
ATOM     30  C   UNL A   1      42.290  23.978  27.386  1.00  0.00     0.016 A 
ATOM     31  C   UNL A   1      43.690  25.633  26.266  1.00  0.00     0.016 A 
ATOM     32  C   UNL A   1      41.948  24.918  28.357  1.00  0.00     0.010 A 
ATOM     33  C   UNL A   1      43.356  26.560  27.233  1.00  0.00     0.010 A 
ATOM     34  C   UNL A   1      42.493  26.204  28.282  1.00  0.00    -0.014 A 
BRANCH  34  35
ATOM     35  C   UNL A   1      42.139  27.273  29.230  1.00  0.00     0.031 A 
ATOM     36  C   UNL A   1      42.856  27.290  30.542  1.00  0.00     0.074 A 
ATOM     37  C   UNL A   1      41.073  28.050  28.979  1.00  0.00     0.049 A 
ATOM     38  N   UNL A   1      42.544  27.912  31.644  1.00  0.00    -0.248 NA
ATOM     39  C   UNL A   1      44.065  26.450  30.637  1.00  0.00     0.031 C 
ATOM     40  C   UNL A   1      40.308  28.067  27.730  1.00  0.00     0.029 A 
ATOM     41  N   UNL A   1      40.411  28.935  29.789  1.00  0.00    -0.354 N 
ATOM     42  C   UNL A   1      43.492  27.508  32.575  1.00  0.00     0.074 A 
ATOM     43  C   UNL A   1      44.379  26.578  31.917  1.00  0.00     0.031 C 
ATOM     44  C   UNL A   1      39.260  28.896  27.869  1.00  0.00     0.029 A 
ATOM     45  C   UNL A   1      39.255  29.425  29.229  1.00  0.00     0.049 A 
ATOM     46  H   UNL A   1      40.730  29.193  30.684  1.00  0.00     0.167 HD
ATOM     47  C   UNL A   1      43.596  27.883  33.869  1.00  0.00     0.031 A 
ATOM     48  C   UNL A   1      38.284  30.179  29.778  1.00  0.00     0.031 A 
ATOM     49  C   UNL A   1      42.692  28.809  34.493  1.00  0.00     0.049 A 
ATOM     50  C   UNL A   1      38.424  30.572  31.226  1.00  0.00     0.074 A 
ATOM     51  C   UNL A   1      42.737  29.329  35.771  1.00  0.00     0.029 A 
ATOM     52  N   UNL A   1      41.571  29.343  33.874  1.00  0.00    -0.354 N 
ATOM     53  N   UNL A   1      39.372  30.261  32.078  1.00  0.00    -0.248 NA
ATOM     54  C   UNL A   1      37.364  31.420  31.788  1.00  0.00     0.031 C 
ATOM     55  C   UNL A   1      41.607  30.133  35.946  1.00  0.00     0.029 A 
ATOM     56  C   UNL A   1      40.893  30.159  34.758  1.00  0.00     0.049 A 
ATOM     57  H   UNL A   1      41.298  29.166  32.944  1.00  0.00     0.167 HD
ATOM     58  C   UNL A   1      39.036  30.891  33.269  1.00  0.00     0.074 A 
ATOM     59  C   UNL A   1      37.807  31.618  33.022  1.00  0.00     0.031 C 
ATOM     60  C   UNL A   1      39.675  30.869  34.465  1.00  0.00     0.031 A 
BRANCH  47  61
ATOM     61  C   UNL A   1      44.696  27.277  34.690  1.00  0.00    -0.014 A 
ATOM     62  C   UNL A   1      45.958  27.885  34.787  1.00  0.00     0.009 A 
ATOM     63  C   UNL A   1      44.454  26.098  35.413  1.00  0.00     0.009 A 
ATOM     64  C   UNL A   1      46.960  27.314  35.574  1.00  0.00     0.001 A 
ATOM     65  C   UNL A   1      45.448  25.543  36.219  1.00  0.00     0.001 A 
ATOM     66  C   UNL A   1      46.702  26.148  36.295  1.00  0.00     0.000 A 
ENDBRANCH  47  61
BRANCH  48  67
ATOM     67  C   UNL A   1      37.090  30.578  28.987  1.00  0.00    -0.014 A 
ATOM     68  C   UNL A   1      36.919  31.909  28.576  1.00  0.00     0.009 A 
ATOM     69  C   UNL A   1      36.099  29.639  28.654  1.00  0.00     0.009 A 
ATOM     70  C   UNL A   1      35.770  32.298  27.882  1.00  0.00     0.001 A 
ATOM     71  C   UNL A   1      34.966  30.024  27.933  1.00  0.00     0.001 A 
ATOM     72  C   UNL A   1      34.797  31.355  27.558  1.00  0.00     0.000 A 
ENDBRANCH  48  67
BRANCH  60  73
ATOM     73  C   UNL A   1      39.069  31.675  35.575  1.00  0.00    -0.014 A 
ATOM     74  C   UNL A   1      38.152  31.103  36.469  1.00  0.00     0.009 A 
ATOM     75  C   UNL A   1      39.478  33.004  35.768  1.00  0.00     0.009 A 
ATOM     76  C   UNL A   1      37.636  31.857  37.522  1.00  0.00     0.001 A 
ATOM     77  C   UNL A   1      38.985  33.745  36.841  1.00  0.00     0.001 A 
ATOM     78  C   UNL A   1      38.059  33.172  37.713  1.00  0.00     0.000 A 
ENDBRANCH  60  73
ENDBRANCH  34  35
ENDBRANCH  27  29
ENDBRANCH  26  27
ENDBRANCH  25  26
ENDBRANCH  24  25
ENDBRANCH  23  24
ENDBRANCH   1  23
TORSDOF 17
ENDMDL
