MODEL 1
REMARK VINA RESULT:     -10.4      0.000      0.000
REMARK SMILES Cc1cc(O[C@@H]2C[C@H](C)C[C@H](C)C2)cc(C(=O)OCCOCCOC(=O)c2ccc(-c3c4nc(c(-c5ccccc5)c5ccc([nH]5)c(-c5ccccc5)c5nc(c(-c6ccccc6)c6ccc3[nH]6)C=C5)C=C4)cc2)c1N
REMARK SMILES IDX 21 1 20 2 19 3 18 4 16 5 17 6 15 7 1 8 2 9 3 10 75 11 4 12
REMARK SMILES IDX 14 13 76 14 5 17 6 18 13 19 7 20 11 21 8 22 12 23 10 24 9 25
REMARK SMILES IDX 22 26 23 27 24 28 25 29 26 30 27 31 28 32 74 33 29 34 73 35
REMARK SMILES IDX 30 36 31 37 32 38 67 39 33 40 72 41 66 42 68 43 34 44 71 45
REMARK SMILES IDX 65 46 64 47 35 49 57 50 42 51 56 52 43 53 46 54 55 55 69 56
REMARK SMILES IDX 44 57 45 58 54 60 70 61 47 62 36 63 37 64 41 65 38 66 40 67
REMARK SMILES IDX 39 68 58 69 59 70 63 71 60 72 62 73 61 74 48 75 49 76 53 77
REMARK SMILES IDX 50 78 52 79 51 80
REMARK H PARENT 76 15 76 16 68 48 46 59
REMARK Flexibility Score: inf
ROOT
ATOM      1  O   UNL A   1      32.467  30.716  26.501  1.00  0.00    -0.374 OA
ENDROOT
BRANCH   1   2
ATOM      2  C   UNL A   1      32.183  29.436  25.943  1.00  0.00     0.202 C 
BRANCH   2   3
ATOM      3  C   UNL A   1      31.849  29.379  24.451  1.00  0.00     0.261 C 
BRANCH   3   4
ATOM      4  O   UNL A   1      30.753  28.487  24.184  1.00  0.00    -0.460 OA
BRANCH   4   5
ATOM      5  C   UNL A   1      31.116  27.452  23.390  1.00  0.00     0.340 C 
ATOM      6  O   UNL A   1      31.033  27.440  22.168  1.00  0.00    -0.246 OA
BRANCH   5   7
ATOM      7  C   UNL A   1      31.751  26.332  24.125  1.00  0.00     0.086 A 
ATOM      8  C   UNL A   1      30.628  23.718  26.639  1.00  0.00     0.047 C 
ATOM      9  C   UNL A   1      31.447  24.728  25.883  1.00  0.00    -0.024 A 
ATOM     10  C   UNL A   1      32.832  24.766  26.074  1.00  0.00     0.052 A 
ATOM     11  C   UNL A   1      30.879  25.540  24.903  1.00  0.00     0.049 A 
ATOM     12  C   UNL A   1      33.636  25.102  25.000  1.00  0.00     0.120 A 
ATOM     13  C   UNL A   1      33.127  26.030  24.085  1.00  0.00     0.064 A 
BRANCH  11  14
ATOM     14  N   UNL A   1      29.531  25.391  24.557  1.00  0.00    -0.398 N 
ATOM     15  H   UNL A   1      29.007  26.172  24.266  1.00  0.00     0.156 HD
ATOM     16  H   UNL A   1      29.106  24.503  24.602  1.00  0.00     0.156 HD
ENDBRANCH  11  14
BRANCH  12  17
ATOM     17  O   UNL A   1      34.819  24.450  24.715  1.00  0.00    -0.490 OA
BRANCH  17  18
ATOM     18  C   UNL A   1      34.836  23.288  23.809  1.00  0.00     0.173 C 
ATOM     19  C   UNL A   1      35.879  22.194  24.025  1.00  0.00     0.048 C 
ATOM     20  C   UNL A   1      33.443  22.547  23.807  1.00  0.00     0.048 C 
ATOM     21  C   UNL A   1      35.621  21.358  25.278  1.00  0.00    -0.010 C 
ATOM     22  C   UNL A   1      33.390  20.989  24.153  1.00  0.00    -0.010 C 
ATOM     23  C   UNL A   1      35.059  22.041  26.533  1.00  0.00     0.008 C 
ATOM     24  C   UNL A   1      34.635  20.325  24.792  1.00  0.00     0.007 C 
ATOM     25  C   UNL A   1      32.153  20.626  24.988  1.00  0.00     0.008 C 
ENDBRANCH  17  18
ENDBRANCH  12  17
ENDBRANCH   5   7
ENDBRANCH   4   5
ENDBRANCH   3   4
ENDBRANCH   2   3
ENDBRANCH   1   2
BRANCH   1  26
ATOM     26  C   UNL A   1      31.403  31.675  26.503  1.00  0.00     0.202 C 
BRANCH  26  27
ATOM     27  C   UNL A   1      31.794  33.144  26.719  1.00  0.00     0.261 C 
BRANCH  27  28
ATOM     28  O   UNL A   1      32.340  33.365  28.036  1.00  0.00    -0.460 OA
BRANCH  28  29
ATOM     29  C   UNL A   1      33.428  34.164  28.085  1.00  0.00     0.338 C 
ATOM     30  O   UNL A   1      33.454  35.390  28.044  1.00  0.00    -0.246 OA
BRANCH  29  31
ATOM     31  C   UNL A   1      34.614  33.360  28.431  1.00  0.00     0.060 A 
ATOM     32  C   UNL A   1      34.404  32.054  28.898  1.00  0.00     0.016 A 
ATOM     33  C   UNL A   1      35.904  33.882  28.340  1.00  0.00     0.016 A 
ATOM     34  C   UNL A   1      35.481  31.281  29.322  1.00  0.00     0.010 A 
ATOM     35  C   UNL A   1      36.984  33.109  28.780  1.00  0.00     0.010 A 
ATOM     36  C   UNL A   1      36.773  31.821  29.305  1.00  0.00    -0.014 A 
BRANCH  36  37
ATOM     37  C   UNL A   1      37.876  31.100  29.983  1.00  0.00     0.031 A 
ATOM     38  C   UNL A   1      38.137  31.377  31.438  1.00  0.00     0.074 A 
ATOM     39  C   UNL A   1      38.616  30.193  29.322  1.00  0.00     0.049 A 
ATOM     40  N   UNL A   1      39.070  30.898  32.219  1.00  0.00    -0.248 NA
ATOM     41  C   UNL A   1      37.221  32.322  32.100  1.00  0.00     0.031 C 
ATOM     42  C   UNL A   1      38.429  29.801  27.926  1.00  0.00     0.029 A 
ATOM     43  N   UNL A   1      39.682  29.440  29.745  1.00  0.00    -0.354 N 
ATOM     44  C   UNL A   1      38.863  31.490  33.459  1.00  0.00     0.074 A 
ATOM     45  C   UNL A   1      37.736  32.387  33.319  1.00  0.00     0.031 C 
ATOM     46  C   UNL A   1      39.358  28.884  27.604  1.00  0.00     0.029 A 
ATOM     47  C   UNL A   1      40.224  28.655  28.758  1.00  0.00     0.049 A 
ATOM     48  H   UNL A   1      40.024  29.460  30.669  1.00  0.00     0.167 HD
ATOM     49  C   UNL A   1      39.545  31.298  34.613  1.00  0.00     0.031 A 
ATOM     50  C   UNL A   1      41.313  27.861  28.779  1.00  0.00     0.031 A 
ATOM     51  C   UNL A   1      40.675  30.418  34.747  1.00  0.00     0.049 A 
ATOM     52  C   UNL A   1      42.107  27.731  30.052  1.00  0.00     0.074 A 
ATOM     53  C   UNL A   1      41.429  30.148  35.876  1.00  0.00     0.029 A 
ATOM     54  N   UNL A   1      41.217  29.670  33.713  1.00  0.00    -0.354 N 
ATOM     55  N   UNL A   1      41.889  28.278  31.223  1.00  0.00    -0.248 NA
ATOM     56  C   UNL A   1      43.294  26.865  30.005  1.00  0.00     0.031 C 
ATOM     57  C   UNL A   1      42.465  29.284  35.510  1.00  0.00     0.029 A 
ATOM     58  C   UNL A   1      42.314  28.960  34.171  1.00  0.00     0.049 A 
ATOM     59  H   UNL A   1      40.873  29.647  32.791  1.00  0.00     0.167 HD
ATOM     60  C   UNL A   1      42.891  27.799  32.059  1.00  0.00     0.074 A 
ATOM     61  C   UNL A   1      43.706  26.904  31.264  1.00  0.00     0.031 C 
ATOM     62  C   UNL A   1      43.116  28.074  33.368  1.00  0.00     0.031 A 
BRANCH  49  63
ATOM     63  C   UNL A   1      39.106  32.086  35.816  1.00  0.00    -0.014 A 
ATOM     64  C   UNL A   1      38.157  31.578  36.717  1.00  0.00     0.009 A 
ATOM     65  C   UNL A   1      39.680  33.342  36.072  1.00  0.00     0.009 A 
ATOM     66  C   UNL A   1      37.766  32.326  37.831  1.00  0.00     0.001 A 
ATOM     67  C   UNL A   1      39.311  34.075  37.201  1.00  0.00     0.001 A 
ATOM     68  C   UNL A   1      38.348  33.570  38.074  1.00  0.00     0.000 A 
ENDBRANCH  49  63
BRANCH  50  69
ATOM     69  C   UNL A   1      41.737  27.145  27.545  1.00  0.00    -0.014 A 
ATOM     70  C   UNL A   1      42.568  27.768  26.602  1.00  0.00     0.009 A 
ATOM     71  C   UNL A   1      41.287  25.838  27.294  1.00  0.00     0.009 A 
ATOM     72  C   UNL A   1      42.916  27.108  25.421  1.00  0.00     0.001 A 
ATOM     73  C   UNL A   1      41.663  25.169  26.128  1.00  0.00     0.001 A 
ATOM     74  C   UNL A   1      42.468  25.808  25.187  1.00  0.00     0.000 A 
ENDBRANCH  50  69
BRANCH  62  75
ATOM     75  C   UNL A   1      44.263  27.365  34.035  1.00  0.00    -0.014 A 
ATOM     76  C   UNL A   1      44.100  26.102  34.625  1.00  0.00     0.009 A 
ATOM     77  C   UNL A   1      45.537  27.954  34.033  1.00  0.00     0.009 A 
ATOM     78  C   UNL A   1      45.182  25.461  35.233  1.00  0.00     0.001 A 
ATOM     79  C   UNL A   1      46.624  27.296  34.611  1.00  0.00     0.001 A 
ATOM     80  C   UNL A   1      46.444  26.056  35.220  1.00  0.00     0.000 A 
ENDBRANCH  62  75
ENDBRANCH  36  37
ENDBRANCH  29  31
ENDBRANCH  28  29
ENDBRANCH  27  28
ENDBRANCH  26  27
ENDBRANCH   1  26
TORSDOF 17
ENDMDL
MODEL 2
REMARK VINA RESULT:     -10.4      2.113      3.615
REMARK SMILES Cc1cc(O[C@@H]2C[C@H](C)C[C@H](C)C2)cc(C(=O)OCCOCCOC(=O)c2ccc(-c3c4nc(c(-c5ccccc5)c5ccc([nH]5)c(-c5ccccc5)c5nc(c(-c6ccccc6)c6ccc3[nH]6)C=C5)C=C4)cc2)c1N
REMARK SMILES IDX 21 1 20 2 19 3 18 4 16 5 17 6 15 7 1 8 2 9 3 10 75 11 4 12
REMARK SMILES IDX 14 13 76 14 5 17 6 18 13 19 7 20 11 21 8 22 12 23 10 24 9 25
REMARK SMILES IDX 22 26 23 27 24 28 25 29 26 30 27 31 28 32 74 33 29 34 73 35
REMARK SMILES IDX 30 36 31 37 32 38 67 39 33 40 72 41 66 42 68 43 34 44 71 45
REMARK SMILES IDX 65 46 64 47 35 49 57 50 42 51 56 52 43 53 46 54 55 55 69 56
REMARK SMILES IDX 44 57 45 58 54 60 70 61 47 62 36 63 37 64 41 65 38 66 40 67
REMARK SMILES IDX 39 68 58 69 59 70 63 71 60 72 62 73 61 74 48 75 49 76 53 77
REMARK SMILES IDX 50 78 52 79 51 80
REMARK H PARENT 76 15 76 16 68 48 46 59
REMARK Flexibility Score: inf
ROOT
ATOM      1  O   UNL A   1      34.284  33.236  28.913  1.00  0.00    -0.374 OA
ENDROOT
BRANCH   1   2
ATOM      2  C   UNL A   1      34.592  32.207  27.977  1.00  0.00     0.202 C 
BRANCH   2   3
ATOM      3  C   UNL A   1      33.488  31.199  27.652  1.00  0.00     0.261 C 
BRANCH   3   4
ATOM      4  O   UNL A   1      33.979  30.109  26.853  1.00  0.00    -0.460 OA
BRANCH   4   5
ATOM      5  C   UNL A   1      33.018  29.194  26.587  1.00  0.00     0.340 C 
ATOM      6  O   UNL A   1      31.855  29.264  26.967  1.00  0.00    -0.246 OA
BRANCH   5   7
ATOM      7  C   UNL A   1      33.460  28.114  25.674  1.00  0.00     0.086 A 
ATOM      8  C   UNL A   1      33.481  27.535  21.922  1.00  0.00     0.047 C 
ATOM      9  C   UNL A   1      33.401  27.325  23.409  1.00  0.00    -0.024 A 
ATOM     10  C   UNL A   1      33.502  26.028  23.922  1.00  0.00     0.052 A 
ATOM     11  C   UNL A   1      33.358  28.399  24.295  1.00  0.00     0.049 A 
ATOM     12  C   UNL A   1      34.119  25.851  25.148  1.00  0.00     0.120 A 
ATOM     13  C   UNL A   1      33.959  26.865  26.097  1.00  0.00     0.064 A 
BRANCH  11  14
ATOM     14  N   UNL A   1      33.447  29.712  23.818  1.00  0.00    -0.398 N 
ATOM     15  H   UNL A   1      32.722  30.086  23.266  1.00  0.00     0.156 HD
ATOM     16  H   UNL A   1      34.234  30.263  24.035  1.00  0.00     0.156 HD
ENDBRANCH  11  14
BRANCH  12  17
ATOM     17  O   UNL A   1      34.998  24.817  25.403  1.00  0.00    -0.490 OA
BRANCH  17  18
ATOM     18  C   UNL A   1      34.539  23.591  26.080  1.00  0.00     0.173 C 
ATOM     19  C   UNL A   1      33.374  22.806  25.483  1.00  0.00     0.048 C 
ATOM     20  C   UNL A   1      35.714  22.550  26.233  1.00  0.00     0.048 C 
ATOM     21  C   UNL A   1      33.738  22.089  24.184  1.00  0.00    -0.010 C 
ATOM     22  C   UNL A   1      35.528  21.076  25.649  1.00  0.00    -0.010 C 
ATOM     23  C   UNL A   1      34.699  22.765  23.196  1.00  0.00     0.008 C 
ATOM     24  C   UNL A   1      34.355  20.803  24.675  1.00  0.00     0.007 C 
ATOM     25  C   UNL A   1      36.824  20.536  25.025  1.00  0.00     0.008 C 
ENDBRANCH  17  18
ENDBRANCH  12  17
ENDBRANCH   5   7
ENDBRANCH   4   5
ENDBRANCH   3   4
ENDBRANCH   2   3
ENDBRANCH   1   2
BRANCH   1  26
ATOM     26  C   UNL A   1      33.498  34.335  28.435  1.00  0.00     0.202 C 
BRANCH  26  27
ATOM     27  C   UNL A   1      33.248  35.487  29.419  1.00  0.00     0.261 C 
BRANCH  27  28
ATOM     28  O   UNL A   1      32.426  35.074  30.530  1.00  0.00    -0.460 OA
BRANCH  28  29
ATOM     29  C   UNL A   1      32.744  35.627  31.722  1.00  0.00     0.338 C 
ATOM     30  O   UNL A   1      32.099  36.460  32.351  1.00  0.00    -0.246 OA
BRANCH  29  31
ATOM     31  C   UNL A   1      33.895  34.914  32.304  1.00  0.00     0.060 A 
ATOM     32  C   UNL A   1      35.146  35.546  32.256  1.00  0.00     0.016 A 
ATOM     33  C   UNL A   1      33.765  33.637  32.850  1.00  0.00     0.016 A 
ATOM     34  C   UNL A   1      36.282  34.883  32.711  1.00  0.00     0.010 A 
ATOM     35  C   UNL A   1      34.910  32.967  33.294  1.00  0.00     0.010 A 
ATOM     36  C   UNL A   1      36.176  33.573  33.193  1.00  0.00    -0.014 A 
BRANCH  36  37
ATOM     37  C   UNL A   1      37.404  32.782  33.441  1.00  0.00     0.031 A 
ATOM     38  C   UNL A   1      38.170  33.014  34.715  1.00  0.00     0.074 A 
ATOM     39  C   UNL A   1      37.816  31.853  32.561  1.00  0.00     0.049 A 
ATOM     40  N   UNL A   1      39.289  32.470  35.120  1.00  0.00    -0.248 NA
ATOM     41  C   UNL A   1      37.596  33.989  35.657  1.00  0.00     0.031 C 
ATOM     42  C   UNL A   1      37.134  31.502  31.317  1.00  0.00     0.029 A 
ATOM     43  N   UNL A   1      38.919  31.037  32.584  1.00  0.00    -0.354 N 
ATOM     44  C   UNL A   1      39.559  33.045  36.356  1.00  0.00     0.074 A 
ATOM     45  C   UNL A   1      38.506  34.001  36.620  1.00  0.00     0.031 C 
ATOM     46  C   UNL A   1      37.840  30.546  30.689  1.00  0.00     0.029 A 
ATOM     47  C   UNL A   1      39.040  30.248  31.467  1.00  0.00     0.049 A 
ATOM     48  H   UNL A   1      39.562  31.020  33.330  1.00  0.00     0.167 HD
ATOM     49  C   UNL A   1      40.588  32.793  37.199  1.00  0.00     0.031 A 
ATOM     50  C   UNL A   1      40.022  29.400  31.105  1.00  0.00     0.031 A 
ATOM     51  C   UNL A   1      41.643  31.854  36.928  1.00  0.00     0.049 A 
ATOM     52  C   UNL A   1      41.201  29.201  32.021  1.00  0.00     0.074 A 
ATOM     53  C   UNL A   1      42.727  31.522  37.723  1.00  0.00     0.029 A 
ATOM     54  N   UNL A   1      41.750  31.102  35.768  1.00  0.00    -0.354 N 
ATOM     55  N   UNL A   1      41.436  29.733  33.196  1.00  0.00    -0.248 NA
ATOM     56  C   UNL A   1      42.248  28.277  31.560  1.00  0.00     0.031 C 
ATOM     57  C   UNL A   1      43.522  30.614  37.016  1.00  0.00     0.029 A 
ATOM     58  C   UNL A   1      42.897  30.328  35.813  1.00  0.00     0.049 A 
ATOM     59  H   UNL A   1      41.106  31.117  35.023  1.00  0.00     0.167 HD
ATOM     60  C   UNL A   1      42.638  29.185  33.629  1.00  0.00     0.074 A 
ATOM     61  C   UNL A   1      43.074  28.268  32.597  1.00  0.00     0.031 C 
ATOM     62  C   UNL A   1      43.318  29.420  34.778  1.00  0.00     0.031 A 
BRANCH  49  63
ATOM     63  C   UNL A   1      40.640  33.576  38.482  1.00  0.00    -0.014 A 
ATOM     64  C   UNL A   1      41.291  34.818  38.554  1.00  0.00     0.009 A 
ATOM     65  C   UNL A   1      39.996  33.080  39.626  1.00  0.00     0.009 A 
ATOM     66  C   UNL A   1      41.324  35.531  39.756  1.00  0.00     0.001 A 
ATOM     67  C   UNL A   1      40.005  33.808  40.818  1.00  0.00     0.001 A 
ATOM     68  C   UNL A   1      40.676  35.028  40.884  1.00  0.00     0.000 A 
ENDBRANCH  49  63
BRANCH  50  69
ATOM     69  C   UNL A   1      39.950  28.690  29.799  1.00  0.00    -0.014 A 
ATOM     70  C   UNL A   1      39.417  27.396  29.713  1.00  0.00     0.009 A 
ATOM     71  C   UNL A   1      40.442  29.300  28.633  1.00  0.00     0.009 A 
ATOM     72  C   UNL A   1      39.405  26.716  28.492  1.00  0.00     0.001 A 
ATOM     73  C   UNL A   1      40.398  28.631  27.409  1.00  0.00     0.001 A 
ATOM     74  C   UNL A   1      39.890  27.335  27.341  1.00  0.00     0.000 A 
ENDBRANCH  50  69
BRANCH  62  75
ATOM     75  C   UNL A   1      44.585  28.639  35.001  1.00  0.00    -0.014 A 
ATOM     76  C   UNL A   1      45.837  29.147  34.621  1.00  0.00     0.009 A 
ATOM     77  C   UNL A   1      44.525  27.393  35.646  1.00  0.00     0.009 A 
ATOM     78  C   UNL A   1      46.998  28.404  34.845  1.00  0.00     0.001 A 
ATOM     79  C   UNL A   1      45.691  26.668  35.900  1.00  0.00     0.001 A 
ATOM     80  C   UNL A   1      46.925  27.169  35.489  1.00  0.00     0.000 A 
ENDBRANCH  62  75
ENDBRANCH  36  37
ENDBRANCH  29  31
ENDBRANCH  28  29
ENDBRANCH  27  28
ENDBRANCH  26  27
ENDBRANCH   1  26
TORSDOF 17
ENDMDL
MODEL 3
REMARK VINA RESULT:     -10.3      4.018      7.371
REMARK SMILES Cc1cc(O[C@@H]2C[C@H](C)C[C@H](C)C2)cc(C(=O)OCCOCCOC(=O)c2ccc(-c3c4nc(c(-c5ccccc5)c5ccc([nH]5)c(-c5ccccc5)c5nc(c(-c6ccccc6)c6ccc3[nH]6)C=C5)C=C4)cc2)c1N
REMARK SMILES IDX 21 1 20 2 19 3 18 4 16 5 17 6 15 7 1 8 2 9 3 10 75 11 4 12
REMARK SMILES IDX 14 13 76 14 5 17 6 18 13 19 7 20 11 21 8 22 12 23 10 24 9 25
REMARK SMILES IDX 22 26 23 27 24 28 25 29 26 30 27 31 28 32 74 33 29 34 73 35
REMARK SMILES IDX 30 36 31 37 32 38 67 39 33 40 72 41 66 42 68 43 34 44 71 45
REMARK SMILES IDX 65 46 64 47 35 49 57 50 42 51 56 52 43 53 46 54 55 55 69 56
REMARK SMILES IDX 44 57 45 58 54 60 70 61 47 62 36 63 37 64 41 65 38 66 40 67
REMARK SMILES IDX 39 68 58 69 59 70 63 71 60 72 62 73 61 74 48 75 49 76 53 77
REMARK SMILES IDX 50 78 52 79 51 80
REMARK H PARENT 76 15 76 16 68 48 46 59
REMARK Flexibility Score: inf
ROOT
ATOM      1  O   UNL A   1      34.545  34.673  31.249  1.00  0.00    -0.374 OA
ENDROOT
BRANCH   1   2
ATOM      2  C   UNL A   1      33.606  35.281  30.367  1.00  0.00     0.202 C 
BRANCH   2   3
ATOM      3  C   UNL A   1      33.950  35.297  28.876  1.00  0.00     0.261 C 
BRANCH   3   4
ATOM      4  O   UNL A   1      34.486  34.037  28.439  1.00  0.00    -0.460 OA
BRANCH   4   5
ATOM      5  C   UNL A   1      33.521  33.188  28.015  1.00  0.00     0.340 C 
ATOM      6  O   UNL A   1      32.409  33.525  27.625  1.00  0.00    -0.246 OA
BRANCH   5   7
ATOM      7  C   UNL A   1      33.958  31.773  27.947  1.00  0.00     0.086 A 
ATOM      8  C   UNL A   1      36.540  29.616  29.706  1.00  0.00     0.047 C 
ATOM      9  C   UNL A   1      35.629  30.209  28.667  1.00  0.00    -0.024 A 
ATOM     10  C   UNL A   1      35.387  29.500  27.486  1.00  0.00     0.052 A 
ATOM     11  C   UNL A   1      34.919  31.384  28.905  1.00  0.00     0.049 A 
ATOM     12  C   UNL A   1      34.139  29.606  26.898  1.00  0.00     0.120 A 
ATOM     13  C   UNL A   1      33.480  30.834  27.011  1.00  0.00     0.064 A 
BRANCH  11  14
ATOM     14  N   UNL A   1      34.997  32.015  30.153  1.00  0.00    -0.398 N 
ATOM     15  H   UNL A   1      34.229  32.528  30.494  1.00  0.00     0.156 HD
ATOM     16  H   UNL A   1      35.819  31.944  30.690  1.00  0.00     0.156 HD
ENDBRANCH  11  14
BRANCH  12  17
ATOM     17  O   UNL A   1      33.468  28.524  26.364  1.00  0.00    -0.490 OA
BRANCH  17  18
ATOM     18  C   UNL A   1      31.999  28.539  26.242  1.00  0.00     0.173 C 
ATOM     19  C   UNL A   1      31.370  28.921  24.904  1.00  0.00     0.048 C 
ATOM     20  C   UNL A   1      31.381  27.136  26.612  1.00  0.00     0.048 C 
ATOM     21  C   UNL A   1      31.563  27.856  23.825  1.00  0.00    -0.010 C 
ATOM     22  C   UNL A   1      30.443  26.395  25.553  1.00  0.00    -0.010 C 
ATOM     23  C   UNL A   1      32.880  27.068  23.775  1.00  0.00     0.008 C 
ATOM     24  C   UNL A   1      30.424  26.904  24.090  1.00  0.00     0.007 C 
ATOM     25  C   UNL A   1      30.670  24.876  25.547  1.00  0.00     0.008 C 
ENDBRANCH  17  18
ENDBRANCH  12  17
ENDBRANCH   5   7
ENDBRANCH   4   5
ENDBRANCH   3   4
ENDBRANCH   2   3
ENDBRANCH   1   2
BRANCH   1  26
ATOM     26  C   UNL A   1      34.066  34.285  32.542  1.00  0.00     0.202 C 
BRANCH  26  27
ATOM     27  C   UNL A   1      35.114  33.796  33.551  1.00  0.00     0.261 C 
BRANCH  27  28
ATOM     28  O   UNL A   1      35.980  32.794  32.981  1.00  0.00    -0.460 OA
BRANCH  28  29
ATOM     29  C   UNL A   1      36.968  32.353  33.791  1.00  0.00     0.338 C 
ATOM     30  O   UNL A   1      36.881  32.062  34.980  1.00  0.00    -0.246 OA
BRANCH  29  31
ATOM     31  C   UNL A   1      38.162  32.040  32.987  1.00  0.00     0.060 A 
ATOM     32  C   UNL A   1      38.139  32.378  31.625  1.00  0.00     0.016 A 
ATOM     33  C   UNL A   1      39.268  31.393  33.539  1.00  0.00     0.016 A 
ATOM     34  C   UNL A   1      39.203  32.027  30.800  1.00  0.00     0.010 A 
ATOM     35  C   UNL A   1      40.330  31.029  32.705  1.00  0.00     0.010 A 
ATOM     36  C   UNL A   1      40.285  31.312  31.327  1.00  0.00    -0.014 A 
BRANCH  36  37
ATOM     37  C   UNL A   1      41.291  30.724  30.411  1.00  0.00     0.031 A 
ATOM     38  C   UNL A   1      42.533  31.512  30.097  1.00  0.00     0.074 A 
ATOM     39  C   UNL A   1      41.116  29.498  29.890  1.00  0.00     0.049 A 
ATOM     40  N   UNL A   1      43.522  31.216  29.293  1.00  0.00    -0.248 NA
ATOM     41  C   UNL A   1      42.679  32.808  30.781  1.00  0.00     0.031 C 
ATOM     42  C   UNL A   1      39.980  28.617  30.157  1.00  0.00     0.029 A 
ATOM     43  N   UNL A   1      41.899  28.785  29.017  1.00  0.00    -0.354 N 
ATOM     44  C   UNL A   1      44.400  32.291  29.365  1.00  0.00     0.074 A 
ATOM     45  C   UNL A   1      43.813  33.259  30.266  1.00  0.00     0.031 C 
ATOM     46  C   UNL A   1      40.135  27.482  29.453  1.00  0.00     0.029 A 
ATOM     47  C   UNL A   1      41.359  27.574  28.660  1.00  0.00     0.049 A 
ATOM     48  H   UNL A   1      42.765  29.111  28.679  1.00  0.00     0.167 HD
ATOM     49  C   UNL A   1      45.591  32.453  28.744  1.00  0.00     0.031 A 
ATOM     50  C   UNL A   1      41.792  26.657  27.774  1.00  0.00     0.031 A 
ATOM     51  C   UNL A   1      46.166  31.496  27.837  1.00  0.00     0.049 A 
ATOM     52  C   UNL A   1      43.078  26.900  27.030  1.00  0.00     0.074 A 
ATOM     53  C   UNL A   1      47.373  31.565  27.162  1.00  0.00     0.029 A 
ATOM     54  N   UNL A   1      45.570  30.299  27.472  1.00  0.00    -0.354 N 
ATOM     55  N   UNL A   1      43.911  27.909  27.122  1.00  0.00    -0.248 NA
ATOM     56  C   UNL A   1      43.488  25.871  26.063  1.00  0.00     0.031 C 
ATOM     57  C   UNL A   1      47.477  30.438  26.342  1.00  0.00     0.029 A 
ATOM     58  C   UNL A   1      46.370  29.633  26.559  1.00  0.00     0.049 A 
ATOM     59  H   UNL A   1      44.705  29.971  27.812  1.00  0.00     0.167 HD
ATOM     60  C   UNL A   1      44.956  27.622  26.251  1.00  0.00     0.074 A 
ATOM     61  C   UNL A   1      44.659  26.336  25.654  1.00  0.00     0.031 C 
ATOM     62  C   UNL A   1      46.061  28.355  25.973  1.00  0.00     0.031 A 
BRANCH  49  63
ATOM     63  C   UNL A   1      46.337  33.734  28.999  1.00  0.00    -0.014 A 
ATOM     64  C   UNL A   1      46.127  34.872  28.204  1.00  0.00     0.009 A 
ATOM     65  C   UNL A   1      47.236  33.814  30.074  1.00  0.00     0.009 A 
ATOM     66  C   UNL A   1      46.827  36.054  28.460  1.00  0.00     0.001 A 
ATOM     67  C   UNL A   1      47.912  35.005  30.347  1.00  0.00     0.001 A 
ATOM     68  C   UNL A   1      47.714  36.120  29.535  1.00  0.00     0.000 A 
ENDBRANCH  49  63
BRANCH  50  69
ATOM     69  C   UNL A   1      40.989  25.430  27.517  1.00  0.00    -0.014 A 
ATOM     70  C   UNL A   1      39.826  25.483  26.735  1.00  0.00     0.009 A 
ATOM     71  C   UNL A   1      41.372  24.202  28.080  1.00  0.00     0.009 A 
ATOM     72  C   UNL A   1      39.049  24.338  26.545  1.00  0.00     0.001 A 
ATOM     73  C   UNL A   1      40.611  23.052  27.862  1.00  0.00     0.001 A 
ATOM     74  C   UNL A   1      39.444  23.123  27.104  1.00  0.00     0.000 A 
ENDBRANCH  50  69
BRANCH  62  75
ATOM     75  C   UNL A   1      47.057  27.765  25.011  1.00  0.00    -0.014 A 
ATOM     76  C   UNL A   1      47.051  28.104  23.649  1.00  0.00     0.009 A 
ATOM     77  C   UNL A   1      48.045  26.889  25.489  1.00  0.00     0.009 A 
ATOM     78  C   UNL A   1      47.991  27.547  22.779  1.00  0.00     0.001 A 
ATOM     79  C   UNL A   1      49.004  26.360  24.623  1.00  0.00     0.001 A 
ATOM     80  C   UNL A   1      48.969  26.681  23.267  1.00  0.00     0.000 A 
ENDBRANCH  62  75
ENDBRANCH  36  37
ENDBRANCH  29  31
ENDBRANCH  28  29
ENDBRANCH  27  28
ENDBRANCH  26  27
ENDBRANCH   1  26
TORSDOF 17
ENDMDL
