MODEL 1
REMARK VINA RESULT:     -10.9      0.000      0.000
REMARK SMILES O=C(C[C@H]1S/C(=[NH+]\N=C\c2cc(Br)ccc2OCc2ccccc2)NC1=O)OCCOCCOC(=O)c1ccc(-c2c3nc(c(-c4ccccc4)c4ccc([nH]4)c(-c4ccccc4)c4nc(c(-c5ccccc5)c5ccc2[nH]5)C=C4)C=C3)cc1
REMARK SMILES IDX 29 1 28 2 2 3 1 4 3 5 4 6 5 7 26 8 6 9 25 10 27 11 7 12 8 15
REMARK SMILES IDX 9 16 10 17 11 18 16 19 12 20 15 21 13 22 14 23 17 24 18 25
REMARK SMILES IDX 19 26 20 27 24 28 21 29 23 30 22 31 30 32 31 33 32 34 33 35
REMARK SMILES IDX 34 36 35 37 36 38 37 39 38 40 84 41 39 42 83 43 40 44 41 45
REMARK SMILES IDX 42 46 77 47 43 48 82 49 76 50 78 51 44 52 81 53 75 54 74 55
REMARK SMILES IDX 45 57 67 58 52 59 66 60 53 61 56 62 65 63 79 64 54 65 55 66
REMARK SMILES IDX 64 68 80 69 57 70 46 71 47 72 51 73 48 74 50 75 49 76 68 77
REMARK SMILES IDX 69 78 73 79 70 80 72 81 71 82 58 83 59 84 63 85 60 86 62 87
REMARK SMILES IDX 61 88
REMARK H PARENT 25 13 7 14 78 56 56 67
REMARK Flexibility Score: inf
ROOT
ATOM      1  C   UNL A   1      33.214  35.089  29.669  1.00  0.00     0.261 C 
ENDROOT
BRANCH   1   2
ATOM      2  O   UNL A   1      33.798  33.861  29.220  1.00  0.00    -0.463 OA
BRANCH   2   3
ATOM      3  C   UNL A   1      34.634  33.726  28.170  1.00  0.00     0.307 C 
ATOM      4  O   UNL A   1      34.744  34.657  27.373  1.00  0.00    -0.252 OA
BRANCH   3   5
ATOM      5  C   UNL A   1      35.337  32.419  27.908  1.00  0.00     0.150 C 
BRANCH   5   6
ATOM      6  C   UNL A   1      34.597  31.168  28.363  1.00  0.00     0.184 C 
ATOM      7  S   UNL A   1      33.148  30.811  27.279  1.00  0.00    -0.020 SA
ATOM      8  C   UNL A   1      35.492  29.969  28.122  1.00  0.00     0.322 C 
ATOM      9  C   UNL A   1      34.049  29.704  26.306  1.00  0.00     0.337 C 
ATOM     10  N   UNL A   1      35.196  29.358  26.938  1.00  0.00    -0.202 N 
ATOM     11  O   UNL A   1      36.416  29.632  28.850  1.00  0.00    -0.246 OA
ATOM     12  N   UNL A   1      33.761  29.206  25.154  1.00  0.00    -0.142 N 
ATOM     13  H   UNL A   1      35.800  28.682  26.553  1.00  0.00     0.316 HD
ATOM     14  H   UNL A   1      34.364  28.584  24.689  1.00  0.00     0.343 HD
BRANCH  12  15
ATOM     15  N   UNL A   1      32.532  29.603  24.606  1.00  0.00    -0.093 NA
ATOM     16  C   UNL A   1      31.761  28.565  24.532  1.00  0.00     0.170 C 
BRANCH  16  17
ATOM     17  C   UNL A   1      30.373  28.599  24.062  1.00  0.00     0.040 A 
ATOM     18  C   UNL A   1      29.967  29.837  23.535  1.00  0.00     0.029 A 
ATOM     19  C   UNL A   1      29.539  27.475  23.951  1.00  0.00     0.128 A 
ATOM     20  C   UNL A   1      28.730  29.955  22.905  1.00  0.00     0.018 A 
ATOM     21  C   UNL A   1      28.270  27.643  23.371  1.00  0.00     0.048 A 
ATOM     22  Br  UNL A   1      28.241  31.585  22.083  1.00  0.00    -0.051 Br
ATOM     23  C   UNL A   1      27.870  28.867  22.836  1.00  0.00     0.019 A 
BRANCH  19  24
ATOM     24  O   UNL A   1      29.758  26.159  24.252  1.00  0.00    -0.488 OA
BRANCH  24  25
ATOM     25  C   UNL A   1      30.254  25.718  25.514  1.00  0.00     0.265 C 
BRANCH  25  26
ATOM     26  C   UNL A   1      31.162  24.501  25.488  1.00  0.00    -0.011 A 
ATOM     27  C   UNL A   1      31.316  23.817  24.271  1.00  0.00     0.007 A 
ATOM     28  C   UNL A   1      31.740  23.955  26.645  1.00  0.00     0.007 A 
ATOM     29  C   UNL A   1      31.921  22.560  24.239  1.00  0.00     0.000 A 
ATOM     30  C   UNL A   1      32.313  22.684  26.616  1.00  0.00     0.000 A 
ATOM     31  C   UNL A   1      32.385  21.979  25.417  1.00  0.00     0.000 A 
ENDBRANCH  25  26
ENDBRANCH  24  25
ENDBRANCH  19  24
ENDBRANCH  16  17
ENDBRANCH  12  15
ENDBRANCH   5   6
ENDBRANCH   3   5
ENDBRANCH   2   3
ENDBRANCH   1   2
BRANCH   1  32
ATOM     32  C   UNL A   1      33.640  35.514  31.071  1.00  0.00     0.202 C 
BRANCH  32  33
ATOM     33  O   UNL A   1      33.011  34.869  32.173  1.00  0.00    -0.374 OA
BRANCH  33  34
ATOM     34  C   UNL A   1      33.889  34.323  33.165  1.00  0.00     0.202 C 
BRANCH  34  35
ATOM     35  C   UNL A   1      34.690  33.086  32.737  1.00  0.00     0.261 C 
BRANCH  35  36
ATOM     36  O   UNL A   1      35.830  32.878  33.588  1.00  0.00    -0.460 OA
BRANCH  36  37
ATOM     37  C   UNL A   1      36.942  33.558  33.220  1.00  0.00     0.338 C 
ATOM     38  O   UNL A   1      37.335  34.628  33.661  1.00  0.00    -0.246 OA
BRANCH  37  39
ATOM     39  C   UNL A   1      37.767  32.704  32.344  1.00  0.00     0.060 A 
ATOM     40  C   UNL A   1      38.725  31.887  32.959  1.00  0.00     0.016 A 
ATOM     41  C   UNL A   1      37.614  32.693  30.955  1.00  0.00     0.016 A 
ATOM     42  C   UNL A   1      39.586  31.119  32.186  1.00  0.00     0.010 A 
ATOM     43  C   UNL A   1      38.482  31.922  30.177  1.00  0.00     0.010 A 
ATOM     44  C   UNL A   1      39.504  31.175  30.789  1.00  0.00    -0.014 A 
BRANCH  44  45
ATOM     45  C   UNL A   1      40.608  30.602  29.987  1.00  0.00     0.031 A 
ATOM     46  C   UNL A   1      41.848  31.429  29.775  1.00  0.00     0.074 A 
ATOM     47  C   UNL A   1      40.541  29.342  29.524  1.00  0.00     0.049 A 
ATOM     48  N   UNL A   1      42.955  31.121  29.149  1.00  0.00    -0.248 NA
ATOM     49  C   UNL A   1      41.839  32.786  30.348  1.00  0.00     0.031 C 
ATOM     50  C   UNL A   1      39.406  28.437  29.698  1.00  0.00     0.029 A 
ATOM     51  N   UNL A   1      41.456  28.606  28.817  1.00  0.00    -0.354 N 
ATOM     52  C   UNL A   1      43.771  32.240  29.258  1.00  0.00     0.074 A 
ATOM     53  C   UNL A   1      43.017  33.252  29.964  1.00  0.00     0.031 C 
ATOM     54  C   UNL A   1      39.694  27.261  29.114  1.00  0.00     0.029 A 
ATOM     55  C   UNL A   1      41.018  27.344  28.503  1.00  0.00     0.049 A 
ATOM     56  H   UNL A   1      42.342  28.950  28.560  1.00  0.00     0.167 HD
ATOM     57  C   UNL A   1      45.043  32.406  28.825  1.00  0.00     0.031 A 
ATOM     58  C   UNL A   1      41.618  26.371  27.789  1.00  0.00     0.031 A 
ATOM     59  C   UNL A   1      45.782  31.405  28.104  1.00  0.00     0.049 A 
ATOM     60  C   UNL A   1      43.005  26.608  27.254  1.00  0.00     0.074 A 
ATOM     61  C   UNL A   1      47.074  31.472  27.611  1.00  0.00     0.029 A 
ATOM     62  N   UNL A   1      45.290  30.153  27.767  1.00  0.00    -0.354 N 
ATOM     63  N   UNL A   1      43.775  27.661  27.382  1.00  0.00    -0.248 NA
ATOM     64  C   UNL A   1      43.611  25.509  26.489  1.00  0.00     0.031 C 
ATOM     65  C   UNL A   1      47.342  30.281  26.927  1.00  0.00     0.029 A 
ATOM     66  C   UNL A   1      46.243  29.446  27.055  1.00  0.00     0.049 A 
ATOM     67  H   UNL A   1      44.394  29.817  28.000  1.00  0.00     0.167 HD
ATOM     68  C   UNL A   1      44.965  27.343  26.739  1.00  0.00     0.074 A 
ATOM     69  C   UNL A   1      44.823  25.987  26.248  1.00  0.00     0.031 C 
ATOM     70  C   UNL A   1      46.077  28.101  26.566  1.00  0.00     0.031 A 
BRANCH  57  71
ATOM     71  C   UNL A   1      45.702  33.729  29.102  1.00  0.00    -0.014 A 
ATOM     72  C   UNL A   1      46.494  33.924  30.246  1.00  0.00     0.009 A 
ATOM     73  C   UNL A   1      45.555  34.789  28.193  1.00  0.00     0.009 A 
ATOM     74  C   UNL A   1      47.096  35.160  30.490  1.00  0.00     0.001 A 
ATOM     75  C   UNL A   1      46.185  36.014  28.423  1.00  0.00     0.001 A 
ATOM     76  C   UNL A   1      46.947  36.201  29.574  1.00  0.00     0.000 A 
ENDBRANCH  57  71
BRANCH  58  77
ATOM     77  C   UNL A   1      40.903  25.095  27.518  1.00  0.00    -0.014 A 
ATOM     78  C   UNL A   1      41.312  23.893  28.117  1.00  0.00     0.009 A 
ATOM     79  C   UNL A   1      39.818  25.070  26.627  1.00  0.00     0.009 A 
ATOM     80  C   UNL A   1      40.671  22.691  27.803  1.00  0.00     0.001 A 
ATOM     81  C   UNL A   1      39.157  23.874  26.341  1.00  0.00     0.001 A 
ATOM     82  C   UNL A   1      39.593  22.683  26.919  1.00  0.00     0.000 A 
ENDBRANCH  58  77
BRANCH  70  83
ATOM     83  C   UNL A   1      47.232  27.462  25.843  1.00  0.00    -0.014 A 
ATOM     84  C   UNL A   1      47.362  27.546  24.448  1.00  0.00     0.009 A 
ATOM     85  C   UNL A   1      48.213  26.774  26.576  1.00  0.00     0.009 A 
ATOM     86  C   UNL A   1      48.419  26.906  23.798  1.00  0.00     0.001 A 
ATOM     87  C   UNL A   1      49.289  26.169  25.927  1.00  0.00     0.001 A 
ATOM     88  C   UNL A   1      49.382  26.222  24.537  1.00  0.00     0.000 A 
ENDBRANCH  70  83
ENDBRANCH  44  45
ENDBRANCH  37  39
ENDBRANCH  36  37
ENDBRANCH  35  36
ENDBRANCH  34  35
ENDBRANCH  33  34
ENDBRANCH  32  33
ENDBRANCH   1  32
TORSDOF 20
ENDMDL
MODEL 2
REMARK VINA RESULT:     -10.8      0.674      5.633
REMARK SMILES O=C(C[C@H]1S/C(=[NH+]\N=C\c2cc(Br)ccc2OCc2ccccc2)NC1=O)OCCOCCOC(=O)c1ccc(-c2c3nc(c(-c4ccccc4)c4ccc([nH]4)c(-c4ccccc4)c4nc(c(-c5ccccc5)c5ccc2[nH]5)C=C4)C=C3)cc1
REMARK SMILES IDX 29 1 28 2 2 3 1 4 3 5 4 6 5 7 26 8 6 9 25 10 27 11 7 12 8 15
REMARK SMILES IDX 9 16 10 17 11 18 16 19 12 20 15 21 13 22 14 23 17 24 18 25
REMARK SMILES IDX 19 26 20 27 24 28 21 29 23 30 22 31 30 32 31 33 32 34 33 35
REMARK SMILES IDX 34 36 35 37 36 38 37 39 38 40 84 41 39 42 83 43 40 44 41 45
REMARK SMILES IDX 42 46 77 47 43 48 82 49 76 50 78 51 44 52 81 53 75 54 74 55
REMARK SMILES IDX 45 57 67 58 52 59 66 60 53 61 56 62 65 63 79 64 54 65 55 66
REMARK SMILES IDX 64 68 80 69 57 70 46 71 47 72 51 73 48 74 50 75 49 76 68 77
REMARK SMILES IDX 69 78 73 79 70 80 72 81 71 82 58 83 59 84 63 85 60 86 62 87
REMARK SMILES IDX 61 88
REMARK H PARENT 25 13 7 14 78 56 56 67
REMARK Flexibility Score: inf
ROOT
ATOM      1  C   UNL A   1      33.260  34.964  29.741  1.00  0.00     0.261 C 
ENDROOT
BRANCH   1   2
ATOM      2  O   UNL A   1      33.988  33.862  29.187  1.00  0.00    -0.463 OA
BRANCH   2   3
ATOM      3  C   UNL A   1      34.709  33.889  28.048  1.00  0.00     0.307 C 
ATOM      4  O   UNL A   1      34.595  34.855  27.294  1.00  0.00    -0.252 OA
BRANCH   3   5
ATOM      5  C   UNL A   1      35.556  32.710  27.643  1.00  0.00     0.150 C 
BRANCH   5   6
ATOM      6  C   UNL A   1      35.151  31.369  28.242  1.00  0.00     0.184 C 
ATOM      7  S   UNL A   1      33.497  30.831  27.630  1.00  0.00    -0.020 SA
ATOM      8  C   UNL A   1      36.072  30.300  27.688  1.00  0.00     0.322 C 
ATOM      9  C   UNL A   1      34.188  29.859  26.381  1.00  0.00     0.337 C 
ATOM     10  N   UNL A   1      35.507  29.662  26.621  1.00  0.00    -0.202 N 
ATOM     11  O   UNL A   1      37.207  30.084  28.087  1.00  0.00    -0.246 OA
ATOM     12  N   UNL A   1      33.626  29.334  25.348  1.00  0.00    -0.142 N 
ATOM     13  H   UNL A   1      36.044  29.075  26.041  1.00  0.00     0.316 HD
ATOM     14  H   UNL A   1      34.131  28.799  24.694  1.00  0.00     0.343 HD
BRANCH  12  15
ATOM     15  N   UNL A   1      32.250  29.568  25.214  1.00  0.00    -0.093 NA
ATOM     16  C   UNL A   1      31.825  28.934  24.167  1.00  0.00     0.170 C 
BRANCH  16  17
ATOM     17  C   UNL A   1      30.425  28.895  23.737  1.00  0.00     0.040 A 
ATOM     18  C   UNL A   1      29.953  30.096  23.181  1.00  0.00     0.029 A 
ATOM     19  C   UNL A   1      29.637  27.734  23.688  1.00  0.00     0.128 A 
ATOM     20  C   UNL A   1      28.695  30.141  22.584  1.00  0.00     0.018 A 
ATOM     21  C   UNL A   1      28.346  27.829  23.140  1.00  0.00     0.048 A 
ATOM     22  Br  UNL A   1      28.115  31.720  21.722  1.00  0.00    -0.051 Br
ATOM     23  C   UNL A   1      27.880  29.017  22.576  1.00  0.00     0.019 A 
BRANCH  19  24
ATOM     24  O   UNL A   1      29.919  26.439  24.027  1.00  0.00    -0.488 OA
BRANCH  24  25
ATOM     25  C   UNL A   1      29.833  25.944  25.361  1.00  0.00     0.265 C 
BRANCH  25  26
ATOM     26  C   UNL A   1      31.047  25.190  25.874  1.00  0.00    -0.011 A 
ATOM     27  C   UNL A   1      32.319  25.708  25.582  1.00  0.00     0.007 A 
ATOM     28  C   UNL A   1      30.959  23.939  26.504  1.00  0.00     0.007 A 
ATOM     29  C   UNL A   1      33.463  24.938  25.797  1.00  0.00     0.000 A 
ATOM     30  C   UNL A   1      32.100  23.159  26.688  1.00  0.00     0.000 A 
ATOM     31  C   UNL A   1      33.349  23.650  26.316  1.00  0.00     0.000 A 
ENDBRANCH  25  26
ENDBRANCH  24  25
ENDBRANCH  19  24
ENDBRANCH  16  17
ENDBRANCH  12  15
ENDBRANCH   5   6
ENDBRANCH   3   5
ENDBRANCH   2   3
ENDBRANCH   1   2
BRANCH   1  32
ATOM     32  C   UNL A   1      33.658  35.328  31.168  1.00  0.00     0.202 C 
BRANCH  32  33
ATOM     33  O   UNL A   1      33.091  34.561  32.225  1.00  0.00    -0.374 OA
BRANCH  33  34
ATOM     34  C   UNL A   1      34.022  33.920  33.106  1.00  0.00     0.202 C 
BRANCH  34  35
ATOM     35  C   UNL A   1      34.854  32.788  32.486  1.00  0.00     0.261 C 
BRANCH  35  36
ATOM     36  O   UNL A   1      35.933  32.396  33.350  1.00  0.00    -0.460 OA
BRANCH  36  37
ATOM     37  C   UNL A   1      37.080  33.095  33.176  1.00  0.00     0.338 C 
ATOM     38  O   UNL A   1      37.444  34.086  33.792  1.00  0.00    -0.246 OA
BRANCH  37  39
ATOM     39  C   UNL A   1      37.970  32.351  32.263  1.00  0.00     0.060 A 
ATOM     40  C   UNL A   1      38.840  31.414  32.836  1.00  0.00     0.016 A 
ATOM     41  C   UNL A   1      37.960  32.556  30.880  1.00  0.00     0.016 A 
ATOM     42  C   UNL A   1      39.758  30.738  32.042  1.00  0.00     0.010 A 
ATOM     43  C   UNL A   1      38.885  31.878  30.082  1.00  0.00     0.010 A 
ATOM     44  C   UNL A   1      39.821  31.008  30.669  1.00  0.00    -0.014 A 
BRANCH  44  45
ATOM     45  C   UNL A   1      40.987  30.520  29.900  1.00  0.00     0.031 A 
ATOM     46  C   UNL A   1      40.912  29.154  29.270  1.00  0.00     0.074 A 
ATOM     47  C   UNL A   1      42.059  31.305  29.700  1.00  0.00     0.049 A 
ATOM     48  N   UNL A   1      41.788  28.538  28.518  1.00  0.00    -0.248 NA
ATOM     49  C   UNL A   1      39.684  28.380  29.521  1.00  0.00     0.031 C 
ATOM     50  C   UNL A   1      42.226  32.658  30.231  1.00  0.00     0.029 A 
ATOM     51  N   UNL A   1      43.206  31.077  28.986  1.00  0.00    -0.354 N 
ATOM     52  C   UNL A   1      41.215  27.311  28.204  1.00  0.00     0.074 A 
ATOM     53  C   UNL A   1      39.941  27.248  28.886  1.00  0.00     0.031 C 
ATOM     54  C   UNL A   1      43.411  33.142  29.820  1.00  0.00     0.029 A 
ATOM     55  C   UNL A   1      44.093  32.124  29.025  1.00  0.00     0.049 A 
ATOM     56  H   UNL A   1      43.378  30.243  28.492  1.00  0.00     0.167 HD
ATOM     57  C   UNL A   1      41.697  26.331  27.405  1.00  0.00     0.031 A 
ATOM     58  C   UNL A   1      45.323  32.238  28.488  1.00  0.00     0.031 A 
ATOM     59  C   UNL A   1      42.974  26.388  26.745  1.00  0.00     0.049 A 
ATOM     60  C   UNL A   1      45.869  31.103  27.664  1.00  0.00     0.074 A 
ATOM     61  C   UNL A   1      43.563  25.447  25.919  1.00  0.00     0.029 A 
ATOM     62  N   UNL A   1      43.864  27.448  26.844  1.00  0.00    -0.354 N 
ATOM     63  N   UNL A   1      45.309  29.958  27.355  1.00  0.00    -0.248 NA
ATOM     64  C   UNL A   1      47.213  31.287  27.098  1.00  0.00     0.031 C 
ATOM     65  C   UNL A   1      44.834  25.913  25.564  1.00  0.00     0.029 A 
ATOM     66  C   UNL A   1      45.006  27.175  26.111  1.00  0.00     0.049 A 
ATOM     67  H   UNL A   1      43.706  28.272  27.358  1.00  0.00     0.167 HD
ATOM     68  C   UNL A   1      46.218  29.297  26.539  1.00  0.00     0.074 A 
ATOM     69  C   UNL A   1      47.353  30.184  26.378  1.00  0.00     0.031 C 
ATOM     70  C   UNL A   1      46.129  28.067  25.973  1.00  0.00     0.031 A 
BRANCH  57  71
ATOM     71  C   UNL A   1      40.845  25.105  27.221  1.00  0.00    -0.014 A 
ATOM     72  C   UNL A   1      41.197  23.878  27.809  1.00  0.00     0.009 A 
ATOM     73  C   UNL A   1      39.660  25.181  26.473  1.00  0.00     0.009 A 
ATOM     74  C   UNL A   1      40.397  22.749  27.626  1.00  0.00     0.001 A 
ATOM     75  C   UNL A   1      38.845  24.058  26.318  1.00  0.00     0.001 A 
ATOM     76  C   UNL A   1      39.218  22.841  26.887  1.00  0.00     0.000 A 
ENDBRANCH  57  71
BRANCH  58  77
ATOM     77  C   UNL A   1      46.134  33.461  28.732  1.00  0.00    -0.014 A 
ATOM     78  C   UNL A   1      46.851  33.632  29.926  1.00  0.00     0.009 A 
ATOM     79  C   UNL A   1      46.170  34.486  27.771  1.00  0.00     0.009 A 
ATOM     80  C   UNL A   1      47.556  34.814  30.167  1.00  0.00     0.001 A 
ATOM     81  C   UNL A   1      46.904  35.652  27.999  1.00  0.00     0.001 A 
ATOM     82  C   UNL A   1      47.585  35.821  29.203  1.00  0.00     0.000 A 
ENDBRANCH  58  77
BRANCH  70  83
ATOM     83  C   UNL A   1      47.277  27.631  25.103  1.00  0.00    -0.014 A 
ATOM     84  C   UNL A   1      48.417  27.019  25.646  1.00  0.00     0.009 A 
ATOM     85  C   UNL A   1      47.208  27.828  23.714  1.00  0.00     0.009 A 
ATOM     86  C   UNL A   1      49.488  26.665  24.822  1.00  0.00     0.001 A 
ATOM     87  C   UNL A   1      48.263  27.438  22.889  1.00  0.00     0.001 A 
ATOM     88  C   UNL A   1      49.409  26.871  23.446  1.00  0.00     0.000 A 
ENDBRANCH  70  83
ENDBRANCH  44  45
ENDBRANCH  37  39
ENDBRANCH  36  37
ENDBRANCH  35  36
ENDBRANCH  34  35
ENDBRANCH  33  34
ENDBRANCH  32  33
ENDBRANCH   1  32
TORSDOF 20
ENDMDL
MODEL 3
REMARK VINA RESULT:     -10.7      2.757      4.464
REMARK SMILES O=C(C[C@H]1S/C(=[NH+]\N=C\c2cc(Br)ccc2OCc2ccccc2)NC1=O)OCCOCCOC(=O)c1ccc(-c2c3nc(c(-c4ccccc4)c4ccc([nH]4)c(-c4ccccc4)c4nc(c(-c5ccccc5)c5ccc2[nH]5)C=C4)C=C3)cc1
REMARK SMILES IDX 29 1 28 2 2 3 1 4 3 5 4 6 5 7 26 8 6 9 25 10 27 11 7 12 8 15
REMARK SMILES IDX 9 16 10 17 11 18 16 19 12 20 15 21 13 22 14 23 17 24 18 25
REMARK SMILES IDX 19 26 20 27 24 28 21 29 23 30 22 31 30 32 31 33 32 34 33 35
REMARK SMILES IDX 34 36 35 37 36 38 37 39 38 40 84 41 39 42 83 43 40 44 41 45
REMARK SMILES IDX 42 46 77 47 43 48 82 49 76 50 78 51 44 52 81 53 75 54 74 55
REMARK SMILES IDX 45 57 67 58 52 59 66 60 53 61 56 62 65 63 79 64 54 65 55 66
REMARK SMILES IDX 64 68 80 69 57 70 46 71 47 72 51 73 48 74 50 75 49 76 68 77
REMARK SMILES IDX 69 78 73 79 70 80 72 81 71 82 58 83 59 84 63 85 60 86 62 87
REMARK SMILES IDX 61 88
REMARK H PARENT 25 13 7 14 78 56 56 67
REMARK Flexibility Score: inf
ROOT
ATOM      1  C   UNL A   1      33.677  30.520  27.200  1.00  0.00     0.261 C 
ENDROOT
BRANCH   1   2
ATOM      2  O   UNL A   1      32.357  29.997  27.014  1.00  0.00    -0.463 OA
BRANCH   2   3
ATOM      3  C   UNL A   1      31.697  29.928  25.840  1.00  0.00     0.307 C 
ATOM      4  O   UNL A   1      31.132  30.934  25.414  1.00  0.00    -0.252 OA
BRANCH   3   5
ATOM      5  C   UNL A   1      31.554  28.615  25.113  1.00  0.00     0.150 C 
BRANCH   5   6
ATOM      6  C   UNL A   1      32.350  28.485  23.820  1.00  0.00     0.184 C 
ATOM      7  S   UNL A   1      33.074  26.798  23.643  1.00  0.00    -0.020 SA
ATOM      8  C   UNL A   1      31.383  28.553  22.655  1.00  0.00     0.322 C 
ATOM      9  C   UNL A   1      31.754  26.248  22.673  1.00  0.00     0.337 C 
ATOM     10  N   UNL A   1      31.037  27.305  22.223  1.00  0.00    -0.202 N 
ATOM     11  O   UNL A   1      30.907  29.586  22.205  1.00  0.00    -0.246 OA
ATOM     12  N   UNL A   1      31.424  25.047  22.348  1.00  0.00    -0.142 N 
ATOM     13  H   UNL A   1      30.285  27.177  21.600  1.00  0.00     0.316 HD
ATOM     14  H   UNL A   1      30.636  24.855  21.789  1.00  0.00     0.343 HD
BRANCH  12  15
ATOM     15  N   UNL A   1      32.256  24.029  22.837  1.00  0.00    -0.093 NA
ATOM     16  C   UNL A   1      31.549  23.247  23.589  1.00  0.00     0.170 C 
BRANCH  16  17
ATOM     17  C   UNL A   1      32.062  22.034  24.233  1.00  0.00     0.040 A 
ATOM     18  C   UNL A   1      31.988  20.878  23.438  1.00  0.00     0.029 A 
ATOM     19  C   UNL A   1      32.748  22.010  25.458  1.00  0.00     0.128 A 
ATOM     20  C   UNL A   1      32.591  19.697  23.867  1.00  0.00     0.018 A 
ATOM     21  C   UNL A   1      33.286  20.786  25.893  1.00  0.00     0.048 A 
ATOM     22  Br  UNL A   1      32.604  18.181  22.740  1.00  0.00    -0.051 Br
ATOM     23  C   UNL A   1      33.226  19.640  25.100  1.00  0.00     0.019 A 
BRANCH  19  24
ATOM     24  O   UNL A   1      33.072  23.013  26.329  1.00  0.00    -0.488 OA
BRANCH  24  25
ATOM     25  C   UNL A   1      34.108  23.960  26.079  1.00  0.00     0.265 C 
BRANCH  25  26
ATOM     26  C   UNL A   1      35.359  23.422  25.407  1.00  0.00    -0.011 A 
ATOM     27  C   UNL A   1      35.457  23.527  24.010  1.00  0.00     0.007 A 
ATOM     28  C   UNL A   1      36.349  22.707  26.099  1.00  0.00     0.007 A 
ATOM     29  C   UNL A   1      36.447  22.830  23.316  1.00  0.00     0.000 A 
ATOM     30  C   UNL A   1      37.316  21.984  25.401  1.00  0.00     0.000 A 
ATOM     31  C   UNL A   1      37.352  22.030  24.009  1.00  0.00     0.000 A 
ENDBRANCH  25  26
ENDBRANCH  24  25
ENDBRANCH  19  24
ENDBRANCH  16  17
ENDBRANCH  12  15
ENDBRANCH   5   6
ENDBRANCH   3   5
ENDBRANCH   2   3
ENDBRANCH   1   2
BRANCH   1  32
ATOM     32  C   UNL A   1      33.720  31.984  27.628  1.00  0.00     0.202 C 
BRANCH  32  33
ATOM     33  O   UNL A   1      34.007  32.261  28.995  1.00  0.00    -0.374 OA
BRANCH  33  34
ATOM     34  C   UNL A   1      34.279  33.631  29.314  1.00  0.00     0.202 C 
BRANCH  34  35
ATOM     35  C   UNL A   1      35.098  33.868  30.590  1.00  0.00     0.261 C 
BRANCH  35  36
ATOM     36  O   UNL A   1      36.360  33.181  30.539  1.00  0.00    -0.460 OA
BRANCH  36  37
ATOM     37  C   UNL A   1      36.392  32.006  31.212  1.00  0.00     0.338 C 
ATOM     38  O   UNL A   1      35.570  31.590  32.015  1.00  0.00    -0.246 OA
BRANCH  37  39
ATOM     39  C   UNL A   1      37.473  31.162  30.666  1.00  0.00     0.060 A 
ATOM     40  C   UNL A   1      38.331  30.544  31.585  1.00  0.00     0.016 A 
ATOM     41  C   UNL A   1      37.650  30.973  29.293  1.00  0.00     0.016 A 
ATOM     42  C   UNL A   1      39.416  29.801  31.135  1.00  0.00     0.010 A 
ATOM     43  C   UNL A   1      38.742  30.228  28.841  1.00  0.00     0.010 A 
ATOM     44  C   UNL A   1      39.657  29.685  29.760  1.00  0.00    -0.014 A 
BRANCH  44  45
ATOM     45  C   UNL A   1      40.964  29.161  29.309  1.00  0.00     0.031 A 
ATOM     46  C   UNL A   1      42.160  30.075  29.351  1.00  0.00     0.074 A 
ATOM     47  C   UNL A   1      41.102  27.874  28.943  1.00  0.00     0.049 A 
ATOM     48  N   UNL A   1      43.408  29.824  29.049  1.00  0.00    -0.248 NA
ATOM     49  C   UNL A   1      41.915  31.458  29.795  1.00  0.00     0.031 C 
ATOM     50  C   UNL A   1      40.023  26.889  28.897  1.00  0.00     0.029 A 
ATOM     51  N   UNL A   1      42.214  27.178  28.548  1.00  0.00    -0.354 N 
ATOM     52  C   UNL A   1      44.094  31.012  29.271  1.00  0.00     0.074 A 
ATOM     53  C   UNL A   1      43.118  31.997  29.684  1.00  0.00     0.031 C 
ATOM     54  C   UNL A   1      40.528  25.709  28.498  1.00  0.00     0.029 A 
ATOM     55  C   UNL A   1      41.956  25.867  28.234  1.00  0.00     0.049 A 
ATOM     56  H   UNL A   1      43.111  27.578  28.496  1.00  0.00     0.167 HD
ATOM     57  C   UNL A   1      45.420  31.258  29.159  1.00  0.00     0.031 A 
ATOM     58  C   UNL A   1      42.781  24.908  27.772  1.00  0.00     0.031 A 
ATOM     59  C   UNL A   1      46.384  30.282  28.728  1.00  0.00     0.049 A 
ATOM     60  C   UNL A   1      44.240  25.228  27.585  1.00  0.00     0.074 A 
ATOM     61  C   UNL A   1      47.751  30.429  28.572  1.00  0.00     0.029 A 
ATOM     62  N   UNL A   1      46.078  28.976  28.377  1.00  0.00    -0.354 N 
ATOM     63  N   UNL A   1      44.881  26.348  27.820  1.00  0.00    -0.248 NA
ATOM     64  C   UNL A   1      45.094  24.141  27.085  1.00  0.00     0.031 C 
ATOM     65  C   UNL A   1      48.264  29.226  28.071  1.00  0.00     0.029 A 
ATOM     66  C   UNL A   1      47.227  28.311  27.984  1.00  0.00     0.049 A 
ATOM     67  H   UNL A   1      45.177  28.580  28.403  1.00  0.00     0.167 HD
ATOM     68  C   UNL A   1      46.214  26.093  27.523  1.00  0.00     0.074 A 
ATOM     69  C   UNL A   1      46.293  24.704  27.119  1.00  0.00     0.031 C 
ATOM     70  C   UNL A   1      47.280  26.930  27.576  1.00  0.00     0.031 A 
BRANCH  57  71
ATOM     71  C   UNL A   1      45.897  32.646  29.489  1.00  0.00    -0.014 A 
ATOM     72  C   UNL A   1      46.171  33.028  30.813  1.00  0.00     0.009 A 
ATOM     73  C   UNL A   1      46.104  33.579  28.460  1.00  0.00     0.009 A 
ATOM     74  C   UNL A   1      46.611  34.322  31.101  1.00  0.00     0.001 A 
ATOM     75  C   UNL A   1      46.574  34.861  28.748  1.00  0.00     0.001 A 
ATOM     76  C   UNL A   1      46.818  35.235  30.068  1.00  0.00     0.000 A 
ENDBRANCH  57  71
BRANCH  58  77
ATOM     77  C   UNL A   1      42.247  23.562  27.431  1.00  0.00    -0.014 A 
ATOM     78  C   UNL A   1      42.033  23.183  26.097  1.00  0.00     0.009 A 
ATOM     79  C   UNL A   1      41.917  22.654  28.452  1.00  0.00     0.009 A 
ATOM     80  C   UNL A   1      41.470  21.939  25.795  1.00  0.00     0.001 A 
ATOM     81  C   UNL A   1      41.387  21.400  28.146  1.00  0.00     0.001 A 
ATOM     82  C   UNL A   1      41.152  21.048  26.819  1.00  0.00     0.000 A 
ENDBRANCH  58  77
BRANCH  70  83
ATOM     83  C   UNL A   1      48.622  26.349  27.218  1.00  0.00    -0.014 A 
ATOM     84  C   UNL A   1      49.401  25.665  28.165  1.00  0.00     0.009 A 
ATOM     85  C   UNL A   1      49.107  26.481  25.907  1.00  0.00     0.009 A 
ATOM     86  C   UNL A   1      50.662  25.175  27.819  1.00  0.00     0.001 A 
ATOM     87  C   UNL A   1      50.351  25.956  25.555  1.00  0.00     0.001 A 
ATOM     88  C   UNL A   1      51.134  25.317  26.516  1.00  0.00     0.000 A 
ENDBRANCH  70  83
ENDBRANCH  44  45
ENDBRANCH  37  39
ENDBRANCH  36  37
ENDBRANCH  35  36
ENDBRANCH  34  35
ENDBRANCH  33  34
ENDBRANCH  32  33
ENDBRANCH   1  32
TORSDOF 20
ENDMDL
