MODEL 1
REMARK VINA RESULT:     -10.2      0.000      0.000
REMARK SMILES NC(=O)c1ccsc1NS(=O)(=O)c1ccc(C(=O)OCCOCCOC(=O)c2ccc(-c3c4nc(c(-c5ccccc5)c5ccc([nH]5)c(-c5ccccc5)c5nc(c(-c6ccccc6)c6ccc3[nH]6)C=C5)C=C4)cc2)cc1
REMARK SMILES IDX 21 1 20 2 19 3 17 4 18 5 16 6 13 7 14 8 77 9 15 10 76 11
REMARK SMILES IDX 10 12 11 13 12 14 9 15 8 17 4 18 5 19 6 20 7 21 2 22 1 23
REMARK SMILES IDX 3 26 22 27 23 28 24 29 25 30 26 31 27 32 28 33 29 34 75 35
REMARK SMILES IDX 30 36 74 37 31 38 32 39 33 40 68 41 34 42 73 43 67 44 69 45
REMARK SMILES IDX 35 46 72 47 66 48 65 49 36 51 58 52 43 53 57 54 44 55 47 56
REMARK SMILES IDX 56 57 70 58 45 59 46 60 55 62 71 63 48 64 37 65 38 66 42 67
REMARK SMILES IDX 39 68 41 69 40 70 59 71 60 72 64 73 61 74 63 75 62 76 49 77
REMARK SMILES IDX 50 78 54 79 51 80 53 81 52 82
REMARK H PARENT 9 16 1 24 1 25 69 50 47 61
REMARK Flexibility Score: inf
ROOT
ATOM      1  C   UNL A   1      41.304  21.890  26.161  1.00  0.00     0.202 C 
ENDROOT
BRANCH   1   2
ATOM      2  C   UNL A   1      39.944  21.945  26.863  1.00  0.00     0.261 C 
BRANCH   2   3
ATOM      3  O   UNL A   1      38.979  22.720  26.136  1.00  0.00    -0.460 OA
BRANCH   3   4
ATOM      4  C   UNL A   1      38.077  21.988  25.434  1.00  0.00     0.338 C 
ATOM      5  O   UNL A   1      38.111  20.781  25.254  1.00  0.00    -0.246 OA
BRANCH   4   6
ATOM      6  C   UNL A   1      36.942  22.828  24.965  1.00  0.00     0.060 A 
ATOM      7  C   UNL A   1      34.723  24.220  23.977  1.00  0.00     0.087 A 
ATOM      8  C   UNL A   1      35.412  23.341  23.142  1.00  0.00     0.023 A 
ATOM      9  C   UNL A   1      35.174  24.452  25.286  1.00  0.00     0.023 A 
ATOM     10  C   UNL A   1      36.499  22.626  23.648  1.00  0.00     0.017 A 
ATOM     11  C   UNL A   1      36.290  23.765  25.776  1.00  0.00     0.017 A 
BRANCH   7  12
ATOM     12  S   UNL A   1      33.197  24.993  23.479  1.00  0.00     0.262 S 
ATOM     13  O   UNL A   1      32.303  24.848  24.609  1.00  0.00    -0.201 OA
ATOM     14  O   UNL A   1      32.849  24.455  22.180  1.00  0.00    -0.201 OA
BRANCH  12  15
ATOM     15  N   UNL A   1      33.468  26.626  23.314  1.00  0.00    -0.270 N 
ATOM     16  H   UNL A   1      34.006  26.914  22.542  1.00  0.00     0.181 HD
BRANCH  15  17
ATOM     17  C   UNL A   1      32.996  27.646  24.188  1.00  0.00     0.115 A 
ATOM     18  C   UNL A   1      31.893  28.425  23.863  1.00  0.00     0.074 A 
ATOM     19  C   UNL A   1      31.423  29.138  25.024  1.00  0.00     0.028 A 
ATOM     20  C   UNL A   1      32.254  28.985  26.109  1.00  0.00     0.068 A 
ATOM     21  S   UNL A   1      33.639  28.073  25.708  1.00  0.00    -0.125 S 
BRANCH  18  22
ATOM     22  C   UNL A   1      31.283  28.446  22.538  1.00  0.00     0.251 C 
ATOM     23  N   UNL A   1      31.313  29.654  21.902  1.00  0.00    -0.366 N 
ATOM     24  H   UNL A   1      30.922  29.746  21.003  1.00  0.00     0.159 HD
ATOM     25  H   UNL A   1      31.727  30.431  22.341  1.00  0.00     0.159 HD
ATOM     26  O   UNL A   1      30.827  27.449  21.989  1.00  0.00    -0.269 OA
ENDBRANCH  18  22
ENDBRANCH  15  17
ENDBRANCH  12  15
ENDBRANCH   7  12
ENDBRANCH   4   6
ENDBRANCH   3   4
ENDBRANCH   2   3
ENDBRANCH   1   2
BRANCH   1  27
ATOM     27  O   UNL A   1      41.647  20.673  25.506  1.00  0.00    -0.374 OA
BRANCH  27  28
ATOM     28  C   UNL A   1      42.092  19.588  26.325  1.00  0.00     0.202 C 
BRANCH  28  29
ATOM     29  C   UNL A   1      43.036  18.570  25.671  1.00  0.00     0.261 C 
BRANCH  29  30
ATOM     30  O   UNL A   1      44.379  19.076  25.545  1.00  0.00    -0.460 OA
BRANCH  30  31
ATOM     31  C   UNL A   1      44.622  19.779  24.410  1.00  0.00     0.338 C 
ATOM     32  O   UNL A   1      44.431  19.427  23.263  1.00  0.00    -0.246 OA
BRANCH  31  33
ATOM     33  C   UNL A   1      44.994  21.164  24.760  1.00  0.00     0.060 A 
ATOM     34  C   UNL A   1      45.394  21.417  26.079  1.00  0.00     0.016 A 
ATOM     35  C   UNL A   1      44.881  22.207  23.840  1.00  0.00     0.016 A 
ATOM     36  C   UNL A   1      45.643  22.723  26.496  1.00  0.00     0.010 A 
ATOM     37  C   UNL A   1      45.121  23.519  24.261  1.00  0.00     0.010 A 
ATOM     38  C   UNL A   1      45.471  23.786  25.598  1.00  0.00    -0.014 A 
BRANCH  38  39
ATOM     39  C   UNL A   1      45.522  25.182  26.093  1.00  0.00     0.031 A 
ATOM     40  C   UNL A   1      46.831  25.921  26.063  1.00  0.00     0.074 A 
ATOM     41  C   UNL A   1      44.414  25.792  26.549  1.00  0.00     0.049 A 
ATOM     42  N   UNL A   1      47.110  27.131  26.477  1.00  0.00    -0.248 NA
ATOM     43  C   UNL A   1      47.979  25.200  25.490  1.00  0.00     0.031 C 
ATOM     44  C   UNL A   1      43.078  25.199  26.592  1.00  0.00     0.029 A 
ATOM     45  N   UNL A   1      44.244  27.049  27.072  1.00  0.00    -0.354 N 
ATOM     46  C   UNL A   1      48.465  27.310  26.228  1.00  0.00     0.074 A 
ATOM     47  C   UNL A   1      48.956  26.078  25.651  1.00  0.00     0.031 C 
ATOM     48  C   UNL A   1      42.224  26.092  27.121  1.00  0.00     0.029 A 
ATOM     49  C   UNL A   1      42.958  27.301  27.484  1.00  0.00     0.049 A 
ATOM     50  H   UNL A   1      44.972  27.707  27.143  1.00  0.00     0.167 HD
ATOM     51  C   UNL A   1      49.231  28.404  26.454  1.00  0.00     0.031 A 
ATOM     52  C   UNL A   1      42.439  28.379  28.104  1.00  0.00     0.031 A 
ATOM     53  C   UNL A   1      48.745  29.625  27.041  1.00  0.00     0.049 A 
ATOM     54  C   UNL A   1      43.326  29.554  28.414  1.00  0.00     0.074 A 
ATOM     55  C   UNL A   1      49.440  30.796  27.292  1.00  0.00     0.029 A 
ATOM     56  N   UNL A   1      47.447  29.828  27.476  1.00  0.00    -0.354 N 
ATOM     57  N   UNL A   1      44.599  29.724  28.146  1.00  0.00    -0.248 NA
ATOM     58  C   UNL A   1      42.700  30.691  29.105  1.00  0.00     0.031 C 
ATOM     59  C   UNL A   1      48.574  31.688  27.933  1.00  0.00     0.029 A 
ATOM     60  C   UNL A   1      47.324  31.094  28.022  1.00  0.00     0.049 A 
ATOM     61  H   UNL A   1      46.717  29.169  27.408  1.00  0.00     0.167 HD
ATOM     62  C   UNL A   1      44.918  30.995  28.608  1.00  0.00     0.074 A 
ATOM     63  C   UNL A   1      43.704  31.556  29.163  1.00  0.00     0.031 C 
ATOM     64  C   UNL A   1      46.109  31.641  28.572  1.00  0.00     0.031 A 
BRANCH  51  65
ATOM     65  C   UNL A   1      50.689  28.310  26.101  1.00  0.00    -0.014 A 
ATOM     66  C   UNL A   1      51.642  27.867  27.032  1.00  0.00     0.009 A 
ATOM     67  C   UNL A   1      51.113  28.646  24.805  1.00  0.00     0.009 A 
ATOM     68  C   UNL A   1      52.992  27.797  26.684  1.00  0.00     0.001 A 
ATOM     69  C   UNL A   1      52.459  28.547  24.451  1.00  0.00     0.001 A 
ATOM     70  C   UNL A   1      53.398  28.133  25.392  1.00  0.00     0.000 A 
ENDBRANCH  51  65
BRANCH  52  71
ATOM     71  C   UNL A   1      41.004  28.391  28.491  1.00  0.00    -0.014 A 
ATOM     72  C   UNL A   1      40.039  28.964  27.650  1.00  0.00     0.009 A 
ATOM     73  C   UNL A   1      40.595  27.836  29.715  1.00  0.00     0.009 A 
ATOM     74  C   UNL A   1      38.696  29.000  28.036  1.00  0.00     0.001 A 
ATOM     75  C   UNL A   1      39.249  27.848  30.085  1.00  0.00     0.001 A 
ATOM     76  C   UNL A   1      38.302  28.438  29.249  1.00  0.00     0.000 A 
ENDBRANCH  52  71
BRANCH  64  77
ATOM     77  C   UNL A   1      46.153  33.044  29.110  1.00  0.00    -0.014 A 
ATOM     78  C   UNL A   1      46.051  34.157  28.262  1.00  0.00     0.009 A 
ATOM     79  C   UNL A   1      46.251  33.251  30.496  1.00  0.00     0.009 A 
ATOM     80  C   UNL A   1      46.079  35.451  28.790  1.00  0.00     0.001 A 
ATOM     81  C   UNL A   1      46.249  34.543  31.022  1.00  0.00     0.001 A 
ATOM     82  C   UNL A   1      46.172  35.642  30.168  1.00  0.00     0.000 A 
ENDBRANCH  64  77
ENDBRANCH  38  39
ENDBRANCH  31  33
ENDBRANCH  30  31
ENDBRANCH  29  30
ENDBRANCH  28  29
ENDBRANCH  27  28
ENDBRANCH   1  27
TORSDOF 18
ENDMDL
MODEL 2
REMARK VINA RESULT:     -10.2      4.342      6.608
REMARK SMILES NC(=O)c1ccsc1NS(=O)(=O)c1ccc(C(=O)OCCOCCOC(=O)c2ccc(-c3c4nc(c(-c5ccccc5)c5ccc([nH]5)c(-c5ccccc5)c5nc(c(-c6ccccc6)c6ccc3[nH]6)C=C5)C=C4)cc2)cc1
REMARK SMILES IDX 21 1 20 2 19 3 17 4 18 5 16 6 13 7 14 8 77 9 15 10 76 11
REMARK SMILES IDX 10 12 11 13 12 14 9 15 8 17 4 18 5 19 6 20 7 21 2 22 1 23
REMARK SMILES IDX 3 26 22 27 23 28 24 29 25 30 26 31 27 32 28 33 29 34 75 35
REMARK SMILES IDX 30 36 74 37 31 38 32 39 33 40 68 41 34 42 73 43 67 44 69 45
REMARK SMILES IDX 35 46 72 47 66 48 65 49 36 51 58 52 43 53 57 54 44 55 47 56
REMARK SMILES IDX 56 57 70 58 45 59 46 60 55 62 71 63 48 64 37 65 38 66 42 67
REMARK SMILES IDX 39 68 41 69 40 70 59 71 60 72 64 73 61 74 63 75 62 76 49 77
REMARK SMILES IDX 50 78 54 79 51 80 53 81 52 82
REMARK H PARENT 9 16 1 24 1 25 69 50 47 61
REMARK Flexibility Score: inf
ROOT
ATOM      1  C   UNL A   1      40.299  21.243  26.155  1.00  0.00     0.202 C 
ENDROOT
BRANCH   1   2
ATOM      2  C   UNL A   1      39.231  22.267  26.552  1.00  0.00     0.261 C 
BRANCH   2   3
ATOM      3  O   UNL A   1      38.433  22.691  25.436  1.00  0.00    -0.460 OA
BRANCH   3   4
ATOM      4  C   UNL A   1      37.419  21.849  25.113  1.00  0.00     0.338 C 
ATOM      5  O   UNL A   1      37.452  20.630  25.154  1.00  0.00    -0.246 OA
BRANCH   4   6
ATOM      6  C   UNL A   1      36.177  22.598  24.777  1.00  0.00     0.060 A 
ATOM      7  C   UNL A   1      33.911  24.169  24.295  1.00  0.00     0.087 A 
ATOM      8  C   UNL A   1      34.355  23.985  25.605  1.00  0.00     0.023 A 
ATOM      9  C   UNL A   1      34.559  23.523  23.231  1.00  0.00     0.023 A 
ATOM     10  C   UNL A   1      35.503  23.226  25.837  1.00  0.00     0.017 A 
ATOM     11  C   UNL A   1      35.685  22.728  23.473  1.00  0.00     0.017 A 
BRANCH   7  12
ATOM     12  S   UNL A   1      32.596  25.304  23.897  1.00  0.00     0.262 S 
ATOM     13  O   UNL A   1      31.767  25.366  25.083  1.00  0.00    -0.201 OA
ATOM     14  O   UNL A   1      32.043  24.889  22.624  1.00  0.00    -0.201 OA
BRANCH  12  15
ATOM     15  N   UNL A   1      33.252  26.821  23.714  1.00  0.00    -0.270 N 
ATOM     16  H   UNL A   1      33.962  26.921  23.040  1.00  0.00     0.181 HD
BRANCH  15  17
ATOM     17  C   UNL A   1      32.883  27.987  24.443  1.00  0.00     0.115 A 
ATOM     18  C   UNL A   1      31.843  28.806  24.022  1.00  0.00     0.074 A 
ATOM     19  C   UNL A   1      31.457  29.707  25.077  1.00  0.00     0.028 A 
ATOM     20  C   UNL A   1      32.291  29.633  26.167  1.00  0.00     0.068 A 
ATOM     21  S   UNL A   1      33.588  28.561  25.886  1.00  0.00    -0.125 S 
BRANCH  18  22
ATOM     22  C   UNL A   1      31.213  28.697  22.710  1.00  0.00     0.251 C 
ATOM     23  N   UNL A   1      31.499  29.711  21.842  1.00  0.00    -0.366 N 
ATOM     24  H   UNL A   1      31.111  29.708  20.937  1.00  0.00     0.159 HD
ATOM     25  H   UNL A   1      32.093  30.445  22.120  1.00  0.00     0.159 HD
ATOM     26  O   UNL A   1      30.524  27.742  22.369  1.00  0.00    -0.269 OA
ENDBRANCH  18  22
ENDBRANCH  15  17
ENDBRANCH  12  15
ENDBRANCH   7  12
ENDBRANCH   4   6
ENDBRANCH   3   4
ENDBRANCH   2   3
ENDBRANCH   1   2
BRANCH   1  27
ATOM     27  O   UNL A   1      41.597  21.410  26.716  1.00  0.00    -0.374 OA
BRANCH  27  28
ATOM     28  C   UNL A   1      42.704  20.868  25.989  1.00  0.00     0.202 C 
BRANCH  28  29
ATOM     29  C   UNL A   1      43.667  21.875  25.345  1.00  0.00     0.261 C 
BRANCH  29  30
ATOM     30  O   UNL A   1      43.009  23.103  24.984  1.00  0.00    -0.460 OA
BRANCH  30  31
ATOM     31  C   UNL A   1      43.753  24.225  25.159  1.00  0.00     0.338 C 
ATOM     32  O   UNL A   1      44.765  24.544  24.567  1.00  0.00    -0.246 OA
BRANCH  31  33
ATOM     33  C   UNL A   1      43.049  25.144  26.075  1.00  0.00     0.060 A 
ATOM     34  C   UNL A   1      43.539  26.452  26.187  1.00  0.00     0.016 A 
ATOM     35  C   UNL A   1      41.982  24.714  26.866  1.00  0.00     0.016 A 
ATOM     36  C   UNL A   1      42.989  27.326  27.122  1.00  0.00     0.010 A 
ATOM     37  C   UNL A   1      41.437  25.590  27.810  1.00  0.00     0.010 A 
ATOM     38  C   UNL A   1      41.959  26.887  27.966  1.00  0.00    -0.014 A 
BRANCH  38  39
ATOM     39  C   UNL A   1      41.525  27.738  29.099  1.00  0.00     0.031 A 
ATOM     40  C   UNL A   1      42.268  27.652  30.404  1.00  0.00     0.074 A 
ATOM     41  C   UNL A   1      40.493  28.588  28.966  1.00  0.00     0.049 A 
ATOM     42  N   UNL A   1      42.037  28.276  31.532  1.00  0.00    -0.248 NA
ATOM     43  C   UNL A   1      43.423  26.742  30.443  1.00  0.00     0.031 C 
ATOM     44  C   UNL A   1      39.718  28.795  27.743  1.00  0.00     0.029 A 
ATOM     45  N   UNL A   1      39.915  29.434  29.880  1.00  0.00    -0.354 N 
ATOM     46  C   UNL A   1      43.009  27.824  32.416  1.00  0.00     0.074 A 
ATOM     47  C   UNL A   1      43.815  26.856  31.703  1.00  0.00     0.031 C 
ATOM     48  C   UNL A   1      38.759  29.705  27.985  1.00  0.00     0.029 A 
ATOM     49  C   UNL A   1      38.832  30.117  29.385  1.00  0.00     0.049 A 
ATOM     50  H   UNL A   1      40.245  29.540  30.800  1.00  0.00     0.167 HD
ATOM     51  C   UNL A   1      43.217  28.185  33.705  1.00  0.00     0.031 A 
ATOM     52  C   UNL A   1      37.982  30.963  29.999  1.00  0.00     0.031 A 
ATOM     53  C   UNL A   1      42.407  29.137  34.419  1.00  0.00     0.049 A 
ATOM     54  C   UNL A   1      38.186  31.293  31.453  1.00  0.00     0.074 A 
ATOM     55  C   UNL A   1      42.550  29.584  35.721  1.00  0.00     0.029 A 
ATOM     56  N   UNL A   1      41.299  29.781  33.893  1.00  0.00    -0.354 N 
ATOM     57  N   UNL A   1      39.126  30.883  32.270  1.00  0.00    -0.248 NA
ATOM     58  C   UNL A   1      37.214  32.210  32.066  1.00  0.00     0.031 C 
ATOM     59  C   UNL A   1      41.493  30.456  36.002  1.00  0.00     0.029 A 
ATOM     60  C   UNL A   1      40.729  30.600  34.853  1.00  0.00     0.049 A 
ATOM     61  H   UNL A   1      40.966  29.672  32.973  1.00  0.00     0.167 HD
ATOM     62  C   UNL A   1      38.878  31.514  33.482  1.00  0.00     0.074 A 
ATOM     63  C   UNL A   1      37.705  32.342  33.291  1.00  0.00     0.031 C 
ATOM     64  C   UNL A   1      39.562  31.419  34.649  1.00  0.00     0.031 A 
BRANCH  51  65
ATOM     65  C   UNL A   1      44.343  27.512  34.437  1.00  0.00    -0.014 A 
ATOM     66  C   UNL A   1      45.636  28.060  34.456  1.00  0.00     0.009 A 
ATOM     67  C   UNL A   1      44.100  26.323  35.144  1.00  0.00     0.009 A 
ATOM     68  C   UNL A   1      46.669  27.412  35.136  1.00  0.00     0.001 A 
ATOM     69  C   UNL A   1      45.128  25.693  35.847  1.00  0.00     0.001 A 
ATOM     70  C   UNL A   1      46.413  26.232  35.834  1.00  0.00     0.000 A 
ENDBRANCH  51  65
BRANCH  52  71
ATOM     71  C   UNL A   1      36.843  31.548  29.243  1.00  0.00    -0.014 A 
ATOM     72  C   UNL A   1      36.942  32.826  28.673  1.00  0.00     0.009 A 
ATOM     73  C   UNL A   1      35.644  30.830  29.099  1.00  0.00     0.009 A 
ATOM     74  C   UNL A   1      35.856  33.382  27.992  1.00  0.00     0.001 A 
ATOM     75  C   UNL A   1      34.571  31.377  28.393  1.00  0.00     0.001 A 
ATOM     76  C   UNL A   1      34.675  32.656  27.847  1.00  0.00     0.000 A 
ENDBRANCH  52  71
BRANCH  64  77
ATOM     77  C   UNL A   1      39.087  32.261  35.801  1.00  0.00    -0.014 A 
ATOM     78  C   UNL A   1      38.148  31.776  36.725  1.00  0.00     0.009 A 
ATOM     79  C   UNL A   1      39.624  33.544  35.988  1.00  0.00     0.009 A 
ATOM     80  C   UNL A   1      37.735  32.573  37.795  1.00  0.00     0.001 A 
ATOM     81  C   UNL A   1      39.232  34.327  37.074  1.00  0.00     0.001 A 
ATOM     82  C   UNL A   1      38.281  33.844  37.972  1.00  0.00     0.000 A 
ENDBRANCH  64  77
ENDBRANCH  38  39
ENDBRANCH  31  33
ENDBRANCH  30  31
ENDBRANCH  29  30
ENDBRANCH  28  29
ENDBRANCH  27  28
ENDBRANCH   1  27
TORSDOF 18
ENDMDL
MODEL 3
REMARK VINA RESULT:     -10.0      6.655     11.758
REMARK SMILES NC(=O)c1ccsc1NS(=O)(=O)c1ccc(C(=O)OCCOCCOC(=O)c2ccc(-c3c4nc(c(-c5ccccc5)c5ccc([nH]5)c(-c5ccccc5)c5nc(c(-c6ccccc6)c6ccc3[nH]6)C=C5)C=C4)cc2)cc1
REMARK SMILES IDX 21 1 20 2 19 3 17 4 18 5 16 6 13 7 14 8 77 9 15 10 76 11
REMARK SMILES IDX 10 12 11 13 12 14 9 15 8 17 4 18 5 19 6 20 7 21 2 22 1 23
REMARK SMILES IDX 3 26 22 27 23 28 24 29 25 30 26 31 27 32 28 33 29 34 75 35
REMARK SMILES IDX 30 36 74 37 31 38 32 39 33 40 68 41 34 42 73 43 67 44 69 45
REMARK SMILES IDX 35 46 72 47 66 48 65 49 36 51 58 52 43 53 57 54 44 55 47 56
REMARK SMILES IDX 56 57 70 58 45 59 46 60 55 62 71 63 48 64 37 65 38 66 42 67
REMARK SMILES IDX 39 68 41 69 40 70 59 71 60 72 64 73 61 74 63 75 62 76 49 77
REMARK SMILES IDX 50 78 54 79 51 80 53 81 52 82
REMARK H PARENT 9 16 1 24 1 25 69 50 47 61
REMARK Flexibility Score: inf
ROOT
ATOM      1  C   UNL A   1      35.126  33.022  28.361  1.00  0.00     0.202 C 
ENDROOT
BRANCH   1   2
ATOM      2  C   UNL A   1      34.051  31.931  28.357  1.00  0.00     0.261 C 
BRANCH   2   3
ATOM      3  O   UNL A   1      34.004  31.208  27.117  1.00  0.00    -0.460 OA
BRANCH   3   4
ATOM      4  C   UNL A   1      34.280  29.883  27.222  1.00  0.00     0.338 C 
ATOM      5  O   UNL A   1      35.145  29.380  27.921  1.00  0.00    -0.246 OA
BRANCH   4   6
ATOM      6  C   UNL A   1      33.319  29.064  26.436  1.00  0.00     0.060 A 
ATOM      7  C   UNL A   1      31.369  27.527  25.142  1.00  0.00     0.087 A 
ATOM      8  C   UNL A   1      31.705  27.241  26.465  1.00  0.00     0.023 A 
ATOM      9  C   UNL A   1      32.046  28.539  24.444  1.00  0.00     0.023 A 
ATOM     10  C   UNL A   1      32.655  28.030  27.116  1.00  0.00     0.017 A 
ATOM     11  C   UNL A   1      33.029  29.300  25.086  1.00  0.00     0.017 A 
BRANCH   7  12
ATOM     12  S   UNL A   1      30.012  26.719  24.318  1.00  0.00     0.262 S 
ATOM     13  O   UNL A   1      29.293  27.773  23.633  1.00  0.00    -0.201 OA
ATOM     14  O   UNL A   1      29.351  25.884  25.300  1.00  0.00    -0.201 OA
BRANCH  12  15
ATOM     15  N   UNL A   1      30.633  25.737  23.128  1.00  0.00    -0.270 N 
ATOM     16  H   UNL A   1      30.202  25.779  22.244  1.00  0.00     0.181 HD
BRANCH  15  17
ATOM     17  C   UNL A   1      31.731  24.842  23.269  1.00  0.00     0.115 A 
ATOM     18  C   UNL A   1      32.913  25.027  22.563  1.00  0.00     0.074 A 
ATOM     19  C   UNL A   1      33.960  24.206  23.115  1.00  0.00     0.028 A 
ATOM     20  C   UNL A   1      33.503  23.353  24.092  1.00  0.00     0.068 A 
ATOM     21  S   UNL A   1      31.811  23.467  24.275  1.00  0.00    -0.125 S 
BRANCH  18  22
ATOM     22  C   UNL A   1      33.054  25.975  21.463  1.00  0.00     0.251 C 
ATOM     23  N   UNL A   1      32.467  25.597  20.290  1.00  0.00    -0.366 N 
ATOM     24  H   UNL A   1      32.520  26.185  19.502  1.00  0.00     0.159 HD
ATOM     25  H   UNL A   1      31.992  24.737  20.232  1.00  0.00     0.159 HD
ATOM     26  O   UNL A   1      33.602  27.066  21.578  1.00  0.00    -0.269 OA
ENDBRANCH  18  22
ENDBRANCH  15  17
ENDBRANCH  12  15
ENDBRANCH   7  12
ENDBRANCH   4   6
ENDBRANCH   3   4
ENDBRANCH   2   3
ENDBRANCH   1   2
BRANCH   1  27
ATOM     27  O   UNL A   1      34.843  34.208  29.097  1.00  0.00    -0.374 OA
BRANCH  27  28
ATOM     28  C   UNL A   1      33.922  35.138  28.519  1.00  0.00     0.202 C 
BRANCH  28  29
ATOM     29  C   UNL A   1      33.029  35.920  29.491  1.00  0.00     0.261 C 
BRANCH  29  30
ATOM     30  O   UNL A   1      32.551  35.098  30.573  1.00  0.00    -0.460 OA
BRANCH  30  31
ATOM     31  C   UNL A   1      32.788  35.592  31.815  1.00  0.00     0.338 C 
ATOM     32  O   UNL A   1      32.101  36.368  32.449  1.00  0.00    -0.246 OA
BRANCH  31  33
ATOM     33  C   UNL A   1      33.948  34.897  32.408  1.00  0.00     0.060 A 
ATOM     34  C   UNL A   1      35.198  35.521  32.315  1.00  0.00     0.016 A 
ATOM     35  C   UNL A   1      33.828  33.626  32.973  1.00  0.00     0.016 A 
ATOM     36  C   UNL A   1      36.344  34.860  32.750  1.00  0.00     0.010 A 
ATOM     37  C   UNL A   1      34.980  32.959  33.401  1.00  0.00     0.010 A 
ATOM     38  C   UNL A   1      36.245  33.558  33.261  1.00  0.00    -0.014 A 
BRANCH  38  39
ATOM     39  C   UNL A   1      37.476  32.775  33.520  1.00  0.00     0.031 A 
ATOM     40  C   UNL A   1      38.235  33.006  34.798  1.00  0.00     0.074 A 
ATOM     41  C   UNL A   1      37.906  31.856  32.638  1.00  0.00     0.049 A 
ATOM     42  N   UNL A   1      39.351  32.460  35.210  1.00  0.00    -0.248 NA
ATOM     43  C   UNL A   1      37.660  33.984  35.735  1.00  0.00     0.031 C 
ATOM     44  C   UNL A   1      37.239  31.509  31.385  1.00  0.00     0.029 A 
ATOM     45  N   UNL A   1      39.018  31.052  32.664  1.00  0.00    -0.354 N 
ATOM     46  C   UNL A   1      39.618  33.037  36.445  1.00  0.00     0.074 A 
ATOM     47  C   UNL A   1      38.562  33.992  36.704  1.00  0.00     0.031 C 
ATOM     48  C   UNL A   1      37.960  30.565  30.756  1.00  0.00     0.029 A 
ATOM     49  C   UNL A   1      39.153  30.268  31.544  1.00  0.00     0.049 A 
ATOM     50  H   UNL A   1      39.656  31.037  33.412  1.00  0.00     0.167 HD
ATOM     51  C   UNL A   1      40.646  32.790  37.292  1.00  0.00     0.031 A 
ATOM     52  C   UNL A   1      40.140  29.424  31.188  1.00  0.00     0.031 A 
ATOM     53  C   UNL A   1      41.703  31.850  37.029  1.00  0.00     0.049 A 
ATOM     54  C   UNL A   1      41.312  29.221  32.110  1.00  0.00     0.074 A 
ATOM     55  C   UNL A   1      42.779  31.515  37.834  1.00  0.00     0.029 A 
ATOM     56  N   UNL A   1      41.823  31.102  35.869  1.00  0.00    -0.354 N 
ATOM     57  N   UNL A   1      41.537  29.749  33.289  1.00  0.00    -0.248 NA
ATOM     58  C   UNL A   1      42.362  28.298  31.653  1.00  0.00     0.031 C 
ATOM     59  C   UNL A   1      43.581  30.607  37.135  1.00  0.00     0.029 A 
ATOM     60  C   UNL A   1      42.969  30.328  35.922  1.00  0.00     0.049 A 
ATOM     61  H   UNL A   1      41.186  31.118  35.117  1.00  0.00     0.167 HD
ATOM     62  C   UNL A   1      42.736  29.201  33.727  1.00  0.00     0.074 A 
ATOM     63  C   UNL A   1      43.185  28.292  32.693  1.00  0.00     0.031 C 
ATOM     64  C   UNL A   1      43.404  29.428  34.885  1.00  0.00     0.031 A 
BRANCH  51  65
ATOM     65  C   UNL A   1      40.696  33.584  38.567  1.00  0.00    -0.014 A 
ATOM     66  C   UNL A   1      40.023  33.157  39.723  1.00  0.00     0.009 A 
ATOM     67  C   UNL A   1      41.452  34.766  38.620  1.00  0.00     0.009 A 
ATOM     68  C   UNL A   1      40.076  33.917  40.893  1.00  0.00     0.001 A 
ATOM     69  C   UNL A   1      41.527  35.508  39.800  1.00  0.00     0.001 A 
ATOM     70  C   UNL A   1      40.831  35.089  40.932  1.00  0.00     0.000 A 
ENDBRANCH  51  65
BRANCH  52  71
ATOM     71  C   UNL A   1      40.073  28.715  29.883  1.00  0.00    -0.014 A 
ATOM     72  C   UNL A   1      40.555  29.318  28.712  1.00  0.00     0.009 A 
ATOM     73  C   UNL A   1      39.513  27.429  29.802  1.00  0.00     0.009 A 
ATOM     74  C   UNL A   1      40.460  28.658  27.484  1.00  0.00     0.001 A 
ATOM     75  C   UNL A   1      39.444  26.760  28.578  1.00  0.00     0.001 A 
ATOM     76  C   UNL A   1      39.910  27.379  27.419  1.00  0.00     0.000 A 
ENDBRANCH  52  71
BRANCH  64  77
ATOM     77  C   UNL A   1      44.671  28.651  35.117  1.00  0.00    -0.014 A 
ATOM     78  C   UNL A   1      44.656  27.397  35.747  1.00  0.00     0.009 A 
ATOM     79  C   UNL A   1      45.893  29.165  34.655  1.00  0.00     0.009 A 
ATOM     80  C   UNL A   1      45.845  26.689  35.937  1.00  0.00     0.001 A 
ATOM     81  C   UNL A   1      47.075  28.442  34.819  1.00  0.00     0.001 A 
ATOM     82  C   UNL A   1      47.051  27.209  35.468  1.00  0.00     0.000 A 
ENDBRANCH  64  77
ENDBRANCH  38  39
ENDBRANCH  31  33
ENDBRANCH  30  31
ENDBRANCH  29  30
ENDBRANCH  28  29
ENDBRANCH  27  28
ENDBRANCH   1  27
TORSDOF 18
ENDMDL
