MODEL 1
REMARK VINA RESULT:      -8.6      0.000      0.000
REMARK SMILES CC(C)SSC(=O)N1CCC[C@@H]1C(=O)OCCOCCOC(=O)c1ccc(-c2c3nc(c(-c4ccccc4)c4ccc([nH]4)c(-c4ccccc4)c4nc(c(-c5ccccc5)c5ccc2[nH]5)C=C4)C=C3)cc1
REMARK SMILES IDX 17 1 16 2 15 3 13 4 14 5 12 6 8 7 9 8 10 9 11 10 6 11 7 12
REMARK SMILES IDX 5 13 4 14 2 15 1 16 3 17 18 18 19 19 20 20 21 21 22 22 23 23
REMARK SMILES IDX 24 24 25 25 71 26 26 27 70 28 27 29 28 30 29 31 64 32 30 33
REMARK SMILES IDX 69 34 63 35 65 36 31 37 68 38 62 39 61 40 32 42 54 43 39 44
REMARK SMILES IDX 53 45 40 46 43 47 52 48 66 49 41 50 42 51 51 53 67 54 44 55
REMARK SMILES IDX 33 56 34 57 38 58 35 59 37 60 36 61 55 62 56 63 60 64 57 65
REMARK SMILES IDX 59 66 58 67 45 68 46 69 50 70 47 71 49 72 48 73
REMARK H PARENT 65 41 43 52
REMARK Flexibility Score: inf
ROOT
ATOM      1  C   UNL A   1      37.031  21.948  24.298  1.00  0.00     0.202 C 
ENDROOT
BRANCH   1   2
ATOM      2  C   UNL A   1      36.234  23.246  24.126  1.00  0.00     0.261 C 
BRANCH   2   3
ATOM      3  O   UNL A   1      35.519  23.647  25.309  1.00  0.00    -0.462 OA
BRANCH   3   4
ATOM      4  C   UNL A   1      34.278  24.162  25.072  1.00  0.00     0.328 C 
ATOM      5  O   UNL A   1      34.028  25.005  24.217  1.00  0.00    -0.250 OA
BRANCH   4   6
ATOM      6  C   UNL A   1      33.196  23.503  25.936  1.00  0.00     0.196 C 
ATOM      7  N   UNL A   1      32.316  22.630  25.168  1.00  0.00    -0.319 N 
ATOM      8  C   UNL A   1      30.930  22.821  25.544  1.00  0.00     0.121 C 
ATOM      9  C   UNL A   1      30.877  24.261  26.015  1.00  0.00     0.024 C 
ATOM     10  C   UNL A   1      32.256  24.507  26.624  1.00  0.00     0.039 C 
BRANCH   7  11
ATOM     11  C   UNL A   1      32.872  21.568  24.484  1.00  0.00     0.293 C 
ATOM     12  O   UNL A   1      32.741  21.434  23.272  1.00  0.00    -0.261 OA
BRANCH  11  13
ATOM     13  S   UNL A   1      33.739  20.376  25.448  1.00  0.00     0.005 SA
BRANCH  13  14
ATOM     14  S   UNL A   1      32.661  18.654  25.053  1.00  0.00    -0.081 SA
BRANCH  14  15
ATOM     15  C   UNL A   1      33.313  17.984  23.472  1.00  0.00     0.052 C 
ATOM     16  C   UNL A   1      33.834  16.561  23.649  1.00  0.00     0.020 C 
ATOM     17  C   UNL A   1      32.329  18.086  22.313  1.00  0.00     0.020 C 
ENDBRANCH  14  15
ENDBRANCH  13  14
ENDBRANCH  11  13
ENDBRANCH   7  11
ENDBRANCH   4   6
ENDBRANCH   3   4
ENDBRANCH   2   3
ENDBRANCH   1   2
BRANCH   1  18
ATOM     18  O   UNL A   1      37.524  21.631  25.598  1.00  0.00    -0.374 OA
BRANCH  18  19
ATOM     19  C   UNL A   1      38.933  21.522  25.769  1.00  0.00     0.202 C 
BRANCH  19  20
ATOM     20  C   UNL A   1      39.490  20.126  26.076  1.00  0.00     0.261 C 
BRANCH  20  21
ATOM     21  O   UNL A   1      40.728  19.869  25.389  1.00  0.00    -0.460 OA
BRANCH  21  22
ATOM     22  C   UNL A   1      41.785  19.648  26.205  1.00  0.00     0.338 C 
ATOM     23  O   UNL A   1      42.289  18.570  26.494  1.00  0.00    -0.246 OA
BRANCH  22  24
ATOM     24  C   UNL A   1      42.402  20.924  26.605  1.00  0.00     0.060 A 
ATOM     25  C   UNL A   1      42.385  21.245  27.969  1.00  0.00     0.016 A 
ATOM     26  C   UNL A   1      42.900  21.830  25.668  1.00  0.00     0.016 A 
ATOM     27  C   UNL A   1      42.810  22.501  28.396  1.00  0.00     0.010 A 
ATOM     28  C   UNL A   1      43.320  23.095  26.098  1.00  0.00     0.010 A 
ATOM     29  C   UNL A   1      43.237  23.449  27.457  1.00  0.00    -0.014 A 
BRANCH  29  30
ATOM     30  C   UNL A   1      43.446  24.852  27.887  1.00  0.00     0.031 A 
ATOM     31  C   UNL A   1      44.850  25.352  28.093  1.00  0.00     0.074 A 
ATOM     32  C   UNL A   1      42.405  25.686  28.050  1.00  0.00     0.049 A 
ATOM     33  N   UNL A   1      45.261  26.538  28.468  1.00  0.00    -0.248 NA
ATOM     34  C   UNL A   1      45.934  24.389  27.843  1.00  0.00     0.031 C 
ATOM     35  C   UNL A   1      41.000  25.338  27.836  1.00  0.00     0.029 A 
ATOM     36  N   UNL A   1      42.373  27.003  28.436  1.00  0.00    -0.354 N 
ATOM     37  C   UNL A   1      46.649  26.459  28.508  1.00  0.00     0.074 A 
ATOM     38  C   UNL A   1      47.006  25.104  28.148  1.00  0.00     0.031 C 
ATOM     39  C   UNL A   1      40.242  26.416  28.096  1.00  0.00     0.029 A 
ATOM     40  C   UNL A   1      41.103  27.517  28.525  1.00  0.00     0.049 A 
ATOM     41  H   UNL A   1      43.183  27.527  28.629  1.00  0.00     0.167 HD
ATOM     42  C   UNL A   1      47.545  27.428  28.810  1.00  0.00     0.031 A 
ATOM     43  C   UNL A   1      40.683  28.732  28.923  1.00  0.00     0.031 A 
ATOM     44  C   UNL A   1      47.192  28.773  29.179  1.00  0.00     0.049 A 
ATOM     45  C   UNL A   1      41.694  29.771  29.329  1.00  0.00     0.074 A 
ATOM     46  C   UNL A   1      48.029  29.832  29.483  1.00  0.00     0.029 A 
ATOM     47  N   UNL A   1      45.893  29.241  29.304  1.00  0.00    -0.354 N 
ATOM     48  N   UNL A   1      43.003  29.693  29.337  1.00  0.00    -0.248 NA
ATOM     49  C   UNL A   1      41.167  31.069  29.773  1.00  0.00     0.031 C 
ATOM     50  C   UNL A   1      47.235  30.924  29.849  1.00  0.00     0.029 A 
ATOM     51  C   UNL A   1      45.905  30.563  29.712  1.00  0.00     0.049 A 
ATOM     52  H   UNL A   1      45.082  28.711  29.126  1.00  0.00     0.167 HD
ATOM     53  C   UNL A   1      43.456  30.937  29.761  1.00  0.00     0.074 A 
ATOM     54  C   UNL A   1      42.282  31.754  29.986  1.00  0.00     0.031 C 
ATOM     55  C   UNL A   1      44.729  31.364  29.942  1.00  0.00     0.031 A 
BRANCH  42  56
ATOM     56  C   UNL A   1      49.000  27.049  28.794  1.00  0.00    -0.014 A 
ATOM     57  C   UNL A   1      49.773  27.154  27.627  1.00  0.00     0.009 A 
ATOM     58  C   UNL A   1      49.612  26.599  29.975  1.00  0.00     0.009 A 
ATOM     59  C   UNL A   1      51.118  26.779  27.633  1.00  0.00     0.001 A 
ATOM     60  C   UNL A   1      50.964  26.252  29.985  1.00  0.00     0.001 A 
ATOM     61  C   UNL A   1      51.713  26.332  28.813  1.00  0.00     0.000 A 
ENDBRANCH  42  56
BRANCH  43  62
ATOM     62  C   UNL A   1      39.228  29.030  28.978  1.00  0.00    -0.014 A 
ATOM     63  C   UNL A   1      38.494  28.802  30.151  1.00  0.00     0.009 A 
ATOM     64  C   UNL A   1      38.566  29.541  27.850  1.00  0.00     0.009 A 
ATOM     65  C   UNL A   1      37.121  29.061  30.186  1.00  0.00     0.001 A 
ATOM     66  C   UNL A   1      37.201  29.825  27.896  1.00  0.00     0.001 A 
ATOM     67  C   UNL A   1      36.477  29.577  29.061  1.00  0.00     0.000 A 
ENDBRANCH  43  62
BRANCH  55  68
ATOM     68  C   UNL A   1      44.923  32.790  30.379  1.00  0.00    -0.014 A 
ATOM     69  C   UNL A   1      45.031  33.130  31.736  1.00  0.00     0.009 A 
ATOM     70  C   UNL A   1      45.040  33.803  29.413  1.00  0.00     0.009 A 
ATOM     71  C   UNL A   1      45.217  34.460  32.118  1.00  0.00     0.001 A 
ATOM     72  C   UNL A   1      45.256  35.127  29.796  1.00  0.00     0.001 A 
ATOM     73  C   UNL A   1      45.334  35.456  31.148  1.00  0.00     0.000 A 
ENDBRANCH  55  68
ENDBRANCH  29  30
ENDBRANCH  22  24
ENDBRANCH  21  22
ENDBRANCH  20  21
ENDBRANCH  19  20
ENDBRANCH  18  19
ENDBRANCH   1  18
TORSDOF 18
ENDMDL
MODEL 2
REMARK VINA RESULT:      -8.6      4.812      9.500
REMARK SMILES CC(C)SSC(=O)N1CCC[C@@H]1C(=O)OCCOCCOC(=O)c1ccc(-c2c3nc(c(-c4ccccc4)c4ccc([nH]4)c(-c4ccccc4)c4nc(c(-c5ccccc5)c5ccc2[nH]5)C=C4)C=C3)cc1
REMARK SMILES IDX 17 1 16 2 15 3 13 4 14 5 12 6 8 7 9 8 10 9 11 10 6 11 7 12
REMARK SMILES IDX 5 13 4 14 2 15 1 16 3 17 18 18 19 19 20 20 21 21 22 22 23 23
REMARK SMILES IDX 24 24 25 25 71 26 26 27 70 28 27 29 28 30 29 31 64 32 30 33
REMARK SMILES IDX 69 34 63 35 65 36 31 37 68 38 62 39 61 40 32 42 54 43 39 44
REMARK SMILES IDX 53 45 40 46 43 47 52 48 66 49 41 50 42 51 51 53 67 54 44 55
REMARK SMILES IDX 33 56 34 57 38 58 35 59 37 60 36 61 55 62 56 63 60 64 57 65
REMARK SMILES IDX 59 66 58 67 45 68 46 69 50 70 47 71 49 72 48 73
REMARK H PARENT 65 41 43 52
REMARK Flexibility Score: inf
ROOT
ATOM      1  C   UNL A   1      32.380  28.260  27.389  1.00  0.00     0.202 C 
ENDROOT
BRANCH   1   2
ATOM      2  C   UNL A   1      31.957  26.980  26.659  1.00  0.00     0.261 C 
BRANCH   2   3
ATOM      3  O   UNL A   1      33.053  26.263  26.064  1.00  0.00    -0.462 OA
BRANCH   3   4
ATOM      4  C   UNL A   1      32.683  25.316  25.155  1.00  0.00     0.328 C 
ATOM      5  O   UNL A   1      31.765  24.520  25.317  1.00  0.00    -0.250 OA
BRANCH   4   6
ATOM      6  C   UNL A   1      33.486  25.410  23.852  1.00  0.00     0.196 C 
ATOM      7  N   UNL A   1      32.749  26.073  22.782  1.00  0.00    -0.319 N 
ATOM      8  C   UNL A   1      32.905  25.370  21.525  1.00  0.00     0.121 C 
ATOM      9  C   UNL A   1      33.143  23.931  21.939  1.00  0.00     0.024 C 
ATOM     10  C   UNL A   1      33.885  24.043  23.270  1.00  0.00     0.039 C 
BRANCH   7  11
ATOM     11  C   UNL A   1      32.312  27.365  22.984  1.00  0.00     0.293 C 
ATOM     12  O   UNL A   1      33.086  28.284  23.231  1.00  0.00    -0.261 OA
BRANCH  11  13
ATOM     13  S   UNL A   1      30.571  27.627  22.921  1.00  0.00     0.005 SA
BRANCH  13  14
ATOM     14  S   UNL A   1      30.467  29.623  22.383  1.00  0.00    -0.081 SA
BRANCH  14  15
ATOM     15  C   UNL A   1      28.708  30.119  22.564  1.00  0.00     0.052 C 
ATOM     16  C   UNL A   1      28.555  31.245  23.582  1.00  0.00     0.020 C 
ATOM     17  C   UNL A   1      28.028  30.454  21.242  1.00  0.00     0.020 C 
ENDBRANCH  14  15
ENDBRANCH  13  14
ENDBRANCH  11  13
ENDBRANCH   7  11
ENDBRANCH   4   6
ENDBRANCH   3   4
ENDBRANCH   2   3
ENDBRANCH   1   2
BRANCH   1  18
ATOM     18  O   UNL A   1      31.553  29.413  27.255  1.00  0.00    -0.374 OA
BRANCH  18  19
ATOM     19  C   UNL A   1      31.772  30.266  26.137  1.00  0.00     0.202 C 
BRANCH  19  20
ATOM     20  C   UNL A   1      32.043  31.746  26.433  1.00  0.00     0.261 C 
BRANCH  20  21
ATOM     21  O   UNL A   1      32.662  31.942  27.718  1.00  0.00    -0.460 OA
BRANCH  21  22
ATOM     22  C   UNL A   1      33.656  32.861  27.724  1.00  0.00     0.338 C 
ATOM     23  O   UNL A   1      33.545  34.077  27.630  1.00  0.00    -0.246 OA
BRANCH  22  24
ATOM     24  C   UNL A   1      34.946  32.222  28.037  1.00  0.00     0.060 A 
ATOM     25  C   UNL A   1      34.944  30.835  28.235  1.00  0.00     0.016 A 
ATOM     26  C   UNL A   1      36.111  32.965  28.229  1.00  0.00     0.016 A 
ATOM     27  C   UNL A   1      36.094  30.192  28.684  1.00  0.00     0.010 A 
ATOM     28  C   UNL A   1      37.265  32.319  28.688  1.00  0.00     0.010 A 
ATOM     29  C   UNL A   1      37.249  30.938  28.957  1.00  0.00    -0.014 A 
BRANCH  29  30
ATOM     30  C   UNL A   1      38.378  30.292  29.667  1.00  0.00     0.031 A 
ATOM     31  C   UNL A   1      38.578  30.573  31.131  1.00  0.00     0.074 A 
ATOM     32  C   UNL A   1      39.191  29.430  29.031  1.00  0.00     0.049 A 
ATOM     33  N   UNL A   1      39.499  30.120  31.944  1.00  0.00    -0.248 NA
ATOM     34  C   UNL A   1      37.612  31.487  31.762  1.00  0.00     0.031 C 
ATOM     35  C   UNL A   1      39.075  29.037  27.627  1.00  0.00     0.029 A 
ATOM     36  N   UNL A   1      40.279  28.732  29.490  1.00  0.00    -0.354 N 
ATOM     37  C   UNL A   1      39.228  30.700  33.179  1.00  0.00     0.074 A 
ATOM     38  C   UNL A   1      38.078  31.559  32.999  1.00  0.00     0.031 C 
ATOM     39  C   UNL A   1      40.057  28.166  27.339  1.00  0.00     0.029 A 
ATOM     40  C   UNL A   1      40.887  27.967  28.526  1.00  0.00     0.049 A 
ATOM     41  H   UNL A   1      40.592  28.774  30.422  1.00  0.00     0.167 HD
ATOM     42  C   UNL A   1      39.874  30.529  34.357  1.00  0.00     0.031 A 
ATOM     43  C   UNL A   1      41.996  27.207  28.589  1.00  0.00     0.031 A 
ATOM     44  C   UNL A   1      41.025  29.683  34.535  1.00  0.00     0.049 A 
ATOM     45  C   UNL A   1      42.744  27.092  29.890  1.00  0.00     0.074 A 
ATOM     46  C   UNL A   1      41.736  29.429  35.694  1.00  0.00     0.029 A 
ATOM     47  N   UNL A   1      41.638  28.963  33.522  1.00  0.00    -0.354 N 
ATOM     48  N   UNL A   1      42.463  27.623  31.055  1.00  0.00    -0.248 NA
ATOM     49  C   UNL A   1      43.958  26.263  29.884  1.00  0.00     0.031 C 
ATOM     50  C   UNL A   1      42.816  28.600  35.370  1.00  0.00     0.029 A 
ATOM     51  C   UNL A   1      42.739  28.289  34.022  1.00  0.00     0.049 A 
ATOM     52  H   UNL A   1      41.334  28.934  32.586  1.00  0.00     0.167 HD
ATOM     53  C   UNL A   1      43.448  27.174  31.926  1.00  0.00     0.074 A 
ATOM     54  C   UNL A   1      44.325  26.315  31.157  1.00  0.00     0.031 C 
ATOM     55  C   UNL A   1      43.609  27.444  33.244  1.00  0.00     0.031 A 
BRANCH  42  56
ATOM     56  C   UNL A   1      39.370  31.310  35.538  1.00  0.00    -0.014 A 
ATOM     57  C   UNL A   1      39.961  32.524  35.921  1.00  0.00     0.009 A 
ATOM     58  C   UNL A   1      38.269  30.831  36.267  1.00  0.00     0.009 A 
ATOM     59  C   UNL A   1      39.484  33.223  37.033  1.00  0.00     0.001 A 
ATOM     60  C   UNL A   1      37.777  31.546  37.360  1.00  0.00     0.001 A 
ATOM     61  C   UNL A   1      38.391  32.735  37.749  1.00  0.00     0.000 A 
ENDBRANCH  42  56
BRANCH  43  62
ATOM     62  C   UNL A   1      42.483  26.507  27.372  1.00  0.00    -0.014 A 
ATOM     63  C   UNL A   1      42.006  25.229  27.042  1.00  0.00     0.009 A 
ATOM     64  C   UNL A   1      43.433  27.114  26.536  1.00  0.00     0.009 A 
ATOM     65  C   UNL A   1      42.488  24.567  25.909  1.00  0.00     0.001 A 
ATOM     66  C   UNL A   1      43.892  26.462  25.391  1.00  0.00     0.001 A 
ATOM     67  C   UNL A   1      43.425  25.185  25.083  1.00  0.00     0.000 A 
ENDBRANCH  43  62
BRANCH  55  68
ATOM     68  C   UNL A   1      44.761  26.781  33.949  1.00  0.00    -0.014 A 
ATOM     69  C   UNL A   1      46.021  27.395  34.027  1.00  0.00     0.009 A 
ATOM     70  C   UNL A   1      44.568  25.541  34.579  1.00  0.00     0.009 A 
ATOM     71  C   UNL A   1      47.074  26.763  34.693  1.00  0.00     0.001 A 
ATOM     72  C   UNL A   1      45.614  24.927  35.269  1.00  0.00     0.001 A 
ATOM     73  C   UNL A   1      46.868  25.532  35.317  1.00  0.00     0.000 A 
ENDBRANCH  55  68
ENDBRANCH  29  30
ENDBRANCH  22  24
ENDBRANCH  21  22
ENDBRANCH  20  21
ENDBRANCH  19  20
ENDBRANCH  18  19
ENDBRANCH   1  18
TORSDOF 18
ENDMDL
MODEL 3
REMARK VINA RESULT:      -8.5      2.082      3.074
REMARK SMILES CC(C)SSC(=O)N1CCC[C@@H]1C(=O)OCCOCCOC(=O)c1ccc(-c2c3nc(c(-c4ccccc4)c4ccc([nH]4)c(-c4ccccc4)c4nc(c(-c5ccccc5)c5ccc2[nH]5)C=C4)C=C3)cc1
REMARK SMILES IDX 17 1 16 2 15 3 13 4 14 5 12 6 8 7 9 8 10 9 11 10 6 11 7 12
REMARK SMILES IDX 5 13 4 14 2 15 1 16 3 17 18 18 19 19 20 20 21 21 22 22 23 23
REMARK SMILES IDX 24 24 25 25 71 26 26 27 70 28 27 29 28 30 29 31 64 32 30 33
REMARK SMILES IDX 69 34 63 35 65 36 31 37 68 38 62 39 61 40 32 42 54 43 39 44
REMARK SMILES IDX 53 45 40 46 43 47 52 48 66 49 41 50 42 51 51 53 67 54 44 55
REMARK SMILES IDX 33 56 34 57 38 58 35 59 37 60 36 61 55 62 56 63 60 64 57 65
REMARK SMILES IDX 59 66 58 67 45 68 46 69 50 70 47 71 49 72 48 73
REMARK H PARENT 65 41 43 52
REMARK Flexibility Score: inf
ROOT
ATOM      1  C   UNL A   1      36.076  23.069  24.923  1.00  0.00     0.202 C 
ENDROOT
BRANCH   1   2
ATOM      2  C   UNL A   1      35.187  22.937  26.166  1.00  0.00     0.261 C 
BRANCH   2   3
ATOM      3  O   UNL A   1      34.376  24.097  26.422  1.00  0.00    -0.462 OA
BRANCH   3   4
ATOM      4  C   UNL A   1      33.154  24.078  25.816  1.00  0.00     0.328 C 
ATOM      5  O   UNL A   1      32.476  23.069  25.652  1.00  0.00    -0.250 OA
BRANCH   4   6
ATOM      6  C   UNL A   1      32.665  25.482  25.440  1.00  0.00     0.196 C 
ATOM      7  N   UNL A   1      33.364  26.031  24.284  1.00  0.00    -0.319 N 
ATOM      8  C   UNL A   1      33.717  27.420  24.497  1.00  0.00     0.121 C 
ATOM      9  C   UNL A   1      33.867  27.531  26.001  1.00  0.00     0.024 C 
ATOM     10  C   UNL A   1      32.859  26.525  26.553  1.00  0.00     0.039 C 
BRANCH   7  11
ATOM     11  C   UNL A   1      33.311  25.342  23.090  1.00  0.00     0.293 C 
ATOM     12  O   UNL A   1      34.322  24.946  22.521  1.00  0.00    -0.261 OA
BRANCH  11  13
ATOM     13  S   UNL A   1      31.713  25.101  22.390  1.00  0.00     0.005 SA
BRANCH  13  14
ATOM     14  S   UNL A   1      31.098  27.051  22.068  1.00  0.00    -0.081 SA
BRANCH  14  15
ATOM     15  C   UNL A   1      30.059  27.513  23.511  1.00  0.00     0.052 C 
ATOM     16  C   UNL A   1      29.137  28.681  23.174  1.00  0.00     0.020 C 
ATOM     17  C   UNL A   1      29.293  26.341  24.112  1.00  0.00     0.020 C 
ENDBRANCH  14  15
ENDBRANCH  13  14
ENDBRANCH  11  13
ENDBRANCH   7  11
ENDBRANCH   4   6
ENDBRANCH   3   4
ENDBRANCH   2   3
ENDBRANCH   1   2
BRANCH   1  18
ATOM     18  O   UNL A   1      37.472  22.820  25.070  1.00  0.00    -0.374 OA
BRANCH  18  19
ATOM     19  C   UNL A   1      37.886  21.489  25.360  1.00  0.00     0.202 C 
BRANCH  19  20
ATOM     20  C   UNL A   1      39.286  21.311  25.961  1.00  0.00     0.261 C 
BRANCH  20  21
ATOM     21  O   UNL A   1      39.715  19.937  25.949  1.00  0.00    -0.460 OA
BRANCH  21  22
ATOM     22  C   UNL A   1      41.054  19.769  26.062  1.00  0.00     0.338 C 
ATOM     23  O   UNL A   1      41.717  18.812  25.684  1.00  0.00    -0.246 OA
BRANCH  22  24
ATOM     24  C   UNL A   1      41.686  20.999  26.570  1.00  0.00     0.060 A 
ATOM     25  C   UNL A   1      41.613  21.236  27.948  1.00  0.00     0.016 A 
ATOM     26  C   UNL A   1      42.253  21.945  25.715  1.00  0.00     0.016 A 
ATOM     27  C   UNL A   1      42.052  22.449  28.472  1.00  0.00     0.010 A 
ATOM     28  C   UNL A   1      42.687  23.168  26.242  1.00  0.00     0.010 A 
ATOM     29  C   UNL A   1      42.550  23.440  27.616  1.00  0.00    -0.014 A 
BRANCH  29  30
ATOM     30  C   UNL A   1      42.777  24.807  28.142  1.00  0.00     0.031 A 
ATOM     31  C   UNL A   1      44.167  25.213  28.546  1.00  0.00     0.074 A 
ATOM     32  C   UNL A   1      41.768  25.693  28.219  1.00  0.00     0.049 A 
ATOM     33  N   UNL A   1      44.590  26.353  29.032  1.00  0.00    -0.248 NA
ATOM     34  C   UNL A   1      45.222  24.200  28.381  1.00  0.00     0.031 C 
ATOM     35  C   UNL A   1      40.386  25.439  27.815  1.00  0.00     0.029 A 
ATOM     36  N   UNL A   1      41.758  26.990  28.668  1.00  0.00    -0.354 N 
ATOM     37  C   UNL A   1      45.956  26.191  29.238  1.00  0.00     0.074 A 
ATOM     38  C   UNL A   1      46.283  24.835  28.854  1.00  0.00     0.031 C 
ATOM     39  C   UNL A   1      39.659  26.547  28.037  1.00  0.00     0.029 A 
ATOM     40  C   UNL A   1      40.516  27.574  28.626  1.00  0.00     0.049 A 
ATOM     41  H   UNL A   1      42.564  27.456  28.987  1.00  0.00     0.167 HD
ATOM     42  C   UNL A   1      46.857  27.090  29.700  1.00  0.00     0.031 A 
ATOM     43  C   UNL A   1      40.115  28.792  29.034  1.00  0.00     0.031 A 
ATOM     44  C   UNL A   1      46.532  28.436  30.093  1.00  0.00     0.049 A 
ATOM     45  C   UNL A   1      41.119  29.749  29.616  1.00  0.00     0.074 A 
ATOM     46  C   UNL A   1      47.378  29.428  30.554  1.00  0.00     0.029 A 
ATOM     47  N   UNL A   1      45.254  28.974  30.081  1.00  0.00    -0.354 N 
ATOM     48  N   UNL A   1      42.411  29.594  29.781  1.00  0.00    -0.248 NA
ATOM     49  C   UNL A   1      40.610  31.055  30.060  1.00  0.00     0.031 C 
ATOM     50  C   UNL A   1      46.604  30.547  30.876  1.00  0.00     0.029 A 
ATOM     51  C   UNL A   1      45.284  30.273  30.557  1.00  0.00     0.049 A 
ATOM     52  H   UNL A   1      44.445  28.501  29.777  1.00  0.00     0.167 HD
ATOM     53  C   UNL A   1      42.872  30.788  30.323  1.00  0.00     0.074 A 
ATOM     54  C   UNL A   1      41.723  31.662  30.445  1.00  0.00     0.031 C 
ATOM     55  C   UNL A   1      44.133  31.130  30.682  1.00  0.00     0.031 A 
BRANCH  42  56
ATOM     56  C   UNL A   1      48.280  26.627  29.843  1.00  0.00    -0.014 A 
ATOM     57  C   UNL A   1      49.231  26.856  28.836  1.00  0.00     0.009 A 
ATOM     58  C   UNL A   1      48.679  25.969  31.017  1.00  0.00     0.009 A 
ATOM     59  C   UNL A   1      50.543  26.400  28.986  1.00  0.00     0.001 A 
ATOM     60  C   UNL A   1      49.998  25.539  31.176  1.00  0.00     0.001 A 
ATOM     61  C   UNL A   1      50.926  25.745  30.157  1.00  0.00     0.000 A 
ENDBRANCH  42  56
BRANCH  43  62
ATOM     62  C   UNL A   1      38.682  29.173  28.924  1.00  0.00    -0.014 A 
ATOM     63  C   UNL A   1      37.810  29.003  30.009  1.00  0.00     0.009 A 
ATOM     64  C   UNL A   1      38.179  29.704  27.726  1.00  0.00     0.009 A 
ATOM     65  C   UNL A   1      36.459  29.340  29.890  1.00  0.00     0.001 A 
ATOM     66  C   UNL A   1      36.836  30.066  27.618  1.00  0.00     0.001 A 
ATOM     67  C   UNL A   1      35.974  29.875  28.697  1.00  0.00     0.000 A 
ENDBRANCH  43  62
BRANCH  55  68
ATOM     68  C   UNL A   1      44.345  32.521  31.215  1.00  0.00    -0.014 A 
ATOM     69  C   UNL A   1      44.645  33.592  30.359  1.00  0.00     0.009 A 
ATOM     70  C   UNL A   1      44.202  32.767  32.589  1.00  0.00     0.009 A 
ATOM     71  C   UNL A   1      44.832  34.877  30.875  1.00  0.00     0.001 A 
ATOM     72  C   UNL A   1      44.359  34.057  33.098  1.00  0.00     0.001 A 
ATOM     73  C   UNL A   1      44.684  35.108  32.243  1.00  0.00     0.000 A 
ENDBRANCH  55  68
ENDBRANCH  29  30
ENDBRANCH  22  24
ENDBRANCH  21  22
ENDBRANCH  20  21
ENDBRANCH  19  20
ENDBRANCH  18  19
ENDBRANCH   1  18
TORSDOF 18
ENDMDL
