MODEL 1
REMARK VINA RESULT:      -8.8      0.000      0.000
REMARK SMILES Cc1cc(SCC(=O)OCCOCCOC(=O)c2ccc(-c3c4nc(c(-c5ccccc5)c5ccc([nH]5)c(-c5ccccc5)c5nc(c(-c6ccccc6)c6ccc3[nH]6)C=C5)C=C4)cc2)c2cc(I)ccc2n1
REMARK SMILES IDX 12 1 11 2 10 3 9 4 7 5 8 6 6 7 5 8 4 9 1 10 2 11 3 12 73 13
REMARK SMILES IDX 72 14 66 15 71 16 67 17 70 18 68 19 69 20 13 21 14 22 15 23
REMARK SMILES IDX 16 24 17 25 18 26 19 27 65 28 20 29 64 30 21 31 22 32 23 33
REMARK SMILES IDX 58 34 24 35 63 36 57 37 59 38 25 39 62 40 56 41 55 42 26 44
REMARK SMILES IDX 48 45 33 46 47 47 34 48 37 49 46 50 60 51 35 52 36 53 45 55
REMARK SMILES IDX 61 56 38 57 27 58 28 59 32 60 29 61 31 62 30 63 49 64 50 65
REMARK SMILES IDX 54 66 51 67 53 68 52 69 39 70 40 71 44 72 41 73 43 74 42 75
REMARK H PARENT 59 43 37 54
REMARK Flexibility Score: inf
ROOT
ATOM      1  O   UNL A   1      32.667  34.732  29.219  1.00  0.00    -0.374 OA
ENDROOT
BRANCH   1   2
ATOM      2  C   UNL A   1      32.897  35.951  29.917  1.00  0.00     0.202 C 
BRANCH   2   3
ATOM      3  C   UNL A   1      33.080  35.905  31.440  1.00  0.00     0.261 C 
BRANCH   3   4
ATOM      4  O   UNL A   1      34.439  35.692  31.881  1.00  0.00    -0.463 OA
BRANCH   4   5
ATOM      5  C   UNL A   1      34.575  35.139  33.118  1.00  0.00     0.316 C 
ATOM      6  O   UNL A   1      35.064  35.730  34.080  1.00  0.00    -0.251 OA
BRANCH   5   7
ATOM      7  C   UNL A   1      34.099  33.708  33.271  1.00  0.00     0.197 C 
BRANCH   7   8
ATOM      8  S   UNL A   1      35.109  32.387  32.543  1.00  0.00    -0.114 SA
BRANCH   8   9
ATOM      9  C   UNL A   1      36.761  33.062  32.207  1.00  0.00     0.019 A 
ATOM     10  C   UNL A   1      38.691  34.812  29.466  1.00  0.00     0.067 C 
ATOM     11  C   UNL A   1      38.354  34.155  30.774  1.00  0.00     0.039 A 
ATOM     12  C   UNL A   1      37.201  33.388  30.919  1.00  0.00     0.039 A 
ATOM     13  N   UNL A   1      39.096  34.556  31.827  1.00  0.00    -0.253 NA
ATOM     14  C   UNL A   1      38.729  34.197  33.062  1.00  0.00     0.072 A 
ATOM     15  C   UNL A   1      37.578  33.423  33.326  1.00  0.00     0.015 A 
ATOM     16  C   UNL A   1      39.497  34.669  34.118  1.00  0.00     0.030 A 
ATOM     17  C   UNL A   1      37.305  33.092  34.683  1.00  0.00     0.026 A 
ATOM     18  C   UNL A   1      39.195  34.370  35.447  1.00  0.00     0.017 A 
ATOM     19  C   UNL A   1      38.106  33.562  35.724  1.00  0.00     0.014 A 
ATOM     20  I   UNL A   1      37.656  33.063  37.689  1.00  0.00    -0.044 I 
ENDBRANCH   8   9
ENDBRANCH   7   8
ENDBRANCH   5   7
ENDBRANCH   4   5
ENDBRANCH   3   4
ENDBRANCH   2   3
ENDBRANCH   1   2
BRANCH   1  21
ATOM     21  C   UNL A   1      33.781  33.887  28.972  1.00  0.00     0.202 C 
BRANCH  21  22
ATOM     22  C   UNL A   1      33.759  32.988  27.731  1.00  0.00     0.261 C 
BRANCH  22  23
ATOM     23  O   UNL A   1      34.939  32.218  27.545  1.00  0.00    -0.460 OA
BRANCH  23  24
ATOM     24  C   UNL A   1      34.793  30.912  27.847  1.00  0.00     0.338 C 
ATOM     25  O   UNL A   1      33.904  30.146  27.512  1.00  0.00    -0.246 OA
BRANCH  24  26
ATOM     26  C   UNL A   1      36.014  30.492  28.529  1.00  0.00     0.060 A 
ATOM     27  C   UNL A   1      35.957  29.603  29.604  1.00  0.00     0.016 A 
ATOM     28  C   UNL A   1      37.225  31.017  28.070  1.00  0.00     0.016 A 
ATOM     29  C   UNL A   1      37.144  29.213  30.213  1.00  0.00     0.010 A 
ATOM     30  C   UNL A   1      38.408  30.621  28.675  1.00  0.00     0.010 A 
ATOM     31  C   UNL A   1      38.371  29.702  29.733  1.00  0.00    -0.014 A 
BRANCH  31  32
ATOM     32  C   UNL A   1      39.639  29.140  30.236  1.00  0.00     0.031 A 
ATOM     33  C   UNL A   1      40.322  29.725  31.429  1.00  0.00     0.074 A 
ATOM     34  C   UNL A   1      40.186  28.124  29.544  1.00  0.00     0.049 A 
ATOM     35  N   UNL A   1      41.443  29.354  31.988  1.00  0.00    -0.248 NA
ATOM     36  C   UNL A   1      39.676  30.880  32.074  1.00  0.00     0.031 C 
ATOM     37  C   UNL A   1      39.599  27.518  28.346  1.00  0.00     0.029 A 
ATOM     38  N   UNL A   1      41.346  27.425  29.739  1.00  0.00    -0.354 N 
ATOM     39  C   UNL A   1      41.636  30.220  33.054  1.00  0.00     0.074 A 
ATOM     40  C   UNL A   1      40.541  31.165  33.040  1.00  0.00     0.031 C 
ATOM     41  C   UNL A   1      40.387  26.517  27.931  1.00  0.00     0.029 A 
ATOM     42  C   UNL A   1      41.557  26.445  28.799  1.00  0.00     0.049 A 
ATOM     43  H   UNL A   1      41.970  27.606  30.479  1.00  0.00     0.167 HD
ATOM     44  C   UNL A   1      42.637  30.206  33.964  1.00  0.00     0.031 A 
ATOM     45  C   UNL A   1      42.582  25.585  28.650  1.00  0.00     0.031 A 
ATOM     46  C   UNL A   1      43.723  29.260  33.943  1.00  0.00     0.049 A 
ATOM     47  C   UNL A   1      43.695  25.617  29.656  1.00  0.00     0.074 A 
ATOM     48  C   UNL A   1      44.763  29.133  34.845  1.00  0.00     0.029 A 
ATOM     49  N   UNL A   1      43.914  28.290  32.969  1.00  0.00    -0.354 N 
ATOM     50  N   UNL A   1      43.829  26.390  30.708  1.00  0.00    -0.248 NA
ATOM     51  C   UNL A   1      44.789  24.655  29.472  1.00  0.00     0.031 C 
ATOM     52  C   UNL A   1      45.628  28.146  34.373  1.00  0.00     0.029 A 
ATOM     53  C   UNL A   1      45.079  27.588  33.229  1.00  0.00     0.049 A 
ATOM     54  H   UNL A   1      43.312  28.125  32.208  1.00  0.00     0.167 HD
ATOM     55  C   UNL A   1      45.008  25.995  31.324  1.00  0.00     0.074 A 
ATOM     56  C   UNL A   1      45.540  24.898  30.539  1.00  0.00     0.031 C 
ATOM     57  C   UNL A   1      45.596  26.498  32.437  1.00  0.00     0.031 A 
BRANCH  44  58
ATOM     58  C   UNL A   1      42.621  31.230  35.066  1.00  0.00    -0.014 A 
ATOM     59  C   UNL A   1      41.907  30.974  36.247  1.00  0.00     0.009 A 
ATOM     60  C   UNL A   1      43.196  32.497  34.885  1.00  0.00     0.009 A 
ATOM     61  C   UNL A   1      41.742  31.972  37.210  1.00  0.00     0.001 A 
ATOM     62  C   UNL A   1      43.058  33.484  35.864  1.00  0.00     0.001 A 
ATOM     63  C   UNL A   1      42.319  33.226  37.018  1.00  0.00     0.000 A 
ENDBRANCH  44  58
BRANCH  45  64
ATOM     64  C   UNL A   1      42.558  24.618  27.520  1.00  0.00    -0.014 A 
ATOM     65  C   UNL A   1      42.003  23.338  27.688  1.00  0.00     0.009 A 
ATOM     66  C   UNL A   1      43.164  24.935  26.297  1.00  0.00     0.009 A 
ATOM     67  C   UNL A   1      42.088  22.386  26.670  1.00  0.00     0.001 A 
ATOM     68  C   UNL A   1      43.215  23.992  25.266  1.00  0.00     0.001 A 
ATOM     69  C   UNL A   1      42.691  22.716  25.458  1.00  0.00     0.000 A 
ENDBRANCH  45  64
BRANCH  57  70
ATOM     70  C   UNL A   1      46.884  25.874  32.898  1.00  0.00    -0.014 A 
ATOM     71  C   UNL A   1      48.101  26.293  32.334  1.00  0.00     0.009 A 
ATOM     72  C   UNL A   1      46.887  24.785  33.784  1.00  0.00     0.009 A 
ATOM     73  C   UNL A   1      49.287  25.617  32.622  1.00  0.00     0.001 A 
ATOM     74  C   UNL A   1      48.081  24.136  34.102  1.00  0.00     0.001 A 
ATOM     75  C   UNL A   1      49.276  24.542  33.509  1.00  0.00     0.000 A 
ENDBRANCH  57  70
ENDBRANCH  31  32
ENDBRANCH  24  26
ENDBRANCH  23  24
ENDBRANCH  22  23
ENDBRANCH  21  22
ENDBRANCH   1  21
TORSDOF 16
ENDMDL
MODEL 2
REMARK VINA RESULT:      -8.4      5.453     11.449
REMARK SMILES Cc1cc(SCC(=O)OCCOCCOC(=O)c2ccc(-c3c4nc(c(-c5ccccc5)c5ccc([nH]5)c(-c5ccccc5)c5nc(c(-c6ccccc6)c6ccc3[nH]6)C=C5)C=C4)cc2)c2cc(I)ccc2n1
REMARK SMILES IDX 12 1 11 2 10 3 9 4 7 5 8 6 6 7 5 8 4 9 1 10 2 11 3 12 73 13
REMARK SMILES IDX 72 14 66 15 71 16 67 17 70 18 68 19 69 20 13 21 14 22 15 23
REMARK SMILES IDX 16 24 17 25 18 26 19 27 65 28 20 29 64 30 21 31 22 32 23 33
REMARK SMILES IDX 58 34 24 35 63 36 57 37 59 38 25 39 62 40 56 41 55 42 26 44
REMARK SMILES IDX 48 45 33 46 47 47 34 48 37 49 46 50 60 51 35 52 36 53 45 55
REMARK SMILES IDX 61 56 38 57 27 58 28 59 32 60 29 61 31 62 30 63 49 64 50 65
REMARK SMILES IDX 54 66 51 67 53 68 52 69 39 70 40 71 44 72 41 73 43 74 42 75
REMARK H PARENT 59 43 37 54
REMARK Flexibility Score: inf
ROOT
ATOM      1  O   UNL A   1      42.418  20.847  26.700  1.00  0.00    -0.374 OA
ENDROOT
BRANCH   1   2
ATOM      2  C   UNL A   1      41.238  20.051  26.660  1.00  0.00     0.202 C 
BRANCH   2   3
ATOM      3  C   UNL A   1      39.932  20.696  26.174  1.00  0.00     0.261 C 
BRANCH   3   4
ATOM      4  O   UNL A   1      39.966  22.136  26.077  1.00  0.00    -0.463 OA
BRANCH   4   5
ATOM      5  C   UNL A   1      38.756  22.757  26.131  1.00  0.00     0.316 C 
ATOM      6  O   UNL A   1      38.580  23.868  26.630  1.00  0.00    -0.251 OA
BRANCH   5   7
ATOM      7  C   UNL A   1      37.582  21.996  25.549  1.00  0.00     0.197 C 
BRANCH   7   8
ATOM      8  S   UNL A   1      35.917  22.399  26.148  1.00  0.00    -0.114 SA
BRANCH   8   9
ATOM      9  C   UNL A   1      34.713  21.611  25.040  1.00  0.00     0.019 A 
ATOM     10  C   UNL A   1      32.940  18.309  24.540  1.00  0.00     0.067 C 
ATOM     11  C   UNL A   1      33.390  19.729  24.341  1.00  0.00     0.039 A 
ATOM     12  C   UNL A   1      34.511  20.227  24.998  1.00  0.00     0.039 A 
ATOM     13  N   UNL A   1      32.512  20.525  23.697  1.00  0.00    -0.253 NA
ATOM     14  C   UNL A   1      32.724  21.845  23.669  1.00  0.00     0.072 A 
ATOM     15  C   UNL A   1      33.827  22.459  24.302  1.00  0.00     0.015 A 
ATOM     16  C   UNL A   1      31.772  22.631  23.033  1.00  0.00     0.030 A 
ATOM     17  C   UNL A   1      33.950  23.872  24.183  1.00  0.00     0.026 A 
ATOM     18  C   UNL A   1      31.885  24.019  22.957  1.00  0.00     0.017 A 
ATOM     19  C   UNL A   1      32.990  24.636  23.519  1.00  0.00     0.014 A 
ATOM     20  I   UNL A   1      33.209  26.696  23.386  1.00  0.00    -0.044 I 
ENDBRANCH   8   9
ENDBRANCH   7   8
ENDBRANCH   5   7
ENDBRANCH   4   5
ENDBRANCH   3   4
ENDBRANCH   2   3
ENDBRANCH   1   2
BRANCH   1  21
ATOM     21  C   UNL A   1      43.422  20.596  25.727  1.00  0.00     0.202 C 
BRANCH  21  22
ATOM     22  C   UNL A   1      44.062  21.789  25.009  1.00  0.00     0.261 C 
BRANCH  22  23
ATOM     23  O   UNL A   1      43.302  22.988  25.074  1.00  0.00    -0.460 OA
BRANCH  23  24
ATOM     24  C   UNL A   1      44.050  24.102  25.217  1.00  0.00     0.338 C 
ATOM     25  O   UNL A   1      45.016  24.461  24.564  1.00  0.00    -0.246 OA
BRANCH  24  26
ATOM     26  C   UNL A   1      43.386  24.938  26.213  1.00  0.00     0.060 A 
ATOM     27  C   UNL A   1      42.375  24.412  27.020  1.00  0.00     0.016 A 
ATOM     28  C   UNL A   1      43.796  26.269  26.318  1.00  0.00     0.016 A 
ATOM     29  C   UNL A   1      41.782  25.236  27.970  1.00  0.00     0.010 A 
ATOM     30  C   UNL A   1      43.208  27.087  27.271  1.00  0.00     0.010 A 
ATOM     31  C   UNL A   1      42.215  26.566  28.113  1.00  0.00    -0.014 A 
BRANCH  31  32
ATOM     32  C   UNL A   1      41.740  27.381  29.247  1.00  0.00     0.031 A 
ATOM     33  C   UNL A   1      40.548  28.270  29.110  1.00  0.00     0.074 A 
ATOM     34  C   UNL A   1      42.456  27.340  30.385  1.00  0.00     0.049 A 
ATOM     35  N   UNL A   1      40.010  29.054  30.007  1.00  0.00    -0.248 NA
ATOM     36  C   UNL A   1      39.874  28.295  27.802  1.00  0.00     0.031 C 
ATOM     37  C   UNL A   1      43.656  26.522  30.589  1.00  0.00     0.029 A 
ATOM     38  N   UNL A   1      42.290  27.991  31.577  1.00  0.00    -0.354 N 
ATOM     39  C   UNL A   1      38.934  29.661  29.378  1.00  0.00     0.074 A 
ATOM     40  C   UNL A   1      38.916  29.189  28.010  1.00  0.00     0.031 C 
ATOM     41  C   UNL A   1      44.098  26.698  31.841  1.00  0.00     0.029 A 
ATOM     42  C   UNL A   1      43.248  27.677  32.510  1.00  0.00     0.049 A 
ATOM     43  H   UNL A   1      41.555  28.624  31.750  1.00  0.00     0.167 HD
ATOM     44  C   UNL A   1      38.038  30.523  29.912  1.00  0.00     0.031 A 
ATOM     45  C   UNL A   1      43.426  28.130  33.765  1.00  0.00     0.031 A 
ATOM     46  C   UNL A   1      38.090  30.985  31.276  1.00  0.00     0.049 A 
ATOM     47  C   UNL A   1      42.435  29.112  34.319  1.00  0.00     0.074 A 
ATOM     48  C   UNL A   1      37.205  31.825  31.928  1.00  0.00     0.029 A 
ATOM     49  N   UNL A   1      39.082  30.659  32.190  1.00  0.00    -0.354 N 
ATOM     50  N   UNL A   1      41.372  29.621  33.740  1.00  0.00    -0.248 NA
ATOM     51  C   UNL A   1      42.650  29.573  35.696  1.00  0.00     0.031 C 
ATOM     52  C   UNL A   1      37.705  32.074  33.206  1.00  0.00     0.029 A 
ATOM     53  C   UNL A   1      38.850  31.314  33.388  1.00  0.00     0.049 A 
ATOM     54  H   UNL A   1      39.838  30.053  32.013  1.00  0.00     0.167 HD
ATOM     55  C   UNL A   1      40.780  30.443  34.688  1.00  0.00     0.074 A 
ATOM     56  C   UNL A   1      41.590  30.349  35.886  1.00  0.00     0.031 C 
ATOM     57  C   UNL A   1      39.667  31.209  34.572  1.00  0.00     0.031 A 
BRANCH  44  58
ATOM     58  C   UNL A   1      36.920  31.029  29.043  1.00  0.00    -0.014 A 
ATOM     59  C   UNL A   1      36.910  32.371  28.629  1.00  0.00     0.009 A 
ATOM     60  C   UNL A   1      35.811  30.222  28.746  1.00  0.00     0.009 A 
ATOM     61  C   UNL A   1      35.803  32.902  27.964  1.00  0.00     0.001 A 
ATOM     62  C   UNL A   1      34.719  30.746  28.052  1.00  0.00     0.001 A 
ATOM     63  C   UNL A   1      34.709  32.088  27.675  1.00  0.00     0.000 A 
ENDBRANCH  44  58
BRANCH  45  64
ATOM     64  C   UNL A   1      44.570  27.618  34.565  1.00  0.00    -0.014 A 
ATOM     65  C   UNL A   1      44.384  26.586  35.500  1.00  0.00     0.009 A 
ATOM     66  C   UNL A   1      45.835  28.214  34.462  1.00  0.00     0.009 A 
ATOM     67  C   UNL A   1      45.427  26.186  36.338  1.00  0.00     0.001 A 
ATOM     68  C   UNL A   1      46.888  27.787  35.277  1.00  0.00     0.001 A 
ATOM     69  C   UNL A   1      46.679  26.785  36.223  1.00  0.00     0.000 A 
ENDBRANCH  45  64
BRANCH  57  70
ATOM     70  C   UNL A   1      39.235  32.011  35.769  1.00  0.00    -0.014 A 
ATOM     71  C   UNL A   1      38.251  31.498  36.631  1.00  0.00     0.009 A 
ATOM     72  C   UNL A   1      39.697  33.321  35.971  1.00  0.00     0.009 A 
ATOM     73  C   UNL A   1      37.716  32.288  37.648  1.00  0.00     0.001 A 
ATOM     74  C   UNL A   1      39.189  34.095  37.014  1.00  0.00     0.001 A 
ATOM     75  C   UNL A   1      38.188  33.585  37.842  1.00  0.00     0.000 A 
ENDBRANCH  57  70
ENDBRANCH  31  32
ENDBRANCH  24  26
ENDBRANCH  23  24
ENDBRANCH  22  23
ENDBRANCH  21  22
ENDBRANCH   1  21
TORSDOF 16
ENDMDL
MODEL 3
REMARK VINA RESULT:      -8.3      5.867     11.361
REMARK SMILES Cc1cc(SCC(=O)OCCOCCOC(=O)c2ccc(-c3c4nc(c(-c5ccccc5)c5ccc([nH]5)c(-c5ccccc5)c5nc(c(-c6ccccc6)c6ccc3[nH]6)C=C5)C=C4)cc2)c2cc(I)ccc2n1
REMARK SMILES IDX 12 1 11 2 10 3 9 4 7 5 8 6 6 7 5 8 4 9 1 10 2 11 3 12 73 13
REMARK SMILES IDX 72 14 66 15 71 16 67 17 70 18 68 19 69 20 13 21 14 22 15 23
REMARK SMILES IDX 16 24 17 25 18 26 19 27 65 28 20 29 64 30 21 31 22 32 23 33
REMARK SMILES IDX 58 34 24 35 63 36 57 37 59 38 25 39 62 40 56 41 55 42 26 44
REMARK SMILES IDX 48 45 33 46 47 47 34 48 37 49 46 50 60 51 35 52 36 53 45 55
REMARK SMILES IDX 61 56 38 57 27 58 28 59 32 60 29 61 31 62 30 63 49 64 50 65
REMARK SMILES IDX 54 66 51 67 53 68 52 69 39 70 40 71 44 72 41 73 43 74 42 75
REMARK H PARENT 59 43 37 54
REMARK Flexibility Score: inf
ROOT
ATOM      1  O   UNL A   1      41.467  20.985  25.702  1.00  0.00    -0.374 OA
ENDROOT
BRANCH   1   2
ATOM      2  C   UNL A   1      40.451  21.718  26.378  1.00  0.00     0.202 C 
BRANCH   2   3
ATOM      3  C   UNL A   1      38.982  21.347  26.126  1.00  0.00     0.261 C 
BRANCH   3   4
ATOM      4  O   UNL A   1      38.272  22.245  25.245  1.00  0.00    -0.463 OA
BRANCH   4   5
ATOM      5  C   UNL A   1      37.040  22.634  25.674  1.00  0.00     0.316 C 
ATOM      6  O   UNL A   1      36.669  23.806  25.708  1.00  0.00    -0.251 OA
BRANCH   5   7
ATOM      7  C   UNL A   1      36.110  21.533  26.141  1.00  0.00     0.197 C 
BRANCH   7   8
ATOM      8  S   UNL A   1      34.413  21.982  26.599  1.00  0.00    -0.114 SA
BRANCH   8   9
ATOM      9  C   UNL A   1      33.423  22.069  25.079  1.00  0.00     0.019 A 
ATOM     10  C   UNL A   1      32.721  24.405  22.189  1.00  0.00     0.067 C 
ATOM     11  C   UNL A   1      32.677  23.208  23.097  1.00  0.00     0.039 A 
ATOM     12  C   UNL A   1      33.196  23.264  24.387  1.00  0.00     0.039 A 
ATOM     13  N   UNL A   1      32.335  22.048  22.501  1.00  0.00    -0.253 NA
ATOM     14  C   UNL A   1      32.483  20.899  23.171  1.00  0.00     0.072 A 
ATOM     15  C   UNL A   1      33.001  20.837  24.483  1.00  0.00     0.015 A 
ATOM     16  C   UNL A   1      32.160  19.725  22.504  1.00  0.00     0.030 A 
ATOM     17  C   UNL A   1      33.090  19.555  25.095  1.00  0.00     0.026 A 
ATOM     18  C   UNL A   1      32.290  18.471  23.102  1.00  0.00     0.017 A 
ATOM     19  C   UNL A   1      32.739  18.393  24.409  1.00  0.00     0.014 A 
ATOM     20  I   UNL A   1      32.903  16.544  25.341  1.00  0.00    -0.044 I 
ENDBRANCH   8   9
ENDBRANCH   7   8
ENDBRANCH   5   7
ENDBRANCH   4   5
ENDBRANCH   3   4
ENDBRANCH   2   3
ENDBRANCH   1   2
BRANCH   1  21
ATOM     21  C   UNL A   1      42.813  21.192  26.103  1.00  0.00     0.202 C 
BRANCH  21  22
ATOM     22  C   UNL A   1      43.710  22.076  25.230  1.00  0.00     0.261 C 
BRANCH  22  23
ATOM     23  O   UNL A   1      43.173  23.362  24.953  1.00  0.00    -0.460 OA
BRANCH  23  24
ATOM     24  C   UNL A   1      44.027  24.377  25.204  1.00  0.00     0.338 C 
ATOM     25  O   UNL A   1      45.059  24.666  24.622  1.00  0.00    -0.246 OA
BRANCH  24  26
ATOM     26  C   UNL A   1      43.403  25.218  26.221  1.00  0.00     0.060 A 
ATOM     27  C   UNL A   1      42.305  24.755  26.949  1.00  0.00     0.016 A 
ATOM     28  C   UNL A   1      43.942  26.490  26.429  1.00  0.00     0.016 A 
ATOM     29  C   UNL A   1      41.753  25.580  27.923  1.00  0.00     0.010 A 
ATOM     30  C   UNL A   1      43.394  27.307  27.405  1.00  0.00     0.010 A 
ATOM     31  C   UNL A   1      42.312  26.845  28.169  1.00  0.00    -0.014 A 
BRANCH  31  32
ATOM     32  C   UNL A   1      41.867  27.638  29.330  1.00  0.00     0.031 A 
ATOM     33  C   UNL A   1      42.556  27.523  30.651  1.00  0.00     0.074 A 
ATOM     34  C   UNL A   1      40.784  28.419  29.171  1.00  0.00     0.049 A 
ATOM     35  N   UNL A   1      42.283  28.143  31.768  1.00  0.00    -0.248 NA
ATOM     36  C   UNL A   1      43.690  26.589  30.738  1.00  0.00     0.031 C 
ATOM     37  C   UNL A   1      40.032  28.561  27.921  1.00  0.00     0.029 A 
ATOM     38  N   UNL A   1      40.126  29.235  30.052  1.00  0.00    -0.354 N 
ATOM     39  C   UNL A   1      43.210  27.682  32.690  1.00  0.00     0.074 A 
ATOM     40  C   UNL A   1      44.030  26.698  32.017  1.00  0.00     0.031 C 
ATOM     41  C   UNL A   1      39.034  29.436  28.108  1.00  0.00     0.029 A 
ATOM     42  C   UNL A   1      39.044  29.875  29.498  1.00  0.00     0.049 A 
ATOM     43  H   UNL A   1      40.400  29.351  30.991  1.00  0.00     0.167 HD
ATOM     44  C   UNL A   1      43.361  28.066  33.978  1.00  0.00     0.031 A 
ATOM     45  C   UNL A   1      38.154  30.721  30.051  1.00  0.00     0.031 A 
ATOM     46  C   UNL A   1      42.520  29.040  34.626  1.00  0.00     0.049 A 
ATOM     47  C   UNL A   1      38.328  31.102  31.492  1.00  0.00     0.074 A 
ATOM     48  C   UNL A   1      42.617  29.532  35.915  1.00  0.00     0.029 A 
ATOM     49  N   UNL A   1      41.424  29.659  34.041  1.00  0.00    -0.354 N 
ATOM     50  N   UNL A   1      39.258  30.721  32.336  1.00  0.00    -0.248 NA
ATOM     51  C   UNL A   1      37.349  32.039  32.057  1.00  0.00     0.031 C 
ATOM     52  C   UNL A   1      41.534  30.382  36.138  1.00  0.00     0.029 A 
ATOM     53  C   UNL A   1      40.814  30.498  34.958  1.00  0.00     0.049 A 
ATOM     54  H   UNL A   1      41.125  29.522  33.113  1.00  0.00     0.167 HD
ATOM     55  C   UNL A   1      38.990  31.385  33.523  1.00  0.00     0.074 A 
ATOM     56  C   UNL A   1      37.823  32.211  33.285  1.00  0.00     0.031 C 
ATOM     57  C   UNL A   1      39.652  31.314  34.705  1.00  0.00     0.031 A 
BRANCH  44  58
ATOM     58  C   UNL A   1      44.471  27.452  34.787  1.00  0.00    -0.014 A 
ATOM     59  C   UNL A   1      44.261  26.229  35.446  1.00  0.00     0.009 A 
ATOM     60  C   UNL A   1      45.673  28.141  35.009  1.00  0.00     0.009 A 
ATOM     61  C   UNL A   1      45.215  25.726  36.332  1.00  0.00     0.001 A 
ATOM     62  C   UNL A   1      46.640  27.618  35.871  1.00  0.00     0.001 A 
ATOM     63  C   UNL A   1      46.404  26.420  36.542  1.00  0.00     0.000 A 
ENDBRANCH  44  58
BRANCH  45  64
ATOM     64  C   UNL A   1      37.057  31.270  29.209  1.00  0.00    -0.014 A 
ATOM     65  C   UNL A   1      37.123  32.585  28.718  1.00  0.00     0.009 A 
ATOM     66  C   UNL A   1      35.901  30.516  28.963  1.00  0.00     0.009 A 
ATOM     67  C   UNL A   1      36.044  33.145  28.032  1.00  0.00     0.001 A 
ATOM     68  C   UNL A   1      34.836  31.067  28.244  1.00  0.00     0.001 A 
ATOM     69  C   UNL A   1      34.902  32.383  27.792  1.00  0.00     0.000 A 
ENDBRANCH  45  64
BRANCH  57  70
ATOM     70  C   UNL A   1      39.148  32.154  35.847  1.00  0.00    -0.014 A 
ATOM     71  C   UNL A   1      38.151  31.647  36.697  1.00  0.00     0.009 A 
ATOM     72  C   UNL A   1      39.558  33.488  36.001  1.00  0.00     0.009 A 
ATOM     73  C   UNL A   1      37.553  32.464  37.656  1.00  0.00     0.001 A 
ATOM     74  C   UNL A   1      38.985  34.291  36.988  1.00  0.00     0.001 A 
ATOM     75  C   UNL A   1      37.973  33.784  37.803  1.00  0.00     0.000 A 
ENDBRANCH  57  70
ENDBRANCH  31  32
ENDBRANCH  24  26
ENDBRANCH  23  24
ENDBRANCH  22  23
ENDBRANCH  21  22
ENDBRANCH   1  21
TORSDOF 16
ENDMDL
