MODEL 1
REMARK VINA RESULT:     -10.0      0.000      0.000
REMARK SMILES CC(C)COC(=O)N[C@H](Cc1c[nH]c2ccccc12)C(=O)OCCOCCOC(=O)c1ccc(-c2c3nc(c(-c4ccccc4)c4ccc([nH]4)c(-c4ccccc4)c4nc(c(-c5ccccc5)c5ccc2[nH]5)C=C4)C=C3)cc1
REMARK SMILES IDX 24 1 23 2 22 3 20 4 21 5 9 6 8 7 6 8 7 9 5 11 4 12 2 13 1 14
REMARK SMILES IDX 3 15 10 16 11 17 12 18 19 19 13 20 14 21 18 22 15 24 17 25
REMARK SMILES IDX 16 26 25 27 26 28 27 29 28 30 29 31 30 32 31 33 32 34 78 35
REMARK SMILES IDX 33 36 77 37 34 38 35 39 36 40 71 41 37 42 76 43 70 44 72 45
REMARK SMILES IDX 38 46 75 47 69 48 68 49 39 51 61 52 46 53 60 54 47 55 50 56
REMARK SMILES IDX 59 57 73 58 48 59 49 60 58 62 74 63 51 64 40 65 41 66 45 67
REMARK SMILES IDX 42 68 44 69 43 70 62 71 63 72 67 73 64 74 66 75 65 76 52 77
REMARK SMILES IDX 53 78 57 79 54 80 56 81 55 82
REMARK H PARENT 8 10 13 23 72 50 50 61
REMARK Flexibility Score: inf
ROOT
ATOM      1  C   UNL A   1      32.513  27.025  25.163  1.00  0.00     0.202 C 
ENDROOT
BRANCH   1   2
ATOM      2  C   UNL A   1      31.875  26.464  23.887  1.00  0.00     0.261 C 
BRANCH   2   3
ATOM      3  O   UNL A   1      32.096  25.045  23.757  1.00  0.00    -0.462 OA
BRANCH   3   4
ATOM      4  C   UNL A   1      33.316  24.657  23.301  1.00  0.00     0.329 C 
ATOM      5  O   UNL A   1      33.821  25.049  22.255  1.00  0.00    -0.250 OA
BRANCH   4   6
ATOM      6  C   UNL A   1      33.965  23.598  24.203  1.00  0.00     0.200 C 
BRANCH   6   7
ATOM      7  N   UNL A   1      32.924  23.094  25.088  1.00  0.00    -0.308 N 
ATOM      8  C   UNL A   1      32.377  21.854  24.970  1.00  0.00     0.407 C 
ATOM      9  O   UNL A   1      31.329  21.553  25.533  1.00  0.00    -0.225 OA
ATOM     10  H   UNL A   1      32.600  23.680  25.810  1.00  0.00     0.168 HD
BRANCH   8  11
ATOM     11  O   UNL A   1      33.116  21.039  24.185  1.00  0.00    -0.449 OA
BRANCH  11  12
ATOM     12  C   UNL A   1      32.551  19.773  23.824  1.00  0.00     0.238 C 
BRANCH  12  13
ATOM     13  C   UNL A   1      33.318  18.621  24.487  1.00  0.00     0.021 C 
ATOM     14  C   UNL A   1      32.633  18.121  25.759  1.00  0.00     0.011 C 
ATOM     15  C   UNL A   1      33.488  17.472  23.495  1.00  0.00     0.011 C 
ENDBRANCH  12  13
ENDBRANCH  11  12
ENDBRANCH   8  11
ENDBRANCH   6   7
BRANCH   6  16
ATOM     16  C   UNL A   1      35.287  24.009  24.876  1.00  0.00     0.075 C 
BRANCH  16  17
ATOM     17  C   UNL A   1      36.325  22.945  25.080  1.00  0.00    -0.020 A 
ATOM     18  C   UNL A   1      36.271  21.657  24.578  1.00  0.00     0.087 A 
ATOM     19  C   UNL A   1      37.565  23.051  25.782  1.00  0.00     0.003 A 
ATOM     20  N   UNL A   1      37.409  20.994  24.953  1.00  0.00    -0.361 N 
ATOM     21  C   UNL A   1      38.206  21.814  25.712  1.00  0.00     0.046 A 
ATOM     22  C   UNL A   1      38.207  24.085  26.480  1.00  0.00     0.010 A 
ATOM     23  H   UNL A   1      37.625  20.063  24.711  1.00  0.00     0.166 HD
ATOM     24  C   UNL A   1      39.438  21.558  26.329  1.00  0.00     0.026 A 
ATOM     25  C   UNL A   1      39.391  23.826  27.168  1.00  0.00     0.001 A 
ATOM     26  C   UNL A   1      40.010  22.585  27.080  1.00  0.00     0.002 A 
ENDBRANCH  16  17
ENDBRANCH   6  16
ENDBRANCH   4   6
ENDBRANCH   3   4
ENDBRANCH   2   3
ENDBRANCH   1   2
BRANCH   1  27
ATOM     27  O   UNL A   1      31.794  28.109  25.754  1.00  0.00    -0.374 OA
BRANCH  27  28
ATOM     28  C   UNL A   1      31.837  29.345  25.045  1.00  0.00     0.202 C 
BRANCH  28  29
ATOM     29  C   UNL A   1      31.714  30.581  25.938  1.00  0.00     0.261 C 
BRANCH  29  30
ATOM     30  O   UNL A   1      32.597  30.463  27.069  1.00  0.00    -0.460 OA
BRANCH  30  31
ATOM     31  C   UNL A   1      33.323  31.571  27.350  1.00  0.00     0.338 C 
ATOM     32  O   UNL A   1      32.930  32.724  27.373  1.00  0.00    -0.246 OA
BRANCH  31  33
ATOM     33  C   UNL A   1      34.673  31.175  27.805  1.00  0.00     0.060 A 
ATOM     34  C   UNL A   1      34.906  29.810  28.021  1.00  0.00     0.016 A 
ATOM     35  C   UNL A   1      35.692  32.104  28.027  1.00  0.00     0.016 A 
ATOM     36  C   UNL A   1      36.144  29.373  28.494  1.00  0.00     0.010 A 
ATOM     37  C   UNL A   1      36.937  31.663  28.495  1.00  0.00     0.010 A 
ATOM     38  C   UNL A   1      37.163  30.298  28.759  1.00  0.00    -0.014 A 
BRANCH  38  39
ATOM     39  C   UNL A   1      38.396  29.856  29.458  1.00  0.00     0.031 A 
ATOM     40  C   UNL A   1      38.600  30.281  30.888  1.00  0.00     0.074 A 
ATOM     41  C   UNL A   1      39.310  29.064  28.865  1.00  0.00     0.049 A 
ATOM     42  N   UNL A   1      39.565  29.972  31.717  1.00  0.00    -0.248 NA
ATOM     43  C   UNL A   1      37.578  31.175  31.459  1.00  0.00     0.031 C 
ATOM     44  C   UNL A   1      39.246  28.556  27.496  1.00  0.00     0.029 A 
ATOM     45  N   UNL A   1      40.485  28.544  29.355  1.00  0.00    -0.354 N 
ATOM     46  C   UNL A   1      39.262  30.630  32.902  1.00  0.00     0.074 A 
ATOM     47  C   UNL A   1      38.063  31.403  32.668  1.00  0.00     0.031 C 
ATOM     48  C   UNL A   1      40.337  27.808  27.251  1.00  0.00     0.029 A 
ATOM     49  C   UNL A   1      41.175  27.778  28.447  1.00  0.00     0.049 A 
ATOM     50  H   UNL A   1      40.803  28.706  30.273  1.00  0.00     0.167 HD
ATOM     51  C   UNL A   1      39.900  30.575  34.095  1.00  0.00     0.031 A 
ATOM     52  C   UNL A   1      42.342  27.117  28.568  1.00  0.00     0.031 A 
ATOM     53  C   UNL A   1      41.090  29.813  34.347  1.00  0.00     0.049 A 
ATOM     54  C   UNL A   1      43.068  27.117  29.889  1.00  0.00     0.074 A 
ATOM     55  C   UNL A   1      41.788  29.673  35.533  1.00  0.00     0.029 A 
ATOM     56  N   UNL A   1      41.762  29.068  33.393  1.00  0.00    -0.354 N 
ATOM     57  N   UNL A   1      42.727  27.683  31.021  1.00  0.00    -0.248 NA
ATOM     58  C   UNL A   1      44.328  26.361  29.951  1.00  0.00     0.031 C 
ATOM     59  C   UNL A   1      42.911  28.877  35.285  1.00  0.00     0.029 A 
ATOM     60  C   UNL A   1      42.882  28.483  33.958  1.00  0.00     0.049 A 
ATOM     61  H   UNL A   1      41.485  28.971  32.453  1.00  0.00     0.167 HD
ATOM     62  C   UNL A   1      43.705  27.315  31.938  1.00  0.00     0.074 A 
ATOM     63  C   UNL A   1      44.649  26.474  31.232  1.00  0.00     0.031 C 
ATOM     64  C   UNL A   1      43.807  27.638  33.250  1.00  0.00     0.031 A 
BRANCH  51  65
ATOM     65  C   UNL A   1      39.307  31.379  35.215  1.00  0.00    -0.014 A 
ATOM     66  C   UNL A   1      38.345  30.821  36.074  1.00  0.00     0.009 A 
ATOM     67  C   UNL A   1      39.706  32.709  35.409  1.00  0.00     0.009 A 
ATOM     68  C   UNL A   1      37.762  31.596  37.078  1.00  0.00     0.001 A 
ATOM     69  C   UNL A   1      39.142  33.472  36.432  1.00  0.00     0.001 A 
ATOM     70  C   UNL A   1      38.163  32.919  37.258  1.00  0.00     0.000 A 
ENDBRANCH  51  65
BRANCH  52  71
ATOM     71  C   UNL A   1      42.907  26.365  27.416  1.00  0.00    -0.014 A 
ATOM     72  C   UNL A   1      42.730  24.977  27.314  1.00  0.00     0.009 A 
ATOM     73  C   UNL A   1      43.674  27.026  26.444  1.00  0.00     0.009 A 
ATOM     74  C   UNL A   1      43.342  24.259  26.283  1.00  0.00     0.001 A 
ATOM     75  C   UNL A   1      44.264  26.309  25.400  1.00  0.00     0.001 A 
ATOM     76  C   UNL A   1      44.108  24.925  25.328  1.00  0.00     0.000 A 
ENDBRANCH  52  71
BRANCH  64  77
ATOM     77  C   UNL A   1      44.949  27.044  34.026  1.00  0.00    -0.014 A 
ATOM     78  C   UNL A   1      46.124  27.769  34.272  1.00  0.00     0.009 A 
ATOM     79  C   UNL A   1      44.823  25.751  34.562  1.00  0.00     0.009 A 
ATOM     80  C   UNL A   1      47.163  27.199  35.012  1.00  0.00     0.001 A 
ATOM     81  C   UNL A   1      45.851  25.196  35.325  1.00  0.00     0.001 A 
ATOM     82  C   UNL A   1      47.024  25.917  35.541  1.00  0.00     0.000 A 
ENDBRANCH  64  77
ENDBRANCH  38  39
ENDBRANCH  31  33
ENDBRANCH  30  31
ENDBRANCH  29  30
ENDBRANCH  28  29
ENDBRANCH  27  28
ENDBRANCH   1  27
TORSDOF 20
ENDMDL
MODEL 2
REMARK VINA RESULT:      -9.8      3.308      8.417
REMARK SMILES CC(C)COC(=O)N[C@H](Cc1c[nH]c2ccccc12)C(=O)OCCOCCOC(=O)c1ccc(-c2c3nc(c(-c4ccccc4)c4ccc([nH]4)c(-c4ccccc4)c4nc(c(-c5ccccc5)c5ccc2[nH]5)C=C4)C=C3)cc1
REMARK SMILES IDX 24 1 23 2 22 3 20 4 21 5 9 6 8 7 6 8 7 9 5 11 4 12 2 13 1 14
REMARK SMILES IDX 3 15 10 16 11 17 12 18 19 19 13 20 14 21 18 22 15 24 17 25
REMARK SMILES IDX 16 26 25 27 26 28 27 29 28 30 29 31 30 32 31 33 32 34 78 35
REMARK SMILES IDX 33 36 77 37 34 38 35 39 36 40 71 41 37 42 76 43 70 44 72 45
REMARK SMILES IDX 38 46 75 47 69 48 68 49 39 51 61 52 46 53 60 54 47 55 50 56
REMARK SMILES IDX 59 57 73 58 48 59 49 60 58 62 74 63 51 64 40 65 41 66 45 67
REMARK SMILES IDX 42 68 44 69 43 70 62 71 63 72 67 73 64 74 66 75 65 76 52 77
REMARK SMILES IDX 53 78 57 79 54 80 56 81 55 82
REMARK H PARENT 8 10 13 23 72 50 50 61
REMARK Flexibility Score: inf
ROOT
ATOM      1  C   UNL A   1      38.088  23.030  26.066  1.00  0.00     0.202 C 
ENDROOT
BRANCH   1   2
ATOM      2  C   UNL A   1      36.867  23.903  25.754  1.00  0.00     0.261 C 
BRANCH   2   3
ATOM      3  O   UNL A   1      35.781  23.128  25.206  1.00  0.00    -0.462 OA
BRANCH   3   4
ATOM      4  C   UNL A   1      34.665  23.016  25.973  1.00  0.00     0.329 C 
ATOM      5  O   UNL A   1      34.611  22.401  27.032  1.00  0.00    -0.250 OA
BRANCH   4   6
ATOM      6  C   UNL A   1      33.442  23.678  25.323  1.00  0.00     0.200 C 
BRANCH   6   7
ATOM      7  N   UNL A   1      33.266  24.974  25.963  1.00  0.00    -0.308 N 
ATOM      8  C   UNL A   1      33.738  26.138  25.439  1.00  0.00     0.407 C 
ATOM      9  O   UNL A   1      33.826  27.160  26.111  1.00  0.00    -0.225 OA
ATOM     10  H   UNL A   1      32.780  25.011  26.819  1.00  0.00     0.168 HD
BRANCH   8  11
ATOM     11  O   UNL A   1      34.076  26.015  24.137  1.00  0.00    -0.449 OA
BRANCH  11  12
ATOM     12  C   UNL A   1      33.442  26.894  23.201  1.00  0.00     0.238 C 
BRANCH  12  13
ATOM     13  C   UNL A   1      32.229  26.217  22.548  1.00  0.00     0.021 C 
ATOM     14  C   UNL A   1      31.065  27.185  22.337  1.00  0.00     0.011 C 
ATOM     15  C   UNL A   1      32.639  25.591  21.217  1.00  0.00     0.011 C 
ENDBRANCH  12  13
ENDBRANCH  11  12
ENDBRANCH   8  11
ENDBRANCH   6   7
BRANCH   6  16
ATOM     16  C   UNL A   1      32.183  22.800  25.212  1.00  0.00     0.075 C 
BRANCH  16  17
ATOM     17  C   UNL A   1      32.111  21.823  24.075  1.00  0.00    -0.020 A 
ATOM     18  C   UNL A   1      31.771  22.126  22.769  1.00  0.00     0.087 A 
ATOM     19  C   UNL A   1      32.409  20.426  24.098  1.00  0.00     0.003 A 
ATOM     20  N   UNL A   1      31.844  20.982  22.021  1.00  0.00    -0.361 N 
ATOM     21  C   UNL A   1      32.206  19.921  22.814  1.00  0.00     0.046 A 
ATOM     22  C   UNL A   1      32.829  19.533  25.096  1.00  0.00     0.010 A 
ATOM     23  H   UNL A   1      31.664  20.928  21.054  1.00  0.00     0.166 HD
ATOM     24  C   UNL A   1      32.375  18.568  22.490  1.00  0.00     0.026 A 
ATOM     25  C   UNL A   1      32.922  18.171  24.813  1.00  0.00     0.001 A 
ATOM     26  C   UNL A   1      32.717  17.696  23.524  1.00  0.00     0.002 A 
ENDBRANCH  16  17
ENDBRANCH   6  16
ENDBRANCH   4   6
ENDBRANCH   3   4
ENDBRANCH   2   3
ENDBRANCH   1   2
BRANCH   1  27
ATOM     27  O   UNL A   1      37.817  21.628  26.098  1.00  0.00    -0.374 OA
BRANCH  27  28
ATOM     28  C   UNL A   1      38.088  20.914  24.893  1.00  0.00     0.202 C 
BRANCH  28  29
ATOM     29  C   UNL A   1      38.811  19.583  25.106  1.00  0.00     0.261 C 
BRANCH  29  30
ATOM     30  O   UNL A   1      39.651  19.659  26.273  1.00  0.00    -0.460 OA
BRANCH  30  31
ATOM     31  C   UNL A   1      40.976  19.780  26.020  1.00  0.00     0.338 C 
ATOM     32  O   UNL A   1      41.669  19.041  25.345  1.00  0.00    -0.246 OA
BRANCH  31  33
ATOM     33  C   UNL A   1      41.464  21.070  26.556  1.00  0.00     0.060 A 
ATOM     34  C   UNL A   1      41.390  21.262  27.942  1.00  0.00     0.016 A 
ATOM     35  C   UNL A   1      41.976  22.077  25.734  1.00  0.00     0.016 A 
ATOM     36  C   UNL A   1      41.793  22.472  28.507  1.00  0.00     0.010 A 
ATOM     37  C   UNL A   1      42.387  23.289  26.305  1.00  0.00     0.010 A 
ATOM     38  C   UNL A   1      42.272  23.506  27.692  1.00  0.00    -0.014 A 
BRANCH  38  39
ATOM     39  C   UNL A   1      42.496  24.856  28.268  1.00  0.00     0.031 A 
ATOM     40  C   UNL A   1      43.887  25.221  28.715  1.00  0.00     0.074 A 
ATOM     41  C   UNL A   1      41.507  25.765  28.368  1.00  0.00     0.049 A 
ATOM     42  N   UNL A   1      44.335  26.355  29.193  1.00  0.00    -0.248 NA
ATOM     43  C   UNL A   1      44.909  24.166  28.609  1.00  0.00     0.031 C 
ATOM     44  C   UNL A   1      40.116  25.568  27.964  1.00  0.00     0.029 A 
ATOM     45  N   UNL A   1      41.531  27.054  28.849  1.00  0.00    -0.354 N 
ATOM     46  C   UNL A   1      45.686  26.147  29.439  1.00  0.00     0.074 A 
ATOM     47  C   UNL A   1      45.971  24.767  29.119  1.00  0.00     0.031 C 
ATOM     48  C   UNL A   1      39.418  26.688  28.223  1.00  0.00     0.029 A 
ATOM     49  C   UNL A   1      40.312  27.685  28.805  1.00  0.00     0.049 A 
ATOM     50  H   UNL A   1      42.348  27.483  29.192  1.00  0.00     0.167 HD
ATOM     51  C   UNL A   1      46.621  27.030  29.861  1.00  0.00     0.031 A 
ATOM     52  C   UNL A   1      39.958  28.929  29.181  1.00  0.00     0.031 A 
ATOM     53  C   UNL A   1      46.358  28.404  30.182  1.00  0.00     0.049 A 
ATOM     54  C   UNL A   1      41.005  29.879  29.705  1.00  0.00     0.074 A 
ATOM     55  C   UNL A   1      47.250  29.380  30.588  1.00  0.00     0.029 A 
ATOM     56  N   UNL A   1      45.106  28.993  30.141  1.00  0.00    -0.354 N 
ATOM     57  N   UNL A   1      42.293  29.688  29.859  1.00  0.00    -0.248 NA
ATOM     58  C   UNL A   1      40.548  31.226  30.080  1.00  0.00     0.031 C 
ATOM     59  C   UNL A   1      46.529  30.552  30.836  1.00  0.00     0.029 A 
ATOM     60  C   UNL A   1      45.197  30.316  30.536  1.00  0.00     0.049 A 
ATOM     61  H   UNL A   1      44.275  28.538  29.873  1.00  0.00     0.167 HD
ATOM     62  C   UNL A   1      42.804  30.902  30.305  1.00  0.00     0.074 A 
ATOM     63  C   UNL A   1      41.690  31.822  30.392  1.00  0.00     0.031 C 
ATOM     64  C   UNL A   1      44.084  31.227  30.607  1.00  0.00     0.031 A 
BRANCH  51  65
ATOM     65  C   UNL A   1      48.023  26.512  30.000  1.00  0.00    -0.014 A 
ATOM     66  C   UNL A   1      48.931  26.587  28.930  1.00  0.00     0.009 A 
ATOM     67  C   UNL A   1      48.439  25.936  31.209  1.00  0.00     0.009 A 
ATOM     68  C   UNL A   1      50.214  26.054  29.056  1.00  0.00     0.001 A 
ATOM     69  C   UNL A   1      49.733  25.429  31.341  1.00  0.00     0.001 A 
ATOM     70  C   UNL A   1      50.615  25.478  30.261  1.00  0.00     0.000 A 
ENDBRANCH  51  65
BRANCH  52  71
ATOM     71  C   UNL A   1      38.547  29.383  29.058  1.00  0.00    -0.014 A 
ATOM     72  C   UNL A   1      37.685  29.343  30.165  1.00  0.00     0.009 A 
ATOM     73  C   UNL A   1      38.042  29.803  27.818  1.00  0.00     0.009 A 
ATOM     74  C   UNL A   1      36.336  29.678  30.024  1.00  0.00     0.001 A 
ATOM     75  C   UNL A   1      36.698  30.162  27.686  1.00  0.00     0.001 A 
ATOM     76  C   UNL A   1      35.844  30.087  28.786  1.00  0.00     0.000 A 
ENDBRANCH  52  71
BRANCH  64  77
ATOM     77  C   UNL A   1      44.365  32.647  31.013  1.00  0.00    -0.014 A 
ATOM     78  C   UNL A   1      44.656  33.637  30.062  1.00  0.00     0.009 A 
ATOM     79  C   UNL A   1      44.287  33.007  32.368  1.00  0.00     0.009 A 
ATOM     80  C   UNL A   1      44.895  34.952  30.464  1.00  0.00     0.001 A 
ATOM     81  C   UNL A   1      44.499  34.329  32.764  1.00  0.00     0.001 A 
ATOM     82  C   UNL A   1      44.811  35.298  31.813  1.00  0.00     0.000 A 
ENDBRANCH  64  77
ENDBRANCH  38  39
ENDBRANCH  31  33
ENDBRANCH  30  31
ENDBRANCH  29  30
ENDBRANCH  28  29
ENDBRANCH  27  28
ENDBRANCH   1  27
TORSDOF 20
ENDMDL
MODEL 3
REMARK VINA RESULT:      -9.7      3.801      7.636
REMARK SMILES CC(C)COC(=O)N[C@H](Cc1c[nH]c2ccccc12)C(=O)OCCOCCOC(=O)c1ccc(-c2c3nc(c(-c4ccccc4)c4ccc([nH]4)c(-c4ccccc4)c4nc(c(-c5ccccc5)c5ccc2[nH]5)C=C4)C=C3)cc1
REMARK SMILES IDX 24 1 23 2 22 3 20 4 21 5 9 6 8 7 6 8 7 9 5 11 4 12 2 13 1 14
REMARK SMILES IDX 3 15 10 16 11 17 12 18 19 19 13 20 14 21 18 22 15 24 17 25
REMARK SMILES IDX 16 26 25 27 26 28 27 29 28 30 29 31 30 32 31 33 32 34 78 35
REMARK SMILES IDX 33 36 77 37 34 38 35 39 36 40 71 41 37 42 76 43 70 44 72 45
REMARK SMILES IDX 38 46 75 47 69 48 68 49 39 51 61 52 46 53 60 54 47 55 50 56
REMARK SMILES IDX 59 57 73 58 48 59 49 60 58 62 74 63 51 64 40 65 41 66 45 67
REMARK SMILES IDX 42 68 44 69 43 70 62 71 63 72 67 73 64 74 66 75 65 76 52 77
REMARK SMILES IDX 53 78 57 79 54 80 56 81 55 82
REMARK H PARENT 8 10 13 23 72 50 50 61
REMARK Flexibility Score: inf
ROOT
ATOM      1  C   UNL A   1      38.083  23.673  26.126  1.00  0.00     0.202 C 
ENDROOT
BRANCH   1   2
ATOM      2  C   UNL A   1      36.816  23.705  25.263  1.00  0.00     0.261 C 
BRANCH   2   3
ATOM      3  O   UNL A   1      35.620  23.623  26.064  1.00  0.00    -0.462 OA
BRANCH   3   4
ATOM      4  C   UNL A   1      34.497  24.183  25.543  1.00  0.00     0.329 C 
ATOM      5  O   UNL A   1      34.396  25.362  25.223  1.00  0.00    -0.250 OA
BRANCH   4   6
ATOM      6  C   UNL A   1      33.328  23.192  25.477  1.00  0.00     0.200 C 
BRANCH   6   7
ATOM      7  N   UNL A   1      32.324  23.650  26.427  1.00  0.00    -0.308 N 
ATOM      8  C   UNL A   1      31.164  24.257  26.057  1.00  0.00     0.407 C 
ATOM      9  O   UNL A   1      30.473  24.875  26.859  1.00  0.00    -0.225 OA
ATOM     10  H   UNL A   1      32.493  23.514  27.388  1.00  0.00     0.168 HD
BRANCH   8  11
ATOM     11  O   UNL A   1      30.891  24.086  24.744  1.00  0.00    -0.449 OA
BRANCH  11  12
ATOM     12  C   UNL A   1      30.285  25.179  24.044  1.00  0.00     0.238 C 
BRANCH  12  13
ATOM     13  C   UNL A   1      31.315  26.276  23.743  1.00  0.00     0.021 C 
ATOM     14  C   UNL A   1      31.650  26.368  22.254  1.00  0.00     0.011 C 
ATOM     15  C   UNL A   1      30.804  27.622  24.251  1.00  0.00     0.011 C 
ENDBRANCH  12  13
ENDBRANCH  11  12
ENDBRANCH   8  11
ENDBRANCH   6   7
BRANCH   6  16
ATOM     16  C   UNL A   1      33.705  21.702  25.555  1.00  0.00     0.075 C 
BRANCH  16  17
ATOM     17  C   UNL A   1      33.156  20.787  24.499  1.00  0.00    -0.020 A 
ATOM     18  C   UNL A   1      32.155  21.102  23.598  1.00  0.00     0.087 A 
ATOM     19  C   UNL A   1      33.569  19.455  24.191  1.00  0.00     0.003 A 
ATOM     20  N   UNL A   1      31.949  20.025  22.779  1.00  0.00    -0.361 N 
ATOM     21  C   UNL A   1      32.782  18.994  23.136  1.00  0.00     0.046 A 
ATOM     22  C   UNL A   1      34.541  18.587  24.714  1.00  0.00     0.010 A 
ATOM     23  H   UNL A   1      31.298  19.994  22.040  1.00  0.00     0.166 HD
ATOM     24  C   UNL A   1      32.901  17.703  22.603  1.00  0.00     0.026 A 
ATOM     25  C   UNL A   1      34.617  17.274  24.252  1.00  0.00     0.001 A 
ATOM     26  C   UNL A   1      33.823  16.841  23.199  1.00  0.00     0.002 A 
ENDBRANCH  16  17
ENDBRANCH   6  16
ENDBRANCH   4   6
ENDBRANCH   3   4
ENDBRANCH   2   3
ENDBRANCH   1   2
BRANCH   1  27
ATOM     27  O   UNL A   1      38.730  22.400  26.175  1.00  0.00    -0.374 OA
BRANCH  27  28
ATOM     28  C   UNL A   1      38.129  21.366  25.398  1.00  0.00     0.202 C 
BRANCH  28  29
ATOM     29  C   UNL A   1      38.978  20.099  25.283  1.00  0.00     0.261 C 
BRANCH  29  30
ATOM     30  O   UNL A   1      39.780  19.934  26.468  1.00  0.00    -0.460 OA
BRANCH  30  31
ATOM     31  C   UNL A   1      41.107  19.786  26.248  1.00  0.00     0.338 C 
ATOM     32  O   UNL A   1      41.671  18.826  25.752  1.00  0.00    -0.246 OA
BRANCH  31  33
ATOM     33  C   UNL A   1      41.802  21.056  26.547  1.00  0.00     0.060 A 
ATOM     34  C   UNL A   1      41.959  21.404  27.896  1.00  0.00     0.016 A 
ATOM     35  C   UNL A   1      42.285  21.901  25.545  1.00  0.00     0.016 A 
ATOM     36  C   UNL A   1      42.565  22.611  28.246  1.00  0.00     0.010 A 
ATOM     37  C   UNL A   1      42.900  23.109  25.899  1.00  0.00     0.010 A 
ATOM     38  C   UNL A   1      43.019  23.486  27.250  1.00  0.00    -0.014 A 
BRANCH  38  39
ATOM     39  C   UNL A   1      43.467  24.853  27.619  1.00  0.00     0.031 A 
ATOM     40  C   UNL A   1      42.419  25.888  27.934  1.00  0.00     0.074 A 
ATOM     41  C   UNL A   1      44.770  25.178  27.714  1.00  0.00     0.049 A 
ATOM     42  N   UNL A   1      42.568  27.126  28.334  1.00  0.00    -0.248 NA
ATOM     43  C   UNL A   1      41.015  25.472  27.775  1.00  0.00     0.031 C 
ATOM     44  C   UNL A   1      45.898  24.285  27.458  1.00  0.00     0.029 A 
ATOM     45  N   UNL A   1      45.364  26.371  28.057  1.00  0.00    -0.354 N 
ATOM     46  C   UNL A   1      41.281  27.628  28.477  1.00  0.00     0.074 A 
ATOM     47  C   UNL A   1      40.368  26.588  28.062  1.00  0.00     0.031 C 
ATOM     48  C   UNL A   1      47.047  24.960  27.642  1.00  0.00     0.029 A 
ATOM     49  C   UNL A   1      46.737  26.333  28.034  1.00  0.00     0.049 A 
ATOM     50  H   UNL A   1      44.852  27.176  28.297  1.00  0.00     0.167 HD
ATOM     51  C   UNL A   1      40.885  28.835  28.943  1.00  0.00     0.031 A 
ATOM     52  C   UNL A   1      47.643  27.291  28.309  1.00  0.00     0.031 A 
ATOM     53  C   UNL A   1      41.776  29.880  29.361  1.00  0.00     0.049 A 
ATOM     54  C   UNL A   1      47.178  28.649  28.771  1.00  0.00     0.074 A 
ATOM     55  C   UNL A   1      41.463  31.125  29.877  1.00  0.00     0.029 A 
ATOM     56  N   UNL A   1      43.157  29.803  29.302  1.00  0.00    -0.354 N 
ATOM     57  N   UNL A   1      45.958  29.082  28.972  1.00  0.00    -0.248 NA
ATOM     58  C   UNL A   1      48.224  29.640  29.068  1.00  0.00     0.031 C 
ATOM     59  C   UNL A   1      42.657  31.820  30.090  1.00  0.00     0.029 A 
ATOM     60  C   UNL A   1      43.712  30.989  29.752  1.00  0.00     0.049 A 
ATOM     61  H   UNL A   1      43.667  29.023  28.986  1.00  0.00     0.167 HD
ATOM     62  C   UNL A   1      46.092  30.377  29.462  1.00  0.00     0.074 A 
ATOM     63  C   UNL A   1      47.511  30.656  29.531  1.00  0.00     0.031 C 
ATOM     64  C   UNL A   1      45.125  31.252  29.829  1.00  0.00     0.031 A 
BRANCH  51  65
ATOM     65  C   UNL A   1      39.405  29.078  29.016  1.00  0.00    -0.014 A 
ATOM     66  C   UNL A   1      38.711  29.639  27.931  1.00  0.00     0.009 A 
ATOM     67  C   UNL A   1      38.699  28.751  30.183  1.00  0.00     0.009 A 
ATOM     68  C   UNL A   1      37.345  29.909  28.031  1.00  0.00     0.001 A 
ATOM     69  C   UNL A   1      37.328  28.995  30.269  1.00  0.00     0.001 A 
ATOM     70  C   UNL A   1      36.654  29.584  29.199  1.00  0.00     0.000 A 
ENDBRANCH  51  65
BRANCH  52  71
ATOM     71  C   UNL A   1      49.099  27.012  28.187  1.00  0.00    -0.014 A 
ATOM     72  C   UNL A   1      49.760  27.195  26.962  1.00  0.00     0.009 A 
ATOM     73  C   UNL A   1      49.819  26.507  29.280  1.00  0.00     0.009 A 
ATOM     74  C   UNL A   1      51.105  26.842  26.824  1.00  0.00     0.001 A 
ATOM     75  C   UNL A   1      51.171  26.178  29.145  1.00  0.00     0.001 A 
ATOM     76  C   UNL A   1      51.809  26.334  27.915  1.00  0.00     0.000 A 
ENDBRANCH  52  71
BRANCH  64  77
ATOM     77  C   UNL A   1      45.562  32.578  30.386  1.00  0.00    -0.014 A 
ATOM     78  C   UNL A   1      45.742  33.697  29.560  1.00  0.00     0.009 A 
ATOM     79  C   UNL A   1      45.749  32.718  31.771  1.00  0.00     0.009 A 
ATOM     80  C   UNL A   1      46.131  34.922  30.106  1.00  0.00     0.001 A 
ATOM     81  C   UNL A   1      46.110  33.950  32.317  1.00  0.00     0.001 A 
ATOM     82  C   UNL A   1      46.310  35.049  31.484  1.00  0.00     0.000 A 
ENDBRANCH  64  77
ENDBRANCH  38  39
ENDBRANCH  31  33
ENDBRANCH  30  31
ENDBRANCH  29  30
ENDBRANCH  28  29
ENDBRANCH  27  28
ENDBRANCH   1  27
TORSDOF 20
ENDMDL
