MODEL 1
REMARK VINA RESULT:      -9.6      0.000      0.000
REMARK SMILES O=C(CCCc1nc(-c2ccc(Cl)c(Cl)c2)c(-c2ccccc2)o1)OCCOCCOC(=O)c1ccc(-c2c3nc(c(-c4ccccc4)c4ccc([nH]4)c(-c4ccccc4)c4nc(c(-c5ccccc5)c5ccc2[nH]5)C=C4)C=C3)cc1
REMARK SMILES IDX 27 1 26 2 25 3 2 4 1 5 3 6 4 7 5 8 6 9 7 10 24 11 8 12 17 13
REMARK SMILES IDX 9 14 10 15 16 16 11 17 14 18 12 19 15 20 13 21 18 22 19 23
REMARK SMILES IDX 23 24 20 25 22 26 21 27 28 28 29 29 30 30 31 31 32 32 33 33
REMARK SMILES IDX 34 34 35 35 81 36 36 37 80 38 37 39 38 40 39 41 74 42 40 43
REMARK SMILES IDX 79 44 73 45 75 46 41 47 78 48 72 49 71 50 42 52 64 53 49 54
REMARK SMILES IDX 63 55 50 56 53 57 62 58 76 59 51 60 52 61 61 63 77 64 54 65
REMARK SMILES IDX 43 66 44 67 48 68 45 69 47 70 46 71 65 72 66 73 70 74 67 75
REMARK SMILES IDX 69 76 68 77 55 78 56 79 60 80 57 81 59 82 58 83
REMARK H PARENT 75 51 53 62
REMARK Flexibility Score: inf
ROOT
ATOM      1  C   UNL A   1      42.672  18.367  26.779  1.00  0.00     0.202 C 
ENDROOT
BRANCH   1   2
ATOM      2  C   UNL A   1      43.280  18.781  25.444  1.00  0.00     0.261 C 
BRANCH   2   3
ATOM      3  O   UNL A   1      44.566  18.254  25.095  1.00  0.00    -0.463 OA
BRANCH   3   4
ATOM      4  C   UNL A   1      45.448  19.106  24.531  1.00  0.00     0.305 C 
ATOM      5  O   UNL A   1      46.033  18.833  23.488  1.00  0.00    -0.252 OA
BRANCH   4   6
ATOM      6  C   UNL A   1      45.635  20.412  25.275  1.00  0.00     0.123 C 
BRANCH   6   7
ATOM      7  C   UNL A   1      46.259  21.582  24.512  1.00  0.00     0.021 C 
BRANCH   7   8
ATOM      8  C   UNL A   1      45.395  22.817  24.219  1.00  0.00     0.098 C 
BRANCH   8   9
ATOM      9  C   UNL A   1      45.530  23.962  25.169  1.00  0.00     0.195 A 
ATOM     10  N   UNL A   1      45.654  25.251  24.914  1.00  0.00    -0.213 NA
ATOM     11  O   UNL A   1      45.415  23.657  26.511  1.00  0.00    -0.440 OA
ATOM     12  C   UNL A   1      45.663  25.829  26.162  1.00  0.00     0.117 A 
ATOM     13  C   UNL A   1      45.481  24.874  27.138  1.00  0.00     0.162 A 
BRANCH  12  14
ATOM     14  C   UNL A   1      45.681  27.249  26.425  1.00  0.00     0.006 A 
ATOM     15  C   UNL A   1      46.815  27.990  26.081  1.00  0.00     0.012 A 
ATOM     16  C   UNL A   1      44.536  27.904  26.897  1.00  0.00     0.032 A 
ATOM     17  C   UNL A   1      46.788  29.382  26.163  1.00  0.00     0.023 A 
ATOM     18  C   UNL A   1      44.507  29.299  26.974  1.00  0.00     0.060 A 
ATOM     19  C   UNL A   1      45.633  30.040  26.597  1.00  0.00     0.059 A 
ATOM     20  Cl  UNL A   1      43.043  30.044  27.510  1.00  0.00    -0.083 Cl
ATOM     21  Cl  UNL A   1      45.655  31.767  26.626  1.00  0.00    -0.083 Cl
ENDBRANCH  12  14
BRANCH  13  22
ATOM     22  C   UNL A   1      45.303  24.923  28.580  1.00  0.00     0.020 A 
ATOM     23  C   UNL A   1      44.322  24.139  29.193  1.00  0.00     0.012 A 
ATOM     24  C   UNL A   1      46.190  25.627  29.399  1.00  0.00     0.012 A 
ATOM     25  C   UNL A   1      44.157  24.117  30.578  1.00  0.00     0.001 A 
ATOM     26  C   UNL A   1      46.061  25.572  30.793  1.00  0.00     0.001 A 
ATOM     27  C   UNL A   1      45.033  24.835  31.381  1.00  0.00     0.000 A 
ENDBRANCH  13  22
ENDBRANCH   8   9
ENDBRANCH   7   8
ENDBRANCH   6   7
ENDBRANCH   4   6
ENDBRANCH   3   4
ENDBRANCH   2   3
ENDBRANCH   1   2
BRANCH   1  28
ATOM     28  O   UNL A   1      42.039  19.430  27.487  1.00  0.00    -0.374 OA
BRANCH  28  29
ATOM     29  C   UNL A   1      41.196  20.226  26.640  1.00  0.00     0.202 C 
BRANCH  29  30
ATOM     30  C   UNL A   1      40.624  21.473  27.325  1.00  0.00     0.261 C 
BRANCH  30  31
ATOM     31  O   UNL A   1      40.218  22.468  26.362  1.00  0.00    -0.460 OA
BRANCH  31  32
ATOM     32  C   UNL A   1      41.113  23.460  26.170  1.00  0.00     0.338 C 
ATOM     33  O   UNL A   1      42.109  23.433  25.448  1.00  0.00    -0.246 OA
BRANCH  32  34
ATOM     34  C   UNL A   1      40.659  24.709  26.806  1.00  0.00     0.060 A 
ATOM     35  C   UNL A   1      41.281  25.903  26.416  1.00  0.00     0.016 A 
ATOM     36  C   UNL A   1      39.726  24.711  27.838  1.00  0.00     0.016 A 
ATOM     37  C   UNL A   1      41.082  27.075  27.129  1.00  0.00     0.010 A 
ATOM     38  C   UNL A   1      39.494  25.901  28.536  1.00  0.00     0.010 A 
ATOM     39  C   UNL A   1      40.216  27.071  28.221  1.00  0.00    -0.014 A 
BRANCH  39  40
ATOM     40  C   UNL A   1      40.216  28.230  29.141  1.00  0.00     0.031 A 
ATOM     41  C   UNL A   1      41.326  28.343  30.148  1.00  0.00     0.074 A 
ATOM     42  C   UNL A   1      39.296  29.205  29.037  1.00  0.00     0.049 A 
ATOM     43  N   UNL A   1      41.449  29.158  31.161  1.00  0.00    -0.248 NA
ATOM     44  C   UNL A   1      42.448  27.401  29.990  1.00  0.00     0.031 C 
ATOM     45  C   UNL A   1      38.252  29.284  28.015  1.00  0.00     0.029 A 
ATOM     46  N   UNL A   1      39.102  30.323  29.805  1.00  0.00    -0.354 N 
ATOM     47  C   UNL A   1      42.630  28.789  31.794  1.00  0.00     0.074 A 
ATOM     48  C   UNL A   1      43.186  27.680  31.052  1.00  0.00     0.031 C 
ATOM     49  C   UNL A   1      37.528  30.397  28.218  1.00  0.00     0.029 A 
ATOM     50  C   UNL A   1      38.010  31.064  29.423  1.00  0.00     0.049 A 
ATOM     51  H   UNL A   1      39.687  30.572  30.555  1.00  0.00     0.167 HD
ATOM     52  C   UNL A   1      43.191  29.322  32.905  1.00  0.00     0.031 A 
ATOM     53  C   UNL A   1      37.439  32.130  30.012  1.00  0.00     0.031 A 
ATOM     54  C   UNL A   1      42.639  30.443  33.618  1.00  0.00     0.049 A 
ATOM     55  C   UNL A   1      38.023  32.652  31.295  1.00  0.00     0.074 A 
ATOM     56  C   UNL A   1      43.110  31.056  34.764  1.00  0.00     0.029 A 
ATOM     57  N   UNL A   1      41.492  31.123  33.239  1.00  0.00    -0.354 N 
ATOM     58  N   UNL A   1      39.089  32.246  31.942  1.00  0.00    -0.248 NA
ATOM     59  C   UNL A   1      37.316  33.769  31.935  1.00  0.00     0.031 C 
ATOM     60  C   UNL A   1      42.221  32.081  35.104  1.00  0.00     0.029 A 
ATOM     61  C   UNL A   1      41.228  32.142  34.138  1.00  0.00     0.049 A 
ATOM     62  H   UNL A   1      40.947  30.914  32.446  1.00  0.00     0.167 HD
ATOM     63  C   UNL A   1      39.194  33.071  33.055  1.00  0.00     0.074 A 
ATOM     64  C   UNL A   1      38.088  34.006  32.986  1.00  0.00     0.031 C 
ATOM     65  C   UNL A   1      40.120  33.057  34.045  1.00  0.00     0.031 A 
BRANCH  52  66
ATOM     66  C   UNL A   1      44.419  28.645  33.446  1.00  0.00    -0.014 A 
ATOM     67  C   UNL A   1      44.339  27.588  34.365  1.00  0.00     0.009 A 
ATOM     68  C   UNL A   1      45.684  29.093  33.034  1.00  0.00     0.009 A 
ATOM     69  C   UNL A   1      45.503  27.022  34.892  1.00  0.00     0.001 A 
ATOM     70  C   UNL A   1      46.845  28.507  33.540  1.00  0.00     0.001 A 
ATOM     71  C   UNL A   1      46.754  27.480  34.477  1.00  0.00     0.000 A 
ENDBRANCH  52  66
BRANCH  53  72
ATOM     72  C   UNL A   1      36.215  32.733  29.423  1.00  0.00    -0.014 A 
ATOM     73  C   UNL A   1      34.954  32.164  29.654  1.00  0.00     0.009 A 
ATOM     74  C   UNL A   1      36.302  33.891  28.633  1.00  0.00     0.009 A 
ATOM     75  C   UNL A   1      33.808  32.739  29.098  1.00  0.00     0.001 A 
ATOM     76  C   UNL A   1      35.152  34.479  28.102  1.00  0.00     0.001 A 
ATOM     77  C   UNL A   1      33.906  33.898  28.330  1.00  0.00     0.000 A 
ENDBRANCH  53  72
BRANCH  65  78
ATOM     78  C   UNL A   1      39.999  34.113  35.105  1.00  0.00    -0.014 A 
ATOM     79  C   UNL A   1      40.532  35.397  34.920  1.00  0.00     0.009 A 
ATOM     80  C   UNL A   1      39.305  33.825  36.291  1.00  0.00     0.009 A 
ATOM     81  C   UNL A   1      40.400  36.364  35.918  1.00  0.00     0.001 A 
ATOM     82  C   UNL A   1      39.152  34.802  37.275  1.00  0.00     0.001 A 
ATOM     83  C   UNL A   1      39.707  36.067  37.092  1.00  0.00     0.000 A 
ENDBRANCH  65  78
ENDBRANCH  39  40
ENDBRANCH  32  34
ENDBRANCH  31  32
ENDBRANCH  30  31
ENDBRANCH  29  30
ENDBRANCH  28  29
ENDBRANCH   1  28
TORSDOF 19
ENDMDL
MODEL 2
REMARK VINA RESULT:      -9.3      5.796     10.885
REMARK SMILES O=C(CCCc1nc(-c2ccc(Cl)c(Cl)c2)c(-c2ccccc2)o1)OCCOCCOC(=O)c1ccc(-c2c3nc(c(-c4ccccc4)c4ccc([nH]4)c(-c4ccccc4)c4nc(c(-c5ccccc5)c5ccc2[nH]5)C=C4)C=C3)cc1
REMARK SMILES IDX 27 1 26 2 25 3 2 4 1 5 3 6 4 7 5 8 6 9 7 10 24 11 8 12 17 13
REMARK SMILES IDX 9 14 10 15 16 16 11 17 14 18 12 19 15 20 13 21 18 22 19 23
REMARK SMILES IDX 23 24 20 25 22 26 21 27 28 28 29 29 30 30 31 31 32 32 33 33
REMARK SMILES IDX 34 34 35 35 81 36 36 37 80 38 37 39 38 40 39 41 74 42 40 43
REMARK SMILES IDX 79 44 73 45 75 46 41 47 78 48 72 49 71 50 42 52 64 53 49 54
REMARK SMILES IDX 63 55 50 56 53 57 62 58 76 59 51 60 52 61 61 63 77 64 54 65
REMARK SMILES IDX 43 66 44 67 48 68 45 69 47 70 46 71 65 72 66 73 70 74 67 75
REMARK SMILES IDX 69 76 68 77 55 78 56 79 60 80 57 81 59 82 58 83
REMARK H PARENT 75 51 53 62
REMARK Flexibility Score: inf
ROOT
ATOM      1  C   UNL A   1      33.598  28.384  26.575  1.00  0.00     0.202 C 
ENDROOT
BRANCH   1   2
ATOM      2  C   UNL A   1      33.141  28.730  25.163  1.00  0.00     0.261 C 
BRANCH   2   3
ATOM      3  O   UNL A   1      33.999  28.382  24.069  1.00  0.00    -0.463 OA
BRANCH   3   4
ATOM      4  C   UNL A   1      33.460  28.408  22.831  1.00  0.00     0.305 C 
ATOM      5  O   UNL A   1      34.143  28.237  21.827  1.00  0.00    -0.252 OA
BRANCH   4   6
ATOM      6  C   UNL A   1      31.965  28.645  22.793  1.00  0.00     0.123 C 
BRANCH   6   7
ATOM      7  C   UNL A   1      31.071  27.482  22.359  1.00  0.00     0.021 C 
BRANCH   7   8
ATOM      8  C   UNL A   1      30.501  26.546  23.434  1.00  0.00     0.098 C 
BRANCH   8   9
ATOM      9  C   UNL A   1      31.231  25.261  23.650  1.00  0.00     0.195 A 
ATOM     10  N   UNL A   1      30.805  24.021  23.501  1.00  0.00    -0.213 NA
ATOM     11  O   UNL A   1      32.573  25.367  23.959  1.00  0.00    -0.440 OA
ATOM     12  C   UNL A   1      31.920  23.260  23.767  1.00  0.00     0.117 A 
ATOM     13  C   UNL A   1      33.009  24.068  24.010  1.00  0.00     0.162 A 
BRANCH  12  14
ATOM     14  C   UNL A   1      32.000  21.824  23.641  1.00  0.00     0.006 A 
ATOM     15  C   UNL A   1      31.979  21.250  22.367  1.00  0.00     0.012 A 
ATOM     16  C   UNL A   1      32.228  21.019  24.766  1.00  0.00     0.032 A 
ATOM     17  C   UNL A   1      32.231  19.887  22.213  1.00  0.00     0.023 A 
ATOM     18  C   UNL A   1      32.485  19.654  24.611  1.00  0.00     0.060 A 
ATOM     19  C   UNL A   1      32.497  19.089  23.330  1.00  0.00     0.059 A 
ATOM     20  Cl  UNL A   1      32.815  18.732  26.035  1.00  0.00    -0.083 Cl
ATOM     21  Cl  UNL A   1      32.849  17.419  23.059  1.00  0.00    -0.083 Cl
ENDBRANCH  12  14
BRANCH  13  22
ATOM     22  C   UNL A   1      34.423  23.818  24.233  1.00  0.00     0.020 A 
ATOM     23  C   UNL A   1      34.973  23.987  25.506  1.00  0.00     0.012 A 
ATOM     24  C   UNL A   1      35.231  23.267  23.234  1.00  0.00     0.012 A 
ATOM     25  C   UNL A   1      36.314  23.704  25.772  1.00  0.00     0.001 A 
ATOM     26  C   UNL A   1      36.565  22.936  23.505  1.00  0.00     0.001 A 
ATOM     27  C   UNL A   1      37.112  23.174  24.767  1.00  0.00     0.000 A 
ENDBRANCH  13  22
ENDBRANCH   8   9
ENDBRANCH   7   8
ENDBRANCH   6   7
ENDBRANCH   4   6
ENDBRANCH   3   4
ENDBRANCH   2   3
ENDBRANCH   1   2
BRANCH   1  28
ATOM     28  O   UNL A   1      34.066  29.499  27.328  1.00  0.00    -0.374 OA
BRANCH  28  29
ATOM     29  C   UNL A   1      33.296  30.687  27.081  1.00  0.00     0.202 C 
BRANCH  29  30
ATOM     30  C   UNL A   1      33.941  31.970  27.621  1.00  0.00     0.261 C 
BRANCH  30  31
ATOM     31  O   UNL A   1      32.995  33.058  27.672  1.00  0.00    -0.460 OA
BRANCH  31  32
ATOM     32  C   UNL A   1      33.338  34.060  28.508  1.00  0.00     0.338 C 
ATOM     33  O   UNL A   1      32.680  35.066  28.772  1.00  0.00    -0.246 OA
BRANCH  32  34
ATOM     34  C   UNL A   1      34.565  33.727  29.252  1.00  0.00     0.060 A 
ATOM     35  C   UNL A   1      35.794  34.063  28.668  1.00  0.00     0.016 A 
ATOM     36  C   UNL A   1      34.530  33.006  30.442  1.00  0.00     0.016 A 
ATOM     37  C   UNL A   1      36.985  33.576  29.184  1.00  0.00     0.010 A 
ATOM     38  C   UNL A   1      35.733  32.545  30.987  1.00  0.00     0.010 A 
ATOM     39  C   UNL A   1      36.957  32.778  30.327  1.00  0.00    -0.014 A 
BRANCH  39  40
ATOM     40  C   UNL A   1      38.178  32.037  30.714  1.00  0.00     0.031 A 
ATOM     41  C   UNL A   1      39.034  32.597  31.815  1.00  0.00     0.074 A 
ATOM     42  C   UNL A   1      38.483  30.852  30.157  1.00  0.00     0.049 A 
ATOM     43  N   UNL A   1      40.225  32.231  32.209  1.00  0.00    -0.248 NA
ATOM     44  C   UNL A   1      38.468  33.728  32.570  1.00  0.00     0.031 C 
ATOM     45  C   UNL A   1      37.663  30.135  29.179  1.00  0.00     0.029 A 
ATOM     46  N   UNL A   1      39.571  30.040  30.344  1.00  0.00    -0.354 N 
ATOM     47  C   UNL A   1      40.573  33.123  33.217  1.00  0.00     0.074 A 
ATOM     48  C   UNL A   1      39.471  34.045  33.374  1.00  0.00     0.031 C 
ATOM     49  C   UNL A   1      38.276  28.985  28.857  1.00  0.00     0.029 A 
ATOM     50  C   UNL A   1      39.562  28.923  29.546  1.00  0.00     0.049 A 
ATOM     51  H   UNL A   1      40.287  30.237  30.990  1.00  0.00     0.167 HD
ATOM     52  C   UNL A   1      41.719  33.174  33.935  1.00  0.00     0.031 A 
ATOM     53  C   UNL A   1      40.508  27.986  29.357  1.00  0.00     0.031 A 
ATOM     54  C   UNL A   1      42.798  32.235  33.784  1.00  0.00     0.049 A 
ATOM     55  C   UNL A   1      41.812  28.110  30.096  1.00  0.00     0.074 A 
ATOM     56  C   UNL A   1      44.012  32.198  34.444  1.00  0.00     0.029 A 
ATOM     57  N   UNL A   1      42.780  31.156  32.914  1.00  0.00    -0.354 N 
ATOM     58  N   UNL A   1      42.176  29.005  30.983  1.00  0.00    -0.248 NA
ATOM     59  C   UNL A   1      42.838  27.103  29.797  1.00  0.00     0.031 C 
ATOM     60  C   UNL A   1      44.748  31.121  33.939  1.00  0.00     0.029 A 
ATOM     61  C   UNL A   1      43.969  30.455  33.005  1.00  0.00     0.049 A 
ATOM     62  H   UNL A   1      42.031  30.922  32.319  1.00  0.00     0.167 HD
ATOM     63  C   UNL A   1      43.466  28.658  31.365  1.00  0.00     0.074 A 
ATOM     64  C   UNL A   1      43.813  27.464  30.620  1.00  0.00     0.031 C 
ATOM     65  C   UNL A   1      44.289  29.271  32.251  1.00  0.00     0.031 A 
BRANCH  52  66
ATOM     66  C   UNL A   1      41.882  34.326  34.886  1.00  0.00    -0.014 A 
ATOM     67  C   UNL A   1      42.422  35.555  34.478  1.00  0.00     0.009 A 
ATOM     68  C   UNL A   1      41.499  34.165  36.228  1.00  0.00     0.009 A 
ATOM     69  C   UNL A   1      42.613  36.585  35.403  1.00  0.00     0.001 A 
ATOM     70  C   UNL A   1      41.664  35.205  37.143  1.00  0.00     0.001 A 
ATOM     71  C   UNL A   1      42.232  36.409  36.733  1.00  0.00     0.000 A 
ENDBRANCH  52  66
BRANCH  53  72
ATOM     72  C   UNL A   1      40.278  26.885  28.385  1.00  0.00    -0.014 A 
ATOM     73  C   UNL A   1      40.779  26.968  27.078  1.00  0.00     0.009 A 
ATOM     74  C   UNL A   1      39.561  25.739  28.766  1.00  0.00     0.009 A 
ATOM     75  C   UNL A   1      40.560  25.928  26.171  1.00  0.00     0.001 A 
ATOM     76  C   UNL A   1      39.367  24.690  27.865  1.00  0.00     0.001 A 
ATOM     77  C   UNL A   1      39.862  24.788  26.566  1.00  0.00     0.000 A 
ENDBRANCH  53  72
BRANCH  65  78
ATOM     78  C   UNL A   1      45.626  28.631  32.492  1.00  0.00    -0.014 A 
ATOM     79  C   UNL A   1      45.804  27.672  33.500  1.00  0.00     0.009 A 
ATOM     80  C   UNL A   1      46.711  28.968  31.669  1.00  0.00     0.009 A 
ATOM     81  C   UNL A   1      47.055  27.086  33.700  1.00  0.00     0.001 A 
ATOM     82  C   UNL A   1      47.954  28.362  31.854  1.00  0.00     0.001 A 
ATOM     83  C   UNL A   1      48.127  27.429  32.875  1.00  0.00     0.000 A 
ENDBRANCH  65  78
ENDBRANCH  39  40
ENDBRANCH  32  34
ENDBRANCH  31  32
ENDBRANCH  30  31
ENDBRANCH  29  30
ENDBRANCH  28  29
ENDBRANCH   1  28
TORSDOF 19
ENDMDL
MODEL 3
REMARK VINA RESULT:      -8.9      5.768     10.978
REMARK SMILES O=C(CCCc1nc(-c2ccc(Cl)c(Cl)c2)c(-c2ccccc2)o1)OCCOCCOC(=O)c1ccc(-c2c3nc(c(-c4ccccc4)c4ccc([nH]4)c(-c4ccccc4)c4nc(c(-c5ccccc5)c5ccc2[nH]5)C=C4)C=C3)cc1
REMARK SMILES IDX 27 1 26 2 25 3 2 4 1 5 3 6 4 7 5 8 6 9 7 10 24 11 8 12 17 13
REMARK SMILES IDX 9 14 10 15 16 16 11 17 14 18 12 19 15 20 13 21 18 22 19 23
REMARK SMILES IDX 23 24 20 25 22 26 21 27 28 28 29 29 30 30 31 31 32 32 33 33
REMARK SMILES IDX 34 34 35 35 81 36 36 37 80 38 37 39 38 40 39 41 74 42 40 43
REMARK SMILES IDX 79 44 73 45 75 46 41 47 78 48 72 49 71 50 42 52 64 53 49 54
REMARK SMILES IDX 63 55 50 56 53 57 62 58 76 59 51 60 52 61 61 63 77 64 54 65
REMARK SMILES IDX 43 66 44 67 48 68 45 69 47 70 46 71 65 72 66 73 70 74 67 75
REMARK SMILES IDX 69 76 68 77 55 78 56 79 60 80 57 81 59 82 58 83
REMARK H PARENT 75 51 53 62
REMARK Flexibility Score: inf
ROOT
ATOM      1  C   UNL A   1      33.030  28.262  27.112  1.00  0.00     0.202 C 
ENDROOT
BRANCH   1   2
ATOM      2  C   UNL A   1      33.803  28.121  25.806  1.00  0.00     0.261 C 
BRANCH   2   3
ATOM      3  O   UNL A   1      33.156  27.472  24.703  1.00  0.00    -0.463 OA
BRANCH   3   4
ATOM      4  C   UNL A   1      32.223  28.181  24.032  1.00  0.00     0.305 C 
ATOM      5  O   UNL A   1      32.524  29.145  23.335  1.00  0.00    -0.252 OA
BRANCH   4   6
ATOM      6  C   UNL A   1      30.804  27.681  24.198  1.00  0.00     0.123 C 
BRANCH   6   7
ATOM      7  C   UNL A   1      30.489  26.263  23.717  1.00  0.00     0.021 C 
BRANCH   7   8
ATOM      8  C   UNL A   1      30.187  25.178  24.760  1.00  0.00     0.098 C 
BRANCH   8   9
ATOM      9  C   UNL A   1      31.160  24.048  24.843  1.00  0.00     0.195 A 
ATOM     10  N   UNL A   1      30.942  22.748  24.777  1.00  0.00    -0.213 NA
ATOM     11  O   UNL A   1      32.495  24.397  24.902  1.00  0.00    -0.440 OA
ATOM     12  C   UNL A   1      32.202  22.203  24.838  1.00  0.00     0.117 A 
ATOM     13  C   UNL A   1      33.156  23.196  24.876  1.00  0.00     0.162 A 
BRANCH  12  14
ATOM     14  C   UNL A   1      32.513  20.800  24.703  1.00  0.00     0.006 A 
ATOM     15  C   UNL A   1      32.787  20.050  25.849  1.00  0.00     0.012 A 
ATOM     16  C   UNL A   1      32.416  20.162  23.458  1.00  0.00     0.032 A 
ATOM     17  C   UNL A   1      32.916  18.664  25.761  1.00  0.00     0.023 A 
ATOM     18  C   UNL A   1      32.540  18.772  23.371  1.00  0.00     0.060 A 
ATOM     19  C   UNL A   1      32.780  18.021  24.526  1.00  0.00     0.059 A 
ATOM     20  Cl  UNL A   1      32.351  18.046  21.814  1.00  0.00    -0.083 Cl
ATOM     21  Cl  UNL A   1      32.903  16.298  24.500  1.00  0.00    -0.083 Cl
ENDBRANCH  12  14
BRANCH  13  22
ATOM     22  C   UNL A   1      34.610  23.204  24.838  1.00  0.00     0.020 A 
ATOM     23  C   UNL A   1      35.280  23.035  23.624  1.00  0.00     0.012 A 
ATOM     24  C   UNL A   1      35.365  23.526  25.969  1.00  0.00     0.012 A 
ATOM     25  C   UNL A   1      36.672  23.092  23.538  1.00  0.00     0.001 A 
ATOM     26  C   UNL A   1      36.760  23.632  25.882  1.00  0.00     0.001 A 
ATOM     27  C   UNL A   1      37.414  23.395  24.673  1.00  0.00     0.000 A 
ENDBRANCH  13  22
ENDBRANCH   8   9
ENDBRANCH   7   8
ENDBRANCH   6   7
ENDBRANCH   4   6
ENDBRANCH   3   4
ENDBRANCH   2   3
ENDBRANCH   1   2
BRANCH   1  28
ATOM     28  O   UNL A   1      33.236  29.502  27.782  1.00  0.00    -0.374 OA
BRANCH  28  29
ATOM     29  C   UNL A   1      33.436  30.592  26.867  1.00  0.00     0.202 C 
BRANCH  29  30
ATOM     30  C   UNL A   1      32.693  31.876  27.256  1.00  0.00     0.261 C 
BRANCH  30  31
ATOM     31  O   UNL A   1      33.565  33.024  27.222  1.00  0.00    -0.460 OA
BRANCH  31  32
ATOM     32  C   UNL A   1      33.478  33.826  28.305  1.00  0.00     0.338 C 
ATOM     33  O   UNL A   1      32.522  34.529  28.634  1.00  0.00    -0.246 OA
BRANCH  32  34
ATOM     34  C   UNL A   1      34.631  33.630  29.200  1.00  0.00     0.060 A 
ATOM     35  C   UNL A   1      35.855  34.200  28.822  1.00  0.00     0.016 A 
ATOM     36  C   UNL A   1      34.557  32.818  30.327  1.00  0.00     0.016 A 
ATOM     37  C   UNL A   1      37.029  33.865  29.477  1.00  0.00     0.010 A 
ATOM     38  C   UNL A   1      35.735  32.508  31.015  1.00  0.00     0.010 A 
ATOM     39  C   UNL A   1      36.981  32.982  30.555  1.00  0.00    -0.014 A 
BRANCH  39  40
ATOM     40  C   UNL A   1      38.245  32.412  31.072  1.00  0.00     0.031 A 
ATOM     41  C   UNL A   1      38.828  31.217  30.371  1.00  0.00     0.074 A 
ATOM     42  C   UNL A   1      38.904  32.985  32.093  1.00  0.00     0.049 A 
ATOM     43  N   UNL A   1      39.816  30.443  30.732  1.00  0.00    -0.248 NA
ATOM     44  C   UNL A   1      38.206  30.845  29.088  1.00  0.00     0.031 C 
ATOM     45  C   UNL A   1      38.517  34.225  32.768  1.00  0.00     0.029 A 
ATOM     46  N   UNL A   1      40.050  32.596  32.736  1.00  0.00    -0.354 N 
ATOM     47  C   UNL A   1      39.895  29.459  29.753  1.00  0.00     0.074 A 
ATOM     48  C   UNL A   1      38.859  29.734  28.784  1.00  0.00     0.031 C 
ATOM     49  C   UNL A   1      39.415  34.497  33.728  1.00  0.00     0.029 A 
ATOM     50  C   UNL A   1      40.392  33.414  33.784  1.00  0.00     0.049 A 
ATOM     51  H   UNL A   1      40.577  31.808  32.472  1.00  0.00     0.167 HD
ATOM     52  C   UNL A   1      40.750  28.412  29.680  1.00  0.00     0.031 A 
ATOM     53  C   UNL A   1      41.356  33.275  34.712  1.00  0.00     0.031 A 
ATOM     54  C   UNL A   1      41.792  28.165  30.640  1.00  0.00     0.049 A 
ATOM     55  C   UNL A   1      42.238  32.058  34.669  1.00  0.00     0.074 A 
ATOM     56  C   UNL A   1      42.705  27.127  30.678  1.00  0.00     0.029 A 
ATOM     57  N   UNL A   1      42.064  28.980  31.728  1.00  0.00    -0.354 N 
ATOM     58  N   UNL A   1      42.254  31.081  33.793  1.00  0.00    -0.248 NA
ATOM     59  C   UNL A   1      43.223  31.917  35.749  1.00  0.00     0.031 C 
ATOM     60  C   UNL A   1      43.501  27.291  31.816  1.00  0.00     0.029 A 
ATOM     61  C   UNL A   1      43.120  28.461  32.456  1.00  0.00     0.049 A 
ATOM     62  H   UNL A   1      41.578  29.807  31.949  1.00  0.00     0.167 HD
ATOM     63  C   UNL A   1      43.263  30.220  34.204  1.00  0.00     0.074 A 
ATOM     64  C   UNL A   1      43.843  30.798  35.400  1.00  0.00     0.031 C 
ATOM     65  C   UNL A   1      43.675  29.056  33.643  1.00  0.00     0.031 A 
BRANCH  52  66
ATOM     66  C   UNL A   1      40.533  27.426  28.567  1.00  0.00    -0.014 A 
ATOM     67  C   UNL A   1      39.691  26.313  28.715  1.00  0.00     0.009 A 
ATOM     68  C   UNL A   1      41.204  27.612  27.348  1.00  0.00     0.009 A 
ATOM     69  C   UNL A   1      39.560  25.385  27.678  1.00  0.00     0.001 A 
ATOM     70  C   UNL A   1      41.049  26.700  26.304  1.00  0.00     0.001 A 
ATOM     71  C   UNL A   1      40.236  25.580  26.475  1.00  0.00     0.000 A 
ENDBRANCH  52  66
BRANCH  53  72
ATOM     72  C   UNL A   1      41.496  34.287  35.793  1.00  0.00    -0.014 A 
ATOM     73  C   UNL A   1      40.781  34.156  36.992  1.00  0.00     0.009 A 
ATOM     74  C   UNL A   1      42.356  35.385  35.631  1.00  0.00     0.009 A 
ATOM     75  C   UNL A   1      40.919  35.110  38.004  1.00  0.00     0.001 A 
ATOM     76  C   UNL A   1      42.512  36.322  36.655  1.00  0.00     0.001 A 
ATOM     77  C   UNL A   1      41.789  36.187  37.838  1.00  0.00     0.000 A 
ENDBRANCH  53  72
BRANCH  65  78
ATOM     78  C   UNL A   1      44.835  28.360  34.295  1.00  0.00    -0.014 A 
ATOM     79  C   UNL A   1      46.158  28.738  34.025  1.00  0.00     0.009 A 
ATOM     80  C   UNL A   1      44.591  27.336  35.223  1.00  0.00     0.009 A 
ATOM     81  C   UNL A   1      47.219  28.080  34.650  1.00  0.00     0.001 A 
ATOM     82  C   UNL A   1      45.653  26.697  35.865  1.00  0.00     0.001 A 
ATOM     83  C   UNL A   1      46.965  27.063  35.572  1.00  0.00     0.000 A 
ENDBRANCH  65  78
ENDBRANCH  39  40
ENDBRANCH  32  34
ENDBRANCH  31  32
ENDBRANCH  30  31
ENDBRANCH  29  30
ENDBRANCH  28  29
ENDBRANCH   1  28
TORSDOF 19
ENDMDL
