MODEL 1
REMARK VINA RESULT:      -9.3      0.000      0.000
REMARK SMILES C[NH2+][C@]1(C(=O)OCCOCCOC(=O)c2ccc(-c3c4nc(c(-c5ccccc5)c5ccc([nH]5)c(-c5ccccc5)c5nc(c(-c6ccccc6)c6ccc3[nH]6)C=C5)C=C4)cc2)CCC[C@@H](Sc2nccn2C)C1
REMARK SMILES IDX 9 1 8 2 7 3 6 4 4 5 5 6 3 7 63 8 74 9 64 10 66 11 65 12 2 13
REMARK SMILES IDX 1 14 67 17 68 18 69 19 72 20 70 21 71 22 73 23 10 24 11 25
REMARK SMILES IDX 12 26 13 27 14 28 15 29 16 30 62 31 17 32 61 33 18 34 19 35
REMARK SMILES IDX 20 36 55 37 21 38 60 39 54 40 56 41 22 42 59 43 53 44 52 45
REMARK SMILES IDX 23 47 45 48 30 49 44 50 31 51 34 52 43 53 57 54 32 55 33 56
REMARK SMILES IDX 42 58 58 59 35 60 24 61 25 62 29 63 26 64 28 65 27 66 46 67
REMARK SMILES IDX 47 68 51 69 48 70 50 71 49 72 36 73 37 74 41 75 38 76 40 77
REMARK SMILES IDX 39 78
REMARK H PARENT 2 15 2 16 56 46 34 57
REMARK Flexibility Score: inf
ROOT
ATOM      1  O   UNL A   1      37.259  22.033  25.640  1.00  0.00    -0.374 OA
ENDROOT
BRANCH   1   2
ATOM      2  C   UNL A   1      36.672  21.212  24.631  1.00  0.00     0.202 C 
BRANCH   2   3
ATOM      3  C   UNL A   1      35.409  20.438  25.023  1.00  0.00     0.261 C 
BRANCH   3   4
ATOM      4  O   UNL A   1      34.398  21.296  25.580  1.00  0.00    -0.459 OA
BRANCH   4   5
ATOM      5  C   UNL A   1      33.131  21.077  25.132  1.00  0.00     0.368 C 
ATOM      6  O   UNL A   1      32.680  19.973  24.836  1.00  0.00    -0.245 OA
BRANCH   5   7
ATOM      7  C   UNL A   1      32.277  22.384  25.039  1.00  0.00     0.195 C 
ATOM      8  C   UNL A   1      31.126  22.409  26.080  1.00  0.00     0.081 C 
ATOM      9  C   UNL A   1      33.256  23.532  25.355  1.00  0.00     0.096 C 
ATOM     10  C   UNL A   1      30.416  23.756  26.216  1.00  0.00     0.008 C 
ATOM     11  C   UNL A   1      32.550  24.890  25.421  1.00  0.00     0.061 C 
ATOM     12  C   UNL A   1      31.394  24.904  26.432  1.00  0.00     0.015 C 
BRANCH   7  13
ATOM     13  N   UNL A   1      31.898  22.544  23.601  1.00  0.00    -0.335 N 
ATOM     14  C   UNL A   1      32.937  22.681  22.605  1.00  0.00     0.331 C 
ATOM     15  H   UNL A   1      31.347  21.724  23.346  1.00  0.00     0.347 HD
ATOM     16  H   UNL A   1      31.421  23.445  23.577  1.00  0.00     0.347 HD
ENDBRANCH   7  13
BRANCH  11  17
ATOM     17  S   UNL A   1      33.736  26.253  25.733  1.00  0.00    -0.084 SA
BRANCH  17  18
ATOM     18  C   UNL A   1      33.604  27.183  24.279  1.00  0.00     0.167 A 
ATOM     19  N   UNL A   1      33.733  26.702  23.063  1.00  0.00    -0.231 NA
ATOM     20  N   UNL A   1      33.408  28.537  24.265  1.00  0.00    -0.329 N 
ATOM     21  C   UNL A   1      33.627  27.782  22.229  1.00  0.00     0.132 A 
ATOM     22  C   UNL A   1      33.431  28.934  22.951  1.00  0.00     0.108 A 
ATOM     23  C   UNL A   1      33.238  29.440  25.376  1.00  0.00     0.152 C 
ENDBRANCH  17  18
ENDBRANCH  11  17
ENDBRANCH   5   7
ENDBRANCH   4   5
ENDBRANCH   3   4
ENDBRANCH   2   3
ENDBRANCH   1   2
BRANCH   1  24
ATOM     24  C   UNL A   1      38.615  21.769  25.994  1.00  0.00     0.202 C 
BRANCH  24  25
ATOM     25  C   UNL A   1      39.244  20.511  25.386  1.00  0.00     0.261 C 
BRANCH  25  26
ATOM     26  O   UNL A   1      40.108  19.842  26.324  1.00  0.00    -0.460 OA
BRANCH  26  27
ATOM     27  C   UNL A   1      41.421  19.880  26.006  1.00  0.00     0.338 C 
ATOM     28  O   UNL A   1      42.033  19.098  25.284  1.00  0.00    -0.246 OA
BRANCH  27  29
ATOM     29  C   UNL A   1      42.041  21.115  26.514  1.00  0.00     0.060 A 
ATOM     30  C   UNL A   1      41.989  21.338  27.896  1.00  0.00     0.016 A 
ATOM     31  C   UNL A   1      42.580  22.080  25.660  1.00  0.00     0.016 A 
ATOM     32  C   UNL A   1      42.415  22.553  28.424  1.00  0.00     0.010 A 
ATOM     33  C   UNL A   1      43.000  23.305  26.192  1.00  0.00     0.010 A 
ATOM     34  C   UNL A   1      42.878  23.562  27.570  1.00  0.00    -0.014 A 
BRANCH  34  35
ATOM     35  C   UNL A   1      43.073  24.929  28.106  1.00  0.00     0.031 A 
ATOM     36  C   UNL A   1      44.462  25.378  28.474  1.00  0.00     0.074 A 
ATOM     37  C   UNL A   1      42.040  25.783  28.216  1.00  0.00     0.049 A 
ATOM     38  N   UNL A   1      44.863  26.528  28.952  1.00  0.00    -0.248 NA
ATOM     39  C   UNL A   1      45.542  24.398  28.272  1.00  0.00     0.031 C 
ATOM     40  C   UNL A   1      40.656  25.490  27.846  1.00  0.00     0.029 A 
ATOM     41  N   UNL A   1      42.003  27.078  28.669  1.00  0.00    -0.354 N 
ATOM     42  C   UNL A   1      46.239  26.410  29.109  1.00  0.00     0.074 A 
ATOM     43  C   UNL A   1      46.599  25.068  28.705  1.00  0.00     0.031 C 
ATOM     44  C   UNL A   1      39.901  26.575  28.093  1.00  0.00     0.029 A 
ATOM     45  C   UNL A   1      40.745  27.626  28.661  1.00  0.00     0.049 A 
ATOM     46  H   UNL A   1      42.802  27.566  28.972  1.00  0.00     0.167 HD
ATOM     47  C   UNL A   1      47.125  27.336  29.544  1.00  0.00     0.031 A 
ATOM     48  C   UNL A   1      40.319  28.834  29.080  1.00  0.00     0.031 A 
ATOM     49  C   UNL A   1      46.771  28.666  29.960  1.00  0.00     0.049 A 
ATOM     50  C   UNL A   1      41.312  29.819  29.636  1.00  0.00     0.074 A 
ATOM     51  C   UNL A   1      47.600  29.678  30.410  1.00  0.00     0.029 A 
ATOM     52  N   UNL A   1      45.479  29.166  29.982  1.00  0.00    -0.354 N 
ATOM     53  N   UNL A   1      42.612  29.701  29.762  1.00  0.00    -0.248 NA
ATOM     54  C   UNL A   1      40.777  31.108  30.099  1.00  0.00     0.031 C 
ATOM     55  C   UNL A   1      46.803  30.776  30.752  1.00  0.00     0.029 A 
ATOM     56  C   UNL A   1      45.484  30.464  30.463  1.00  0.00     0.049 A 
ATOM     57  H   UNL A   1      44.677  28.671  29.698  1.00  0.00     0.167 HD
ATOM     58  C   UNL A   1      43.052  30.906  30.295  1.00  0.00     0.074 A 
ATOM     59  C   UNL A   1      41.883  31.746  30.455  1.00  0.00     0.031 C 
ATOM     60  C   UNL A   1      44.312  31.285  30.620  1.00  0.00     0.031 A 
BRANCH  47  61
ATOM     61  C   UNL A   1      48.568  26.925  29.622  1.00  0.00    -0.014 A 
ATOM     62  C   UNL A   1      49.420  27.046  28.513  1.00  0.00     0.009 A 
ATOM     63  C   UNL A   1      49.087  26.433  30.830  1.00  0.00     0.009 A 
ATOM     64  C   UNL A   1      50.758  26.654  28.605  1.00  0.00     0.001 A 
ATOM     65  C   UNL A   1      50.430  26.066  30.926  1.00  0.00     0.001 A 
ATOM     66  C   UNL A   1      51.262  26.168  29.811  1.00  0.00     0.000 A 
ENDBRANCH  47  61
BRANCH  48  67
ATOM     67  C   UNL A   1      38.874  29.176  29.014  1.00  0.00    -0.014 A 
ATOM     68  C   UNL A   1      38.319  29.717  27.846  1.00  0.00     0.009 A 
ATOM     69  C   UNL A   1      38.048  28.976  30.132  1.00  0.00     0.009 A 
ATOM     70  C   UNL A   1      36.968  30.073  27.806  1.00  0.00     0.001 A 
ATOM     71  C   UNL A   1      36.693  29.307  30.080  1.00  0.00     0.001 A 
ATOM     72  C   UNL A   1      36.156  29.864  28.921  1.00  0.00     0.000 A 
ENDBRANCH  48  67
BRANCH  60  73
ATOM     73  C   UNL A   1      44.497  32.678  31.153  1.00  0.00    -0.014 A 
ATOM     74  C   UNL A   1      44.409  32.949  32.527  1.00  0.00     0.009 A 
ATOM     75  C   UNL A   1      44.807  33.724  30.270  1.00  0.00     0.009 A 
ATOM     76  C   UNL A   1      44.598  34.249  33.003  1.00  0.00     0.001 A 
ATOM     77  C   UNL A   1      45.021  35.016  30.751  1.00  0.00     0.001 A 
ATOM     78  C   UNL A   1      44.908  35.280  32.115  1.00  0.00     0.000 A 
ENDBRANCH  60  73
ENDBRANCH  34  35
ENDBRANCH  27  29
ENDBRANCH  26  27
ENDBRANCH  25  26
ENDBRANCH  24  25
ENDBRANCH   1  24
TORSDOF 17
ENDMDL
MODEL 2
REMARK VINA RESULT:      -9.2      1.383      6.178
REMARK SMILES C[NH2+][C@]1(C(=O)OCCOCCOC(=O)c2ccc(-c3c4nc(c(-c5ccccc5)c5ccc([nH]5)c(-c5ccccc5)c5nc(c(-c6ccccc6)c6ccc3[nH]6)C=C5)C=C4)cc2)CCC[C@@H](Sc2nccn2C)C1
REMARK SMILES IDX 9 1 8 2 7 3 6 4 4 5 5 6 3 7 63 8 74 9 64 10 66 11 65 12 2 13
REMARK SMILES IDX 1 14 67 17 68 18 69 19 72 20 70 21 71 22 73 23 10 24 11 25
REMARK SMILES IDX 12 26 13 27 14 28 15 29 16 30 62 31 17 32 61 33 18 34 19 35
REMARK SMILES IDX 20 36 55 37 21 38 60 39 54 40 56 41 22 42 59 43 53 44 52 45
REMARK SMILES IDX 23 47 45 48 30 49 44 50 31 51 34 52 43 53 57 54 32 55 33 56
REMARK SMILES IDX 42 58 58 59 35 60 24 61 25 62 29 63 26 64 28 65 27 66 46 67
REMARK SMILES IDX 47 68 51 69 48 70 50 71 49 72 36 73 37 74 41 75 38 76 40 77
REMARK SMILES IDX 39 78
REMARK H PARENT 2 15 2 16 56 46 34 57
REMARK Flexibility Score: inf
ROOT
ATOM      1  O   UNL A   1      36.400  22.042  25.753  1.00  0.00    -0.374 OA
ENDROOT
BRANCH   1   2
ATOM      2  C   UNL A   1      35.842  20.883  25.136  1.00  0.00     0.202 C 
BRANCH   2   3
ATOM      3  C   UNL A   1      34.417  21.015  24.586  1.00  0.00     0.261 C 
BRANCH   3   4
ATOM      4  O   UNL A   1      33.755  22.195  25.072  1.00  0.00    -0.459 OA
BRANCH   4   5
ATOM      5  C   UNL A   1      33.538  23.169  24.146  1.00  0.00     0.368 C 
ATOM      6  O   UNL A   1      33.947  23.131  22.988  1.00  0.00    -0.245 OA
BRANCH   5   7
ATOM      7  C   UNL A   1      32.689  24.362  24.697  1.00  0.00     0.195 C 
ATOM      8  C   UNL A   1      33.168  24.829  26.096  1.00  0.00     0.081 C 
ATOM      9  C   UNL A   1      32.904  25.511  23.690  1.00  0.00     0.096 C 
ATOM     10  C   UNL A   1      32.555  26.144  26.577  1.00  0.00     0.008 C 
ATOM     11  C   UNL A   1      32.227  26.808  24.144  1.00  0.00     0.061 C 
ATOM     12  C   UNL A   1      32.684  27.253  25.541  1.00  0.00     0.015 C 
BRANCH   7  13
ATOM     13  N   UNL A   1      31.254  23.959  24.568  1.00  0.00    -0.335 N 
ATOM     14  C   UNL A   1      30.682  23.785  23.251  1.00  0.00     0.331 C 
ATOM     15  H   UNL A   1      31.150  23.071  25.057  1.00  0.00     0.347 HD
ATOM     16  H   UNL A   1      30.745  24.757  24.947  1.00  0.00     0.347 HD
ENDBRANCH   7  13
BRANCH  11  17
ATOM     17  S   UNL A   1      32.437  28.147  22.908  1.00  0.00    -0.084 SA
BRANCH  17  18
ATOM     18  C   UNL A   1      30.862  28.865  22.888  1.00  0.00     0.167 A 
ATOM     19  N   UNL A   1      29.950  28.655  21.967  1.00  0.00    -0.231 NA
ATOM     20  N   UNL A   1      30.438  29.779  23.814  1.00  0.00    -0.329 N 
ATOM     21  C   UNL A   1      28.899  29.467  22.298  1.00  0.00     0.132 A 
ATOM     22  C   UNL A   1      29.180  30.180  23.438  1.00  0.00     0.108 A 
ATOM     23  C   UNL A   1      31.137  30.294  24.965  1.00  0.00     0.152 C 
ENDBRANCH  17  18
ENDBRANCH  11  17
ENDBRANCH   5   7
ENDBRANCH   4   5
ENDBRANCH   3   4
ENDBRANCH   2   3
ENDBRANCH   1   2
BRANCH   1  24
ATOM     24  C   UNL A   1      37.821  22.161  25.762  1.00  0.00     0.202 C 
BRANCH  24  25
ATOM     25  C   UNL A   1      38.610  20.922  25.325  1.00  0.00     0.261 C 
BRANCH  25  26
ATOM     26  O   UNL A   1      39.293  20.309  26.434  1.00  0.00    -0.460 OA
BRANCH  26  27
ATOM     27  C   UNL A   1      40.611  20.089  26.232  1.00  0.00     0.338 C 
ATOM     28  O   UNL A   1      41.124  19.145  25.640  1.00  0.00    -0.246 OA
BRANCH  27  29
ATOM     29  C   UNL A   1      41.404  21.246  26.682  1.00  0.00     0.060 A 
ATOM     30  C   UNL A   1      41.441  21.501  28.059  1.00  0.00     0.016 A 
ATOM     31  C   UNL A   1      42.021  22.118  25.781  1.00  0.00     0.016 A 
ATOM     32  C   UNL A   1      42.039  22.664  28.537  1.00  0.00     0.010 A 
ATOM     33  C   UNL A   1      42.614  23.291  26.264  1.00  0.00     0.010 A 
ATOM     34  C   UNL A   1      42.587  23.588  27.638  1.00  0.00    -0.014 A 
BRANCH  34  35
ATOM     35  C   UNL A   1      42.975  24.931  28.131  1.00  0.00     0.031 A 
ATOM     36  C   UNL A   1      41.904  25.967  28.342  1.00  0.00     0.074 A 
ATOM     37  C   UNL A   1      44.253  25.213  28.439  1.00  0.00     0.049 A 
ATOM     38  N   UNL A   1      42.015  27.199  28.770  1.00  0.00    -0.248 NA
ATOM     39  C   UNL A   1      40.525  25.558  28.031  1.00  0.00     0.031 C 
ATOM     40  C   UNL A   1      45.376  24.282  28.328  1.00  0.00     0.029 A 
ATOM     41  N   UNL A   1      44.817  26.370  28.913  1.00  0.00    -0.354 N 
ATOM     42  C   UNL A   1      40.723  27.711  28.779  1.00  0.00     0.074 A 
ATOM     43  C   UNL A   1      39.850  26.669  28.284  1.00  0.00     0.031 C 
ATOM     44  C   UNL A   1      46.499  24.908  28.720  1.00  0.00     0.029 A 
ATOM     45  C   UNL A   1      46.177  26.288  29.082  1.00  0.00     0.049 A 
ATOM     46  H   UNL A   1      44.297  27.181  29.112  1.00  0.00     0.167 HD
ATOM     47  C   UNL A   1      40.299  28.936  29.169  1.00  0.00     0.031 A 
ATOM     48  C   UNL A   1      47.064  27.225  29.470  1.00  0.00     0.031 A 
ATOM     49  C   UNL A   1      41.165  29.980  29.648  1.00  0.00     0.049 A 
ATOM     50  C   UNL A   1      46.579  28.605  29.822  1.00  0.00     0.074 A 
ATOM     51  C   UNL A   1      40.826  31.253  30.073  1.00  0.00     0.029 A 
ATOM     52  N   UNL A   1      42.541  29.872  29.759  1.00  0.00    -0.354 N 
ATOM     53  N   UNL A   1      45.353  29.071  29.843  1.00  0.00    -0.248 NA
ATOM     54  C   UNL A   1      47.601  29.587  30.212  1.00  0.00     0.031 C 
ATOM     55  C   UNL A   1      42.006  31.933  30.395  1.00  0.00     0.029 A 
ATOM     56  C   UNL A   1      43.072  31.065  30.220  1.00  0.00     0.049 A 
ATOM     57  H   UNL A   1      43.064  29.067  29.541  1.00  0.00     0.167 HD
ATOM     58  C   UNL A   1      45.454  30.389  30.271  1.00  0.00     0.074 A 
ATOM     59  C   UNL A   1      46.860  30.645  30.511  1.00  0.00     0.031 C 
ATOM     60  C   UNL A   1      44.472  31.304  30.451  1.00  0.00     0.031 A 
BRANCH  47  61
ATOM     61  C   UNL A   1      38.828  29.222  29.061  1.00  0.00    -0.014 A 
ATOM     62  C   UNL A   1      37.975  29.074  30.166  1.00  0.00     0.009 A 
ATOM     63  C   UNL A   1      38.295  29.671  27.843  1.00  0.00     0.009 A 
ATOM     64  C   UNL A   1      36.609  29.342  30.043  1.00  0.00     0.001 A 
ATOM     65  C   UNL A   1      36.934  29.961  27.730  1.00  0.00     0.001 A 
ATOM     66  C   UNL A   1      36.091  29.787  28.828  1.00  0.00     0.000 A 
ENDBRANCH  47  61
BRANCH  48  67
ATOM     67  C   UNL A   1      48.513  26.899  29.525  1.00  0.00    -0.014 A 
ATOM     68  C   UNL A   1      49.342  27.127  28.416  1.00  0.00     0.009 A 
ATOM     69  C   UNL A   1      49.068  26.340  30.687  1.00  0.00     0.009 A 
ATOM     70  C   UNL A   1      50.695  26.779  28.464  1.00  0.00     0.001 A 
ATOM     71  C   UNL A   1      50.426  26.019  30.740  1.00  0.00     0.001 A 
ATOM     72  C   UNL A   1      51.235  26.230  29.626  1.00  0.00     0.000 A 
ENDBRANCH  48  67
BRANCH  60  73
ATOM     73  C   UNL A   1      44.878  32.659  30.961  1.00  0.00    -0.014 A 
ATOM     74  C   UNL A   1      45.182  33.708  30.078  1.00  0.00     0.009 A 
ATOM     75  C   UNL A   1      44.913  32.899  32.343  1.00  0.00     0.009 A 
ATOM     76  C   UNL A   1      45.544  34.962  30.573  1.00  0.00     0.001 A 
ATOM     77  C   UNL A   1      45.249  34.162  32.834  1.00  0.00     0.001 A 
ATOM     78  C   UNL A   1      45.572  35.189  31.950  1.00  0.00     0.000 A 
ENDBRANCH  60  73
ENDBRANCH  34  35
ENDBRANCH  27  29
ENDBRANCH  26  27
ENDBRANCH  25  26
ENDBRANCH  24  25
ENDBRANCH   1  24
TORSDOF 17
ENDMDL
MODEL 3
REMARK VINA RESULT:      -9.1      3.810      5.439
REMARK SMILES C[NH2+][C@]1(C(=O)OCCOCCOC(=O)c2ccc(-c3c4nc(c(-c5ccccc5)c5ccc([nH]5)c(-c5ccccc5)c5nc(c(-c6ccccc6)c6ccc3[nH]6)C=C5)C=C4)cc2)CCC[C@@H](Sc2nccn2C)C1
REMARK SMILES IDX 9 1 8 2 7 3 6 4 4 5 5 6 3 7 63 8 74 9 64 10 66 11 65 12 2 13
REMARK SMILES IDX 1 14 67 17 68 18 69 19 72 20 70 21 71 22 73 23 10 24 11 25
REMARK SMILES IDX 12 26 13 27 14 28 15 29 16 30 62 31 17 32 61 33 18 34 19 35
REMARK SMILES IDX 20 36 55 37 21 38 60 39 54 40 56 41 22 42 59 43 53 44 52 45
REMARK SMILES IDX 23 47 45 48 30 49 44 50 31 51 34 52 43 53 57 54 32 55 33 56
REMARK SMILES IDX 42 58 58 59 35 60 24 61 25 62 29 63 26 64 28 65 27 66 46 67
REMARK SMILES IDX 47 68 51 69 48 70 50 71 49 72 36 73 37 74 41 75 38 76 40 77
REMARK SMILES IDX 39 78
REMARK H PARENT 2 15 2 16 56 46 34 57
REMARK Flexibility Score: inf
ROOT
ATOM      1  O   UNL A   1      42.272  21.519  25.765  1.00  0.00    -0.374 OA
ENDROOT
BRANCH   1   2
ATOM      2  C   UNL A   1      41.132  22.323  26.064  1.00  0.00     0.202 C 
BRANCH   2   3
ATOM      3  C   UNL A   1      39.888  21.588  26.576  1.00  0.00     0.261 C 
BRANCH   3   4
ATOM      4  O   UNL A   1      38.803  21.636  25.633  1.00  0.00    -0.459 OA
BRANCH   4   5
ATOM      5  C   UNL A   1      37.880  22.612  25.850  1.00  0.00     0.368 C 
ATOM      6  O   UNL A   1      38.122  23.689  26.391  1.00  0.00    -0.245 OA
BRANCH   5   7
ATOM      7  C   UNL A   1      36.455  22.240  25.323  1.00  0.00     0.195 C 
ATOM      8  C   UNL A   1      36.316  20.724  25.024  1.00  0.00     0.081 C 
ATOM      9  C   UNL A   1      35.490  22.609  26.468  1.00  0.00     0.096 C 
ATOM     10  C   UNL A   1      34.887  20.253  24.753  1.00  0.00     0.008 C 
ATOM     11  C   UNL A   1      34.047  22.198  26.161  1.00  0.00     0.061 C 
ATOM     12  C   UNL A   1      33.917  20.702  25.838  1.00  0.00     0.015 C 
BRANCH   7  13
ATOM     13  N   UNL A   1      36.154  23.185  24.204  1.00  0.00    -0.335 N 
ATOM     14  C   UNL A   1      36.630  22.883  22.872  1.00  0.00     0.331 C 
ATOM     15  H   UNL A   1      35.138  23.264  24.146  1.00  0.00     0.347 HD
ATOM     16  H   UNL A   1      36.668  24.029  24.457  1.00  0.00     0.347 HD
ENDBRANCH   7  13
BRANCH  11  17
ATOM     17  S   UNL A   1      32.901  22.701  27.502  1.00  0.00    -0.084 SA
BRANCH  17  18
ATOM     18  C   UNL A   1      31.950  23.918  26.722  1.00  0.00     0.167 A 
ATOM     19  N   UNL A   1      32.427  25.015  26.179  1.00  0.00    -0.231 NA
ATOM     20  N   UNL A   1      30.584  23.877  26.650  1.00  0.00    -0.329 N 
ATOM     21  C   UNL A   1      31.335  25.717  25.748  1.00  0.00     0.132 A 
ATOM     22  C   UNL A   1      30.177  25.034  26.034  1.00  0.00     0.108 A 
ATOM     23  C   UNL A   1      29.681  22.864  27.137  1.00  0.00     0.152 C 
ENDBRANCH  17  18
ENDBRANCH  11  17
ENDBRANCH   5   7
ENDBRANCH   4   5
ENDBRANCH   3   4
ENDBRANCH   2   3
ENDBRANCH   1   2
BRANCH   1  24
ATOM     24  C   UNL A   1      43.264  22.080  24.907  1.00  0.00     0.202 C 
BRANCH  24  25
ATOM     25  C   UNL A   1      44.692  22.131  25.460  1.00  0.00     0.261 C 
BRANCH  25  26
ATOM     26  O   UNL A   1      44.861  23.211  26.397  1.00  0.00    -0.460 OA
BRANCH  26  27
ATOM     27  C   UNL A   1      44.740  24.445  25.862  1.00  0.00     0.338 C 
ATOM     28  O   UNL A   1      45.167  24.830  24.777  1.00  0.00    -0.246 OA
BRANCH  27  29
ATOM     29  C   UNL A   1      43.855  25.284  26.688  1.00  0.00     0.060 A 
ATOM     30  C   UNL A   1      44.104  26.662  26.699  1.00  0.00     0.016 A 
ATOM     31  C   UNL A   1      42.864  24.735  27.506  1.00  0.00     0.016 A 
ATOM     32  C   UNL A   1      43.408  27.491  27.575  1.00  0.00     0.010 A 
ATOM     33  C   UNL A   1      42.172  25.569  28.394  1.00  0.00     0.010 A 
ATOM     34  C   UNL A   1      42.473  26.942  28.461  1.00  0.00    -0.014 A 
BRANCH  34  35
ATOM     35  C   UNL A   1      41.941  27.780  29.561  1.00  0.00     0.031 A 
ATOM     36  C   UNL A   1      42.637  27.759  30.896  1.00  0.00     0.074 A 
ATOM     37  C   UNL A   1      40.888  28.593  29.365  1.00  0.00     0.049 A 
ATOM     38  N   UNL A   1      42.351  28.414  31.992  1.00  0.00    -0.248 NA
ATOM     39  C   UNL A   1      43.814  26.882  31.007  1.00  0.00     0.031 C 
ATOM     40  C   UNL A   1      40.158  28.745  28.107  1.00  0.00     0.029 A 
ATOM     41  N   UNL A   1      40.254  29.448  30.231  1.00  0.00    -0.354 N 
ATOM     42  C   UNL A   1      43.309  28.029  32.921  1.00  0.00     0.074 A 
ATOM     43  C   UNL A   1      44.166  27.061  32.272  1.00  0.00     0.031 C 
ATOM     44  C   UNL A   1      39.170  29.639  28.284  1.00  0.00     0.029 A 
ATOM     45  C   UNL A   1      39.182  30.098  29.673  1.00  0.00     0.049 A 
ATOM     46  H   UNL A   1      40.540  29.581  31.163  1.00  0.00     0.167 HD
ATOM     47  C   UNL A   1      43.467  28.448  34.199  1.00  0.00     0.031 A 
ATOM     48  C   UNL A   1      38.301  30.956  30.223  1.00  0.00     0.031 A 
ATOM     49  C   UNL A   1      42.610  29.399  34.853  1.00  0.00     0.049 A 
ATOM     50  C   UNL A   1      38.449  31.346  31.669  1.00  0.00     0.074 A 
ATOM     51  C   UNL A   1      42.695  29.891  36.144  1.00  0.00     0.029 A 
ATOM     52  N   UNL A   1      41.508  29.999  34.267  1.00  0.00    -0.354 N 
ATOM     53  N   UNL A   1      39.370  30.988  32.532  1.00  0.00    -0.248 NA
ATOM     54  C   UNL A   1      37.440  32.264  32.214  1.00  0.00     0.031 C 
ATOM     55  C   UNL A   1      41.612  30.752  36.355  1.00  0.00     0.029 A 
ATOM     56  C   UNL A   1      40.886  30.836  35.178  1.00  0.00     0.049 A 
ATOM     57  H   UNL A   1      41.210  29.851  33.341  1.00  0.00     0.167 HD
ATOM     58  C   UNL A   1      39.066  31.655  33.712  1.00  0.00     0.074 A 
ATOM     59  C   UNL A   1      37.883  32.450  33.450  1.00  0.00     0.031 C 
ATOM     60  C   UNL A   1      39.708  31.616  34.903  1.00  0.00     0.031 A 
BRANCH  47  61
ATOM     61  C   UNL A   1      44.599  27.848  34.984  1.00  0.00    -0.014 A 
ATOM     62  C   UNL A   1      45.807  28.539  35.163  1.00  0.00     0.009 A 
ATOM     63  C   UNL A   1      44.442  26.585  35.575  1.00  0.00     0.009 A 
ATOM     64  C   UNL A   1      46.849  27.962  35.894  1.00  0.00     0.001 A 
ATOM     65  C   UNL A   1      45.476  26.021  36.325  1.00  0.00     0.001 A 
ATOM     66  C   UNL A   1      46.681  26.707  36.477  1.00  0.00     0.000 A 
ENDBRANCH  47  61
BRANCH  48  67
ATOM     67  C   UNL A   1      37.179  31.492  29.410  1.00  0.00    -0.014 A 
ATOM     68  C   UNL A   1      37.224  32.797  28.898  1.00  0.00     0.009 A 
ATOM     69  C   UNL A   1      36.047  30.700  29.158  1.00  0.00     0.009 A 
ATOM     70  C   UNL A   1      36.146  33.306  28.168  1.00  0.00     0.001 A 
ATOM     71  C   UNL A   1      34.984  31.202  28.405  1.00  0.00     0.001 A 
ATOM     72  C   UNL A   1      35.030  32.507  27.919  1.00  0.00     0.000 A 
ENDBRANCH  48  67
BRANCH  60  73
ATOM     73  C   UNL A   1      39.165  32.480  36.007  1.00  0.00    -0.014 A 
ATOM     74  C   UNL A   1      38.228  31.983  36.926  1.00  0.00     0.009 A 
ATOM     75  C   UNL A   1      39.634  33.795  36.156  1.00  0.00     0.009 A 
ATOM     76  C   UNL A   1      37.746  32.798  37.953  1.00  0.00     0.001 A 
ATOM     77  C   UNL A   1      39.171  34.598  37.198  1.00  0.00     0.001 A 
ATOM     78  C   UNL A   1      38.221  34.103  38.090  1.00  0.00     0.000 A 
ENDBRANCH  60  73
ENDBRANCH  34  35
ENDBRANCH  27  29
ENDBRANCH  26  27
ENDBRANCH  25  26
ENDBRANCH  24  25
ENDBRANCH   1  24
TORSDOF 17
ENDMDL
