MODEL 1
REMARK VINA RESULT:      -9.4      0.000      0.000
REMARK SMILES CCOc1ncnc(N[C@@H]2C=C[C@H](C(=O)OCCOCCOC(=O)c3ccc(-c4c5nc(c(-c6ccccc6)c6ccc([nH]6)c(-c6ccccc6)c6nc(c(-c7ccccc7)c7ccc4[nH]7)C=C6)C=C5)cc3)C2)c1C
REMARK SMILES IDX 18 1 17 2 16 3 14 4 15 5 13 6 10 7 11 8 73 9 12 10 9 11 8 13
REMARK SMILES IDX 4 14 5 15 74 16 6 17 75 18 7 19 3 20 2 21 1 22 19 23 20 24
REMARK SMILES IDX 21 25 22 26 23 27 24 28 25 29 26 30 72 31 27 32 71 33 28 34
REMARK SMILES IDX 29 35 30 36 65 37 31 38 70 39 64 40 66 41 32 42 69 43 63 44
REMARK SMILES IDX 62 45 33 47 55 48 40 49 54 50 41 51 44 52 53 53 67 54 42 55
REMARK SMILES IDX 43 56 52 58 68 59 45 60 34 61 35 62 39 63 36 64 38 65 37 66
REMARK SMILES IDX 56 67 57 68 61 69 58 70 60 71 59 72 46 73 47 74 51 75 48 76
REMARK SMILES IDX 50 77 49 78
REMARK H PARENT 9 12 66 46 44 57
REMARK Flexibility Score: inf
ROOT
ATOM      1  C   UNL A   1      33.617  30.720  26.910  1.00  0.00     0.202 C 
ENDROOT
BRANCH   1   2
ATOM      2  C   UNL A   1      34.309  29.346  26.827  1.00  0.00     0.261 C 
BRANCH   2   3
ATOM      3  O   UNL A   1      33.478  28.248  27.276  1.00  0.00    -0.463 OA
BRANCH   3   4
ATOM      4  C   UNL A   1      33.185  27.310  26.322  1.00  0.00     0.312 C 
ATOM      5  O   UNL A   1      33.998  26.489  25.909  1.00  0.00    -0.252 OA
BRANCH   4   6
ATOM      6  C   UNL A   1      31.770  27.490  25.744  1.00  0.00     0.124 C 
ATOM      7  C   UNL A   1      30.261  25.694  24.900  1.00  0.00     0.104 C 
ATOM      8  C   UNL A   1      31.058  26.305  23.812  1.00  0.00    -0.006 C 
ATOM      9  C   UNL A   1      30.673  26.485  26.157  1.00  0.00     0.048 C 
ATOM     10  C   UNL A   1      31.827  27.307  24.251  1.00  0.00    -0.014 C 
BRANCH   7  11
ATOM     11  N   UNL A   1      30.346  24.244  25.007  1.00  0.00    -0.363 N 
ATOM     12  H   UNL A   1      29.585  23.817  25.463  1.00  0.00     0.162 HD
BRANCH  11  13
ATOM     13  C   UNL A   1      31.328  23.373  24.568  1.00  0.00     0.136 A 
ATOM     14  C   UNL A   1      33.410  22.284  24.858  1.00  0.00     0.221 A 
ATOM     15  N   UNL A   1      33.454  21.897  23.578  1.00  0.00    -0.201 NA
ATOM     16  C   UNL A   1      32.370  23.014  25.427  1.00  0.00     0.054 A 
ATOM     17  C   UNL A   1      32.403  22.283  22.849  1.00  0.00     0.228 A 
ATOM     18  C   UNL A   1      32.443  23.417  26.871  1.00  0.00     0.054 C 
ATOM     19  N   UNL A   1      31.353  23.004  23.280  1.00  0.00    -0.219 NA
BRANCH  14  20
ATOM     20  O   UNL A   1      34.603  22.250  25.548  1.00  0.00    -0.478 OA
BRANCH  20  21
ATOM     21  C   UNL A   1      35.702  22.760  24.803  1.00  0.00     0.228 C 
ATOM     22  C   UNL A   1      36.378  23.824  25.653  1.00  0.00     0.049 C 
ENDBRANCH  20  21
ENDBRANCH  14  20
ENDBRANCH  11  13
ENDBRANCH   7  11
ENDBRANCH   4   6
ENDBRANCH   3   4
ENDBRANCH   2   3
ENDBRANCH   1   2
BRANCH   1  23
ATOM     23  O   UNL A   1      32.249  30.728  27.313  1.00  0.00    -0.374 OA
BRANCH  23  24
ATOM     24  C   UNL A   1      31.525  31.834  26.787  1.00  0.00     0.202 C 
BRANCH  24  25
ATOM     25  C   UNL A   1      32.225  33.175  26.921  1.00  0.00     0.261 C 
BRANCH  25  26
ATOM     26  O   UNL A   1      32.139  33.591  28.278  1.00  0.00    -0.460 OA
BRANCH  26  27
ATOM     27  C   UNL A   1      33.062  34.518  28.596  1.00  0.00     0.338 C 
ATOM     28  O   UNL A   1      32.905  35.705  28.792  1.00  0.00    -0.246 OA
BRANCH  27  29
ATOM     29  C   UNL A   1      34.295  33.780  28.887  1.00  0.00     0.060 A 
ATOM     30  C   UNL A   1      34.194  32.734  29.807  1.00  0.00     0.016 A 
ATOM     31  C   UNL A   1      35.505  34.082  28.246  1.00  0.00     0.016 A 
ATOM     32  C   UNL A   1      35.335  32.042  30.168  1.00  0.00     0.010 A 
ATOM     33  C   UNL A   1      36.644  33.377  28.594  1.00  0.00     0.010 A 
ATOM     34  C   UNL A   1      36.561  32.403  29.600  1.00  0.00    -0.014 A 
BRANCH  34  35
ATOM     35  C   UNL A   1      37.798  31.898  30.208  1.00  0.00     0.031 A 
ATOM     36  C   UNL A   1      38.388  30.637  29.653  1.00  0.00     0.074 A 
ATOM     37  C   UNL A   1      38.373  32.587  31.203  1.00  0.00     0.049 A 
ATOM     38  N   UNL A   1      39.468  30.003  30.018  1.00  0.00    -0.248 NA
ATOM     39  C   UNL A   1      37.659  30.002  28.541  1.00  0.00     0.031 C 
ATOM     40  C   UNL A   1      37.874  33.843  31.763  1.00  0.00     0.029 A 
ATOM     41  N   UNL A   1      39.511  32.326  31.910  1.00  0.00    -0.354 N 
ATOM     42  C   UNL A   1      39.538  28.887  29.194  1.00  0.00     0.074 A 
ATOM     43  C   UNL A   1      38.376  28.909  28.336  1.00  0.00     0.031 C 
ATOM     44  C   UNL A   1      38.718  34.254  32.723  1.00  0.00     0.029 A 
ATOM     45  C   UNL A   1      39.785  33.269  32.865  1.00  0.00     0.049 A 
ATOM     46  H   UNL A   1      40.079  31.537  31.751  1.00  0.00     0.167 HD
ATOM     47  C   UNL A   1      40.497  27.934  29.156  1.00  0.00     0.031 A 
ATOM     48  C   UNL A   1      40.789  33.313  33.758  1.00  0.00     0.031 A 
ATOM     49  C   UNL A   1      41.635  27.934  30.034  1.00  0.00     0.049 A 
ATOM     50  C   UNL A   1      41.803  32.203  33.742  1.00  0.00     0.074 A 
ATOM     51  C   UNL A   1      42.687  27.040  30.084  1.00  0.00     0.029 A 
ATOM     52  N   UNL A   1      41.857  28.879  31.027  1.00  0.00    -0.354 N 
ATOM     53  N   UNL A   1      41.887  31.169  32.938  1.00  0.00    -0.248 NA
ATOM     54  C   UNL A   1      42.864  32.271  34.752  1.00  0.00     0.031 C 
ATOM     55  C   UNL A   1      43.511  27.407  31.154  1.00  0.00     0.029 A 
ATOM     56  C   UNL A   1      43.012  28.570  31.722  1.00  0.00     0.049 A 
ATOM     57  H   UNL A   1      41.279  29.655  31.208  1.00  0.00     0.167 HD
ATOM     58  C   UNL A   1      43.027  30.478  33.324  1.00  0.00     0.074 A 
ATOM     59  C   UNL A   1      43.608  31.224  34.425  1.00  0.00     0.031 C 
ATOM     60  C   UNL A   1      43.553  29.336  32.817  1.00  0.00     0.031 A 
BRANCH  47  61
ATOM     61  C   UNL A   1      40.314  26.806  28.180  1.00  0.00    -0.014 A 
ATOM     62  C   UNL A   1      39.581  25.654  28.509  1.00  0.00     0.009 A 
ATOM     63  C   UNL A   1      40.897  26.894  26.906  1.00  0.00     0.009 A 
ATOM     64  C   UNL A   1      39.472  24.598  27.600  1.00  0.00     0.001 A 
ATOM     65  C   UNL A   1      40.758  25.852  25.987  1.00  0.00     0.001 A 
ATOM     66  C   UNL A   1      40.058  24.701  26.339  1.00  0.00     0.000 A 
ENDBRANCH  47  61
BRANCH  48  67
ATOM     67  C   UNL A   1      40.882  34.441  34.718  1.00  0.00    -0.014 A 
ATOM     68  C   UNL A   1      40.276  34.352  35.980  1.00  0.00     0.009 A 
ATOM     69  C   UNL A   1      41.588  35.608  34.384  1.00  0.00     0.009 A 
ATOM     70  C   UNL A   1      40.355  35.418  36.879  1.00  0.00     0.001 A 
ATOM     71  C   UNL A   1      41.690  36.660  35.296  1.00  0.00     0.001 A 
ATOM     72  C   UNL A   1      41.066  36.569  36.538  1.00  0.00     0.000 A 
ENDBRANCH  48  67
BRANCH  60  73
ATOM     73  C   UNL A   1      44.839  28.852  33.427  1.00  0.00    -0.014 A 
ATOM     74  C   UNL A   1      46.082  29.332  32.989  1.00  0.00     0.009 A 
ATOM     75  C   UNL A   1      44.796  27.931  34.485  1.00  0.00     0.009 A 
ATOM     76  C   UNL A   1      47.260  28.867  33.574  1.00  0.00     0.001 A 
ATOM     77  C   UNL A   1      45.973  27.496  35.091  1.00  0.00     0.001 A 
ATOM     78  C   UNL A   1      47.205  27.955  34.627  1.00  0.00     0.000 A 
ENDBRANCH  60  73
ENDBRANCH  34  35
ENDBRANCH  27  29
ENDBRANCH  26  27
ENDBRANCH  25  26
ENDBRANCH  24  25
ENDBRANCH  23  24
ENDBRANCH   1  23
TORSDOF 18
ENDMDL
MODEL 2
REMARK VINA RESULT:      -9.2      1.322      6.174
REMARK SMILES CCOc1ncnc(N[C@@H]2C=C[C@H](C(=O)OCCOCCOC(=O)c3ccc(-c4c5nc(c(-c6ccccc6)c6ccc([nH]6)c(-c6ccccc6)c6nc(c(-c7ccccc7)c7ccc4[nH]7)C=C6)C=C5)cc3)C2)c1C
REMARK SMILES IDX 18 1 17 2 16 3 14 4 15 5 13 6 10 7 11 8 73 9 12 10 9 11 8 13
REMARK SMILES IDX 4 14 5 15 74 16 6 17 75 18 7 19 3 20 2 21 1 22 19 23 20 24
REMARK SMILES IDX 21 25 22 26 23 27 24 28 25 29 26 30 72 31 27 32 71 33 28 34
REMARK SMILES IDX 29 35 30 36 65 37 31 38 70 39 64 40 66 41 32 42 69 43 63 44
REMARK SMILES IDX 62 45 33 47 55 48 40 49 54 50 41 51 44 52 53 53 67 54 42 55
REMARK SMILES IDX 43 56 52 58 68 59 45 60 34 61 35 62 39 63 36 64 38 65 37 66
REMARK SMILES IDX 56 67 57 68 61 69 58 70 60 71 59 72 46 73 47 74 51 75 48 76
REMARK SMILES IDX 50 77 49 78
REMARK H PARENT 9 12 66 46 44 57
REMARK Flexibility Score: inf
ROOT
ATOM      1  C   UNL A   1      33.106  30.097  27.159  1.00  0.00     0.202 C 
ENDROOT
BRANCH   1   2
ATOM      2  C   UNL A   1      33.873  28.970  26.442  1.00  0.00     0.261 C 
BRANCH   2   3
ATOM      3  O   UNL A   1      33.451  28.759  25.072  1.00  0.00    -0.463 OA
BRANCH   3   4
ATOM      4  C   UNL A   1      32.810  27.572  24.835  1.00  0.00     0.312 C 
ATOM      5  O   UNL A   1      33.322  26.637  24.228  1.00  0.00    -0.252 OA
BRANCH   4   6
ATOM      6  C   UNL A   1      31.343  27.601  25.299  1.00  0.00     0.124 C 
ATOM      7  C   UNL A   1      29.875  25.632  25.732  1.00  0.00     0.104 C 
ATOM      8  C   UNL A   1      29.714  26.153  24.355  1.00  0.00    -0.006 C 
ATOM      9  C   UNL A   1      30.894  26.591  26.378  1.00  0.00     0.048 C 
ATOM     10  C   UNL A   1      30.457  27.243  24.137  1.00  0.00    -0.014 C 
BRANCH   7  11
ATOM     11  N   UNL A   1      30.184  24.214  25.839  1.00  0.00    -0.363 N 
ATOM     12  H   UNL A   1      29.418  23.611  25.704  1.00  0.00     0.162 HD
BRANCH  11  13
ATOM     13  C   UNL A   1      31.387  23.580  26.101  1.00  0.00     0.136 A 
ATOM     14  C   UNL A   1      33.255  22.310  25.392  1.00  0.00     0.221 A 
ATOM     15  N   UNL A   1      33.618  22.032  26.649  1.00  0.00    -0.201 NA
ATOM     16  C   UNL A   1      32.157  23.090  25.042  1.00  0.00     0.054 A 
ATOM     17  C   UNL A   1      32.822  22.558  27.583  1.00  0.00     0.228 A 
ATOM     18  C   UNL A   1      31.828  23.312  23.595  1.00  0.00     0.054 C 
ATOM     19  N   UNL A   1      31.726  23.309  27.368  1.00  0.00    -0.219 NA
BRANCH  14  20
ATOM     20  O   UNL A   1      33.792  21.508  24.409  1.00  0.00    -0.478 OA
BRANCH  20  21
ATOM     21  C   UNL A   1      34.360  20.303  24.908  1.00  0.00     0.228 C 
ATOM     22  C   UNL A   1      33.456  19.158  24.480  1.00  0.00     0.049 C 
ENDBRANCH  20  21
ENDBRANCH  14  20
ENDBRANCH  11  13
ENDBRANCH   7  11
ENDBRANCH   4   6
ENDBRANCH   3   4
ENDBRANCH   2   3
ENDBRANCH   1   2
BRANCH   1  23
ATOM     23  O   UNL A   1      32.060  30.731  26.425  1.00  0.00    -0.374 OA
BRANCH  23  24
ATOM     24  C   UNL A   1      31.794  32.054  26.875  1.00  0.00     0.202 C 
BRANCH  24  25
ATOM     25  C   UNL A   1      32.794  32.599  27.880  1.00  0.00     0.261 C 
BRANCH  25  26
ATOM     26  O   UNL A   1      33.137  33.924  27.496  1.00  0.00    -0.460 OA
BRANCH  26  27
ATOM     27  C   UNL A   1      33.221  34.763  28.546  1.00  0.00     0.338 C 
ATOM     28  O   UNL A   1      32.423  35.600  28.911  1.00  0.00    -0.246 OA
BRANCH  27  29
ATOM     29  C   UNL A   1      34.384  34.324  29.324  1.00  0.00     0.060 A 
ATOM     30  C   UNL A   1      35.635  34.502  28.730  1.00  0.00     0.016 A 
ATOM     31  C   UNL A   1      34.251  33.790  30.613  1.00  0.00     0.016 A 
ATOM     32  C   UNL A   1      36.764  34.051  29.388  1.00  0.00     0.010 A 
ATOM     33  C   UNL A   1      35.382  33.355  31.281  1.00  0.00     0.010 A 
ATOM     34  C   UNL A   1      36.625  33.432  30.636  1.00  0.00    -0.014 A 
BRANCH  34  35
ATOM     35  C   UNL A   1      37.760  32.678  31.180  1.00  0.00     0.031 A 
ATOM     36  C   UNL A   1      38.334  33.123  32.491  1.00  0.00     0.074 A 
ATOM     37  C   UNL A   1      38.221  31.608  30.517  1.00  0.00     0.049 A 
ATOM     38  N   UNL A   1      39.327  32.617  33.170  1.00  0.00    -0.248 NA
ATOM     39  C   UNL A   1      37.708  34.300  33.119  1.00  0.00     0.031 C 
ATOM     40  C   UNL A   1      37.682  31.096  29.256  1.00  0.00     0.029 A 
ATOM     41  N   UNL A   1      39.244  30.757  30.823  1.00  0.00    -0.354 N 
ATOM     42  C   UNL A   1      39.455  33.424  34.293  1.00  0.00     0.074 A 
ATOM     43  C   UNL A   1      38.467  34.472  34.189  1.00  0.00     0.031 C 
ATOM     44  C   UNL A   1      38.375  30.001  28.904  1.00  0.00     0.029 A 
ATOM     45  C   UNL A   1      39.423  29.768  29.891  1.00  0.00     0.049 A 
ATOM     46  H   UNL A   1      39.798  30.846  31.631  1.00  0.00     0.167 HD
ATOM     47  C   UNL A   1      40.322  33.291  35.323  1.00  0.00     0.031 A 
ATOM     48  C   UNL A   1      40.346  28.792  29.850  1.00  0.00     0.031 A 
ATOM     49  C   UNL A   1      41.303  32.244  35.390  1.00  0.00     0.049 A 
ATOM     50  C   UNL A   1      41.343  28.710  30.973  1.00  0.00     0.074 A 
ATOM     51  C   UNL A   1      42.225  31.985  36.387  1.00  0.00     0.029 A 
ATOM     52  N   UNL A   1      41.493  31.285  34.404  1.00  0.00    -0.354 N 
ATOM     53  N   UNL A   1      41.440  29.452  32.051  1.00  0.00    -0.248 NA
ATOM     54  C   UNL A   1      42.354  27.651  30.874  1.00  0.00     0.031 C 
ATOM     55  C   UNL A   1      43.017  30.910  35.971  1.00  0.00     0.029 A 
ATOM     56  C   UNL A   1      42.542  30.453  34.749  1.00  0.00     0.049 A 
ATOM     57  H   UNL A   1      40.959  31.208  33.580  1.00  0.00     0.167 HD
ATOM     58  C   UNL A   1      42.502  28.931  32.777  1.00  0.00     0.074 A 
ATOM     59  C   UNL A   1      43.004  27.800  32.020  1.00  0.00     0.031 C 
ATOM     60  C   UNL A   1      43.016  29.342  33.964  1.00  0.00     0.031 A 
BRANCH  47  61
ATOM     61  C   UNL A   1      40.271  34.329  36.409  1.00  0.00    -0.014 A 
ATOM     62  C   UNL A   1      39.484  34.158  37.560  1.00  0.00     0.009 A 
ATOM     63  C   UNL A   1      41.020  35.509  36.272  1.00  0.00     0.009 A 
ATOM     64  C   UNL A   1      39.415  35.163  38.528  1.00  0.00     0.001 A 
ATOM     65  C   UNL A   1      40.976  36.497  37.258  1.00  0.00     0.001 A 
ATOM     66  C   UNL A   1      40.165  36.329  38.377  1.00  0.00     0.000 A 
ENDBRANCH  47  61
BRANCH  48  67
ATOM     67  C   UNL A   1      40.358  27.826  28.724  1.00  0.00    -0.014 A 
ATOM     68  C   UNL A   1      39.663  26.612  28.821  1.00  0.00     0.009 A 
ATOM     69  C   UNL A   1      41.051  28.119  27.539  1.00  0.00     0.009 A 
ATOM     70  C   UNL A   1      39.683  25.699  27.764  1.00  0.00     0.001 A 
ATOM     71  C   UNL A   1      41.045  27.217  26.472  1.00  0.00     0.001 A 
ATOM     72  C   UNL A   1      40.369  26.005  26.589  1.00  0.00     0.000 A 
ENDBRANCH  48  67
BRANCH  60  73
ATOM     73  C   UNL A   1      44.154  28.536  34.524  1.00  0.00    -0.014 A 
ATOM     74  C   UNL A   1      43.927  27.433  35.361  1.00  0.00     0.009 A 
ATOM     75  C   UNL A   1      45.471  28.868  34.173  1.00  0.00     0.009 A 
ATOM     76  C   UNL A   1      45.002  26.702  35.867  1.00  0.00     0.001 A 
ATOM     77  C   UNL A   1      46.541  28.113  34.651  1.00  0.00     0.001 A 
ATOM     78  C   UNL A   1      46.307  27.038  35.508  1.00  0.00     0.000 A 
ENDBRANCH  60  73
ENDBRANCH  34  35
ENDBRANCH  27  29
ENDBRANCH  26  27
ENDBRANCH  25  26
ENDBRANCH  24  25
ENDBRANCH  23  24
ENDBRANCH   1  23
TORSDOF 18
ENDMDL
MODEL 3
REMARK VINA RESULT:      -9.2      3.746      8.760
REMARK SMILES CCOc1ncnc(N[C@@H]2C=C[C@H](C(=O)OCCOCCOC(=O)c3ccc(-c4c5nc(c(-c6ccccc6)c6ccc([nH]6)c(-c6ccccc6)c6nc(c(-c7ccccc7)c7ccc4[nH]7)C=C6)C=C5)cc3)C2)c1C
REMARK SMILES IDX 18 1 17 2 16 3 14 4 15 5 13 6 10 7 11 8 73 9 12 10 9 11 8 13
REMARK SMILES IDX 4 14 5 15 74 16 6 17 75 18 7 19 3 20 2 21 1 22 19 23 20 24
REMARK SMILES IDX 21 25 22 26 23 27 24 28 25 29 26 30 72 31 27 32 71 33 28 34
REMARK SMILES IDX 29 35 30 36 65 37 31 38 70 39 64 40 66 41 32 42 69 43 63 44
REMARK SMILES IDX 62 45 33 47 55 48 40 49 54 50 41 51 44 52 53 53 67 54 42 55
REMARK SMILES IDX 43 56 52 58 68 59 45 60 34 61 35 62 39 63 36 64 38 65 37 66
REMARK SMILES IDX 56 67 57 68 61 69 58 70 60 71 59 72 46 73 47 74 51 75 48 76
REMARK SMILES IDX 50 77 49 78
REMARK H PARENT 9 12 66 46 44 57
REMARK Flexibility Score: inf
ROOT
ATOM      1  C   UNL A   1      36.436  22.465  25.426  1.00  0.00     0.202 C 
ENDROOT
BRANCH   1   2
ATOM      2  C   UNL A   1      36.068  23.927  25.107  1.00  0.00     0.261 C 
BRANCH   2   3
ATOM      3  O   UNL A   1      34.646  24.196  25.172  1.00  0.00    -0.463 OA
BRANCH   3   4
ATOM      4  C   UNL A   1      33.897  23.622  24.179  1.00  0.00     0.312 C 
ATOM      5  O   UNL A   1      34.141  23.761  22.984  1.00  0.00    -0.252 OA
BRANCH   4   6
ATOM      6  C   UNL A   1      32.655  22.901  24.730  1.00  0.00     0.124 C 
ATOM      7  C   UNL A   1      30.668  23.959  25.802  1.00  0.00     0.104 C 
ATOM      8  C   UNL A   1      31.672  23.528  26.800  1.00  0.00    -0.006 C 
ATOM      9  C   UNL A   1      31.265  23.516  24.452  1.00  0.00     0.048 C 
ATOM     10  C   UNL A   1      32.713  22.909  26.233  1.00  0.00    -0.014 C 
BRANCH   7  11
ATOM     11  N   UNL A   1      30.253  25.352  25.884  1.00  0.00    -0.363 N 
ATOM     12  H   UNL A   1      29.532  25.534  26.529  1.00  0.00     0.162 HD
BRANCH  11  13
ATOM     13  C   UNL A   1      30.715  26.463  25.197  1.00  0.00     0.136 A 
ATOM     14  C   UNL A   1      30.535  28.028  23.431  1.00  0.00     0.221 A 
ATOM     15  N   UNL A   1      31.783  28.470  23.615  1.00  0.00    -0.201 NA
ATOM     16  C   UNL A   1      29.928  27.034  24.194  1.00  0.00     0.054 A 
ATOM     17  C   UNL A   1      32.443  27.866  24.606  1.00  0.00     0.228 A 
ATOM     18  C   UNL A   1      28.528  26.597  23.876  1.00  0.00     0.054 C 
ATOM     19  N   UNL A   1      31.972  26.884  25.396  1.00  0.00    -0.219 NA
BRANCH  14  20
ATOM     20  O   UNL A   1      29.951  28.330  22.218  1.00  0.00    -0.478 OA
BRANCH  20  21
ATOM     21  C   UNL A   1      29.891  29.725  21.952  1.00  0.00     0.228 C 
ATOM     22  C   UNL A   1      28.436  30.079  21.688  1.00  0.00     0.049 C 
ENDBRANCH  20  21
ENDBRANCH  14  20
ENDBRANCH  11  13
ENDBRANCH   7  11
ENDBRANCH   4   6
ENDBRANCH   3   4
ENDBRANCH   2   3
ENDBRANCH   1   2
BRANCH   1  23
ATOM     23  O   UNL A   1      37.611  21.948  24.805  1.00  0.00    -0.374 OA
BRANCH  23  24
ATOM     24  C   UNL A   1      38.626  21.606  25.742  1.00  0.00     0.202 C 
BRANCH  24  25
ATOM     25  C   UNL A   1      39.177  20.199  25.600  1.00  0.00     0.261 C 
BRANCH  25  26
ATOM     26  O   UNL A   1      40.144  19.991  26.621  1.00  0.00    -0.460 OA
BRANCH  26  27
ATOM     27  C   UNL A   1      41.405  19.993  26.150  1.00  0.00     0.338 C 
ATOM     28  O   UNL A   1      41.925  19.217  25.377  1.00  0.00    -0.246 OA
BRANCH  27  29
ATOM     29  C   UNL A   1      41.996  21.265  26.579  1.00  0.00     0.060 A 
ATOM     30  C   UNL A   1      42.080  21.481  27.957  1.00  0.00     0.016 A 
ATOM     31  C   UNL A   1      42.487  22.199  25.657  1.00  0.00     0.016 A 
ATOM     32  C   UNL A   1      42.569  22.687  28.421  1.00  0.00     0.010 A 
ATOM     33  C   UNL A   1      42.995  23.400  26.122  1.00  0.00     0.010 A 
ATOM     34  C   UNL A   1      42.974  23.660  27.500  1.00  0.00    -0.014 A 
BRANCH  34  35
ATOM     35  C   UNL A   1      43.187  25.033  27.971  1.00  0.00     0.031 A 
ATOM     36  C   UNL A   1      44.596  25.481  28.215  1.00  0.00     0.074 A 
ATOM     37  C   UNL A   1      42.133  25.846  28.134  1.00  0.00     0.049 A 
ATOM     38  N   UNL A   1      45.033  26.640  28.625  1.00  0.00    -0.248 NA
ATOM     39  C   UNL A   1      45.656  24.486  27.969  1.00  0.00     0.031 C 
ATOM     40  C   UNL A   1      40.739  25.487  27.875  1.00  0.00     0.029 A 
ATOM     41  N   UNL A   1      42.081  27.146  28.547  1.00  0.00    -0.354 N 
ATOM     42  C   UNL A   1      46.414  26.507  28.703  1.00  0.00     0.074 A 
ATOM     43  C   UNL A   1      46.740  25.149  28.334  1.00  0.00     0.031 C 
ATOM     44  C   UNL A   1      39.965  26.556  28.122  1.00  0.00     0.029 A 
ATOM     45  C   UNL A   1      40.808  27.650  28.592  1.00  0.00     0.049 A 
ATOM     46  H   UNL A   1      42.879  27.669  28.790  1.00  0.00     0.167 HD
ATOM     47  C   UNL A   1      47.325  27.446  29.046  1.00  0.00     0.031 A 
ATOM     48  C   UNL A   1      40.384  28.864  28.982  1.00  0.00     0.031 A 
ATOM     49  C   UNL A   1      46.966  28.786  29.421  1.00  0.00     0.049 A 
ATOM     50  C   UNL A   1      41.413  29.866  29.427  1.00  0.00     0.074 A 
ATOM     51  C   UNL A   1      47.793  29.837  29.769  1.00  0.00     0.029 A 
ATOM     52  N   UNL A   1      45.661  29.251  29.505  1.00  0.00    -0.354 N 
ATOM     53  N   UNL A   1      42.720  29.751  29.466  1.00  0.00    -0.248 NA
ATOM     54  C   UNL A   1      40.908  31.168  29.876  1.00  0.00     0.031 C 
ATOM     55  C   UNL A   1      46.983  30.919  30.130  1.00  0.00     0.029 A 
ATOM     56  C   UNL A   1      45.655  30.565  29.936  1.00  0.00     0.049 A 
ATOM     57  H   UNL A   1      44.858  28.724  29.289  1.00  0.00     0.167 HD
ATOM     58  C   UNL A   1      43.197  30.975  29.913  1.00  0.00     0.074 A 
ATOM     59  C   UNL A   1      42.037  31.821  30.116  1.00  0.00     0.031 C 
ATOM     60  C   UNL A   1      44.476  31.371  30.132  1.00  0.00     0.031 A 
BRANCH  47  61
ATOM     61  C   UNL A   1      48.769  27.029  29.080  1.00  0.00    -0.014 A 
ATOM     62  C   UNL A   1      49.356  26.489  30.237  1.00  0.00     0.009 A 
ATOM     63  C   UNL A   1      49.561  27.189  27.932  1.00  0.00     0.009 A 
ATOM     64  C   UNL A   1      50.714  26.160  30.255  1.00  0.00     0.001 A 
ATOM     65  C   UNL A   1      50.910  26.827  27.943  1.00  0.00     0.001 A 
ATOM     66  C   UNL A   1      51.487  26.325  29.107  1.00  0.00     0.000 A 
ENDBRANCH  47  61
BRANCH  48  67
ATOM     67  C   UNL A   1      38.937  29.190  28.958  1.00  0.00    -0.014 A 
ATOM     68  C   UNL A   1      38.331  29.653  27.781  1.00  0.00     0.009 A 
ATOM     69  C   UNL A   1      38.148  29.027  30.108  1.00  0.00     0.009 A 
ATOM     70  C   UNL A   1      36.971  29.969  27.762  1.00  0.00     0.001 A 
ATOM     71  C   UNL A   1      36.782  29.315  30.079  1.00  0.00     0.001 A 
ATOM     72  C   UNL A   1      36.197  29.795  28.909  1.00  0.00     0.000 A 
ENDBRANCH  48  67
BRANCH  60  73
ATOM     73  C   UNL A   1      44.678  32.792  30.579  1.00  0.00    -0.014 A 
ATOM     74  C   UNL A   1      44.739  33.128  31.940  1.00  0.00     0.009 A 
ATOM     75  C   UNL A   1      44.849  33.799  29.618  1.00  0.00     0.009 A 
ATOM     76  C   UNL A   1      44.927  34.455  32.327  1.00  0.00     0.001 A 
ATOM     77  C   UNL A   1      45.075  35.118  30.009  1.00  0.00     0.001 A 
ATOM     78  C   UNL A   1      45.101  35.447  31.363  1.00  0.00     0.000 A 
ENDBRANCH  60  73
ENDBRANCH  34  35
ENDBRANCH  27  29
ENDBRANCH  26  27
ENDBRANCH  25  26
ENDBRANCH  24  25
ENDBRANCH  23  24
ENDBRANCH   1  23
TORSDOF 18
ENDMDL
