MODEL 1
REMARK VINA RESULT:     -10.3      0.000      0.000
REMARK SMILES CC[C@@H]1CCC[C@@](C[C@@H]2CSc3ccccc32)(C(=O)OCCOCCOC(=O)c2ccc(-c3c4nc(c(-c5ccccc5)c5ccc([nH]5)c(-c5ccccc5)c5nc(c(-c6ccccc6)c6ccc3[nH]6)C=C5)C=C4)cc2)C1
REMARK SMILES IDX 23 1 22 2 21 3 20 4 18 5 19 6 7 7 3 8 4 9 77 10 5 11 6 12
REMARK SMILES IDX 2 13 1 14 8 15 9 16 10 17 17 18 11 19 12 20 16 21 13 22
REMARK SMILES IDX 15 23 14 24 24 25 25 26 26 27 27 28 28 29 29 30 30 31 76 32
REMARK SMILES IDX 31 33 75 34 32 35 33 36 34 37 69 38 35 39 74 40 68 41 70 42
REMARK SMILES IDX 36 43 73 44 67 45 66 46 37 48 59 49 44 50 58 51 45 52 48 53
REMARK SMILES IDX 57 54 71 55 46 56 47 57 56 59 72 60 49 61 38 62 39 63 43 64
REMARK SMILES IDX 40 65 42 66 41 67 60 68 61 69 65 70 62 71 64 72 63 73 50 74
REMARK SMILES IDX 51 75 55 76 52 77 54 78 53 79
REMARK H PARENT 70 47 48 58
REMARK Flexibility Score: inf
ROOT
ATOM      1  O   UNL A   1      40.008  21.558  27.085  1.00  0.00    -0.374 OA
ENDROOT
BRANCH   1   2
ATOM      2  C   UNL A   1      39.001  21.458  26.086  1.00  0.00     0.202 C 
BRANCH   2   3
ATOM      3  C   UNL A   1      38.215  22.730  25.748  1.00  0.00     0.261 C 
BRANCH   3   4
ATOM      4  O   UNL A   1      36.810  22.686  26.085  1.00  0.00    -0.463 OA
BRANCH   4   5
ATOM      5  C   UNL A   1      35.985  23.299  25.193  1.00  0.00     0.312 C 
ATOM      6  O   UNL A   1      36.351  23.679  24.084  1.00  0.00    -0.252 OA
BRANCH   5   7
ATOM      7  C   UNL A   1      34.566  23.587  25.724  1.00  0.00     0.069 C 
ATOM      8  C   UNL A   1      33.486  21.463  24.687  1.00  0.00    -0.010 C 
ATOM      9  C   UNL A   1      32.988  21.004  26.056  1.00  0.00     0.003 C 
ATOM     10  C   UNL A   1      33.563  23.003  24.660  1.00  0.00     0.022 C 
ATOM     11  C   UNL A   1      33.914  21.485  27.157  1.00  0.00     0.001 C 
ATOM     12  C   UNL A   1      34.209  22.978  27.094  1.00  0.00     0.019 C 
BRANCH   8  13
ATOM     13  C   UNL A   1      32.680  20.876  23.510  1.00  0.00     0.000 C 
ATOM     14  C   UNL A   1      31.823  21.854  22.723  1.00  0.00     0.004 C 
ENDBRANCH   8  13
BRANCH   7  15
ATOM     15  C   UNL A   1      34.427  25.161  25.697  1.00  0.00     0.028 C 
BRANCH  15  16
ATOM     16  C   UNL A   1      33.324  25.907  24.887  1.00  0.00     0.032 C 
ATOM     17  C   UNL A   1      33.682  26.356  23.457  1.00  0.00     0.083 C 
ATOM     18  C   UNL A   1      32.738  27.097  25.604  1.00  0.00    -0.030 A 
ATOM     19  S   UNL A   1      33.745  28.174  23.406  1.00  0.00    -0.125 SA
ATOM     20  C   UNL A   1      32.952  28.328  24.979  1.00  0.00     0.011 A 
ATOM     21  C   UNL A   1      32.123  27.040  26.854  1.00  0.00     0.005 A 
ATOM     22  C   UNL A   1      32.641  29.515  25.627  1.00  0.00     0.015 A 
ATOM     23  C   UNL A   1      31.799  28.229  27.506  1.00  0.00     0.000 A 
ATOM     24  C   UNL A   1      32.074  29.462  26.903  1.00  0.00     0.001 A 
ENDBRANCH  15  16
ENDBRANCH   7  15
ENDBRANCH   5   7
ENDBRANCH   4   5
ENDBRANCH   3   4
ENDBRANCH   2   3
ENDBRANCH   1   2
BRANCH   1  25
ATOM     25  C   UNL A   1      41.228  20.856  26.851  1.00  0.00     0.202 C 
BRANCH  25  26
ATOM     26  C   UNL A   1      42.288  21.592  26.020  1.00  0.00     0.261 C 
BRANCH  26  27
ATOM     27  O   UNL A   1      42.815  22.735  26.726  1.00  0.00    -0.460 OA
BRANCH  27  28
ATOM     28  C   UNL A   1      42.801  23.889  26.016  1.00  0.00     0.338 C 
ATOM     29  O   UNL A   1      43.085  24.035  24.840  1.00  0.00    -0.246 OA
BRANCH  28  30
ATOM     30  C   UNL A   1      42.195  24.970  26.814  1.00  0.00     0.060 A 
ATOM     31  C   UNL A   1      41.136  24.729  27.690  1.00  0.00     0.016 A 
ATOM     32  C   UNL A   1      42.805  26.230  26.764  1.00  0.00     0.016 A 
ATOM     33  C   UNL A   1      40.722  25.749  28.559  1.00  0.00     0.010 A 
ATOM     34  C   UNL A   1      42.386  27.244  27.624  1.00  0.00     0.010 A 
ATOM     35  C   UNL A   1      41.362  27.003  28.550  1.00  0.00    -0.014 A 
BRANCH  35  36
ATOM     36  C   UNL A   1      41.077  28.018  29.597  1.00  0.00     0.031 A 
ATOM     37  C   UNL A   1      39.972  29.018  29.441  1.00  0.00     0.074 A 
ATOM     38  C   UNL A   1      41.889  28.083  30.671  1.00  0.00     0.049 A 
ATOM     39  N   UNL A   1      39.595  29.958  30.271  1.00  0.00    -0.248 NA
ATOM     40  C   UNL A   1      39.199  28.969  28.192  1.00  0.00     0.031 C 
ATOM     41  C   UNL A   1      43.032  27.201  30.912  1.00  0.00     0.029 A 
ATOM     42  N   UNL A   1      41.884  28.930  31.751  1.00  0.00    -0.354 N 
ATOM     43  C   UNL A   1      38.533  30.605  29.656  1.00  0.00     0.074 A 
ATOM     44  C   UNL A   1      38.355  29.980  28.361  1.00  0.00     0.031 C 
ATOM     45  C   UNL A   1      43.607  27.541  32.076  1.00  0.00     0.029 A 
ATOM     46  C   UNL A   1      42.891  28.677  32.652  1.00  0.00     0.049 A 
ATOM     47  H   UNL A   1      41.223  29.650  31.870  1.00  0.00     0.167 HD
ATOM     48  C   UNL A   1      37.767  31.612  30.137  1.00  0.00     0.031 A 
ATOM     49  C   UNL A   1      43.205  29.284  33.813  1.00  0.00     0.031 A 
ATOM     50  C   UNL A   1      37.955  32.242  31.420  1.00  0.00     0.049 A 
ATOM     51  C   UNL A   1      42.358  30.420  34.312  1.00  0.00     0.074 A 
ATOM     52  C   UNL A   1      37.180  33.224  32.014  1.00  0.00     0.029 A 
ATOM     53  N   UNL A   1      38.992  31.967  32.298  1.00  0.00    -0.354 N 
ATOM     54  N   UNL A   1      41.294  30.954  33.765  1.00  0.00    -0.248 NA
ATOM     55  C   UNL A   1      42.743  31.029  35.595  1.00  0.00     0.031 C 
ATOM     56  C   UNL A   1      37.785  33.592  33.218  1.00  0.00     0.029 A 
ATOM     57  C   UNL A   1      38.897  32.787  33.410  1.00  0.00     0.049 A 
ATOM     58  H   UNL A   1      39.691  31.289  32.153  1.00  0.00     0.167 HD
ATOM     59  C   UNL A   1      40.868  31.941  34.645  1.00  0.00     0.074 A 
ATOM     60  C   UNL A   1      41.781  31.925  35.768  1.00  0.00     0.031 C 
ATOM     61  C   UNL A   1      39.809  32.778  34.526  1.00  0.00     0.031 A 
BRANCH  48  62
ATOM     62  C   UNL A   1      36.629  32.105  29.287  1.00  0.00    -0.014 A 
ATOM     63  C   UNL A   1      36.744  33.323  28.596  1.00  0.00     0.009 A 
ATOM     64  C   UNL A   1      35.401  31.427  29.264  1.00  0.00     0.009 A 
ATOM     65  C   UNL A   1      35.649  33.858  27.914  1.00  0.00     0.001 A 
ATOM     66  C   UNL A   1      34.315  31.950  28.559  1.00  0.00     0.001 A 
ATOM     67  C   UNL A   1      34.437  33.170  27.894  1.00  0.00     0.000 A 
ENDBRANCH  48  62
BRANCH  49  68
ATOM     68  C   UNL A   1      44.359  28.780  34.605  1.00  0.00    -0.014 A 
ATOM     69  C   UNL A   1      44.193  27.734  35.527  1.00  0.00     0.009 A 
ATOM     70  C   UNL A   1      45.618  29.384  34.483  1.00  0.00     0.009 A 
ATOM     71  C   UNL A   1      45.260  27.321  36.327  1.00  0.00     0.001 A 
ATOM     72  C   UNL A   1      46.690  28.950  35.265  1.00  0.00     0.001 A 
ATOM     73  C   UNL A   1      46.508  27.926  36.194  1.00  0.00     0.000 A 
ENDBRANCH  49  68
BRANCH  61  74
ATOM     74  C   UNL A   1      39.554  33.758  35.638  1.00  0.00    -0.014 A 
ATOM     75  C   UNL A   1      40.149  35.030  35.597  1.00  0.00     0.009 A 
ATOM     76  C   UNL A   1      38.822  33.390  36.776  1.00  0.00     0.009 A 
ATOM     77  C   UNL A   1      40.034  35.904  36.679  1.00  0.00     0.001 A 
ATOM     78  C   UNL A   1      38.684  34.278  37.846  1.00  0.00     0.001 A 
ATOM     79  C   UNL A   1      39.299  35.529  37.801  1.00  0.00     0.000 A 
ENDBRANCH  61  74
ENDBRANCH  35  36
ENDBRANCH  28  30
ENDBRANCH  27  28
ENDBRANCH  26  27
ENDBRANCH  25  26
ENDBRANCH   1  25
TORSDOF 17
ENDMDL
MODEL 2
REMARK VINA RESULT:     -10.3      3.294      7.036
REMARK SMILES CC[C@@H]1CCC[C@@](C[C@@H]2CSc3ccccc32)(C(=O)OCCOCCOC(=O)c2ccc(-c3c4nc(c(-c5ccccc5)c5ccc([nH]5)c(-c5ccccc5)c5nc(c(-c6ccccc6)c6ccc3[nH]6)C=C5)C=C4)cc2)C1
REMARK SMILES IDX 23 1 22 2 21 3 20 4 18 5 19 6 7 7 3 8 4 9 77 10 5 11 6 12
REMARK SMILES IDX 2 13 1 14 8 15 9 16 10 17 17 18 11 19 12 20 16 21 13 22
REMARK SMILES IDX 15 23 14 24 24 25 25 26 26 27 27 28 28 29 29 30 30 31 76 32
REMARK SMILES IDX 31 33 75 34 32 35 33 36 34 37 69 38 35 39 74 40 68 41 70 42
REMARK SMILES IDX 36 43 73 44 67 45 66 46 37 48 59 49 44 50 58 51 45 52 48 53
REMARK SMILES IDX 57 54 71 55 46 56 47 57 56 59 72 60 49 61 38 62 39 63 43 64
REMARK SMILES IDX 40 65 42 66 41 67 60 68 61 69 65 70 62 71 64 72 63 73 50 74
REMARK SMILES IDX 51 75 55 76 52 77 54 78 53 79
REMARK H PARENT 70 47 48 58
REMARK Flexibility Score: inf
ROOT
ATOM      1  O   UNL A   1      38.800  22.398  25.985  1.00  0.00    -0.374 OA
ENDROOT
BRANCH   1   2
ATOM      2  C   UNL A   1      38.165  23.650  25.750  1.00  0.00     0.202 C 
BRANCH   2   3
ATOM      3  C   UNL A   1      36.834  23.910  26.465  1.00  0.00     0.261 C 
BRANCH   3   4
ATOM      4  O   UNL A   1      35.657  23.531  25.718  1.00  0.00    -0.463 OA
BRANCH   4   5
ATOM      5  C   UNL A   1      34.512  23.453  26.449  1.00  0.00     0.312 C 
ATOM      6  O   UNL A   1      34.431  22.854  27.518  1.00  0.00    -0.252 OA
BRANCH   5   7
ATOM      7  C   UNL A   1      33.277  24.086  25.776  1.00  0.00     0.069 C 
ATOM      8  C   UNL A   1      32.307  21.842  24.895  1.00  0.00    -0.010 C 
ATOM      9  C   UNL A   1      30.984  22.088  25.619  1.00  0.00     0.003 C 
ATOM     10  C   UNL A   1      32.946  23.195  24.521  1.00  0.00     0.022 C 
ATOM     11  C   UNL A   1      31.200  22.911  26.875  1.00  0.00     0.001 C 
ATOM     12  C   UNL A   1      32.001  24.185  26.635  1.00  0.00     0.019 C 
BRANCH   8  13
ATOM     13  C   UNL A   1      32.183  20.878  23.697  1.00  0.00     0.000 C 
ATOM     14  C   UNL A   1      32.767  19.487  23.885  1.00  0.00     0.004 C 
ENDBRANCH   8  13
BRANCH   7  15
ATOM     15  C   UNL A   1      33.770  25.491  25.246  1.00  0.00     0.028 C 
BRANCH  15  16
ATOM     16  C   UNL A   1      32.825  26.525  24.562  1.00  0.00     0.032 C 
ATOM     17  C   UNL A   1      33.256  27.072  23.187  1.00  0.00     0.083 C 
ATOM     18  C   UNL A   1      32.478  27.705  25.433  1.00  0.00    -0.030 A 
ATOM     19  S   UNL A   1      33.662  28.839  23.354  1.00  0.00    -0.125 SA
ATOM     20  C   UNL A   1      32.918  28.943  24.956  1.00  0.00     0.011 A 
ATOM     21  C   UNL A   1      31.868  27.611  26.683  1.00  0.00     0.005 A 
ATOM     22  C   UNL A   1      32.840  30.078  25.750  1.00  0.00     0.015 A 
ATOM     23  C   UNL A   1      31.777  28.750  27.483  1.00  0.00     0.000 A 
ATOM     24  C   UNL A   1      32.278  29.974  27.025  1.00  0.00     0.001 A 
ENDBRANCH  15  16
ENDBRANCH   7  15
ENDBRANCH   5   7
ENDBRANCH   4   5
ENDBRANCH   3   4
ENDBRANCH   2   3
ENDBRANCH   1   2
BRANCH   1  25
ATOM     25  C   UNL A   1      38.203  21.245  25.394  1.00  0.00     0.202 C 
BRANCH  25  26
ATOM     26  C   UNL A   1      39.056  19.970  25.376  1.00  0.00     0.261 C 
BRANCH  26  27
ATOM     27  O   UNL A   1      39.979  19.935  26.484  1.00  0.00    -0.460 OA
BRANCH  27  28
ATOM     28  C   UNL A   1      41.286  19.978  26.127  1.00  0.00     0.338 C 
ATOM     29  O   UNL A   1      41.878  19.200  25.400  1.00  0.00    -0.246 OA
BRANCH  28  30
ATOM     30  C   UNL A   1      41.899  21.237  26.590  1.00  0.00     0.060 A 
ATOM     31  C   UNL A   1      42.378  22.191  25.692  1.00  0.00     0.016 A 
ATOM     32  C   UNL A   1      41.865  21.506  27.964  1.00  0.00     0.016 A 
ATOM     33  C   UNL A   1      42.778  23.445  26.176  1.00  0.00     0.010 A 
ATOM     34  C   UNL A   1      42.271  22.750  28.443  1.00  0.00     0.010 A 
ATOM     35  C   UNL A   1      42.702  23.741  27.550  1.00  0.00    -0.014 A 
BRANCH  35  36
ATOM     36  C   UNL A   1      42.923  25.122  28.052  1.00  0.00     0.031 A 
ATOM     37  C   UNL A   1      44.280  25.594  28.477  1.00  0.00     0.074 A 
ATOM     38  C   UNL A   1      41.857  25.934  28.200  1.00  0.00     0.049 A 
ATOM     39  N   UNL A   1      44.634  26.773  28.926  1.00  0.00    -0.248 NA
ATOM     40  C   UNL A   1      45.379  24.622  28.402  1.00  0.00     0.031 C 
ATOM     41  C   UNL A   1      40.478  25.573  27.874  1.00  0.00     0.029 A 
ATOM     42  N   UNL A   1      41.766  27.221  28.669  1.00  0.00    -0.354 N 
ATOM     43  C   UNL A   1      45.996  26.692  29.175  1.00  0.00     0.074 A 
ATOM     44  C   UNL A   1      46.398  25.333  28.871  1.00  0.00     0.031 C 
ATOM     45  C   UNL A   1      39.679  26.620  28.135  1.00  0.00     0.029 A 
ATOM     46  C   UNL A   1      40.484  27.716  28.669  1.00  0.00     0.049 A 
ATOM     47  H   UNL A   1      42.545  27.739  28.977  1.00  0.00     0.167 HD
ATOM     48  C   UNL A   1      46.835  27.667  29.598  1.00  0.00     0.031 A 
ATOM     49  C   UNL A   1      40.005  28.917  29.049  1.00  0.00     0.031 A 
ATOM     50  C   UNL A   1      46.430  29.014  29.914  1.00  0.00     0.049 A 
ATOM     51  C   UNL A   1      40.952  29.973  29.544  1.00  0.00     0.074 A 
ATOM     52  C   UNL A   1      47.228  30.083  30.284  1.00  0.00     0.029 A 
ATOM     53  N   UNL A   1      45.123  29.474  29.912  1.00  0.00    -0.354 N 
ATOM     54  N   UNL A   1      42.254  29.912  29.678  1.00  0.00    -0.248 NA
ATOM     55  C   UNL A   1      40.368  31.268  29.927  1.00  0.00     0.031 C 
ATOM     56  C   UNL A   1      46.400  31.170  30.573  1.00  0.00     0.029 A 
ATOM     57  C   UNL A   1      45.090  30.800  30.312  1.00  0.00     0.049 A 
ATOM     58  H   UNL A   1      44.335  28.938  29.664  1.00  0.00     0.167 HD
ATOM     59  C   UNL A   1      42.649  31.164  30.134  1.00  0.00     0.074 A 
ATOM     60  C   UNL A   1      41.449  31.968  30.244  1.00  0.00     0.031 C 
ATOM     61  C   UNL A   1      43.897  31.600  30.429  1.00  0.00     0.031 A 
BRANCH  48  62
ATOM     62  C   UNL A   1      48.295  27.334  29.738  1.00  0.00    -0.014 A 
ATOM     63  C   UNL A   1      49.153  27.458  28.634  1.00  0.00     0.009 A 
ATOM     64  C   UNL A   1      48.796  26.784  30.928  1.00  0.00     0.009 A 
ATOM     65  C   UNL A   1      50.479  27.025  28.713  1.00  0.00     0.001 A 
ATOM     66  C   UNL A   1      50.129  26.376  31.014  1.00  0.00     0.001 A 
ATOM     67  C   UNL A   1      50.965  26.488  29.904  1.00  0.00     0.000 A 
ENDBRANCH  48  62
BRANCH  49  68
ATOM     68  C   UNL A   1      38.549  29.189  28.920  1.00  0.00    -0.014 A 
ATOM     69  C   UNL A   1      38.013  29.673  27.716  1.00  0.00     0.009 A 
ATOM     70  C   UNL A   1      37.698  29.021  30.022  1.00  0.00     0.009 A 
ATOM     71  C   UNL A   1      36.661  30.006  27.627  1.00  0.00     0.001 A 
ATOM     72  C   UNL A   1      36.340  29.329  29.921  1.00  0.00     0.001 A 
ATOM     73  C   UNL A   1      35.824  29.830  28.727  1.00  0.00     0.000 A 
ENDBRANCH  49  68
BRANCH  61  74
ATOM     74  C   UNL A   1      44.058  33.021  30.897  1.00  0.00    -0.014 A 
ATOM     75  C   UNL A   1      43.953  33.320  32.266  1.00  0.00     0.009 A 
ATOM     76  C   UNL A   1      44.201  34.074  29.982  1.00  0.00     0.009 A 
ATOM     77  C   UNL A   1      43.966  34.644  32.707  1.00  0.00     0.001 A 
ATOM     78  C   UNL A   1      44.243  35.397  30.430  1.00  0.00     0.001 A 
ATOM     79  C   UNL A   1      44.114  35.681  31.789  1.00  0.00     0.000 A 
ENDBRANCH  61  74
ENDBRANCH  35  36
ENDBRANCH  28  30
ENDBRANCH  27  28
ENDBRANCH  26  27
ENDBRANCH  25  26
ENDBRANCH   1  25
TORSDOF 17
ENDMDL
MODEL 3
REMARK VINA RESULT:     -10.2      3.030      8.341
REMARK SMILES CC[C@@H]1CCC[C@@](C[C@@H]2CSc3ccccc32)(C(=O)OCCOCCOC(=O)c2ccc(-c3c4nc(c(-c5ccccc5)c5ccc([nH]5)c(-c5ccccc5)c5nc(c(-c6ccccc6)c6ccc3[nH]6)C=C5)C=C4)cc2)C1
REMARK SMILES IDX 23 1 22 2 21 3 20 4 18 5 19 6 7 7 3 8 4 9 77 10 5 11 6 12
REMARK SMILES IDX 2 13 1 14 8 15 9 16 10 17 17 18 11 19 12 20 16 21 13 22
REMARK SMILES IDX 15 23 14 24 24 25 25 26 26 27 27 28 28 29 29 30 30 31 76 32
REMARK SMILES IDX 31 33 75 34 32 35 33 36 34 37 69 38 35 39 74 40 68 41 70 42
REMARK SMILES IDX 36 43 73 44 67 45 66 46 37 48 59 49 44 50 58 51 45 52 48 53
REMARK SMILES IDX 57 54 71 55 46 56 47 57 56 59 72 60 49 61 38 62 39 63 43 64
REMARK SMILES IDX 40 65 42 66 41 67 60 68 61 69 65 70 62 71 64 72 63 73 50 74
REMARK SMILES IDX 51 75 55 76 52 77 54 78 53 79
REMARK H PARENT 70 47 48 58
REMARK Flexibility Score: inf
ROOT
ATOM      1  O   UNL A   1      32.248  30.438  26.730  1.00  0.00    -0.374 OA
ENDROOT
BRANCH   1   2
ATOM      2  C   UNL A   1      33.488  30.116  27.349  1.00  0.00     0.202 C 
BRANCH   2   3
ATOM      3  C   UNL A   1      34.361  29.057  26.666  1.00  0.00     0.261 C 
BRANCH   3   4
ATOM      4  O   UNL A   1      33.643  27.911  26.158  1.00  0.00    -0.463 OA
BRANCH   4   5
ATOM      5  C   UNL A   1      33.711  27.741  24.809  1.00  0.00     0.312 C 
ATOM      6  O   UNL A   1      34.008  28.641  24.028  1.00  0.00    -0.252 OA
BRANCH   5   7
ATOM      7  C   UNL A   1      33.274  26.347  24.315  1.00  0.00     0.069 C 
ATOM      8  C   UNL A   1      31.034  27.151  23.273  1.00  0.00    -0.010 C 
ATOM      9  C   UNL A   1      31.421  26.579  21.910  1.00  0.00     0.003 C 
ATOM     10  C   UNL A   1      31.702  26.319  24.386  1.00  0.00     0.022 C 
ATOM     11  C   UNL A   1      32.927  26.598  21.724  1.00  0.00     0.001 C 
ATOM     12  C   UNL A   1      33.689  25.964  22.881  1.00  0.00     0.019 C 
BRANCH   8  13
ATOM     13  C   UNL A   1      29.512  27.310  23.464  1.00  0.00     0.000 C 
ATOM     14  C   UNL A   1      28.917  28.652  23.070  1.00  0.00     0.004 C 
ENDBRANCH   8  13
BRANCH   7  15
ATOM     15  C   UNL A   1      33.818  25.335  25.401  1.00  0.00     0.028 C 
BRANCH  15  16
ATOM     16  C   UNL A   1      33.589  23.795  25.324  1.00  0.00     0.032 C 
ATOM     17  C   UNL A   1      32.992  23.108  26.567  1.00  0.00     0.083 C 
ATOM     18  C   UNL A   1      34.813  23.015  24.916  1.00  0.00    -0.030 A 
ATOM     19  S   UNL A   1      34.253  22.021  27.305  1.00  0.00    -0.125 SA
ATOM     20  C   UNL A   1      35.294  22.123  25.878  1.00  0.00     0.011 A 
ATOM     21  C   UNL A   1      35.516  23.214  23.729  1.00  0.00     0.005 A 
ATOM     22  C   UNL A   1      36.518  21.492  25.711  1.00  0.00     0.015 A 
ATOM     23  C   UNL A   1      36.742  22.576  23.550  1.00  0.00     0.000 A 
ATOM     24  C   UNL A   1      37.250  21.733  24.546  1.00  0.00     0.001 A 
ENDBRANCH  15  16
ENDBRANCH   7  15
ENDBRANCH   5   7
ENDBRANCH   4   5
ENDBRANCH   3   4
ENDBRANCH   2   3
ENDBRANCH   1   2
BRANCH   1  25
ATOM     25  C   UNL A   1      32.009  31.813  26.430  1.00  0.00     0.202 C 
BRANCH  25  26
ATOM     26  C   UNL A   1      31.769  32.741  27.628  1.00  0.00     0.261 C 
BRANCH  26  27
ATOM     27  O   UNL A   1      32.367  34.037  27.421  1.00  0.00    -0.460 OA
BRANCH  27  28
ATOM     28  C   UNL A   1      33.074  34.505  28.478  1.00  0.00     0.338 C 
ATOM     29  O   UNL A   1      32.749  35.394  29.247  1.00  0.00    -0.246 OA
BRANCH  28  30
ATOM     30  C   UNL A   1      34.253  33.654  28.719  1.00  0.00     0.060 A 
ATOM     31  C   UNL A   1      35.379  33.712  27.896  1.00  0.00     0.016 A 
ATOM     32  C   UNL A   1      34.262  32.877  29.884  1.00  0.00     0.016 A 
ATOM     33  C   UNL A   1      36.539  33.023  28.276  1.00  0.00     0.010 A 
ATOM     34  C   UNL A   1      35.415  32.186  30.255  1.00  0.00     0.010 A 
ATOM     35  C   UNL A   1      36.573  32.278  29.470  1.00  0.00    -0.014 A 
BRANCH  35  36
ATOM     36  C   UNL A   1      37.846  31.716  29.989  1.00  0.00     0.031 A 
ATOM     37  C   UNL A   1      38.669  32.445  31.007  1.00  0.00     0.074 A 
ATOM     38  C   UNL A   1      38.303  30.560  29.466  1.00  0.00     0.049 A 
ATOM     39  N   UNL A   1      39.797  32.079  31.564  1.00  0.00    -0.248 NA
ATOM     40  C   UNL A   1      38.176  33.757  31.449  1.00  0.00     0.031 C 
ATOM     41  C   UNL A   1      37.622  29.783  28.431  1.00  0.00     0.029 A 
ATOM     42  N   UNL A   1      39.447  29.847  29.725  1.00  0.00    -0.354 N 
ATOM     43  C   UNL A   1      40.143  33.104  32.432  1.00  0.00     0.074 A 
ATOM     44  C   UNL A   1      39.129  34.130  32.295  1.00  0.00     0.031 C 
ATOM     45  C   UNL A   1      38.351  28.690  28.155  1.00  0.00     0.029 A 
ATOM     46  C   UNL A   1      39.560  28.701  28.975  1.00  0.00     0.049 A 
ATOM     47  H   UNL A   1      40.121  30.128  30.385  1.00  0.00     0.167 HD
ATOM     48  C   UNL A   1      41.197  33.172  33.279  1.00  0.00     0.031 A 
ATOM     49  C   UNL A   1      40.524  27.759  28.948  1.00  0.00     0.031 A 
ATOM     50  C   UNL A   1      42.213  32.156  33.403  1.00  0.00     0.049 A 
ATOM     51  C   UNL A   1      41.700  27.871  29.875  1.00  0.00     0.074 A 
ATOM     52  C   UNL A   1      43.279  32.114  34.287  1.00  0.00     0.029 A 
ATOM     53  N   UNL A   1      42.300  31.017  32.619  1.00  0.00    -0.354 N 
ATOM     54  N   UNL A   1      41.961  28.798  30.764  1.00  0.00    -0.248 NA
ATOM     55  C   UNL A   1      42.709  26.802  29.809  1.00  0.00     0.031 C 
ATOM     56  C   UNL A   1      44.049  30.987  33.992  1.00  0.00     0.029 A 
ATOM     57  C   UNL A   1      43.423  30.286  32.973  1.00  0.00     0.049 A 
ATOM     58  H   UNL A   1      41.659  30.764  31.915  1.00  0.00     0.167 HD
ATOM     59  C   UNL A   1      43.145  28.413  31.380  1.00  0.00     0.074 A 
ATOM     60  C   UNL A   1      43.547  27.162  30.772  1.00  0.00     0.031 C 
ATOM     61  C   UNL A   1      43.829  29.045  32.364  1.00  0.00     0.031 A 
BRANCH  48  62
ATOM     62  C   UNL A   1      41.319  34.381  34.165  1.00  0.00    -0.014 A 
ATOM     63  C   UNL A   1      40.600  34.444  35.369  1.00  0.00     0.009 A 
ATOM     64  C   UNL A   1      42.048  35.506  33.751  1.00  0.00     0.009 A 
ATOM     65  C   UNL A   1      40.597  35.614  36.133  1.00  0.00     0.001 A 
ATOM     66  C   UNL A   1      42.067  36.665  34.529  1.00  0.00     0.001 A 
ATOM     67  C   UNL A   1      41.333  36.721  35.714  1.00  0.00     0.000 A 
ENDBRANCH  48  62
BRANCH  49  68
ATOM     68  C   UNL A   1      40.375  26.597  28.032  1.00  0.00    -0.014 A 
ATOM     69  C   UNL A   1      39.705  25.435  28.451  1.00  0.00     0.009 A 
ATOM     70  C   UNL A   1      40.954  26.623  26.756  1.00  0.00     0.009 A 
ATOM     71  C   UNL A   1      39.641  24.317  27.618  1.00  0.00     0.001 A 
ATOM     72  C   UNL A   1      40.864  25.512  25.914  1.00  0.00     0.001 A 
ATOM     73  C   UNL A   1      40.217  24.357  26.349  1.00  0.00     0.000 A 
ENDBRANCH  49  68
BRANCH  61  74
ATOM     74  C   UNL A   1      45.092  28.404  32.872  1.00  0.00    -0.014 A 
ATOM     75  C   UNL A   1      46.316  28.681  32.241  1.00  0.00     0.009 A 
ATOM     76  C   UNL A   1      45.059  27.445  33.895  1.00  0.00     0.009 A 
ATOM     77  C   UNL A   1      47.476  27.997  32.609  1.00  0.00     0.001 A 
ATOM     78  C   UNL A   1      46.228  26.784  34.281  1.00  0.00     0.001 A 
ATOM     79  C   UNL A   1      47.431  27.052  33.631  1.00  0.00     0.000 A 
ENDBRANCH  61  74
ENDBRANCH  35  36
ENDBRANCH  28  30
ENDBRANCH  27  28
ENDBRANCH  26  27
ENDBRANCH  25  26
ENDBRANCH   1  25
TORSDOF 17
ENDMDL
