MODEL 1
REMARK VINA RESULT:      -8.9      0.000      0.000
REMARK SMILES CC(C)=CCc1cccc2c(C(=O)OCCOCCOC(=O)c3ccc(-c4c5nc(c(-c6ccccc6)c6ccc([nH]6)c(-c6ccccc6)c6nc(c(-c7ccccc7)c7ccc4[nH]7)C=C6)C=C5)cc3)c[nH]c12
REMARK SMILES IDX 17 1 16 2 15 3 14 4 12 5 13 6 11 7 6 8 7 9 73 10 8 11 10 12
REMARK SMILES IDX 72 13 9 14 71 15 5 17 4 18 1 19 2 20 3 21 18 22 19 23 20 24
REMARK SMILES IDX 21 25 22 26 23 27 24 28 70 29 25 30 69 31 26 32 27 33 28 34
REMARK SMILES IDX 63 35 29 36 68 37 62 38 64 39 30 40 67 41 61 42 60 43 31 45
REMARK SMILES IDX 53 46 38 47 52 48 39 49 42 50 51 51 65 52 40 53 41 54 50 56
REMARK SMILES IDX 66 57 43 58 32 59 33 60 37 61 34 62 36 63 35 64 54 65 55 66
REMARK SMILES IDX 59 67 56 68 58 69 57 70 44 71 45 72 49 73 46 74 48 75 47 76
REMARK H PARENT 72 16 64 44 42 55
REMARK Flexibility Score: inf
ROOT
ATOM      1  O   UNL A   1      34.053  35.266  33.215  1.00  0.00    -0.374 OA
ENDROOT
BRANCH   1   2
ATOM      2  C   UNL A   1      35.405  34.985  33.582  1.00  0.00     0.202 C 
BRANCH   2   3
ATOM      3  C   UNL A   1      35.555  33.991  34.735  1.00  0.00     0.261 C 
BRANCH   3   4
ATOM      4  O   UNL A   1      36.381  32.883  34.338  1.00  0.00    -0.460 OA
BRANCH   4   5
ATOM      5  C   UNL A   1      37.495  32.678  35.099  1.00  0.00     0.340 C 
ATOM      6  O   UNL A   1      37.783  33.335  36.095  1.00  0.00    -0.246 OA
BRANCH   5   7
ATOM      7  C   UNL A   1      38.275  31.518  34.679  1.00  0.00     0.085 A 
ATOM      8  C   UNL A   1      41.007  29.095  34.549  1.00  0.00    -0.020 A 
ATOM      9  C   UNL A   1      41.964  29.625  35.438  1.00  0.00     0.006 A 
ATOM     10  C   UNL A   1      39.840  29.871  34.375  1.00  0.00     0.050 A 
ATOM     11  C   UNL A   1      41.750  30.813  36.134  1.00  0.00     0.001 A 
ATOM     12  C   UNL A   1      39.582  31.062  35.070  1.00  0.00     0.014 A 
ATOM     13  N   UNL A   1      38.762  29.659  33.543  1.00  0.00    -0.360 N 
ATOM     14  C   UNL A   1      40.565  31.532  35.966  1.00  0.00     0.011 A 
ATOM     15  C   UNL A   1      37.821  30.627  33.721  1.00  0.00     0.099 A 
ATOM     16  H   UNL A   1      38.683  28.911  32.907  1.00  0.00     0.166 HD
BRANCH   8  17
ATOM     17  C   UNL A   1      41.261  27.792  33.816  1.00  0.00     0.065 C 
BRANCH  17  18
ATOM     18  C   UNL A   1      42.529  27.092  34.228  1.00  0.00    -0.024 C 
ATOM     19  C   UNL A   1      41.475  25.267  35.595  1.00  0.00     0.039 C 
ATOM     20  C   UNL A   1      42.648  25.988  34.994  1.00  0.00    -0.080 C 
ATOM     21  C   UNL A   1      44.015  25.440  35.304  1.00  0.00     0.039 C 
ENDBRANCH  17  18
ENDBRANCH   8  17
ENDBRANCH   5   7
ENDBRANCH   4   5
ENDBRANCH   3   4
ENDBRANCH   2   3
ENDBRANCH   1   2
BRANCH   1  22
ATOM     22  C   UNL A   1      33.842  36.450  32.443  1.00  0.00     0.202 C 
BRANCH  22  23
ATOM     23  C   UNL A   1      32.718  36.343  31.407  1.00  0.00     0.261 C 
BRANCH  23  24
ATOM     24  O   UNL A   1      32.664  35.017  30.850  1.00  0.00    -0.460 OA
BRANCH  24  25
ATOM     25  C   UNL A   1      33.152  34.900  29.594  1.00  0.00     0.338 C 
ATOM     26  O   UNL A   1      32.763  35.473  28.591  1.00  0.00    -0.246 OA
BRANCH  25  27
ATOM     27  C   UNL A   1      34.379  34.079  29.612  1.00  0.00     0.060 A 
ATOM     28  C   UNL A   1      34.477  33.096  30.606  1.00  0.00     0.016 A 
ATOM     29  C   UNL A   1      35.434  34.291  28.721  1.00  0.00     0.016 A 
ATOM     30  C   UNL A   1      35.651  32.360  30.748  1.00  0.00     0.010 A 
ATOM     31  C   UNL A   1      36.616  33.557  28.869  1.00  0.00     0.010 A 
ATOM     32  C   UNL A   1      36.741  32.616  29.906  1.00  0.00    -0.014 A 
BRANCH  32  33
ATOM     33  C   UNL A   1      38.057  32.005  30.215  1.00  0.00     0.031 A 
ATOM     34  C   UNL A   1      38.994  32.726  31.144  1.00  0.00     0.074 A 
ATOM     35  C   UNL A   1      38.398  30.807  29.709  1.00  0.00     0.049 A 
ATOM     36  N   UNL A   1      40.185  32.373  31.556  1.00  0.00    -0.248 NA
ATOM     37  C   UNL A   1      38.527  34.015  31.678  1.00  0.00     0.031 C 
ATOM     38  C   UNL A   1      37.563  29.989  28.830  1.00  0.00     0.029 A 
ATOM     39  N   UNL A   1      39.545  30.072  29.868  1.00  0.00    -0.354 N 
ATOM     40  C   UNL A   1      40.609  33.395  32.396  1.00  0.00     0.074 A 
ATOM     41  C   UNL A   1      39.564  34.395  32.410  1.00  0.00     0.031 C 
ATOM     42  C   UNL A   1      38.229  28.862  28.525  1.00  0.00     0.029 A 
ATOM     43  C   UNL A   1      39.544  28.893  29.165  1.00  0.00     0.049 A 
ATOM     44  H   UNL A   1      40.298  30.362  30.433  1.00  0.00     0.167 HD
ATOM     45  C   UNL A   1      41.762  33.493  33.099  1.00  0.00     0.031 A 
ATOM     46  C   UNL A   1      40.499  27.953  29.041  1.00  0.00     0.031 A 
ATOM     47  C   UNL A   1      42.811  32.509  33.078  1.00  0.00     0.049 A 
ATOM     48  C   UNL A   1      41.804  28.119  29.772  1.00  0.00     0.074 A 
ATOM     49  C   UNL A   1      44.010  32.512  33.770  1.00  0.00     0.029 A 
ATOM     50  N   UNL A   1      42.790  31.352  32.318  1.00  0.00    -0.354 N 
ATOM     51  N   UNL A   1      42.180  29.076  30.585  1.00  0.00    -0.248 NA
ATOM     52  C   UNL A   1      42.814  27.069  29.572  1.00  0.00     0.031 C 
ATOM     53  C   UNL A   1      44.736  31.379  33.388  1.00  0.00     0.029 A 
ATOM     54  C   UNL A   1      43.966  30.646  32.501  1.00  0.00     0.049 A 
ATOM     55  H   UNL A   1      42.047  31.072  31.734  1.00  0.00     0.167 HD
ATOM     56  C   UNL A   1      43.456  28.730  31.014  1.00  0.00     0.074 A 
ATOM     57  C   UNL A   1      43.786  27.471  30.379  1.00  0.00     0.031 C 
ATOM     58  C   UNL A   1      44.280  29.396  31.860  1.00  0.00     0.031 A 
BRANCH  45  59
ATOM     59  C   UNL A   1      41.958  34.730  33.927  1.00  0.00    -0.014 A 
ATOM     60  C   UNL A   1      42.622  35.854  33.412  1.00  0.00     0.009 A 
ATOM     61  C   UNL A   1      41.453  34.777  35.237  1.00  0.00     0.009 A 
ATOM     62  C   UNL A   1      42.806  36.989  34.204  1.00  0.00     0.001 A 
ATOM     63  C   UNL A   1      41.617  35.923  36.017  1.00  0.00     0.001 A 
ATOM     64  C   UNL A   1      42.301  37.024  35.503  1.00  0.00     0.000 A 
ENDBRANCH  45  59
BRANCH  46  65
ATOM     65  C   UNL A   1      40.267  26.769  28.174  1.00  0.00    -0.014 A 
ATOM     66  C   UNL A   1      40.753  26.738  26.860  1.00  0.00     0.009 A 
ATOM     67  C   UNL A   1      39.542  25.668  28.658  1.00  0.00     0.009 A 
ATOM     68  C   UNL A   1      40.499  25.637  26.039  1.00  0.00     0.001 A 
ATOM     69  C   UNL A   1      39.312  24.558  27.843  1.00  0.00     0.001 A 
ATOM     70  C   UNL A   1      39.784  24.546  26.532  1.00  0.00     0.000 A 
ENDBRANCH  46  65
BRANCH  58  71
ATOM     71  C   UNL A   1      45.606  28.761  32.171  1.00  0.00    -0.014 A 
ATOM     72  C   UNL A   1      46.674  28.820  31.262  1.00  0.00     0.009 A 
ATOM     73  C   UNL A   1      45.802  28.135  33.412  1.00  0.00     0.009 A 
ATOM     74  C   UNL A   1      47.902  28.237  31.579  1.00  0.00     0.001 A 
ATOM     75  C   UNL A   1      47.039  27.577  33.736  1.00  0.00     0.001 A 
ATOM     76  C   UNL A   1      48.086  27.621  32.816  1.00  0.00     0.000 A 
ENDBRANCH  58  71
ENDBRANCH  32  33
ENDBRANCH  25  27
ENDBRANCH  24  25
ENDBRANCH  23  24
ENDBRANCH  22  23
ENDBRANCH   1  22
TORSDOF 16
ENDMDL
MODEL 2
REMARK VINA RESULT:      -7.4      6.603     11.354
REMARK SMILES CC(C)=CCc1cccc2c(C(=O)OCCOCCOC(=O)c3ccc(-c4c5nc(c(-c6ccccc6)c6ccc([nH]6)c(-c6ccccc6)c6nc(c(-c7ccccc7)c7ccc4[nH]7)C=C6)C=C5)cc3)c[nH]c12
REMARK SMILES IDX 17 1 16 2 15 3 14 4 12 5 13 6 11 7 6 8 7 9 73 10 8 11 10 12
REMARK SMILES IDX 72 13 9 14 71 15 5 17 4 18 1 19 2 20 3 21 18 22 19 23 20 24
REMARK SMILES IDX 21 25 22 26 23 27 24 28 70 29 25 30 69 31 26 32 27 33 28 34
REMARK SMILES IDX 63 35 29 36 68 37 62 38 64 39 30 40 67 41 61 42 60 43 31 45
REMARK SMILES IDX 53 46 38 47 52 48 39 49 42 50 51 51 65 52 40 53 41 54 50 56
REMARK SMILES IDX 66 57 43 58 32 59 33 60 37 61 34 62 36 63 35 64 54 65 55 66
REMARK SMILES IDX 59 67 56 68 58 69 57 70 44 71 45 72 49 73 46 74 48 75 47 76
REMARK H PARENT 72 16 64 44 42 55
REMARK Flexibility Score: inf
ROOT
ATOM      1  O   UNL A   1      34.649  20.678  24.536  1.00  0.00    -0.374 OA
ENDROOT
BRANCH   1   2
ATOM      2  C   UNL A   1      33.314  20.972  24.951  1.00  0.00     0.202 C 
BRANCH   2   3
ATOM      3  C   UNL A   1      32.734  22.256  24.354  1.00  0.00     0.261 C 
BRANCH   3   4
ATOM      4  O   UNL A   1      33.290  22.500  23.050  1.00  0.00    -0.460 OA
BRANCH   4   5
ATOM      5  C   UNL A   1      33.937  23.691  22.901  1.00  0.00     0.340 C 
ATOM      6  O   UNL A   1      35.156  23.822  22.903  1.00  0.00    -0.246 OA
BRANCH   5   7
ATOM      7  C   UNL A   1      33.034  24.806  22.628  1.00  0.00     0.085 A 
ATOM      8  C   UNL A   1      30.871  27.688  23.236  1.00  0.00    -0.020 A 
ATOM      9  C   UNL A   1      30.816  27.771  24.642  1.00  0.00     0.006 A 
ATOM     10  C   UNL A   1      31.627  26.612  22.717  1.00  0.00     0.050 A 
ATOM     11  C   UNL A   1      31.501  26.879  25.464  1.00  0.00     0.001 A 
ATOM     12  C   UNL A   1      32.342  25.705  23.512  1.00  0.00     0.014 A 
ATOM     13  N   UNL A   1      31.821  26.229  21.408  1.00  0.00    -0.360 N 
ATOM     14  C   UNL A   1      32.271  25.852  24.913  1.00  0.00     0.011 A 
ATOM     15  C   UNL A   1      32.664  25.161  21.342  1.00  0.00     0.099 A 
ATOM     16  H   UNL A   1      31.408  26.666  20.629  1.00  0.00     0.166 HD
BRANCH   8  17
ATOM     17  C   UNL A   1      30.128  28.682  22.366  1.00  0.00     0.065 C 
BRANCH  17  18
ATOM     18  C   UNL A   1      29.305  29.680  23.138  1.00  0.00    -0.024 C 
ATOM     19  C   UNL A   1      28.133  30.734  21.183  1.00  0.00     0.039 C 
ATOM     20  C   UNL A   1      28.424  30.577  22.647  1.00  0.00    -0.080 C 
ATOM     21  C   UNL A   1      27.700  31.501  23.589  1.00  0.00     0.039 C 
ENDBRANCH  17  18
ENDBRANCH   8  17
ENDBRANCH   5   7
ENDBRANCH   4   5
ENDBRANCH   3   4
ENDBRANCH   2   3
ENDBRANCH   1   2
BRANCH   1  22
ATOM     22  C   UNL A   1      35.684  21.005  25.467  1.00  0.00     0.202 C 
BRANCH  22  23
ATOM     23  C   UNL A   1      37.043  20.369  25.157  1.00  0.00     0.261 C 
BRANCH  23  24
ATOM     24  O   UNL A   1      38.085  21.363  25.166  1.00  0.00    -0.460 OA
BRANCH  24  25
ATOM     25  C   UNL A   1      39.125  21.097  25.989  1.00  0.00     0.338 C 
ATOM     26  O   UNL A   1      39.672  20.023  26.169  1.00  0.00    -0.246 OA
BRANCH  25  27
ATOM     27  C   UNL A   1      39.650  22.359  26.549  1.00  0.00     0.060 A 
ATOM     28  C   UNL A   1      39.076  23.552  26.089  1.00  0.00     0.016 A 
ATOM     29  C   UNL A   1      40.710  22.389  27.458  1.00  0.00     0.016 A 
ATOM     30  C   UNL A   1      39.597  24.779  26.493  1.00  0.00     0.010 A 
ATOM     31  C   UNL A   1      41.237  23.622  27.858  1.00  0.00     0.010 A 
ATOM     32  C   UNL A   1      40.706  24.819  27.348  1.00  0.00    -0.014 A 
BRANCH  32  33
ATOM     33  C   UNL A   1      41.398  26.110  27.579  1.00  0.00     0.031 A 
ATOM     34  C   UNL A   1      40.740  27.144  28.452  1.00  0.00     0.074 A 
ATOM     35  C   UNL A   1      42.613  26.346  27.054  1.00  0.00     0.049 A 
ATOM     36  N   UNL A   1      41.166  28.332  28.794  1.00  0.00    -0.248 NA
ATOM     37  C   UNL A   1      39.426  26.789  29.012  1.00  0.00     0.031 C 
ATOM     38  C   UNL A   1      43.375  25.412  26.227  1.00  0.00     0.029 A 
ATOM     39  N   UNL A   1      43.418  27.453  27.146  1.00  0.00    -0.354 N 
ATOM     40  C   UNL A   1      40.176  28.867  29.608  1.00  0.00     0.074 A 
ATOM     41  C   UNL A   1      39.113  27.888  29.682  1.00  0.00     0.031 C 
ATOM     42  C   UNL A   1      44.540  25.988  25.883  1.00  0.00     0.029 A 
ATOM     43  C   UNL A   1      44.592  27.337  26.445  1.00  0.00     0.049 A 
ATOM     44  H   UNL A   1      43.177  28.254  27.667  1.00  0.00     0.167 HD
ATOM     45  C   UNL A   1      40.152  30.063  30.242  1.00  0.00     0.031 A 
ATOM     46  C   UNL A   1      45.589  28.224  26.265  1.00  0.00     0.031 A 
ATOM     47  C   UNL A   1      41.198  31.046  30.159  1.00  0.00     0.049 A 
ATOM     48  C   UNL A   1      45.507  29.578  26.919  1.00  0.00     0.074 A 
ATOM     49  C   UNL A   1      41.272  32.281  30.779  1.00  0.00     0.029 A 
ATOM     50  N   UNL A   1      42.350  30.909  29.402  1.00  0.00    -0.354 N 
ATOM     51  N   UNL A   1      44.578  30.059  27.708  1.00  0.00    -0.248 NA
ATOM     52  C   UNL A   1      46.617  30.506  26.659  1.00  0.00     0.031 C 
ATOM     53  C   UNL A   1      42.447  32.912  30.356  1.00  0.00     0.029 A 
ATOM     54  C   UNL A   1      43.128  32.047  29.516  1.00  0.00     0.049 A 
ATOM     55  H   UNL A   1      42.581  30.117  28.862  1.00  0.00     0.167 HD
ATOM     56  C   UNL A   1      45.003  31.334  28.061  1.00  0.00     0.074 A 
ATOM     57  C   UNL A   1      46.278  31.547  27.408  1.00  0.00     0.031 C 
ATOM     58  C   UNL A   1      44.393  32.246  28.857  1.00  0.00     0.031 A 
BRANCH  45  59
ATOM     59  C   UNL A   1      38.932  30.384  31.057  1.00  0.00    -0.014 A 
ATOM     60  C   UNL A   1      37.869  31.124  30.517  1.00  0.00     0.009 A 
ATOM     61  C   UNL A   1      38.838  29.920  32.378  1.00  0.00     0.009 A 
ATOM     62  C   UNL A   1      36.751  31.424  31.297  1.00  0.00     0.001 A 
ATOM     63  C   UNL A   1      37.707  30.199  33.147  1.00  0.00     0.001 A 
ATOM     64  C   UNL A   1      36.668  30.959  32.609  1.00  0.00     0.000 A 
ENDBRANCH  45  59
BRANCH  46  65
ATOM     65  C   UNL A   1      46.753  27.869  25.414  1.00  0.00    -0.014 A 
ATOM     66  C   UNL A   1      46.707  28.055  24.025  1.00  0.00     0.009 A 
ATOM     67  C   UNL A   1      47.914  27.326  25.990  1.00  0.00     0.009 A 
ATOM     68  C   UNL A   1      47.792  27.684  23.227  1.00  0.00     0.001 A 
ATOM     69  C   UNL A   1      49.005  26.981  25.192  1.00  0.00     0.001 A 
ATOM     70  C   UNL A   1      48.942  27.152  23.811  1.00  0.00     0.000 A 
ENDBRANCH  46  65
BRANCH  58  71
ATOM     71  C   UNL A   1      45.110  33.546  29.090  1.00  0.00    -0.014 A 
ATOM     72  C   UNL A   1      46.035  33.690  30.135  1.00  0.00     0.009 A 
ATOM     73  C   UNL A   1      44.889  34.626  28.222  1.00  0.00     0.009 A 
ATOM     74  C   UNL A   1      46.703  34.901  30.323  1.00  0.00     0.001 A 
ATOM     75  C   UNL A   1      45.578  35.827  28.397  1.00  0.00     0.001 A 
ATOM     76  C   UNL A   1      46.478  35.966  29.452  1.00  0.00     0.000 A 
ENDBRANCH  58  71
ENDBRANCH  32  33
ENDBRANCH  25  27
ENDBRANCH  24  25
ENDBRANCH  23  24
ENDBRANCH  22  23
ENDBRANCH   1  22
TORSDOF 16
ENDMDL
MODEL 3
REMARK VINA RESULT:      -7.4      5.362     11.152
REMARK SMILES CC(C)=CCc1cccc2c(C(=O)OCCOCCOC(=O)c3ccc(-c4c5nc(c(-c6ccccc6)c6ccc([nH]6)c(-c6ccccc6)c6nc(c(-c7ccccc7)c7ccc4[nH]7)C=C6)C=C5)cc3)c[nH]c12
REMARK SMILES IDX 17 1 16 2 15 3 14 4 12 5 13 6 11 7 6 8 7 9 73 10 8 11 10 12
REMARK SMILES IDX 72 13 9 14 71 15 5 17 4 18 1 19 2 20 3 21 18 22 19 23 20 24
REMARK SMILES IDX 21 25 22 26 23 27 24 28 70 29 25 30 69 31 26 32 27 33 28 34
REMARK SMILES IDX 63 35 29 36 68 37 62 38 64 39 30 40 67 41 61 42 60 43 31 45
REMARK SMILES IDX 53 46 38 47 52 48 39 49 42 50 51 51 65 52 40 53 41 54 50 56
REMARK SMILES IDX 66 57 43 58 32 59 33 60 37 61 34 62 36 63 35 64 54 65 55 66
REMARK SMILES IDX 59 67 56 68 58 69 57 70 44 71 45 72 49 73 46 74 48 75 47 76
REMARK H PARENT 72 16 64 44 42 55
REMARK Flexibility Score: inf
ROOT
ATOM      1  O   UNL A   1      41.883  21.261  25.438  1.00  0.00    -0.374 OA
ENDROOT
BRANCH   1   2
ATOM      2  C   UNL A   1      40.917  20.795  26.383  1.00  0.00     0.202 C 
BRANCH   2   3
ATOM      3  C   UNL A   1      39.902  21.851  26.824  1.00  0.00     0.261 C 
BRANCH   3   4
ATOM      4  O   UNL A   1      38.816  21.928  25.883  1.00  0.00    -0.460 OA
BRANCH   4   5
ATOM      5  C   UNL A   1      38.035  23.041  25.978  1.00  0.00     0.340 C 
ATOM      6  O   UNL A   1      38.365  24.071  26.556  1.00  0.00    -0.246 OA
BRANCH   5   7
ATOM      7  C   UNL A   1      36.788  22.936  25.225  1.00  0.00     0.085 A 
ATOM      8  C   UNL A   1      33.298  22.157  24.474  1.00  0.00    -0.020 A 
ATOM      9  C   UNL A   1      32.857  21.467  25.621  1.00  0.00     0.006 A 
ATOM     10  C   UNL A   1      34.655  22.549  24.481  1.00  0.00     0.050 A 
ATOM     11  C   UNL A   1      33.694  21.230  26.710  1.00  0.00     0.001 A 
ATOM     12  C   UNL A   1      35.522  22.342  25.564  1.00  0.00     0.014 A 
ATOM     13  N   UNL A   1      35.391  23.176  23.500  1.00  0.00    -0.360 N 
ATOM     14  C   UNL A   1      35.020  21.669  26.696  1.00  0.00     0.011 A 
ATOM     15  C   UNL A   1      36.659  23.420  23.934  1.00  0.00     0.099 A 
ATOM     16  H   UNL A   1      35.049  23.416  22.609  1.00  0.00     0.166 HD
BRANCH   8  17
ATOM     17  C   UNL A   1      32.360  22.414  23.310  1.00  0.00     0.065 C 
BRANCH  17  18
ATOM     18  C   UNL A   1      31.256  23.392  23.615  1.00  0.00    -0.024 C 
ATOM     19  C   UNL A   1      32.274  25.404  22.511  1.00  0.00     0.039 C 
ATOM     20  C   UNL A   1      31.191  24.695  23.272  1.00  0.00    -0.080 C 
ATOM     21  C   UNL A   1      29.997  25.515  23.680  1.00  0.00     0.039 C 
ENDBRANCH  17  18
ENDBRANCH   8  17
ENDBRANCH   5   7
ENDBRANCH   4   5
ENDBRANCH   3   4
ENDBRANCH   2   3
ENDBRANCH   1   2
BRANCH   1  22
ATOM     22  C   UNL A   1      43.254  21.120  25.817  1.00  0.00     0.202 C 
BRANCH  22  23
ATOM     23  C   UNL A   1      44.223  22.028  25.053  1.00  0.00     0.261 C 
BRANCH  23  24
ATOM     24  O   UNL A   1      43.582  23.266  24.690  1.00  0.00    -0.460 OA
BRANCH  24  25
ATOM     25  C   UNL A   1      44.271  24.384  25.013  1.00  0.00     0.338 C 
ATOM     26  O   UNL A   1      45.324  24.771  24.535  1.00  0.00    -0.246 OA
BRANCH  25  27
ATOM     27  C   UNL A   1      43.473  25.207  25.943  1.00  0.00     0.060 A 
ATOM     28  C   UNL A   1      43.848  26.549  26.097  1.00  0.00     0.016 A 
ATOM     29  C   UNL A   1      42.419  24.678  26.693  1.00  0.00     0.016 A 
ATOM     30  C   UNL A   1      43.208  27.350  27.038  1.00  0.00     0.010 A 
ATOM     31  C   UNL A   1      41.781  25.482  27.643  1.00  0.00     0.010 A 
ATOM     32  C   UNL A   1      42.198  26.810  27.845  1.00  0.00    -0.014 A 
BRANCH  32  33
ATOM     33  C   UNL A   1      41.693  27.592  28.998  1.00  0.00     0.031 A 
ATOM     34  C   UNL A   1      42.422  27.510  30.311  1.00  0.00     0.074 A 
ATOM     35  C   UNL A   1      40.623  28.398  28.871  1.00  0.00     0.049 A 
ATOM     36  N   UNL A   1      42.162  28.112  31.443  1.00  0.00    -0.248 NA
ATOM     37  C   UNL A   1      43.602  26.630  30.352  1.00  0.00     0.031 C 
ATOM     38  C   UNL A   1      39.854  28.597  27.644  1.00  0.00     0.029 A 
ATOM     39  N   UNL A   1      40.003  29.199  29.795  1.00  0.00    -0.354 N 
ATOM     40  C   UNL A   1      43.142  27.686  32.329  1.00  0.00     0.074 A 
ATOM     41  C   UNL A   1      43.983  26.750  31.615  1.00  0.00     0.031 C 
ATOM     42  C   UNL A   1      38.859  29.467  27.893  1.00  0.00     0.029 A 
ATOM     43  C   UNL A   1      38.908  29.863  29.299  1.00  0.00     0.049 A 
ATOM     44  H   UNL A   1      40.314  29.291  30.725  1.00  0.00     0.167 HD
ATOM     45  C   UNL A   1      43.332  28.043  33.621  1.00  0.00     0.031 A 
ATOM     46  C   UNL A   1      38.037  30.684  29.915  1.00  0.00     0.031 A 
ATOM     47  C   UNL A   1      42.491  28.961  34.341  1.00  0.00     0.049 A 
ATOM     48  C   UNL A   1      38.224  31.009  31.373  1.00  0.00     0.074 A 
ATOM     49  C   UNL A   1      42.613  29.398  35.649  1.00  0.00     0.029 A 
ATOM     50  N   UNL A   1      41.367  29.576  33.816  1.00  0.00    -0.354 N 
ATOM     51  N   UNL A   1      39.171  30.621  32.190  1.00  0.00    -0.248 NA
ATOM     52  C   UNL A   1      37.221  31.891  31.988  1.00  0.00     0.031 C 
ATOM     53  C   UNL A   1      41.531  30.240  35.930  1.00  0.00     0.029 A 
ATOM     54  C   UNL A   1      40.768  30.367  34.781  1.00  0.00     0.049 A 
ATOM     55  H   UNL A   1      41.041  29.467  32.893  1.00  0.00     0.167 HD
ATOM     56  C   UNL A   1      38.895  31.232  33.408  1.00  0.00     0.074 A 
ATOM     57  C   UNL A   1      37.698  32.024  33.218  1.00  0.00     0.031 C 
ATOM     58  C   UNL A   1      39.575  31.146  34.578  1.00  0.00     0.031 A 
BRANCH  45  59
ATOM     59  C   UNL A   1      44.483  27.407  34.347  1.00  0.00    -0.014 A 
ATOM     60  C   UNL A   1      44.299  26.272  35.152  1.00  0.00     0.009 A 
ATOM     61  C   UNL A   1      45.773  27.942  34.207  1.00  0.00     0.009 A 
ATOM     62  C   UNL A   1      45.380  25.705  35.830  1.00  0.00     0.001 A 
ATOM     63  C   UNL A   1      46.856  27.357  34.866  1.00  0.00     0.001 A 
ATOM     64  C   UNL A   1      46.657  26.245  35.684  1.00  0.00     0.000 A 
ENDBRANCH  45  59
BRANCH  46  65
ATOM     65  C   UNL A   1      36.892  31.252  29.157  1.00  0.00    -0.014 A 
ATOM     66  C   UNL A   1      35.767  30.467  28.866  1.00  0.00     0.009 A 
ATOM     67  C   UNL A   1      36.928  32.583  28.710  1.00  0.00     0.009 A 
ATOM     68  C   UNL A   1      34.710  30.997  28.122  1.00  0.00     0.001 A 
ATOM     69  C   UNL A   1      35.859  33.116  27.988  1.00  0.00     0.001 A 
ATOM     70  C   UNL A   1      34.754  32.322  27.688  1.00  0.00     0.000 A 
ENDBRANCH  46  65
BRANCH  58  71
ATOM     71  C   UNL A   1      39.057  31.952  35.735  1.00  0.00    -0.014 A 
ATOM     72  C   UNL A   1      38.171  31.396  36.671  1.00  0.00     0.009 A 
ATOM     73  C   UNL A   1      39.499  33.272  35.916  1.00  0.00     0.009 A 
ATOM     74  C   UNL A   1      37.715  32.158  37.749  1.00  0.00     0.001 A 
ATOM     75  C   UNL A   1      39.062  34.022  37.009  1.00  0.00     0.001 A 
ATOM     76  C   UNL A   1      38.164  33.467  37.920  1.00  0.00     0.000 A 
ENDBRANCH  58  71
ENDBRANCH  32  33
ENDBRANCH  25  27
ENDBRANCH  24  25
ENDBRANCH  23  24
ENDBRANCH  22  23
ENDBRANCH   1  22
TORSDOF 16
ENDMDL
