MODEL 1
REMARK VINA RESULT:      -8.4      0.000      0.000
REMARK SMILES COc1cccc(N2C(=O)C[C@@H](SC[C@@H](NC(C)=O)C(=O)OCCOCCOC(=O)c3ccc(-c4c5nc(c(-c6ccccc6)c6ccc([nH]6)c(-c6ccccc6)c6nc(c(-c7ccccc7)c7ccc4[nH]7)C=C6)C=C5)cc3)C2=O)c1
REMARK SMILES IDX 23 1 22 2 20 3 21 4 15 5 14 6 13 7 12 8 8 9 9 10 79 11 10 12
REMARK SMILES IDX 11 13 80 14 7 15 3 16 4 17 81 18 5 19 6 20 2 21 1 22 16 23
REMARK SMILES IDX 17 24 18 26 19 27 24 28 25 29 26 30 27 31 28 32 29 33 30 34
REMARK SMILES IDX 31 35 32 36 78 37 33 38 77 39 34 40 35 41 36 42 71 43 37 44
REMARK SMILES IDX 76 45 70 46 72 47 38 48 75 49 69 50 68 51 39 53 61 54 46 55
REMARK SMILES IDX 60 56 47 57 50 58 59 59 73 60 48 61 49 62 58 64 74 65 51 66
REMARK SMILES IDX 40 67 41 68 45 69 42 70 44 71 43 72 62 73 63 74 67 75 64 76
REMARK SMILES IDX 66 77 65 78 52 79 53 80 57 81 54 82 56 83 55 84
REMARK H PARENT 16 25 72 52 50 63
REMARK Flexibility Score: inf
ROOT
ATOM      1  C   UNL A   1      45.649  24.214  25.067  1.00  0.00     0.261 C 
ENDROOT
BRANCH   1   2
ATOM      2  O   UNL A   1      46.545  25.263  24.667  1.00  0.00    -0.462 OA
BRANCH   2   3
ATOM      3  C   UNL A   1      46.133  26.525  24.992  1.00  0.00     0.329 C 
ATOM      4  O   UNL A   1      44.963  26.883  25.063  1.00  0.00    -0.250 OA
BRANCH   3   5
ATOM      5  C   UNL A   1      47.309  27.416  25.421  1.00  0.00     0.202 C 
BRANCH   5   6
ATOM      6  C   UNL A   1      47.403  27.374  26.960  1.00  0.00     0.107 C 
BRANCH   6   7
ATOM      7  S   UNL A   1      46.740  28.846  27.848  1.00  0.00    -0.145 SA
BRANCH   7   8
ATOM      8  C   UNL A   1      46.884  30.218  26.649  1.00  0.00     0.146 C 
ATOM      9  N   UNL A   1      45.966  32.362  26.877  1.00  0.00    -0.249 N 
ATOM     10  C   UNL A   1      47.327  32.518  27.031  1.00  0.00     0.235 C 
ATOM     11  C   UNL A   1      45.648  31.064  26.536  1.00  0.00     0.247 C 
ATOM     12  O   UNL A   1      47.965  33.539  27.251  1.00  0.00    -0.274 OA
ATOM     13  C   UNL A   1      47.997  31.180  26.988  1.00  0.00     0.125 C 
ATOM     14  O   UNL A   1      44.563  30.616  26.190  1.00  0.00    -0.273 OA
BRANCH   9  15
ATOM     15  C   UNL A   1      44.999  33.393  27.112  1.00  0.00     0.055 A 
ATOM     16  C   UNL A   1      43.350  34.479  28.558  1.00  0.00     0.120 A 
ATOM     17  C   UNL A   1      42.822  35.154  27.462  1.00  0.00     0.046 A 
ATOM     18  C   UNL A   1      44.427  33.601  28.380  1.00  0.00     0.073 A 
ATOM     19  C   UNL A   1      43.398  35.002  26.207  1.00  0.00     0.006 A 
ATOM     20  C   UNL A   1      44.484  34.142  26.038  1.00  0.00     0.027 A 
BRANCH  16  21
ATOM     21  O   UNL A   1      42.699  34.708  29.739  1.00  0.00    -0.497 OA
ATOM     22  C   UNL A   1      41.278  34.703  29.687  1.00  0.00     0.278 C 
ENDBRANCH  16  21
ENDBRANCH   9  15
ENDBRANCH   7   8
ENDBRANCH   6   7
ENDBRANCH   5   6
BRANCH   5  23
ATOM     23  N   UNL A   1      48.560  26.988  24.780  1.00  0.00    -0.342 N 
ATOM     24  C   UNL A   1      48.887  27.436  23.517  1.00  0.00     0.217 C 
ATOM     25  H   UNL A   1      49.169  26.379  25.257  1.00  0.00     0.164 HD
ATOM     26  C   UNL A   1      50.301  27.149  23.107  1.00  0.00     0.114 C 
ATOM     27  O   UNL A   1      48.092  28.008  22.782  1.00  0.00    -0.275 OA
ENDBRANCH   5  23
ENDBRANCH   3   5
ENDBRANCH   2   3
ENDBRANCH   1   2
BRANCH   1  28
ATOM     28  C   UNL A   1      46.074  22.809  24.625  1.00  0.00     0.202 C 
BRANCH  28  29
ATOM     29  O   UNL A   1      45.840  21.738  25.534  1.00  0.00    -0.374 OA
BRANCH  29  30
ATOM     30  C   UNL A   1      46.073  20.410  25.071  1.00  0.00     0.202 C 
BRANCH  30  31
ATOM     31  C   UNL A   1      44.871  19.465  25.101  1.00  0.00     0.261 C 
BRANCH  31  32
ATOM     32  O   UNL A   1      43.651  20.147  24.749  1.00  0.00    -0.460 OA
BRANCH  32  33
ATOM     33  C   UNL A   1      42.635  19.950  25.612  1.00  0.00     0.338 C 
ATOM     34  O   UNL A   1      42.119  18.877  25.923  1.00  0.00    -0.246 OA
BRANCH  33  35
ATOM     35  C   UNL A   1      42.263  21.197  26.297  1.00  0.00     0.060 A 
ATOM     36  C   UNL A   1      42.405  22.387  25.573  1.00  0.00     0.016 A 
ATOM     37  C   UNL A   1      41.961  21.222  27.661  1.00  0.00     0.016 A 
ATOM     38  C   UNL A   1      42.356  23.610  26.232  1.00  0.00     0.010 A 
ATOM     39  C   UNL A   1      41.916  22.455  28.324  1.00  0.00     0.010 A 
ATOM     40  C   UNL A   1      42.184  23.645  27.621  1.00  0.00    -0.014 A 
BRANCH  40  41
ATOM     41  C   UNL A   1      42.539  24.892  28.342  1.00  0.00     0.031 A 
ATOM     42  C   UNL A   1      41.481  25.955  28.502  1.00  0.00     0.074 A 
ATOM     43  C   UNL A   1      43.739  25.043  28.927  1.00  0.00     0.049 A 
ATOM     44  N   UNL A   1      41.538  27.094  29.144  1.00  0.00    -0.248 NA
ATOM     45  C   UNL A   1      40.182  25.695  27.857  1.00  0.00     0.031 C 
ATOM     46  C   UNL A   1      44.825  24.066  28.897  1.00  0.00     0.029 A 
ATOM     47  N   UNL A   1      44.232  26.078  29.679  1.00  0.00    -0.354 N 
ATOM     48  C   UNL A   1      40.291  27.684  28.977  1.00  0.00     0.074 A 
ATOM     49  C   UNL A   1      39.507  26.796  28.147  1.00  0.00     0.031 C 
ATOM     50  C   UNL A   1      45.861  24.548  29.606  1.00  0.00     0.029 A 
ATOM     51  C   UNL A   1      45.515  25.871  30.122  1.00  0.00     0.049 A 
ATOM     52  H   UNL A   1      43.717  26.891  29.883  1.00  0.00     0.167 HD
ATOM     53  C   UNL A   1      39.829  28.854  29.478  1.00  0.00     0.031 A 
ATOM     54  C   UNL A   1      46.318  26.664  30.858  1.00  0.00     0.031 A 
ATOM     55  C   UNL A   1      40.600  29.744  30.300  1.00  0.00     0.049 A 
ATOM     56  C   UNL A   1      45.804  27.989  31.352  1.00  0.00     0.074 A 
ATOM     57  C   UNL A   1      40.222  30.954  30.854  1.00  0.00     0.029 A 
ATOM     58  N   UNL A   1      41.912  29.517  30.687  1.00  0.00    -0.354 N 
ATOM     59  N   UNL A   1      44.618  28.527  31.197  1.00  0.00    -0.248 NA
ATOM     60  C   UNL A   1      46.738  28.808  32.139  1.00  0.00     0.031 C 
ATOM     61  C   UNL A   1      41.322  31.480  31.542  1.00  0.00     0.029 A 
ATOM     62  C   UNL A   1      42.365  30.572  31.458  1.00  0.00     0.049 A 
ATOM     63  H   UNL A   1      42.442  28.722  30.448  1.00  0.00     0.167 HD
ATOM     64  C   UNL A   1      44.654  29.729  31.892  1.00  0.00     0.074 A 
ATOM     65  C   UNL A   1      45.975  29.838  32.477  1.00  0.00     0.031 C 
ATOM     66  C   UNL A   1      43.678  30.660  32.037  1.00  0.00     0.031 A 
BRANCH  53  67
ATOM     67  C   UNL A   1      38.425  29.250  29.118  1.00  0.00    -0.014 A 
ATOM     68  C   UNL A   1      37.375  29.134  30.043  1.00  0.00     0.009 A 
ATOM     69  C   UNL A   1      38.152  29.764  27.841  1.00  0.00     0.009 A 
ATOM     70  C   UNL A   1      36.074  29.494  29.683  1.00  0.00     0.001 A 
ATOM     71  C   UNL A   1      36.856  30.147  27.493  1.00  0.00     0.001 A 
ATOM     72  C   UNL A   1      35.817  30.003  28.411  1.00  0.00     0.000 A 
ENDBRANCH  53  67
BRANCH  54  73
ATOM     73  C   UNL A   1      47.703  26.227  31.175  1.00  0.00    -0.014 A 
ATOM     74  C   UNL A   1      48.704  26.248  30.191  1.00  0.00     0.009 A 
ATOM     75  C   UNL A   1      48.024  25.768  32.462  1.00  0.00     0.009 A 
ATOM     76  C   UNL A   1      49.991  25.791  30.485  1.00  0.00     0.001 A 
ATOM     77  C   UNL A   1      49.317  25.338  32.759  1.00  0.00     0.001 A 
ATOM     78  C   UNL A   1      50.298  25.341  31.769  1.00  0.00     0.000 A 
ENDBRANCH  54  73
BRANCH  66  79
ATOM     79  C   UNL A   1      43.988  31.852  32.898  1.00  0.00    -0.014 A 
ATOM     80  C   UNL A   1      43.765  31.833  34.282  1.00  0.00     0.009 A 
ATOM     81  C   UNL A   1      44.551  32.998  32.314  1.00  0.00     0.009 A 
ATOM     82  C   UNL A   1      44.067  32.952  35.060  1.00  0.00     0.001 A 
ATOM     83  C   UNL A   1      44.877  34.106  33.098  1.00  0.00     0.001 A 
ATOM     84  C   UNL A   1      44.625  34.085  34.468  1.00  0.00     0.000 A 
ENDBRANCH  66  79
ENDBRANCH  40  41
ENDBRANCH  33  35
ENDBRANCH  32  33
ENDBRANCH  31  32
ENDBRANCH  30  31
ENDBRANCH  29  30
ENDBRANCH  28  29
ENDBRANCH   1  28
TORSDOF 20
ENDMDL
MODEL 2
REMARK VINA RESULT:      -8.3      6.400     12.477
REMARK SMILES COc1cccc(N2C(=O)C[C@@H](SC[C@@H](NC(C)=O)C(=O)OCCOCCOC(=O)c3ccc(-c4c5nc(c(-c6ccccc6)c6ccc([nH]6)c(-c6ccccc6)c6nc(c(-c7ccccc7)c7ccc4[nH]7)C=C6)C=C5)cc3)C2=O)c1
REMARK SMILES IDX 23 1 22 2 20 3 21 4 15 5 14 6 13 7 12 8 8 9 9 10 79 11 10 12
REMARK SMILES IDX 11 13 80 14 7 15 3 16 4 17 81 18 5 19 6 20 2 21 1 22 16 23
REMARK SMILES IDX 17 24 18 26 19 27 24 28 25 29 26 30 27 31 28 32 29 33 30 34
REMARK SMILES IDX 31 35 32 36 78 37 33 38 77 39 34 40 35 41 36 42 71 43 37 44
REMARK SMILES IDX 76 45 70 46 72 47 38 48 75 49 69 50 68 51 39 53 61 54 46 55
REMARK SMILES IDX 60 56 47 57 50 58 59 59 73 60 48 61 49 62 58 64 74 65 51 66
REMARK SMILES IDX 40 67 41 68 45 69 42 70 44 71 43 72 62 73 63 74 67 75 64 76
REMARK SMILES IDX 66 77 65 78 52 79 53 80 57 81 54 82 56 83 55 84
REMARK H PARENT 16 25 72 52 50 63
REMARK Flexibility Score: inf
ROOT
ATOM      1  C   UNL A   1      31.636  27.037  26.550  1.00  0.00     0.261 C 
ENDROOT
BRANCH   1   2
ATOM      2  O   UNL A   1      30.364  26.775  25.935  1.00  0.00    -0.462 OA
BRANCH   2   3
ATOM      3  C   UNL A   1      30.396  26.667  24.573  1.00  0.00     0.329 C 
ATOM      4  O   UNL A   1      30.110  25.656  23.943  1.00  0.00    -0.250 OA
BRANCH   3   5
ATOM      5  C   UNL A   1      30.676  28.021  23.903  1.00  0.00     0.202 C 
BRANCH   5   6
ATOM      6  C   UNL A   1      32.012  27.908  23.137  1.00  0.00     0.107 C 
BRANCH   6   7
ATOM      7  S   UNL A   1      32.002  26.809  21.658  1.00  0.00    -0.145 SA
BRANCH   7   8
ATOM      8  C   UNL A   1      33.310  25.574  21.987  1.00  0.00     0.146 C 
ATOM      9  N   UNL A   1      33.301  23.964  23.689  1.00  0.00    -0.249 N 
ATOM     10  C   UNL A   1      33.113  23.269  22.513  1.00  0.00     0.235 C 
ATOM     11  C   UNL A   1      33.540  25.301  23.446  1.00  0.00     0.247 C 
ATOM     12  O   UNL A   1      32.960  22.066  22.346  1.00  0.00    -0.274 OA
ATOM     13  C   UNL A   1      33.016  24.229  21.369  1.00  0.00     0.125 C 
ATOM     14  O   UNL A   1      33.884  26.165  24.241  1.00  0.00    -0.273 OA
BRANCH   9  15
ATOM     15  C   UNL A   1      33.190  23.390  24.998  1.00  0.00     0.055 A 
ATOM     16  C   UNL A   1      31.903  22.961  27.034  1.00  0.00     0.120 A 
ATOM     17  C   UNL A   1      33.072  22.623  27.711  1.00  0.00     0.046 A 
ATOM     18  C   UNL A   1      31.967  23.346  25.689  1.00  0.00     0.073 A 
ATOM     19  C   UNL A   1      34.288  22.614  27.038  1.00  0.00     0.006 A 
ATOM     20  C   UNL A   1      34.343  22.980  25.692  1.00  0.00     0.027 A 
BRANCH  16  21
ATOM     21  O   UNL A   1      30.771  22.934  27.801  1.00  0.00    -0.497 OA
ATOM     22  C   UNL A   1      29.538  22.828  27.099  1.00  0.00     0.278 C 
ENDBRANCH  16  21
ENDBRANCH   9  15
ENDBRANCH   7   8
ENDBRANCH   6   7
ENDBRANCH   5   6
BRANCH   5  23
ATOM     23  N   UNL A   1      29.569  28.419  23.024  1.00  0.00    -0.342 N 
ATOM     24  C   UNL A   1      29.150  29.732  22.978  1.00  0.00     0.217 C 
ATOM     25  H   UNL A   1      29.124  27.743  22.463  1.00  0.00     0.164 HD
ATOM     26  C   UNL A   1      28.213  30.042  21.848  1.00  0.00     0.114 C 
ATOM     27  O   UNL A   1      29.499  30.576  23.794  1.00  0.00    -0.275 OA
ENDBRANCH   5  23
ENDBRANCH   3   5
ENDBRANCH   2   3
ENDBRANCH   1   2
BRANCH   1  28
ATOM     28  C   UNL A   1      31.715  28.366  27.310  1.00  0.00     0.202 C 
BRANCH  28  29
ATOM     29  O   UNL A   1      32.686  29.312  26.874  1.00  0.00    -0.374 OA
BRANCH  29  30
ATOM     30  C   UNL A   1      32.394  30.695  27.055  1.00  0.00     0.202 C 
BRANCH  30  31
ATOM     31  C   UNL A   1      33.517  31.550  27.648  1.00  0.00     0.261 C 
BRANCH  31  32
ATOM     32  O   UNL A   1      33.344  32.945  27.332  1.00  0.00    -0.460 OA
BRANCH  32  33
ATOM     33  C   UNL A   1      33.348  33.762  28.404  1.00  0.00     0.338 C 
ATOM     34  O   UNL A   1      32.422  34.464  28.809  1.00  0.00    -0.246 OA
BRANCH  33  35
ATOM     35  C   UNL A   1      34.593  33.629  29.176  1.00  0.00     0.060 A 
ATOM     36  C   UNL A   1      35.766  34.104  28.577  1.00  0.00     0.016 A 
ATOM     37  C   UNL A   1      34.643  32.900  30.367  1.00  0.00     0.016 A 
ATOM     38  C   UNL A   1      37.004  33.756  29.105  1.00  0.00     0.010 A 
ATOM     39  C   UNL A   1      35.891  32.548  30.895  1.00  0.00     0.010 A 
ATOM     40  C   UNL A   1      37.072  32.917  30.224  1.00  0.00    -0.014 A 
BRANCH  40  41
ATOM     41  C   UNL A   1      38.359  32.238  30.516  1.00  0.00     0.031 A 
ATOM     42  C   UNL A   1      39.260  32.832  31.570  1.00  0.00     0.074 A 
ATOM     43  C   UNL A   1      38.680  31.071  29.934  1.00  0.00     0.049 A 
ATOM     44  N   UNL A   1      40.397  32.383  32.039  1.00  0.00    -0.248 NA
ATOM     45  C   UNL A   1      38.816  34.096  32.181  1.00  0.00     0.031 C 
ATOM     46  C   UNL A   1      37.868  30.365  28.946  1.00  0.00     0.029 A 
ATOM     47  N   UNL A   1      39.776  30.266  30.112  1.00  0.00    -0.354 N 
ATOM     48  C   UNL A   1      40.803  33.309  32.992  1.00  0.00     0.074 A 
ATOM     49  C   UNL A   1      39.811  34.361  33.014  1.00  0.00     0.031 C 
ATOM     50  C   UNL A   1      38.494  29.225  28.606  1.00  0.00     0.029 A 
ATOM     51  C   UNL A   1      39.756  29.133  29.339  1.00  0.00     0.049 A 
ATOM     52  H   UNL A   1      40.508  30.481  30.734  1.00  0.00     0.167 HD
ATOM     53  C   UNL A   1      41.896  33.285  33.790  1.00  0.00     0.031 A 
ATOM     54  C   UNL A   1      40.656  28.136  29.233  1.00  0.00     0.031 A 
ATOM     55  C   UNL A   1      42.889  32.246  33.773  1.00  0.00     0.049 A 
ATOM     56  C   UNL A   1      41.895  28.161  30.086  1.00  0.00     0.074 A 
ATOM     57  C   UNL A   1      44.034  32.133  34.542  1.00  0.00     0.029 A 
ATOM     58  N   UNL A   1      42.851  31.139  32.941  1.00  0.00    -0.354 N 
ATOM     59  N   UNL A   1      42.258  29.037  30.992  1.00  0.00    -0.248 NA
ATOM     60  C   UNL A   1      42.841  27.050  29.912  1.00  0.00     0.031 C 
ATOM     61  C   UNL A   1      44.713  30.976  34.143  1.00  0.00     0.029 A 
ATOM     62  C   UNL A   1      43.962  30.345  33.165  1.00  0.00     0.049 A 
ATOM     63  H   UNL A   1      42.140  30.945  32.288  1.00  0.00     0.167 HD
ATOM     64  C   UNL A   1      43.455  28.564  31.517  1.00  0.00     0.074 A 
ATOM     65  C   UNL A   1      43.752  27.322  30.835  1.00  0.00     0.031 C 
ATOM     66  C   UNL A   1      44.237  29.109  32.482  1.00  0.00     0.031 A 
BRANCH  53  67
ATOM     67  C   UNL A   1      42.087  34.441  34.730  1.00  0.00    -0.014 A 
ATOM     68  C   UNL A   1      41.496  34.451  36.004  1.00  0.00     0.009 A 
ATOM     69  C   UNL A   1      42.886  35.528  34.344  1.00  0.00     0.009 A 
ATOM     70  C   UNL A   1      41.674  35.542  36.858  1.00  0.00     0.001 A 
ATOM     71  C   UNL A   1      43.083  36.606  35.209  1.00  0.00     0.001 A 
ATOM     72  C   UNL A   1      42.470  36.616  36.461  1.00  0.00     0.000 A 
ENDBRANCH  53  67
BRANCH  54  73
ATOM     73  C   UNL A   1      40.422  27.022  28.278  1.00  0.00    -0.014 A 
ATOM     74  C   UNL A   1      39.708  25.879  28.669  1.00  0.00     0.009 A 
ATOM     75  C   UNL A   1      40.933  27.091  26.972  1.00  0.00     0.009 A 
ATOM     76  C   UNL A   1      39.533  24.817  27.778  1.00  0.00     0.001 A 
ATOM     77  C   UNL A   1      40.735  26.040  26.077  1.00  0.00     0.001 A 
ATOM     78  C   UNL A   1      40.043  24.899  26.483  1.00  0.00     0.000 A 
ENDBRANCH  54  73
BRANCH  66  79
ATOM     79  C   UNL A   1      45.463  28.341  32.888  1.00  0.00    -0.014 A 
ATOM     80  C   UNL A   1      46.704  28.567  32.274  1.00  0.00     0.009 A 
ATOM     81  C   UNL A   1      45.379  27.405  33.932  1.00  0.00     0.009 A 
ATOM     82  C   UNL A   1      47.830  27.844  32.675  1.00  0.00     0.001 A 
ATOM     83  C   UNL A   1      46.511  26.704  34.348  1.00  0.00     0.001 A 
ATOM     84  C   UNL A   1      47.733  26.917  33.713  1.00  0.00     0.000 A 
ENDBRANCH  66  79
ENDBRANCH  40  41
ENDBRANCH  33  35
ENDBRANCH  32  33
ENDBRANCH  31  32
ENDBRANCH  30  31
ENDBRANCH  29  30
ENDBRANCH  28  29
ENDBRANCH   1  28
TORSDOF 20
ENDMDL
MODEL 3
REMARK VINA RESULT:      -8.2      6.794     13.260
REMARK SMILES COc1cccc(N2C(=O)C[C@@H](SC[C@@H](NC(C)=O)C(=O)OCCOCCOC(=O)c3ccc(-c4c5nc(c(-c6ccccc6)c6ccc([nH]6)c(-c6ccccc6)c6nc(c(-c7ccccc7)c7ccc4[nH]7)C=C6)C=C5)cc3)C2=O)c1
REMARK SMILES IDX 23 1 22 2 20 3 21 4 15 5 14 6 13 7 12 8 8 9 9 10 79 11 10 12
REMARK SMILES IDX 11 13 80 14 7 15 3 16 4 17 81 18 5 19 6 20 2 21 1 22 16 23
REMARK SMILES IDX 17 24 18 26 19 27 24 28 25 29 26 30 27 31 28 32 29 33 30 34
REMARK SMILES IDX 31 35 32 36 78 37 33 38 77 39 34 40 35 41 36 42 71 43 37 44
REMARK SMILES IDX 76 45 70 46 72 47 38 48 75 49 69 50 68 51 39 53 61 54 46 55
REMARK SMILES IDX 60 56 47 57 50 58 59 59 73 60 48 61 49 62 58 64 74 65 51 66
REMARK SMILES IDX 40 67 41 68 45 69 42 70 44 71 43 72 62 73 63 74 67 75 64 76
REMARK SMILES IDX 66 77 65 78 52 79 53 80 57 81 54 82 56 83 55 84
REMARK H PARENT 16 25 72 52 50 63
REMARK Flexibility Score: inf
ROOT
ATOM      1  C   UNL A   1      32.001  30.163  26.659  1.00  0.00     0.261 C 
ENDROOT
BRANCH   1   2
ATOM      2  O   UNL A   1      32.222  29.264  25.560  1.00  0.00    -0.462 OA
BRANCH   2   3
ATOM      3  C   UNL A   1      31.557  28.073  25.649  1.00  0.00     0.329 C 
ATOM      4  O   UNL A   1      31.483  27.386  26.662  1.00  0.00    -0.250 OA
BRANCH   3   5
ATOM      5  C   UNL A   1      30.766  27.767  24.369  1.00  0.00     0.202 C 
BRANCH   5   6
ATOM      6  C   UNL A   1      29.798  26.604  24.672  1.00  0.00     0.107 C 
BRANCH   6   7
ATOM      7  S   UNL A   1      30.222  24.982  23.907  1.00  0.00    -0.145 SA
BRANCH   7   8
ATOM      8  C   UNL A   1      32.024  24.804  24.160  1.00  0.00     0.146 C 
ATOM      9  N   UNL A   1      33.267  22.830  23.941  1.00  0.00    -0.249 N 
ATOM     10  C   UNL A   1      33.621  23.618  22.866  1.00  0.00     0.235 C 
ATOM     11  C   UNL A   1      32.426  23.506  24.800  1.00  0.00     0.247 C 
ATOM     12  O   UNL A   1      34.407  23.376  21.959  1.00  0.00    -0.274 OA
ATOM     13  C   UNL A   1      32.807  24.875  22.872  1.00  0.00     0.125 C 
ATOM     14  O   UNL A   1      32.039  23.161  25.908  1.00  0.00    -0.273 OA
BRANCH   9  15
ATOM     15  C   UNL A   1      33.660  21.462  24.108  1.00  0.00     0.055 A 
ATOM     16  C   UNL A   1      33.092  19.089  24.292  1.00  0.00     0.120 A 
ATOM     17  C   UNL A   1      34.349  18.821  24.824  1.00  0.00     0.046 A 
ATOM     18  C   UNL A   1      32.751  20.402  23.942  1.00  0.00     0.073 A 
ATOM     19  C   UNL A   1      35.282  19.843  24.955  1.00  0.00     0.006 A 
ATOM     20  C   UNL A   1      34.945  21.146  24.586  1.00  0.00     0.027 A 
BRANCH  16  21
ATOM     21  O   UNL A   1      32.261  18.005  24.213  1.00  0.00    -0.497 OA
ATOM     22  C   UNL A   1      32.354  17.062  25.275  1.00  0.00     0.278 C 
ENDBRANCH  16  21
ENDBRANCH   9  15
ENDBRANCH   7   8
ENDBRANCH   6   7
ENDBRANCH   5   6
BRANCH   5  23
ATOM     23  N   UNL A   1      30.060  28.959  23.883  1.00  0.00    -0.342 N 
ATOM     24  C   UNL A   1      29.979  29.221  22.531  1.00  0.00     0.217 C 
ATOM     25  H   UNL A   1      29.640  29.575  24.526  1.00  0.00     0.164 HD
ATOM     26  C   UNL A   1      29.005  30.302  22.168  1.00  0.00     0.114 C 
ATOM     27  O   UNL A   1      30.652  28.633  21.693  1.00  0.00    -0.275 OA
ENDBRANCH   5  23
ENDBRANCH   3   5
ENDBRANCH   2   3
ENDBRANCH   1   2
BRANCH   1  28
ATOM     28  C   UNL A   1      33.270  30.819  27.213  1.00  0.00     0.202 C 
BRANCH  28  29
ATOM     29  O   UNL A   1      33.156  32.148  27.713  1.00  0.00    -0.374 OA
BRANCH  29  30
ATOM     30  C   UNL A   1      34.313  32.738  28.299  1.00  0.00     0.202 C 
BRANCH  30  31
ATOM     31  C   UNL A   1      34.150  34.168  28.821  1.00  0.00     0.261 C 
BRANCH  31  32
ATOM     32  O   UNL A   1      33.230  34.226  29.929  1.00  0.00    -0.460 OA
BRANCH  32  33
ATOM     33  C   UNL A   1      33.538  35.152  30.858  1.00  0.00     0.338 C 
ATOM     34  O   UNL A   1      33.070  36.285  30.965  1.00  0.00    -0.246 OA
BRANCH  33  35
ATOM     35  C   UNL A   1      34.443  34.606  31.881  1.00  0.00     0.060 A 
ATOM     36  C   UNL A   1      35.609  35.333  32.151  1.00  0.00     0.016 A 
ATOM     37  C   UNL A   1      34.251  33.334  32.427  1.00  0.00     0.016 A 
ATOM     38  C   UNL A   1      36.639  34.746  32.877  1.00  0.00     0.010 A 
ATOM     39  C   UNL A   1      35.292  32.743  33.154  1.00  0.00     0.010 A 
ATOM     40  C   UNL A   1      36.513  33.423  33.319  1.00  0.00    -0.014 A 
BRANCH  40  41
ATOM     41  C   UNL A   1      37.743  32.695  33.717  1.00  0.00     0.031 A 
ATOM     42  C   UNL A   1      38.338  31.705  32.746  1.00  0.00     0.074 A 
ATOM     43  C   UNL A   1      38.376  32.972  34.869  1.00  0.00     0.049 A 
ATOM     44  N   UNL A   1      39.437  31.001  32.847  1.00  0.00    -0.248 NA
ATOM     45  C   UNL A   1      37.597  31.486  31.492  1.00  0.00     0.031 C 
ATOM     46  C   UNL A   1      37.937  33.948  35.863  1.00  0.00     0.029 A 
ATOM     47  N   UNL A   1      39.541  32.462  35.383  1.00  0.00    -0.354 N 
ATOM     48  C   UNL A   1      39.515  30.257  31.676  1.00  0.00     0.074 A 
ATOM     49  C   UNL A   1      38.340  30.567  30.894  1.00  0.00     0.031 C 
ATOM     50  C   UNL A   1      38.827  33.971  36.871  1.00  0.00     0.029 A 
ATOM     51  C   UNL A   1      39.884  32.999  36.598  1.00  0.00     0.049 A 
ATOM     52  H   UNL A   1      40.078  31.777  34.926  1.00  0.00     0.167 HD
ATOM     53  C   UNL A   1      40.484  29.399  31.276  1.00  0.00     0.031 A 
ATOM     54  C   UNL A   1      40.934  32.733  37.401  1.00  0.00     0.031 A 
ATOM     55  C   UNL A   1      41.654  29.082  32.048  1.00  0.00     0.049 A 
ATOM     56  C   UNL A   1      41.967  31.729  36.964  1.00  0.00     0.074 A 
ATOM     57  C   UNL A   1      42.691  28.223  31.731  1.00  0.00     0.029 A 
ATOM     58  N   UNL A   1      41.940  29.615  33.295  1.00  0.00    -0.354 N 
ATOM     59  N   UNL A   1      42.034  31.043  35.848  1.00  0.00    -0.248 NA
ATOM     60  C   UNL A   1      43.078  31.477  37.892  1.00  0.00     0.031 C 
ATOM     61  C   UNL A   1      43.586  28.205  32.807  1.00  0.00     0.029 A 
ATOM     62  C   UNL A   1      43.129  29.091  33.769  1.00  0.00     0.049 A 
ATOM     63  H   UNL A   1      41.380  30.269  33.772  1.00  0.00     0.167 HD
ATOM     64  C   UNL A   1      43.208  30.305  35.928  1.00  0.00     0.074 A 
ATOM     65  C   UNL A   1      43.826  30.634  37.196  1.00  0.00     0.031 C 
ATOM     66  C   UNL A   1      43.732  29.435  35.029  1.00  0.00     0.031 A 
BRANCH  53  67
ATOM     67  C   UNL A   1      40.296  28.719  29.950  1.00  0.00    -0.014 A 
ATOM     68  C   UNL A   1      40.776  29.293  28.762  1.00  0.00     0.009 A 
ATOM     69  C   UNL A   1      39.646  27.477  29.891  1.00  0.00     0.009 A 
ATOM     70  C   UNL A   1      40.579  28.651  27.537  1.00  0.00     0.001 A 
ATOM     71  C   UNL A   1      39.472  26.825  28.669  1.00  0.00     0.001 A 
ATOM     72  C   UNL A   1      39.931  27.417  27.492  1.00  0.00     0.000 A 
ENDBRANCH  53  67
BRANCH  54  73
ATOM     73  C   UNL A   1      41.064  33.427  38.708  1.00  0.00    -0.014 A 
ATOM     74  C   UNL A   1      41.803  34.614  38.820  1.00  0.00     0.009 A 
ATOM     75  C   UNL A   1      40.462  32.889  39.857  1.00  0.00     0.009 A 
ATOM     76  C   UNL A   1      41.959  35.234  40.062  1.00  0.00     0.001 A 
ATOM     77  C   UNL A   1      40.598  33.525  41.092  1.00  0.00     0.001 A 
ATOM     78  C   UNL A   1      41.354  34.692  41.195  1.00  0.00     0.000 A 
ENDBRANCH  54  73
BRANCH  66  79
ATOM     79  C   UNL A   1      45.058  28.814  35.365  1.00  0.00    -0.014 A 
ATOM     80  C   UNL A   1      46.266  29.433  35.013  1.00  0.00     0.009 A 
ATOM     81  C   UNL A   1      45.094  27.607  36.083  1.00  0.00     0.009 A 
ATOM     82  C   UNL A   1      47.485  28.838  35.343  1.00  0.00     0.001 A 
ATOM     83  C   UNL A   1      46.314  27.028  36.435  1.00  0.00     0.001 A 
ATOM     84  C   UNL A   1      47.508  27.639  36.056  1.00  0.00     0.000 A 
ENDBRANCH  66  79
ENDBRANCH  40  41
ENDBRANCH  33  35
ENDBRANCH  32  33
ENDBRANCH  31  32
ENDBRANCH  30  31
ENDBRANCH  29  30
ENDBRANCH  28  29
ENDBRANCH   1  28
TORSDOF 20
ENDMDL
