MODEL 1
REMARK VINA RESULT:     -10.8      0.000      0.000
REMARK SMILES Cc1c(Cl)cc2c(c1C)O[C@H](C(F)(F)F)C(C(=O)OCCOCCOC(=O)c1ccc(-c3c4nc(c(-c5ccccc5)c5ccc([nH]5)c(-c5ccccc5)c5nc(c(-c6ccccc6)c6ccc3[nH]6)C=C5)C=C4)cc1)=C2
REMARK SMILES IDX 23 1 22 2 21 3 20 4 19 5 17 6 18 7 16 8 1 9 2 10 3 11 8 12
REMARK SMILES IDX 4 13 5 14 7 15 9 16 6 17 10 18 76 19 11 20 12 21 13 22 14 23
REMARK SMILES IDX 15 24 24 25 25 26 26 27 27 28 28 29 29 30 75 31 30 32 74 33
REMARK SMILES IDX 31 34 32 35 33 36 68 37 34 38 73 39 67 40 69 41 35 42 72 43
REMARK SMILES IDX 66 44 65 45 36 47 58 48 43 49 57 50 44 51 47 52 56 53 70 54
REMARK SMILES IDX 45 55 46 56 55 58 71 59 48 60 37 61 38 62 42 63 39 64 41 65
REMARK SMILES IDX 40 66 59 67 60 68 64 69 61 70 63 71 62 72 49 73 50 74 54 75
REMARK SMILES IDX 51 76 53 77 52 78
REMARK H PARENT 69 46 47 57
REMARK Flexibility Score: inf
ROOT
ATOM      1  C   UNL A   1      31.581  31.683  26.848  1.00  0.00     0.202 C 
ENDROOT
BRANCH   1   2
ATOM      2  O   UNL A   1      31.206  31.174  25.566  1.00  0.00    -0.374 OA
BRANCH   2   3
ATOM      3  C   UNL A   1      31.444  29.793  25.304  1.00  0.00     0.202 C 
BRANCH   3   4
ATOM      4  C   UNL A   1      32.878  29.410  24.929  1.00  0.00     0.261 C 
BRANCH   4   5
ATOM      5  O   UNL A   1      33.130  28.016  25.168  1.00  0.00    -0.460 OA
BRANCH   5   6
ATOM      6  C   UNL A   1      33.258  27.269  24.047  1.00  0.00     0.338 C 
ATOM      7  O   UNL A   1      33.455  27.679  22.911  1.00  0.00    -0.246 OA
BRANCH   6   8
ATOM      8  C   UNL A   1      33.246  25.837  24.393  1.00  0.00     0.087 C 
ATOM      9  C   UNL A   1      34.686  19.507  24.727  1.00  0.00     0.046 C 
ATOM     10  C   UNL A   1      34.617  21.013  24.786  1.00  0.00    -0.026 A 
ATOM     11  C   UNL A   1      35.793  21.788  24.793  1.00  0.00     0.045 A 
ATOM     12  C   UNL A   1      33.365  21.678  24.855  1.00  0.00    -0.004 A 
ATOM     13  Cl  UNL A   1      37.373  21.083  24.835  1.00  0.00    -0.084 Cl
ATOM     14  C   UNL A   1      35.734  23.182  24.753  1.00  0.00     0.032 A 
ATOM     15  C   UNL A   1      33.323  23.089  24.805  1.00  0.00     0.131 A 
ATOM     16  C   UNL A   1      32.056  20.927  24.924  1.00  0.00     0.049 C 
ATOM     17  C   UNL A   1      34.501  23.830  24.717  1.00  0.00     0.019 A 
ATOM     18  O   UNL A   1      32.086  23.678  24.850  1.00  0.00    -0.475 OA
ATOM     19  C   UNL A   1      34.450  25.266  24.521  1.00  0.00     0.027 C 
ATOM     20  C   UNL A   1      31.950  25.094  24.546  1.00  0.00     0.316 C 
BRANCH  20  21
ATOM     21  C   UNL A   1      31.032  25.238  23.324  1.00  0.00     0.430 C 
ATOM     22  F   UNL A   1      31.740  25.161  22.170  1.00  0.00    -0.167 F 
ATOM     23  F   UNL A   1      30.105  24.254  23.271  1.00  0.00    -0.167 F 
ATOM     24  F   UNL A   1      30.372  26.418  23.317  1.00  0.00    -0.167 F 
ENDBRANCH  20  21
ENDBRANCH   6   8
ENDBRANCH   5   6
ENDBRANCH   4   5
ENDBRANCH   3   4
ENDBRANCH   2   3
ENDBRANCH   1   2
BRANCH   1  25
ATOM     25  C   UNL A   1      32.132  33.114  26.890  1.00  0.00     0.261 C 
BRANCH  25  26
ATOM     26  O   UNL A   1      32.166  33.634  28.232  1.00  0.00    -0.460 OA
BRANCH  26  27
ATOM     27  C   UNL A   1      33.215  34.444  28.502  1.00  0.00     0.338 C 
ATOM     28  O   UNL A   1      33.192  35.655  28.695  1.00  0.00    -0.246 OA
BRANCH  27  29
ATOM     29  C   UNL A   1      34.426  33.641  28.731  1.00  0.00     0.060 A 
ATOM     30  C   UNL A   1      34.262  32.356  29.263  1.00  0.00     0.016 A 
ATOM     31  C   UNL A   1      35.703  34.167  28.520  1.00  0.00     0.016 A 
ATOM     32  C   UNL A   1      35.376  31.607  29.632  1.00  0.00     0.010 A 
ATOM     33  C   UNL A   1      36.821  33.418  28.903  1.00  0.00     0.010 A 
ATOM     34  C   UNL A   1      36.660  32.153  29.495  1.00  0.00    -0.014 A 
BRANCH  34  35
ATOM     35  C   UNL A   1      37.806  31.457  30.126  1.00  0.00     0.031 A 
ATOM     36  C   UNL A   1      38.110  31.722  31.575  1.00  0.00     0.074 A 
ATOM     37  C   UNL A   1      38.523  30.548  29.441  1.00  0.00     0.049 A 
ATOM     38  N   UNL A   1      39.029  31.188  32.338  1.00  0.00    -0.248 NA
ATOM     39  C   UNL A   1      37.260  32.713  32.256  1.00  0.00     0.031 C 
ATOM     40  C   UNL A   1      38.290  30.163  28.050  1.00  0.00     0.029 A 
ATOM     41  N   UNL A   1      39.585  29.774  29.834  1.00  0.00    -0.354 N 
ATOM     42  C   UNL A   1      38.862  31.769  33.589  1.00  0.00     0.074 A 
ATOM     43  C   UNL A   1      37.780  32.723  33.475  1.00  0.00     0.031 C 
ATOM     44  C   UNL A   1      39.178  29.213  27.709  1.00  0.00     0.029 A 
ATOM     45  C   UNL A   1      40.056  28.944  28.847  1.00  0.00     0.049 A 
ATOM     46  H   UNL A   1      39.972  29.810  30.739  1.00  0.00     0.167 HD
ATOM     47  C   UNL A   1      39.537  31.520  34.735  1.00  0.00     0.031 A 
ATOM     48  C   UNL A   1      41.083  28.072  28.859  1.00  0.00     0.031 A 
ATOM     49  C   UNL A   1      40.621  30.584  34.848  1.00  0.00     0.049 A 
ATOM     50  C   UNL A   1      41.891  27.896  30.116  1.00  0.00     0.074 A 
ATOM     51  C   UNL A   1      41.362  30.259  35.971  1.00  0.00     0.029 A 
ATOM     52  N   UNL A   1      41.125  29.831  33.801  1.00  0.00    -0.354 N 
ATOM     53  N   UNL A   1      41.708  28.435  31.298  1.00  0.00    -0.248 NA
ATOM     54  C   UNL A   1      43.049  26.990  30.041  1.00  0.00     0.031 C 
ATOM     55  C   UNL A   1      42.351  29.348  35.590  1.00  0.00     0.029 A 
ATOM     56  C   UNL A   1      42.192  29.068  34.242  1.00  0.00     0.049 A 
ATOM     57  H   UNL A   1      40.777  29.838  32.880  1.00  0.00     0.167 HD
ATOM     58  C   UNL A   1      42.714  27.923  32.109  1.00  0.00     0.074 A 
ATOM     59  C   UNL A   1      43.497  27.021  31.290  1.00  0.00     0.031 C 
ATOM     60  C   UNL A   1      42.965  28.180  33.414  1.00  0.00     0.031 A 
BRANCH  47  61
ATOM     61  C   UNL A   1      39.132  32.288  35.959  1.00  0.00    -0.014 A 
ATOM     62  C   UNL A   1      38.139  31.800  36.822  1.00  0.00     0.009 A 
ATOM     63  C   UNL A   1      39.788  33.485  36.282  1.00  0.00     0.009 A 
ATOM     64  C   UNL A   1      37.793  32.510  37.974  1.00  0.00     0.001 A 
ATOM     65  C   UNL A   1      39.457  34.181  37.447  1.00  0.00     0.001 A 
ATOM     66  C   UNL A   1      38.456  33.696  38.288  1.00  0.00     0.000 A 
ENDBRANCH  47  61
BRANCH  48  67
ATOM     67  C   UNL A   1      41.412  27.300  27.633  1.00  0.00    -0.014 A 
ATOM     68  C   UNL A   1      40.850  26.033  27.416  1.00  0.00     0.009 A 
ATOM     69  C   UNL A   1      42.289  27.828  26.672  1.00  0.00     0.009 A 
ATOM     70  C   UNL A   1      41.169  25.306  26.268  1.00  0.00     0.001 A 
ATOM     71  C   UNL A   1      42.587  27.108  25.514  1.00  0.00     0.001 A 
ATOM     72  C   UNL A   1      42.032  25.846  25.315  1.00  0.00     0.000 A 
ENDBRANCH  48  67
BRANCH  60  73
ATOM     73  C   UNL A   1      44.130  27.480  34.054  1.00  0.00    -0.014 A 
ATOM     74  C   UNL A   1      45.391  28.092  34.117  1.00  0.00     0.009 A 
ATOM     75  C   UNL A   1      43.940  26.241  34.685  1.00  0.00     0.009 A 
ATOM     76  C   UNL A   1      46.443  27.469  34.791  1.00  0.00     0.001 A 
ATOM     77  C   UNL A   1      44.987  25.632  35.379  1.00  0.00     0.001 A 
ATOM     78  C   UNL A   1      46.238  26.245  35.428  1.00  0.00     0.000 A 
ENDBRANCH  60  73
ENDBRANCH  34  35
ENDBRANCH  27  29
ENDBRANCH  26  27
ENDBRANCH  25  26
ENDBRANCH   1  25
TORSDOF 15
ENDMDL
MODEL 2
REMARK VINA RESULT:     -10.8      4.212      9.029
REMARK SMILES Cc1c(Cl)cc2c(c1C)O[C@H](C(F)(F)F)C(C(=O)OCCOCCOC(=O)c1ccc(-c3c4nc(c(-c5ccccc5)c5ccc([nH]5)c(-c5ccccc5)c5nc(c(-c6ccccc6)c6ccc3[nH]6)C=C5)C=C4)cc1)=C2
REMARK SMILES IDX 23 1 22 2 21 3 20 4 19 5 17 6 18 7 16 8 1 9 2 10 3 11 8 12
REMARK SMILES IDX 4 13 5 14 7 15 9 16 6 17 10 18 76 19 11 20 12 21 13 22 14 23
REMARK SMILES IDX 15 24 24 25 25 26 26 27 27 28 28 29 29 30 75 31 30 32 74 33
REMARK SMILES IDX 31 34 32 35 33 36 68 37 34 38 73 39 67 40 69 41 35 42 72 43
REMARK SMILES IDX 66 44 65 45 36 47 58 48 43 49 57 50 44 51 47 52 56 53 70 54
REMARK SMILES IDX 45 55 46 56 55 58 71 59 48 60 37 61 38 62 42 63 39 64 41 65
REMARK SMILES IDX 40 66 59 67 60 68 64 69 61 70 63 71 62 72 49 73 50 74 54 75
REMARK SMILES IDX 51 76 53 77 52 78
REMARK H PARENT 69 46 47 57
REMARK Flexibility Score: inf
ROOT
ATOM      1  C   UNL A   1      37.758  20.809  25.062  1.00  0.00     0.202 C 
ENDROOT
BRANCH   1   2
ATOM      2  O   UNL A   1      37.138  21.792  24.229  1.00  0.00    -0.374 OA
BRANCH   2   3
ATOM      3  C   UNL A   1      36.948  23.097  24.771  1.00  0.00     0.202 C 
BRANCH   3   4
ATOM      4  C   UNL A   1      35.929  23.219  25.908  1.00  0.00     0.261 C 
BRANCH   4   5
ATOM      5  O   UNL A   1      34.644  22.707  25.520  1.00  0.00    -0.460 OA
BRANCH   5   6
ATOM      6  C   UNL A   1      33.601  23.240  26.196  1.00  0.00     0.338 C 
ATOM      7  O   UNL A   1      33.175  22.884  27.287  1.00  0.00    -0.246 OA
BRANCH   6   8
ATOM      8  C   UNL A   1      33.090  24.422  25.482  1.00  0.00     0.087 C 
ATOM      9  C   UNL A   1      30.272  30.113  24.094  1.00  0.00     0.046 C 
ATOM     10  C   UNL A   1      31.124  28.962  24.567  1.00  0.00    -0.026 A 
ATOM     11  C   UNL A   1      31.861  29.053  25.764  1.00  0.00     0.045 A 
ATOM     12  C   UNL A   1      31.215  27.768  23.804  1.00  0.00    -0.004 A 
ATOM     13  Cl  UNL A   1      31.922  30.501  26.710  1.00  0.00    -0.084 Cl
ATOM     14  C   UNL A   1      32.575  27.959  26.252  1.00  0.00     0.032 A 
ATOM     15  C   UNL A   1      31.935  26.667  24.317  1.00  0.00     0.131 A 
ATOM     16  C   UNL A   1      30.517  27.606  22.474  1.00  0.00     0.049 C 
ATOM     17  C   UNL A   1      32.579  26.754  25.552  1.00  0.00     0.019 A 
ATOM     18  O   UNL A   1      31.970  25.531  23.551  1.00  0.00    -0.475 OA
ATOM     19  C   UNL A   1      33.194  25.582  26.142  1.00  0.00     0.027 C 
ATOM     20  C   UNL A   1      32.467  24.289  24.122  1.00  0.00     0.316 C 
BRANCH  20  21
ATOM     21  C   UNL A   1      31.333  23.254  24.085  1.00  0.00     0.430 C 
ATOM     22  F   UNL A   1      31.819  22.005  23.883  1.00  0.00    -0.167 F 
ATOM     23  F   UNL A   1      30.648  23.215  25.251  1.00  0.00    -0.167 F 
ATOM     24  F   UNL A   1      30.443  23.508  23.099  1.00  0.00    -0.167 F 
ENDBRANCH  20  21
ENDBRANCH   6   8
ENDBRANCH   5   6
ENDBRANCH   4   5
ENDBRANCH   3   4
ENDBRANCH   2   3
ENDBRANCH   1   2
BRANCH   1  25
ATOM     25  C   UNL A   1      39.158  21.138  25.595  1.00  0.00     0.261 C 
BRANCH  25  26
ATOM     26  O   UNL A   1      39.805  19.977  26.150  1.00  0.00    -0.460 OA
BRANCH  26  27
ATOM     27  C   UNL A   1      41.147  19.943  25.992  1.00  0.00     0.338 C 
ATOM     28  O   UNL A   1      41.803  19.123  25.358  1.00  0.00    -0.246 OA
BRANCH  27  29
ATOM     29  C   UNL A   1      41.751  21.165  26.544  1.00  0.00     0.060 A 
ATOM     30  C   UNL A   1      41.664  21.364  27.928  1.00  0.00     0.016 A 
ATOM     31  C   UNL A   1      42.306  22.144  25.717  1.00  0.00     0.016 A 
ATOM     32  C   UNL A   1      42.090  22.566  28.487  1.00  0.00     0.010 A 
ATOM     33  C   UNL A   1      42.722  23.357  26.279  1.00  0.00     0.010 A 
ATOM     34  C   UNL A   1      42.579  23.586  27.659  1.00  0.00    -0.014 A 
BRANCH  34  35
ATOM     35  C   UNL A   1      42.783  24.938  28.231  1.00  0.00     0.031 A 
ATOM     36  C   UNL A   1      44.174  25.363  28.614  1.00  0.00     0.074 A 
ATOM     37  C   UNL A   1      41.758  25.801  28.342  1.00  0.00     0.049 A 
ATOM     38  N   UNL A   1      44.587  26.513  29.082  1.00  0.00    -0.248 NA
ATOM     39  C   UNL A   1      45.242  24.364  28.437  1.00  0.00     0.031 C 
ATOM     40  C   UNL A   1      40.376  25.527  27.952  1.00  0.00     0.029 A 
ATOM     41  N   UNL A   1      41.730  27.093  28.803  1.00  0.00    -0.354 N 
ATOM     42  C   UNL A   1      45.960  26.380  29.246  1.00  0.00     0.074 A 
ATOM     43  C   UNL A   1      46.306  25.028  28.864  1.00  0.00     0.031 C 
ATOM     44  C   UNL A   1      39.635  26.625  28.180  1.00  0.00     0.029 A 
ATOM     45  C   UNL A   1      40.484  27.667  28.754  1.00  0.00     0.049 A 
ATOM     46  H   UNL A   1      42.528  27.564  29.136  1.00  0.00     0.167 HD
ATOM     47  C   UNL A   1      46.857  27.304  29.662  1.00  0.00     0.031 A 
ATOM     48  C   UNL A   1      40.074  28.893  29.137  1.00  0.00     0.031 A 
ATOM     49  C   UNL A   1      46.515  28.643  30.057  1.00  0.00     0.049 A 
ATOM     50  C   UNL A   1      41.073  29.865  29.702  1.00  0.00     0.074 A 
ATOM     51  C   UNL A   1      47.357  29.653  30.486  1.00  0.00     0.029 A 
ATOM     52  N   UNL A   1      45.228  29.154  30.078  1.00  0.00    -0.354 N 
ATOM     53  N   UNL A   1      42.372  29.734  29.831  1.00  0.00    -0.248 NA
ATOM     54  C   UNL A   1      40.549  31.156  30.178  1.00  0.00     0.031 C 
ATOM     55  C   UNL A   1      46.572  30.760  30.820  1.00  0.00     0.029 A 
ATOM     56  C   UNL A   1      45.248  30.455  30.548  1.00  0.00     0.049 A 
ATOM     57  H   UNL A   1      44.420  28.665  29.801  1.00  0.00     0.167 HD
ATOM     58  C   UNL A   1      42.821  30.927  30.384  1.00  0.00     0.074 A 
ATOM     59  C   UNL A   1      41.661  31.776  30.554  1.00  0.00     0.031 C 
ATOM     60  C   UNL A   1      44.084  31.285  30.720  1.00  0.00     0.031 A 
BRANCH  47  61
ATOM     61  C   UNL A   1      48.298  26.891  29.730  1.00  0.00    -0.014 A 
ATOM     62  C   UNL A   1      49.163  27.110  28.646  1.00  0.00     0.009 A 
ATOM     63  C   UNL A   1      48.810  26.327  30.907  1.00  0.00     0.009 A 
ATOM     64  C   UNL A   1      50.509  26.747  28.733  1.00  0.00     0.001 A 
ATOM     65  C   UNL A   1      50.161  25.988  31.001  1.00  0.00     0.001 A 
ATOM     66  C   UNL A   1      51.007  26.193  29.912  1.00  0.00     0.000 A 
ENDBRANCH  47  61
BRANCH  48  67
ATOM     67  C   UNL A   1      38.643  29.268  29.004  1.00  0.00    -0.014 A 
ATOM     68  C   UNL A   1      37.765  29.130  30.089  1.00  0.00     0.009 A 
ATOM     69  C   UNL A   1      38.148  29.769  27.789  1.00  0.00     0.009 A 
ATOM     70  C   UNL A   1      36.418  29.474  29.957  1.00  0.00     0.001 A 
ATOM     71  C   UNL A   1      36.806  30.134  27.668  1.00  0.00     0.001 A 
ATOM     72  C   UNL A   1      35.941  29.982  28.749  1.00  0.00     0.000 A 
ENDBRANCH  48  67
BRANCH  60  73
ATOM     73  C   UNL A   1      44.292  32.652  31.304  1.00  0.00    -0.014 A 
ATOM     74  C   UNL A   1      44.224  32.860  32.691  1.00  0.00     0.009 A 
ATOM     75  C   UNL A   1      44.654  33.721  30.471  1.00  0.00     0.009 A 
ATOM     76  C   UNL A   1      44.505  34.117  33.229  1.00  0.00     0.001 A 
ATOM     77  C   UNL A   1      44.959  34.971  31.014  1.00  0.00     0.001 A 
ATOM     78  C   UNL A   1      44.881  35.168  32.392  1.00  0.00     0.000 A 
ENDBRANCH  60  73
ENDBRANCH  34  35
ENDBRANCH  27  29
ENDBRANCH  26  27
ENDBRANCH  25  26
ENDBRANCH   1  25
TORSDOF 15
ENDMDL
MODEL 3
REMARK VINA RESULT:     -10.8      5.022      8.185
REMARK SMILES Cc1c(Cl)cc2c(c1C)O[C@H](C(F)(F)F)C(C(=O)OCCOCCOC(=O)c1ccc(-c3c4nc(c(-c5ccccc5)c5ccc([nH]5)c(-c5ccccc5)c5nc(c(-c6ccccc6)c6ccc3[nH]6)C=C5)C=C4)cc1)=C2
REMARK SMILES IDX 23 1 22 2 21 3 20 4 19 5 17 6 18 7 16 8 1 9 2 10 3 11 8 12
REMARK SMILES IDX 4 13 5 14 7 15 9 16 6 17 10 18 76 19 11 20 12 21 13 22 14 23
REMARK SMILES IDX 15 24 24 25 25 26 26 27 27 28 28 29 29 30 75 31 30 32 74 33
REMARK SMILES IDX 31 34 32 35 33 36 68 37 34 38 73 39 67 40 69 41 35 42 72 43
REMARK SMILES IDX 66 44 65 45 36 47 58 48 43 49 57 50 44 51 47 52 56 53 70 54
REMARK SMILES IDX 45 55 46 56 55 58 71 59 48 60 37 61 38 62 42 63 39 64 41 65
REMARK SMILES IDX 40 66 59 67 60 68 64 69 61 70 63 71 62 72 49 73 50 74 54 75
REMARK SMILES IDX 51 76 53 77 52 78
REMARK H PARENT 69 46 47 57
REMARK Flexibility Score: inf
ROOT
ATOM      1  C   UNL A   1      33.685  34.408  28.250  1.00  0.00     0.202 C 
ENDROOT
BRANCH   1   2
ATOM      2  O   UNL A   1      33.921  35.444  29.207  1.00  0.00    -0.374 OA
BRANCH   2   3
ATOM      3  C   UNL A   1      33.031  35.539  30.317  1.00  0.00     0.202 C 
BRANCH   3   4
ATOM      4  C   UNL A   1      33.626  35.230  31.693  1.00  0.00     0.261 C 
BRANCH   4   5
ATOM      5  O   UNL A   1      34.901  34.580  31.582  1.00  0.00    -0.460 OA
BRANCH   5   6
ATOM      6  C   UNL A   1      34.908  33.286  31.978  1.00  0.00     0.338 C 
ATOM      7  O   UNL A   1      34.051  32.444  31.746  1.00  0.00    -0.246 OA
BRANCH   6   8
ATOM      8  C   UNL A   1      36.179  32.973  32.654  1.00  0.00     0.087 C 
ATOM      9  C   UNL A   1      41.077  29.820  35.537  1.00  0.00     0.046 C 
ATOM     10  C   UNL A   1      40.026  30.399  34.624  1.00  0.00    -0.026 A 
ATOM     11  C   UNL A   1      39.550  29.667  33.518  1.00  0.00     0.045 A 
ATOM     12  C   UNL A   1      39.508  31.702  34.850  1.00  0.00    -0.004 A 
ATOM     13  Cl  UNL A   1      40.195  28.123  33.077  1.00  0.00    -0.084 Cl
ATOM     14  C   UNL A   1      38.512  30.159  32.726  1.00  0.00     0.032 A 
ATOM     15  C   UNL A   1      38.452  32.180  34.043  1.00  0.00     0.131 A 
ATOM     16  C   UNL A   1      40.010  32.585  35.967  1.00  0.00     0.049 C 
ATOM     17  C   UNL A   1      37.936  31.395  33.012  1.00  0.00     0.019 A 
ATOM     18  O   UNL A   1      37.974  33.435  34.321  1.00  0.00    -0.475 OA
ATOM     19  C   UNL A   1      36.760  31.826  32.281  1.00  0.00     0.027 C 
ATOM     20  C   UNL A   1      36.733  33.885  33.710  1.00  0.00     0.316 C 
BRANCH  20  21
ATOM     21  C   UNL A   1      35.726  34.182  34.830  1.00  0.00     0.430 C 
ATOM     22  F   UNL A   1      36.330  34.178  36.043  1.00  0.00    -0.167 F 
ATOM     23  F   UNL A   1      35.160  35.403  34.688  1.00  0.00    -0.167 F 
ATOM     24  F   UNL A   1      34.726  33.273  34.870  1.00  0.00    -0.167 F 
ENDBRANCH  20  21
ENDBRANCH   6   8
ENDBRANCH   5   6
ENDBRANCH   4   5
ENDBRANCH   3   4
ENDBRANCH   2   3
ENDBRANCH   1   2
BRANCH   1  25
ATOM     25  C   UNL A   1      34.849  33.450  27.968  1.00  0.00     0.261 C 
BRANCH  25  26
ATOM     26  O   UNL A   1      34.812  32.297  28.830  1.00  0.00    -0.460 OA
BRANCH  26  27
ATOM     27  C   UNL A   1      34.662  31.114  28.192  1.00  0.00     0.338 C 
ATOM     28  O   UNL A   1      33.710  30.749  27.512  1.00  0.00    -0.246 OA
BRANCH  27  29
ATOM     29  C   UNL A   1      35.914  30.343  28.259  1.00  0.00     0.060 A 
ATOM     30  C   UNL A   1      36.192  29.659  29.449  1.00  0.00     0.016 A 
ATOM     31  C   UNL A   1      36.842  30.366  27.216  1.00  0.00     0.016 A 
ATOM     32  C   UNL A   1      37.422  29.032  29.621  1.00  0.00     0.010 A 
ATOM     33  C   UNL A   1      38.084  29.746  27.395  1.00  0.00     0.010 A 
ATOM     34  C   UNL A   1      38.392  29.111  28.612  1.00  0.00    -0.014 A 
BRANCH  34  35
ATOM     35  C   UNL A   1      39.775  28.667  28.910  1.00  0.00     0.031 A 
ATOM     36  C   UNL A   1      40.679  29.582  29.689  1.00  0.00     0.074 A 
ATOM     37  C   UNL A   1      40.197  27.441  28.555  1.00  0.00     0.049 A 
ATOM     38  N   UNL A   1      41.904  29.377  30.103  1.00  0.00    -0.248 NA
ATOM     39  C   UNL A   1      40.129  30.897  30.060  1.00  0.00     0.031 C 
ATOM     40  C   UNL A   1      39.397  26.444  27.847  1.00  0.00     0.029 A 
ATOM     41  N   UNL A   1      41.405  26.824  28.758  1.00  0.00    -0.354 N 
ATOM     42  C   UNL A   1      42.265  30.530  30.789  1.00  0.00     0.074 A 
ATOM     43  C   UNL A   1      41.148  31.444  30.705  1.00  0.00     0.031 C 
ATOM     44  C   UNL A   1      40.134  25.332  27.686  1.00  0.00     0.029 A 
ATOM     45  C   UNL A   1      41.463  25.548  28.254  1.00  0.00     0.049 A 
ATOM     46  H   UNL A   1      42.159  27.255  29.223  1.00  0.00     0.167 HD
ATOM     47  C   UNL A   1      43.418  30.798  31.445  1.00  0.00     0.031 A 
ATOM     48  C   UNL A   1      42.476  24.660  28.246  1.00  0.00     0.031 A 
ATOM     49  C   UNL A   1      44.536  29.899  31.518  1.00  0.00     0.049 A 
ATOM     50  C   UNL A   1      43.788  25.026  28.885  1.00  0.00     0.074 A 
ATOM     51  C   UNL A   1      45.745  30.080  32.167  1.00  0.00     0.029 A 
ATOM     52  N   UNL A   1      44.585  28.653  30.916  1.00  0.00    -0.354 N 
ATOM     53  N   UNL A   1      44.108  26.110  29.550  1.00  0.00    -0.248 NA
ATOM     54  C   UNL A   1      44.880  24.045  28.772  1.00  0.00     0.031 C 
ATOM     55  C   UNL A   1      46.547  28.965  31.910  1.00  0.00     0.029 A 
ATOM     56  C   UNL A   1      45.818  28.068  31.147  1.00  0.00     0.049 A 
ATOM     57  H   UNL A   1      43.853  28.243  30.400  1.00  0.00     0.167 HD
ATOM     58  C   UNL A   1      45.429  25.936  29.947  1.00  0.00     0.074 A 
ATOM     59  C   UNL A   1      45.846  24.637  29.462  1.00  0.00     0.031 C 
ATOM     60  C   UNL A   1      46.222  26.778  30.651  1.00  0.00     0.031 A 
BRANCH  47  61
ATOM     61  C   UNL A   1      43.536  32.132  32.123  1.00  0.00    -0.014 A 
ATOM     62  C   UNL A   1      44.080  33.238  31.451  1.00  0.00     0.009 A 
ATOM     63  C   UNL A   1      43.051  32.299  33.429  1.00  0.00     0.009 A 
ATOM     64  C   UNL A   1      44.157  34.481  32.084  1.00  0.00     0.001 A 
ATOM     65  C   UNL A   1      43.107  33.548  34.050  1.00  0.00     0.001 A 
ATOM     66  C   UNL A   1      43.665  34.635  33.379  1.00  0.00     0.000 A 
ENDBRANCH  47  61
BRANCH  48  67
ATOM     67  C   UNL A   1      42.291  23.333  27.603  1.00  0.00    -0.014 A 
ATOM     68  C   UNL A   1      42.727  23.111  26.289  1.00  0.00     0.009 A 
ATOM     69  C   UNL A   1      41.676  22.282  28.302  1.00  0.00     0.009 A 
ATOM     70  C   UNL A   1      42.542  21.866  25.684  1.00  0.00     0.001 A 
ATOM     71  C   UNL A   1      41.514  21.032  27.702  1.00  0.00     0.001 A 
ATOM     72  C   UNL A   1      41.941  20.826  26.392  1.00  0.00     0.000 A 
ENDBRANCH  48  67
BRANCH  60  73
ATOM     73  C   UNL A   1      47.625  26.333  30.950  1.00  0.00    -0.014 A 
ATOM     74  C   UNL A   1      47.949  25.761  32.190  1.00  0.00     0.009 A 
ATOM     75  C   UNL A   1      48.607  26.397  29.950  1.00  0.00     0.009 A 
ATOM     76  C   UNL A   1      49.235  25.271  32.424  1.00  0.00     0.001 A 
ATOM     77  C   UNL A   1      49.885  25.884  30.179  1.00  0.00     0.001 A 
ATOM     78  C   UNL A   1      50.199  25.325  31.417  1.00  0.00     0.000 A 
ENDBRANCH  60  73
ENDBRANCH  34  35
ENDBRANCH  27  29
ENDBRANCH  26  27
ENDBRANCH  25  26
ENDBRANCH   1  25
TORSDOF 15
ENDMDL
