MODEL 1
REMARK VINA RESULT:     -11.5      0.000      0.000
REMARK SMILES Cc1cc(C)c2c(CCCC(=O)OCCOCCOC(=O)c3ccc(-c4c5nc(c(-c6ccccc6)c6ccc([nH]6)c(-c6ccccc6)c6nc(c(-c7ccccc7)c7ccc4[nH]7)C=C6)C=C5)cc3)c(-c3ccccn3)[nH]c2c1
REMARK SMILES IDX 15 1 14 2 13 3 11 4 12 5 10 6 9 7 8 8 7 9 1 10 2 11 3 12
REMARK SMILES IDX 79 13 4 14 78 15 5 16 6 17 77 18 70 19 71 21 72 22 76 23
REMARK SMILES IDX 73 24 75 25 74 26 16 27 17 28 18 29 19 30 20 31 21 32 22 33
REMARK SMILES IDX 23 34 69 35 24 36 68 37 25 38 26 39 27 40 62 41 28 42 67 43
REMARK SMILES IDX 61 44 63 45 29 46 66 47 60 48 59 49 30 51 52 52 37 53 51 54
REMARK SMILES IDX 38 55 41 56 50 57 64 58 39 59 40 60 49 62 65 63 42 64 31 65
REMARK SMILES IDX 32 66 36 67 33 68 35 69 34 70 53 71 54 72 58 73 55 74 57 75
REMARK SMILES IDX 56 76 43 77 44 78 48 79 45 80 47 81 46 82
REMARK H PARENT 77 20 63 50 41 61
REMARK Flexibility Score: inf
ROOT
ATOM      1  C   UNL A   1      34.887  33.702  28.473  1.00  0.00     0.202 C 
ENDROOT
BRANCH   1   2
ATOM      2  C   UNL A   1      33.756  32.748  28.110  1.00  0.00     0.261 C 
BRANCH   2   3
ATOM      3  O   UNL A   1      34.217  31.744  27.191  1.00  0.00    -0.463 OA
BRANCH   3   4
ATOM      4  C   UNL A   1      33.954  30.448  27.490  1.00  0.00     0.305 C 
ATOM      5  O   UNL A   1      34.765  29.674  27.990  1.00  0.00    -0.252 OA
BRANCH   4   6
ATOM      6  C   UNL A   1      32.509  30.065  27.244  1.00  0.00     0.123 C 
BRANCH   6   7
ATOM      7  C   UNL A   1      31.854  30.432  25.912  1.00  0.00     0.017 C 
BRANCH   7   8
ATOM      8  C   UNL A   1      32.276  29.699  24.634  1.00  0.00     0.039 C 
BRANCH   8   9
ATOM      9  C   UNL A   1      31.404  28.578  24.147  1.00  0.00    -0.013 A 
ATOM     10  C   UNL A   1      31.008  22.892  24.914  1.00  0.00     0.044 C 
ATOM     11  C   UNL A   1      31.195  24.372  24.756  1.00  0.00    -0.049 A 
ATOM     12  C   UNL A   1      32.323  24.999  25.289  1.00  0.00     0.007 A 
ATOM     13  C   UNL A   1      30.272  25.121  24.028  1.00  0.00     0.030 A 
ATOM     14  C   UNL A   1      32.557  26.388  25.152  1.00  0.00    -0.041 A 
ATOM     15  C   UNL A   1      30.493  26.496  23.899  1.00  0.00     0.047 A 
ATOM     16  C   UNL A   1      33.807  26.940  25.785  1.00  0.00     0.045 C 
ATOM     17  C   UNL A   1      31.591  27.164  24.446  1.00  0.00     0.006 A 
ATOM     18  N   UNL A   1      29.725  27.423  23.249  1.00  0.00    -0.353 N 
ATOM     19  C   UNL A   1      30.201  28.690  23.450  1.00  0.00     0.068 A 
ATOM     20  H   UNL A   1      28.932  27.206  22.707  1.00  0.00     0.167 HD
BRANCH  19  21
ATOM     21  C   UNL A   1      29.425  29.813  22.945  1.00  0.00     0.087 A 
ATOM     22  C   UNL A   1      28.943  30.814  23.775  1.00  0.00     0.030 A 
ATOM     23  N   UNL A   1      29.175  29.765  21.619  1.00  0.00    -0.255 NA
ATOM     24  C   UNL A   1      28.224  31.861  23.198  1.00  0.00     0.004 A 
ATOM     25  C   UNL A   1      28.503  30.809  21.082  1.00  0.00     0.112 A 
ATOM     26  C   UNL A   1      28.021  31.874  21.823  1.00  0.00     0.020 A 
ENDBRANCH  19  21
ENDBRANCH   8   9
ENDBRANCH   7   8
ENDBRANCH   6   7
ENDBRANCH   4   6
ENDBRANCH   3   4
ENDBRANCH   2   3
ENDBRANCH   1   2
BRANCH   1  27
ATOM     27  O   UNL A   1      34.593  34.700  29.449  1.00  0.00    -0.374 OA
BRANCH  27  28
ATOM     28  C   UNL A   1      33.636  35.711  29.151  1.00  0.00     0.202 C 
BRANCH  28  29
ATOM     29  C   UNL A   1      32.638  36.072  30.238  1.00  0.00     0.261 C 
BRANCH  29  30
ATOM     30  O   UNL A   1      32.627  35.126  31.301  1.00  0.00    -0.460 OA
BRANCH  30  31
ATOM     31  C   UNL A   1      33.137  35.599  32.451  1.00  0.00     0.338 C 
ATOM     32  O   UNL A   1      32.853  36.663  33.010  1.00  0.00    -0.246 OA
BRANCH  31  33
ATOM     33  C   UNL A   1      34.244  34.746  32.875  1.00  0.00     0.060 A 
ATOM     34  C   UNL A   1      35.492  35.365  32.936  1.00  0.00     0.016 A 
ATOM     35  C   UNL A   1      34.103  33.348  32.913  1.00  0.00     0.016 A 
ATOM     36  C   UNL A   1      36.607  34.581  32.796  1.00  0.00     0.010 A 
ATOM     37  C   UNL A   1      35.226  32.561  32.782  1.00  0.00     0.010 A 
ATOM     38  C   UNL A   1      36.454  33.197  32.632  1.00  0.00    -0.014 A 
BRANCH  38  39
ATOM     39  C   UNL A   1      37.660  32.446  32.377  1.00  0.00     0.031 A 
ATOM     40  C   UNL A   1      38.543  32.383  33.552  1.00  0.00     0.074 A 
ATOM     41  C   UNL A   1      37.962  31.889  31.192  1.00  0.00     0.049 A 
ATOM     42  N   UNL A   1      39.637  33.041  33.732  1.00  0.00    -0.248 NA
ATOM     43  C   UNL A   1      38.060  31.652  34.732  1.00  0.00     0.031 C 
ATOM     44  C   UNL A   1      37.073  31.662  30.051  1.00  0.00     0.029 A 
ATOM     45  N   UNL A   1      39.135  31.320  30.798  1.00  0.00    -0.354 N 
ATOM     46  C   UNL A   1      40.095  32.650  34.980  1.00  0.00     0.074 A 
ATOM     47  C   UNL A   1      39.010  31.946  35.619  1.00  0.00     0.031 C 
ATOM     48  C   UNL A   1      37.668  30.797  29.197  1.00  0.00     0.029 A 
ATOM     49  C   UNL A   1      39.025  30.546  29.654  1.00  0.00     0.049 A 
ATOM     50  H   UNL A   1      39.983  31.445  31.283  1.00  0.00     0.167 HD
ATOM     51  C   UNL A   1      41.423  32.668  35.263  1.00  0.00     0.031 A 
ATOM     52  C   UNL A   1      39.976  29.717  29.165  1.00  0.00     0.031 A 
ATOM     53  C   UNL A   1      42.169  33.431  34.299  1.00  0.00     0.049 A 
ATOM     54  C   UNL A   1      41.287  30.166  29.682  1.00  0.00     0.074 A 
ATOM     55  C   UNL A   1      42.383  34.760  34.013  1.00  0.00     0.029 A 
ATOM     56  N   UNL A   1      42.551  32.709  33.198  1.00  0.00    -0.354 N 
ATOM     57  N   UNL A   1      41.851  31.285  29.327  1.00  0.00    -0.248 NA
ATOM     58  C   UNL A   1      41.867  29.518  30.853  1.00  0.00     0.031 C 
ATOM     59  C   UNL A   1      42.729  34.818  32.630  1.00  0.00     0.029 A 
ATOM     60  C   UNL A   1      42.739  33.522  32.114  1.00  0.00     0.049 A 
ATOM     61  H   UNL A   1      42.675  31.731  33.188  1.00  0.00     0.167 HD
ATOM     62  C   UNL A   1      42.545  31.690  30.451  1.00  0.00     0.074 A 
ATOM     63  C   UNL A   1      42.676  30.495  31.273  1.00  0.00     0.031 C 
ATOM     64  C   UNL A   1      42.664  33.011  30.761  1.00  0.00     0.031 A 
BRANCH  51  65
ATOM     65  C   UNL A   1      42.087  31.578  36.066  1.00  0.00    -0.014 A 
ATOM     66  C   UNL A   1      42.984  31.944  37.082  1.00  0.00     0.009 A 
ATOM     67  C   UNL A   1      42.101  30.228  35.659  1.00  0.00     0.009 A 
ATOM     68  C   UNL A   1      43.876  31.014  37.631  1.00  0.00     0.001 A 
ATOM     69  C   UNL A   1      42.962  29.290  36.231  1.00  0.00     0.001 A 
ATOM     70  C   UNL A   1      43.866  29.690  37.202  1.00  0.00     0.000 A 
ENDBRANCH  51  65
BRANCH  52  71
ATOM     71  C   UNL A   1      39.815  28.410  28.498  1.00  0.00    -0.014 A 
ATOM     72  C   UNL A   1      40.454  28.164  27.271  1.00  0.00     0.009 A 
ATOM     73  C   UNL A   1      39.299  27.309  29.205  1.00  0.00     0.009 A 
ATOM     74  C   UNL A   1      40.637  26.856  26.807  1.00  0.00     0.001 A 
ATOM     75  C   UNL A   1      39.475  26.003  28.735  1.00  0.00     0.001 A 
ATOM     76  C   UNL A   1      40.165  25.776  27.549  1.00  0.00     0.000 A 
ENDBRANCH  52  71
BRANCH  64  77
ATOM     77  C   UNL A   1      42.507  34.002  29.643  1.00  0.00    -0.014 A 
ATOM     78  C   UNL A   1      41.342  34.757  29.429  1.00  0.00     0.009 A 
ATOM     79  C   UNL A   1      43.617  34.231  28.816  1.00  0.00     0.009 A 
ATOM     80  C   UNL A   1      41.288  35.700  28.397  1.00  0.00     0.001 A 
ATOM     81  C   UNL A   1      43.570  35.188  27.803  1.00  0.00     0.001 A 
ATOM     82  C   UNL A   1      42.403  35.918  27.589  1.00  0.00     0.000 A 
ENDBRANCH  64  77
ENDBRANCH  38  39
ENDBRANCH  31  33
ENDBRANCH  30  31
ENDBRANCH  29  30
ENDBRANCH  28  29
ENDBRANCH  27  28
ENDBRANCH   1  27
TORSDOF 18
ENDMDL
MODEL 2
REMARK VINA RESULT:     -11.3      5.796     11.209
REMARK SMILES Cc1cc(C)c2c(CCCC(=O)OCCOCCOC(=O)c3ccc(-c4c5nc(c(-c6ccccc6)c6ccc([nH]6)c(-c6ccccc6)c6nc(c(-c7ccccc7)c7ccc4[nH]7)C=C6)C=C5)cc3)c(-c3ccccn3)[nH]c2c1
REMARK SMILES IDX 15 1 14 2 13 3 11 4 12 5 10 6 9 7 8 8 7 9 1 10 2 11 3 12
REMARK SMILES IDX 79 13 4 14 78 15 5 16 6 17 77 18 70 19 71 21 72 22 76 23
REMARK SMILES IDX 73 24 75 25 74 26 16 27 17 28 18 29 19 30 20 31 21 32 22 33
REMARK SMILES IDX 23 34 69 35 24 36 68 37 25 38 26 39 27 40 62 41 28 42 67 43
REMARK SMILES IDX 61 44 63 45 29 46 66 47 60 48 59 49 30 51 52 52 37 53 51 54
REMARK SMILES IDX 38 55 41 56 50 57 64 58 39 59 40 60 49 62 65 63 42 64 31 65
REMARK SMILES IDX 32 66 36 67 33 68 35 69 34 70 53 71 54 72 58 73 55 74 57 75
REMARK SMILES IDX 56 76 43 77 44 78 48 79 45 80 47 81 46 82
REMARK H PARENT 77 20 63 50 41 61
REMARK Flexibility Score: inf
ROOT
ATOM      1  C   UNL A   1      40.349  21.143  26.420  1.00  0.00     0.202 C 
ENDROOT
BRANCH   1   2
ATOM      2  C   UNL A   1      39.019  21.437  25.736  1.00  0.00     0.261 C 
BRANCH   2   3
ATOM      3  O   UNL A   1      38.281  22.427  26.471  1.00  0.00    -0.463 OA
BRANCH   3   4
ATOM      4  C   UNL A   1      37.204  22.986  25.867  1.00  0.00     0.305 C 
ATOM      5  O   UNL A   1      36.802  24.125  26.083  1.00  0.00    -0.252 OA
BRANCH   4   6
ATOM      6  C   UNL A   1      36.592  22.095  24.805  1.00  0.00     0.123 C 
BRANCH   6   7
ATOM      7  C   UNL A   1      36.229  22.693  23.446  1.00  0.00     0.017 C 
BRANCH   7   8
ATOM      8  C   UNL A   1      34.818  22.491  22.883  1.00  0.00     0.039 C 
BRANCH   8   9
ATOM      9  C   UNL A   1      33.689  22.323  23.859  1.00  0.00    -0.013 A 
ATOM     10  C   UNL A   1      29.714  25.656  26.339  1.00  0.00     0.044 C 
ATOM     11  C   UNL A   1      30.794  24.865  25.664  1.00  0.00    -0.049 A 
ATOM     12  C   UNL A   1      31.792  25.516  24.937  1.00  0.00     0.007 A 
ATOM     13  C   UNL A   1      30.840  23.478  25.804  1.00  0.00     0.030 A 
ATOM     14  C   UNL A   1      32.844  24.818  24.296  1.00  0.00    -0.041 A 
ATOM     15  C   UNL A   1      31.871  22.784  25.164  1.00  0.00     0.047 A 
ATOM     16  C   UNL A   1      33.851  25.641  23.535  1.00  0.00     0.045 C 
ATOM     17  C   UNL A   1      32.867  23.396  24.401  1.00  0.00     0.006 A 
ATOM     18  N   UNL A   1      32.106  21.436  25.150  1.00  0.00    -0.353 N 
ATOM     19  C   UNL A   1      33.139  21.122  24.310  1.00  0.00     0.068 A 
ATOM     20  H   UNL A   1      31.598  20.777  25.676  1.00  0.00     0.167 HD
BRANCH  19  21
ATOM     21  C   UNL A   1      33.437  19.719  24.066  1.00  0.00     0.087 A 
ATOM     22  C   UNL A   1      34.552  19.093  24.604  1.00  0.00     0.030 A 
ATOM     23  N   UNL A   1      32.568  19.101  23.237  1.00  0.00    -0.255 NA
ATOM     24  C   UNL A   1      34.746  17.739  24.331  1.00  0.00     0.004 A 
ATOM     25  C   UNL A   1      32.763  17.782  23.015  1.00  0.00     0.112 A 
ATOM     26  C   UNL A   1      33.821  17.062  23.543  1.00  0.00     0.020 A 
ENDBRANCH  19  21
ENDBRANCH   8   9
ENDBRANCH   7   8
ENDBRANCH   6   7
ENDBRANCH   4   6
ENDBRANCH   3   4
ENDBRANCH   2   3
ENDBRANCH   1   2
BRANCH   1  27
ATOM     27  O   UNL A   1      41.102  20.046  25.906  1.00  0.00    -0.374 OA
BRANCH  27  28
ATOM     28  C   UNL A   1      42.416  19.807  26.397  1.00  0.00     0.202 C 
BRANCH  28  29
ATOM     29  C   UNL A   1      43.320  18.908  25.569  1.00  0.00     0.261 C 
BRANCH  29  30
ATOM     30  O   UNL A   1      43.627  19.469  24.298  1.00  0.00    -0.460 OA
BRANCH  30  31
ATOM     31  C   UNL A   1      44.927  19.773  24.141  1.00  0.00     0.338 C 
ATOM     32  O   UNL A   1      45.857  18.984  23.945  1.00  0.00    -0.246 OA
BRANCH  31  33
ATOM     33  C   UNL A   1      45.129  21.190  24.423  1.00  0.00     0.060 A 
ATOM     34  C   UNL A   1      45.881  21.476  25.563  1.00  0.00     0.016 A 
ATOM     35  C   UNL A   1      44.363  22.172  23.771  1.00  0.00     0.016 A 
ATOM     36  C   UNL A   1      45.678  22.682  26.183  1.00  0.00     0.010 A 
ATOM     37  C   UNL A   1      44.168  23.387  24.391  1.00  0.00     0.010 A 
ATOM     38  C   UNL A   1      44.757  23.586  25.635  1.00  0.00    -0.014 A 
BRANCH  38  39
ATOM     39  C   UNL A   1      44.509  24.786  26.398  1.00  0.00     0.031 A 
ATOM     40  C   UNL A   1      45.623  25.742  26.321  1.00  0.00     0.074 A 
ATOM     41  C   UNL A   1      43.398  24.999  27.123  1.00  0.00     0.049 A 
ATOM     42  N   UNL A   1      46.494  25.989  27.241  1.00  0.00    -0.248 NA
ATOM     43  C   UNL A   1      45.913  26.353  25.016  1.00  0.00     0.031 C 
ATOM     44  C   UNL A   1      42.134  24.260  27.073  1.00  0.00     0.029 A 
ATOM     45  N   UNL A   1      43.142  26.002  28.007  1.00  0.00    -0.354 N 
ATOM     46  C   UNL A   1      47.334  26.947  26.697  1.00  0.00     0.074 A 
ATOM     47  C   UNL A   1      47.046  27.000  25.285  1.00  0.00     0.031 C 
ATOM     48  C   UNL A   1      41.179  24.981  27.706  1.00  0.00     0.029 A 
ATOM     49  C   UNL A   1      41.802  26.135  28.333  1.00  0.00     0.049 A 
ATOM     50  H   UNL A   1      43.846  26.582  28.380  1.00  0.00     0.167 HD
ATOM     51  C   UNL A   1      47.978  27.833  27.500  1.00  0.00     0.031 A 
ATOM     52  C   UNL A   1      41.253  27.162  29.022  1.00  0.00     0.031 A 
ATOM     53  C   UNL A   1      47.951  27.428  28.881  1.00  0.00     0.049 A 
ATOM     54  C   UNL A   1      42.319  27.798  29.825  1.00  0.00     0.074 A 
ATOM     55  C   UNL A   1      48.593  26.502  29.671  1.00  0.00     0.029 A 
ATOM     56  N   UNL A   1      46.830  27.837  29.555  1.00  0.00    -0.354 N 
ATOM     57  N   UNL A   1      42.896  27.217  30.837  1.00  0.00    -0.248 NA
ATOM     58  C   UNL A   1      42.989  28.994  29.327  1.00  0.00     0.031 C 
ATOM     59  C   UNL A   1      47.712  26.232  30.760  1.00  0.00     0.029 A 
ATOM     60  C   UNL A   1      46.567  27.016  30.618  1.00  0.00     0.049 A 
ATOM     61  H   UNL A   1      46.285  28.619  29.308  1.00  0.00     0.167 HD
ATOM     62  C   UNL A   1      44.190  27.702  30.818  1.00  0.00     0.074 A 
ATOM     63  C   UNL A   1      44.135  28.911  30.008  1.00  0.00     0.031 C 
ATOM     64  C   UNL A   1      45.238  26.913  31.185  1.00  0.00     0.031 A 
BRANCH  51  65
ATOM     65  C   UNL A   1      48.141  29.284  27.125  1.00  0.00    -0.014 A 
ATOM     66  C   UNL A   1      49.403  29.880  27.277  1.00  0.00     0.009 A 
ATOM     67  C   UNL A   1      47.046  30.152  26.929  1.00  0.00     0.009 A 
ATOM     68  C   UNL A   1      49.552  31.272  27.274  1.00  0.00     0.001 A 
ATOM     69  C   UNL A   1      47.197  31.539  26.888  1.00  0.00     0.001 A 
ATOM     70  C   UNL A   1      48.449  32.100  27.082  1.00  0.00     0.000 A 
ENDBRANCH  51  65
BRANCH  52  71
ATOM     71  C   UNL A   1      39.934  27.801  28.841  1.00  0.00    -0.014 A 
ATOM     72  C   UNL A   1      39.044  27.894  29.924  1.00  0.00     0.009 A 
ATOM     73  C   UNL A   1      39.677  28.591  27.706  1.00  0.00     0.009 A 
ATOM     74  C   UNL A   1      37.978  28.801  29.900  1.00  0.00     0.001 A 
ATOM     75  C   UNL A   1      38.606  29.491  27.681  1.00  0.00     0.001 A 
ATOM     76  C   UNL A   1      37.772  29.613  28.788  1.00  0.00     0.000 A 
ENDBRANCH  52  71
BRANCH  64  77
ATOM     77  C   UNL A   1      44.945  25.742  32.080  1.00  0.00    -0.014 A 
ATOM     78  C   UNL A   1      44.955  25.812  33.482  1.00  0.00     0.009 A 
ATOM     79  C   UNL A   1      44.569  24.536  31.470  1.00  0.00     0.009 A 
ATOM     80  C   UNL A   1      44.619  24.692  34.250  1.00  0.00     0.001 A 
ATOM     81  C   UNL A   1      44.212  23.427  32.237  1.00  0.00     0.001 A 
ATOM     82  C   UNL A   1      44.243  23.503  33.627  1.00  0.00     0.000 A 
ENDBRANCH  64  77
ENDBRANCH  38  39
ENDBRANCH  31  33
ENDBRANCH  30  31
ENDBRANCH  29  30
ENDBRANCH  28  29
ENDBRANCH  27  28
ENDBRANCH   1  27
TORSDOF 18
ENDMDL
MODEL 3
REMARK VINA RESULT:     -11.0      3.932      6.576
REMARK SMILES Cc1cc(C)c2c(CCCC(=O)OCCOCCOC(=O)c3ccc(-c4c5nc(c(-c6ccccc6)c6ccc([nH]6)c(-c6ccccc6)c6nc(c(-c7ccccc7)c7ccc4[nH]7)C=C6)C=C5)cc3)c(-c3ccccn3)[nH]c2c1
REMARK SMILES IDX 15 1 14 2 13 3 11 4 12 5 10 6 9 7 8 8 7 9 1 10 2 11 3 12
REMARK SMILES IDX 79 13 4 14 78 15 5 16 6 17 77 18 70 19 71 21 72 22 76 23
REMARK SMILES IDX 73 24 75 25 74 26 16 27 17 28 18 29 19 30 20 31 21 32 22 33
REMARK SMILES IDX 23 34 69 35 24 36 68 37 25 38 26 39 27 40 62 41 28 42 67 43
REMARK SMILES IDX 61 44 63 45 29 46 66 47 60 48 59 49 30 51 52 52 37 53 51 54
REMARK SMILES IDX 38 55 41 56 50 57 64 58 39 59 40 60 49 62 65 63 42 64 31 65
REMARK SMILES IDX 32 66 36 67 33 68 35 69 34 70 53 71 54 72 58 73 55 74 57 75
REMARK SMILES IDX 56 76 43 77 44 78 48 79 45 80 47 81 46 82
REMARK H PARENT 77 20 63 50 41 61
REMARK Flexibility Score: inf
ROOT
ATOM      1  C   UNL A   1      32.880  28.229  27.114  1.00  0.00     0.202 C 
ENDROOT
BRANCH   1   2
ATOM      2  C   UNL A   1      31.673  27.561  26.468  1.00  0.00     0.261 C 
BRANCH   2   3
ATOM      3  O   UNL A   1      31.596  26.178  26.850  1.00  0.00    -0.463 OA
BRANCH   3   4
ATOM      4  C   UNL A   1      31.807  25.246  25.889  1.00  0.00     0.305 C 
ATOM      5  O   UNL A   1      30.992  24.947  25.022  1.00  0.00    -0.252 OA
BRANCH   4   6
ATOM      6  C   UNL A   1      33.208  24.670  25.921  1.00  0.00     0.123 C 
BRANCH   6   7
ATOM      7  C   UNL A   1      34.220  25.104  24.860  1.00  0.00     0.017 C 
BRANCH   7   8
ATOM      8  C   UNL A   1      34.930  24.043  24.012  1.00  0.00     0.039 C 
BRANCH   8   9
ATOM      9  C   UNL A   1      35.035  22.653  24.570  1.00  0.00    -0.013 A 
ATOM     10  C   UNL A   1      32.283  17.639  23.974  1.00  0.00     0.044 C 
ATOM     11  C   UNL A   1      32.930  18.987  24.084  1.00  0.00    -0.049 A 
ATOM     12  C   UNL A   1      32.341  20.100  23.481  1.00  0.00     0.007 A 
ATOM     13  C   UNL A   1      34.094  19.148  24.835  1.00  0.00     0.030 A 
ATOM     14  C   UNL A   1      32.901  21.398  23.570  1.00  0.00    -0.041 A 
ATOM     15  C   UNL A   1      34.656  20.426  24.916  1.00  0.00     0.047 A 
ATOM     16  C   UNL A   1      32.170  22.510  22.864  1.00  0.00     0.045 C 
ATOM     17  C   UNL A   1      34.115  21.556  24.300  1.00  0.00     0.006 A 
ATOM     18  N   UNL A   1      35.789  20.815  25.576  1.00  0.00    -0.353 N 
ATOM     19  C   UNL A   1      36.087  22.125  25.320  1.00  0.00     0.068 A 
ATOM     20  H   UNL A   1      36.321  20.228  26.161  1.00  0.00     0.167 HD
BRANCH  19  21
ATOM     21  C   UNL A   1      37.337  22.668  25.831  1.00  0.00     0.087 A 
ATOM     22  C   UNL A   1      37.447  23.974  26.286  1.00  0.00     0.030 A 
ATOM     23  N   UNL A   1      38.380  21.812  25.775  1.00  0.00    -0.255 NA
ATOM     24  C   UNL A   1      38.682  24.400  26.774  1.00  0.00     0.004 A 
ATOM     25  C   UNL A   1      39.556  22.242  26.285  1.00  0.00     0.112 A 
ATOM     26  C   UNL A   1      39.751  23.512  26.799  1.00  0.00     0.020 A 
ENDBRANCH  19  21
ENDBRANCH   8   9
ENDBRANCH   7   8
ENDBRANCH   6   7
ENDBRANCH   4   6
ENDBRANCH   3   4
ENDBRANCH   2   3
ENDBRANCH   1   2
BRANCH   1  27
ATOM     27  O   UNL A   1      33.293  29.477  26.558  1.00  0.00    -0.374 OA
BRANCH  27  28
ATOM     28  C   UNL A   1      32.555  30.656  26.856  1.00  0.00     0.202 C 
BRANCH  28  29
ATOM     29  C   UNL A   1      33.235  31.709  27.715  1.00  0.00     0.261 C 
BRANCH  29  30
ATOM     30  O   UNL A   1      34.651  31.683  27.586  1.00  0.00    -0.460 OA
BRANCH  30  31
ATOM     31  C   UNL A   1      35.301  31.618  28.762  1.00  0.00     0.338 C 
ATOM     32  O   UNL A   1      34.892  32.006  29.861  1.00  0.00    -0.246 OA
BRANCH  31  33
ATOM     33  C   UNL A   1      36.673  31.179  28.531  1.00  0.00     0.060 A 
ATOM     34  C   UNL A   1      36.812  29.967  27.855  1.00  0.00     0.016 A 
ATOM     35  C   UNL A   1      37.746  31.780  29.211  1.00  0.00     0.016 A 
ATOM     36  C   UNL A   1      37.958  29.242  28.061  1.00  0.00     0.010 A 
ATOM     37  C   UNL A   1      38.901  31.054  29.409  1.00  0.00     0.010 A 
ATOM     38  C   UNL A   1      38.950  29.758  28.906  1.00  0.00    -0.014 A 
BRANCH  38  39
ATOM     39  C   UNL A   1      40.078  28.896  29.167  1.00  0.00     0.031 A 
ATOM     40  C   UNL A   1      40.380  28.783  30.603  1.00  0.00     0.074 A 
ATOM     41  C   UNL A   1      40.794  28.284  28.209  1.00  0.00     0.049 A 
ATOM     42  N   UNL A   1      41.355  29.344  31.233  1.00  0.00    -0.248 NA
ATOM     43  C   UNL A   1      39.383  28.129  31.462  1.00  0.00     0.031 C 
ATOM     44  C   UNL A   1      40.445  28.109  26.798  1.00  0.00     0.029 A 
ATOM     45  N   UNL A   1      41.966  27.601  28.333  1.00  0.00    -0.354 N 
ATOM     46  C   UNL A   1      41.212  28.945  32.552  1.00  0.00     0.074 A 
ATOM     47  C   UNL A   1      39.900  28.358  32.669  1.00  0.00     0.031 C 
ATOM     48  C   UNL A   1      41.260  27.172  26.257  1.00  0.00     0.029 A 
ATOM     49  C   UNL A   1      42.273  26.812  27.236  1.00  0.00     0.049 A 
ATOM     50  H   UNL A   1      42.542  27.662  29.129  1.00  0.00     0.167 HD
ATOM     51  C   UNL A   1      42.296  28.851  33.364  1.00  0.00     0.031 A 
ATOM     52  C   UNL A   1      43.260  25.888  27.178  1.00  0.00     0.031 A 
ATOM     53  C   UNL A   1      43.444  29.519  32.811  1.00  0.00     0.049 A 
ATOM     54  C   UNL A   1      44.271  26.231  28.201  1.00  0.00     0.074 A 
ATOM     55  C   UNL A   1      43.879  30.816  32.660  1.00  0.00     0.029 A 
ATOM     56  N   UNL A   1      44.182  28.738  31.961  1.00  0.00    -0.354 N 
ATOM     57  N   UNL A   1      45.032  27.284  28.130  1.00  0.00    -0.248 NA
ATOM     58  C   UNL A   1      44.247  25.563  29.498  1.00  0.00     0.031 C 
ATOM     59  C   UNL A   1      44.774  30.807  31.550  1.00  0.00     0.029 A 
ATOM     60  C   UNL A   1      44.879  29.503  31.066  1.00  0.00     0.049 A 
ATOM     61  H   UNL A   1      44.207  27.753  31.989  1.00  0.00     0.167 HD
ATOM     62  C   UNL A   1      45.228  27.654  29.447  1.00  0.00     0.074 A 
ATOM     63  C   UNL A   1      44.893  26.473  30.231  1.00  0.00     0.031 C 
ATOM     64  C   UNL A   1      45.328  28.967  29.798  1.00  0.00     0.031 A 
BRANCH  51  65
ATOM     65  C   UNL A   1      42.461  27.727  34.355  1.00  0.00    -0.014 A 
ATOM     66  C   UNL A   1      43.002  26.511  33.908  1.00  0.00     0.009 A 
ATOM     67  C   UNL A   1      41.825  27.716  35.614  1.00  0.00     0.009 A 
ATOM     68  C   UNL A   1      42.876  25.340  34.665  1.00  0.00     0.001 A 
ATOM     69  C   UNL A   1      41.731  26.559  36.388  1.00  0.00     0.001 A 
ATOM     70  C   UNL A   1      42.239  25.364  35.902  1.00  0.00     0.000 A 
ENDBRANCH  51  65
BRANCH  52  71
ATOM     71  C   UNL A   1      43.272  24.584  26.484  1.00  0.00    -0.014 A 
ATOM     72  C   UNL A   1      43.655  24.510  25.135  1.00  0.00     0.009 A 
ATOM     73  C   UNL A   1      43.212  23.387  27.220  1.00  0.00     0.009 A 
ATOM     74  C   UNL A   1      44.038  23.290  24.564  1.00  0.00     0.001 A 
ATOM     75  C   UNL A   1      43.588  22.168  26.646  1.00  0.00     0.001 A 
ATOM     76  C   UNL A   1      44.024  22.125  25.326  1.00  0.00     0.000 A 
ENDBRANCH  52  71
BRANCH  64  77
ATOM     77  C   UNL A   1      45.744  29.939  28.731  1.00  0.00    -0.014 A 
ATOM     78  C   UNL A   1      47.082  30.204  28.398  1.00  0.00     0.009 A 
ATOM     79  C   UNL A   1      44.730  30.556  27.983  1.00  0.00     0.009 A 
ATOM     80  C   UNL A   1      47.392  31.084  27.356  1.00  0.00     0.001 A 
ATOM     81  C   UNL A   1      45.040  31.415  26.929  1.00  0.00     0.001 A 
ATOM     82  C   UNL A   1      46.371  31.684  26.619  1.00  0.00     0.000 A 
ENDBRANCH  64  77
ENDBRANCH  38  39
ENDBRANCH  31  33
ENDBRANCH  30  31
ENDBRANCH  29  30
ENDBRANCH  28  29
ENDBRANCH  27  28
ENDBRANCH   1  27
TORSDOF 18
ENDMDL
