MODEL 1
REMARK VINA RESULT:     -10.1      0.000      0.000
REMARK SMILES C[C@@H](C(=O)OCCOCCOC(=O)c1ccc(-c2c3nc(c(-c4ccccc4)c4ccc([nH]4)c(-c4ccccc4)c4nc(c(-c5ccccc5)c5ccc2[nH]5)C=C4)C=C3)cc1)c1ccc(C[C@H]2CCCC2=O)cc1
REMARK SMILES IDX 7 1 6 2 5 3 3 4 4 5 2 6 1 7 62 8 63 9 74 10 64 11 73 12
REMARK SMILES IDX 65 13 66 14 67 15 68 16 71 17 69 18 70 19 72 20 8 21 9 22
REMARK SMILES IDX 10 23 11 24 12 25 13 26 14 27 15 28 61 29 16 30 60 31 17 32
REMARK SMILES IDX 18 33 19 34 54 35 20 36 59 37 53 38 55 39 21 40 58 41 52 42
REMARK SMILES IDX 51 43 22 45 44 46 29 47 43 48 30 49 33 50 42 51 56 52 31 53
REMARK SMILES IDX 32 54 41 56 57 57 34 58 23 59 24 60 28 61 25 62 27 63 26 64
REMARK SMILES IDX 45 65 46 66 50 67 47 68 49 69 48 70 35 71 36 72 40 73 37 74
REMARK SMILES IDX 39 75 38 76
REMARK H PARENT 55 44 33 55
REMARK Flexibility Score: inf
ROOT
ATOM      1  C   UNL A   1      37.191  21.898  24.389  1.00  0.00     0.202 C 
ENDROOT
BRANCH   1   2
ATOM      2  C   UNL A   1      36.613  23.119  23.668  1.00  0.00     0.261 C 
BRANCH   2   3
ATOM      3  O   UNL A   1      36.066  24.045  24.625  1.00  0.00    -0.463 OA
BRANCH   3   4
ATOM      4  C   UNL A   1      34.709  24.151  24.636  1.00  0.00     0.313 C 
ATOM      5  O   UNL A   1      34.076  24.737  25.508  1.00  0.00    -0.252 OA
BRANCH   4   6
ATOM      6  C   UNL A   1      34.049  23.473  23.425  1.00  0.00     0.126 C 
ATOM      7  C   UNL A   1      33.085  24.360  22.629  1.00  0.00     0.025 C 
BRANCH   6   8
ATOM      8  C   UNL A   1      33.434  22.143  23.851  1.00  0.00    -0.034 A 
ATOM      9  C   UNL A   1      33.670  21.564  25.106  1.00  0.00     0.005 A 
ATOM     10  C   UNL A   1      32.694  21.408  22.914  1.00  0.00     0.005 A 
ATOM     11  C   UNL A   1      33.228  20.269  25.394  1.00  0.00     0.004 A 
ATOM     12  C   UNL A   1      32.248  20.116  23.202  1.00  0.00     0.004 A 
ATOM     13  C   UNL A   1      32.538  19.522  24.435  1.00  0.00    -0.047 A 
BRANCH  13  14
ATOM     14  C   UNL A   1      32.145  18.090  24.709  1.00  0.00     0.047 C 
BRANCH  14  15
ATOM     15  C   UNL A   1      33.040  17.011  24.088  1.00  0.00     0.060 C 
ATOM     16  C   UNL A   1      34.477  17.421  23.741  1.00  0.00     0.012 C 
ATOM     17  C   UNL A   1      33.259  15.829  25.008  1.00  0.00     0.136 C 
ATOM     18  C   UNL A   1      35.353  16.906  24.877  1.00  0.00     0.009 C 
ATOM     19  C   UNL A   1      34.716  15.594  25.312  1.00  0.00     0.076 C 
ATOM     20  O   UNL A   1      32.356  15.117  25.431  1.00  0.00    -0.299 OA
ENDBRANCH  14  15
ENDBRANCH  13  14
ENDBRANCH   6   8
ENDBRANCH   4   6
ENDBRANCH   3   4
ENDBRANCH   2   3
ENDBRANCH   1   2
BRANCH   1  21
ATOM     21  O   UNL A   1      37.580  22.106  25.750  1.00  0.00    -0.374 OA
BRANCH  21  22
ATOM     22  C   UNL A   1      38.908  21.736  26.108  1.00  0.00     0.202 C 
BRANCH  22  23
ATOM     23  C   UNL A   1      39.417  20.405  25.541  1.00  0.00     0.261 C 
BRANCH  23  24
ATOM     24  O   UNL A   1      40.366  19.766  26.412  1.00  0.00    -0.460 OA
BRANCH  24  25
ATOM     25  C   UNL A   1      41.655  19.891  26.020  1.00  0.00     0.338 C 
ATOM     26  O   UNL A   1      42.272  19.166  25.250  1.00  0.00    -0.246 OA
BRANCH  25  27
ATOM     27  C   UNL A   1      42.221  21.156  26.521  1.00  0.00     0.060 A 
ATOM     28  C   UNL A   1      42.188  21.367  27.905  1.00  0.00     0.016 A 
ATOM     29  C   UNL A   1      42.708  22.144  25.662  1.00  0.00     0.016 A 
ATOM     30  C   UNL A   1      42.589  22.590  28.434  1.00  0.00     0.010 A 
ATOM     31  C   UNL A   1      43.103  23.377  26.195  1.00  0.00     0.010 A 
ATOM     32  C   UNL A   1      43.009  23.617  27.578  1.00  0.00    -0.014 A 
BRANCH  32  33
ATOM     33  C   UNL A   1      43.193  24.981  28.126  1.00  0.00     0.031 A 
ATOM     34  C   UNL A   1      44.579  25.438  28.494  1.00  0.00     0.074 A 
ATOM     35  C   UNL A   1      42.151  25.822  28.248  1.00  0.00     0.049 A 
ATOM     36  N   UNL A   1      44.972  26.590  28.971  1.00  0.00    -0.248 NA
ATOM     37  C   UNL A   1      45.666  24.467  28.291  1.00  0.00     0.031 C 
ATOM     38  C   UNL A   1      40.769  25.517  27.882  1.00  0.00     0.029 A 
ATOM     39  N   UNL A   1      42.101  27.112  28.714  1.00  0.00    -0.354 N 
ATOM     40  C   UNL A   1      46.348  26.482  29.131  1.00  0.00     0.074 A 
ATOM     41  C   UNL A   1      46.718  25.144  28.724  1.00  0.00     0.031 C 
ATOM     42  C   UNL A   1      40.004  26.595  28.135  1.00  0.00     0.029 A 
ATOM     43  C   UNL A   1      40.837  27.650  28.706  1.00  0.00     0.049 A 
ATOM     44  H   UNL A   1      42.895  27.606  29.021  1.00  0.00     0.167 HD
ATOM     45  C   UNL A   1      47.227  27.414  29.570  1.00  0.00     0.031 A 
ATOM     46  C   UNL A   1      40.403  28.853  29.127  1.00  0.00     0.031 A 
ATOM     47  C   UNL A   1      46.862  28.742  29.984  1.00  0.00     0.049 A 
ATOM     48  C   UNL A   1      41.389  29.843  29.687  1.00  0.00     0.074 A 
ATOM     49  C   UNL A   1      47.683  29.762  30.428  1.00  0.00     0.029 A 
ATOM     50  N   UNL A   1      45.564  29.228  30.012  1.00  0.00    -0.354 N 
ATOM     51  N   UNL A   1      42.690  29.738  29.806  1.00  0.00    -0.248 NA
ATOM     52  C   UNL A   1      40.843  31.122  30.166  1.00  0.00     0.031 C 
ATOM     53  C   UNL A   1      46.876  30.852  30.776  1.00  0.00     0.029 A 
ATOM     54  C   UNL A   1      45.558  30.525  30.496  1.00  0.00     0.049 A 
ATOM     55  H   UNL A   1      44.765  28.725  29.731  1.00  0.00     0.167 HD
ATOM     56  C   UNL A   1      43.121  30.944  30.345  1.00  0.00     0.074 A 
ATOM     57  C   UNL A   1      41.945  31.770  30.519  1.00  0.00     0.031 C 
ATOM     58  C   UNL A   1      44.379  31.333  30.664  1.00  0.00     0.031 A 
BRANCH  45  59
ATOM     59  C   UNL A   1      48.671  27.012  29.659  1.00  0.00    -0.014 A 
ATOM     60  C   UNL A   1      49.577  27.310  28.629  1.00  0.00     0.009 A 
ATOM     61  C   UNL A   1      49.138  26.351  30.805  1.00  0.00     0.009 A 
ATOM     62  C   UNL A   1      50.916  26.926  28.733  1.00  0.00     0.001 A 
ATOM     63  C   UNL A   1      50.482  25.991  30.917  1.00  0.00     0.001 A 
ATOM     64  C   UNL A   1      51.368  26.271  29.879  1.00  0.00     0.000 A 
ENDBRANCH  45  59
BRANCH  46  65
ATOM     65  C   UNL A   1      38.957  29.191  29.053  1.00  0.00    -0.014 A 
ATOM     66  C   UNL A   1      38.129  29.042  30.175  1.00  0.00     0.009 A 
ATOM     67  C   UNL A   1      38.393  29.640  27.848  1.00  0.00     0.009 A 
ATOM     68  C   UNL A   1      36.761  29.315  30.086  1.00  0.00     0.001 A 
ATOM     69  C   UNL A   1      37.032  29.938  27.769  1.00  0.00     0.001 A 
ATOM     70  C   UNL A   1      36.216  29.766  28.885  1.00  0.00     0.000 A 
ENDBRANCH  46  65
BRANCH  58  71
ATOM     71  C   UNL A   1      44.554  32.726  31.202  1.00  0.00    -0.014 A 
ATOM     72  C   UNL A   1      44.529  32.982  32.582  1.00  0.00     0.009 A 
ATOM     73  C   UNL A   1      44.789  33.788  30.315  1.00  0.00     0.009 A 
ATOM     74  C   UNL A   1      44.707  34.282  33.060  1.00  0.00     0.001 A 
ATOM     75  C   UNL A   1      44.993  35.082  30.797  1.00  0.00     0.001 A 
ATOM     76  C   UNL A   1      44.943  35.329  32.169  1.00  0.00     0.000 A 
ENDBRANCH  58  71
ENDBRANCH  32  33
ENDBRANCH  25  27
ENDBRANCH  24  25
ENDBRANCH  23  24
ENDBRANCH  22  23
ENDBRANCH  21  22
ENDBRANCH   1  21
TORSDOF 17
ENDMDL
MODEL 2
REMARK VINA RESULT:     -10.1      2.866      5.273
REMARK SMILES C[C@@H](C(=O)OCCOCCOC(=O)c1ccc(-c2c3nc(c(-c4ccccc4)c4ccc([nH]4)c(-c4ccccc4)c4nc(c(-c5ccccc5)c5ccc2[nH]5)C=C4)C=C3)cc1)c1ccc(C[C@H]2CCCC2=O)cc1
REMARK SMILES IDX 7 1 6 2 5 3 3 4 4 5 2 6 1 7 62 8 63 9 74 10 64 11 73 12
REMARK SMILES IDX 65 13 66 14 67 15 68 16 71 17 69 18 70 19 72 20 8 21 9 22
REMARK SMILES IDX 10 23 11 24 12 25 13 26 14 27 15 28 61 29 16 30 60 31 17 32
REMARK SMILES IDX 18 33 19 34 54 35 20 36 59 37 53 38 55 39 21 40 58 41 52 42
REMARK SMILES IDX 51 43 22 45 44 46 29 47 43 48 30 49 33 50 42 51 56 52 31 53
REMARK SMILES IDX 32 54 41 56 57 57 34 58 23 59 24 60 28 61 25 62 27 63 26 64
REMARK SMILES IDX 45 65 46 66 50 67 47 68 49 69 48 70 35 71 36 72 40 73 37 74
REMARK SMILES IDX 39 75 38 76
REMARK H PARENT 55 44 33 55
REMARK Flexibility Score: inf
ROOT
ATOM      1  C   UNL A   1      37.273  23.651  26.028  1.00  0.00     0.202 C 
ENDROOT
BRANCH   1   2
ATOM      2  C   UNL A   1      35.922  23.578  25.310  1.00  0.00     0.261 C 
BRANCH   2   3
ATOM      3  O   UNL A   1      35.315  24.883  25.266  1.00  0.00    -0.463 OA
BRANCH   3   4
ATOM      4  C   UNL A   1      34.121  24.958  24.617  1.00  0.00     0.313 C 
ATOM      5  O   UNL A   1      34.003  24.925  23.397  1.00  0.00    -0.252 OA
BRANCH   4   6
ATOM      6  C   UNL A   1      32.927  25.068  25.578  1.00  0.00     0.126 C 
ATOM      7  C   UNL A   1      31.988  23.856  25.589  1.00  0.00     0.025 C 
BRANCH   6   8
ATOM      8  C   UNL A   1      32.202  26.392  25.350  1.00  0.00    -0.034 A 
ATOM      9  C   UNL A   1      30.975  26.479  24.677  1.00  0.00     0.005 A 
ATOM     10  C   UNL A   1      32.837  27.585  25.724  1.00  0.00     0.005 A 
ATOM     11  C   UNL A   1      30.428  27.721  24.340  1.00  0.00     0.004 A 
ATOM     12  C   UNL A   1      32.289  28.826  25.392  1.00  0.00     0.004 A 
ATOM     13  C   UNL A   1      31.094  28.906  24.668  1.00  0.00    -0.047 A 
BRANCH  13  14
ATOM     14  C   UNL A   1      30.554  30.243  24.221  1.00  0.00     0.047 C 
BRANCH  14  15
ATOM     15  C   UNL A   1      29.202  30.222  23.499  1.00  0.00     0.060 C 
ATOM     16  C   UNL A   1      28.230  31.363  23.822  1.00  0.00     0.012 C 
ATOM     17  C   UNL A   1      29.337  30.334  21.996  1.00  0.00     0.136 C 
ATOM     18  C   UNL A   1      28.353  32.365  22.680  1.00  0.00     0.009 C 
ATOM     19  C   UNL A   1      28.606  31.526  21.436  1.00  0.00     0.076 C 
ATOM     20  O   UNL A   1      29.944  29.525  21.303  1.00  0.00    -0.299 OA
ENDBRANCH  14  15
ENDBRANCH  13  14
ENDBRANCH   6   8
ENDBRANCH   4   6
ENDBRANCH   3   4
ENDBRANCH   2   3
ENDBRANCH   1   2
BRANCH   1  21
ATOM     21  O   UNL A   1      38.175  22.571  25.767  1.00  0.00    -0.374 OA
BRANCH  21  22
ATOM     22  C   UNL A   1      37.616  21.376  25.229  1.00  0.00     0.202 C 
BRANCH  22  23
ATOM     23  C   UNL A   1      38.575  20.190  25.073  1.00  0.00     0.261 C 
BRANCH  23  24
ATOM     24  O   UNL A   1      39.277  19.890  26.292  1.00  0.00    -0.460 OA
BRANCH  24  25
ATOM     25  C   UNL A   1      40.620  19.798  26.154  1.00  0.00     0.338 C 
ATOM     26  O   UNL A   1      41.251  18.912  25.591  1.00  0.00    -0.246 OA
BRANCH  25  27
ATOM     27  C   UNL A   1      41.269  21.029  26.638  1.00  0.00     0.060 A 
ATOM     28  C   UNL A   1      41.201  21.288  28.012  1.00  0.00     0.016 A 
ATOM     29  C   UNL A   1      41.868  21.945  25.770  1.00  0.00     0.016 A 
ATOM     30  C   UNL A   1      41.681  22.491  28.521  1.00  0.00     0.010 A 
ATOM     31  C   UNL A   1      42.343  23.159  26.282  1.00  0.00     0.010 A 
ATOM     32  C   UNL A   1      42.216  23.451  27.651  1.00  0.00    -0.014 A 
BRANCH  32  33
ATOM     33  C   UNL A   1      42.491  24.814  28.165  1.00  0.00     0.031 A 
ATOM     34  C   UNL A   1      43.904  25.185  28.525  1.00  0.00     0.074 A 
ATOM     35  C   UNL A   1      41.508  25.726  28.263  1.00  0.00     0.049 A 
ATOM     36  N   UNL A   1      44.374  26.320  28.975  1.00  0.00    -0.248 NA
ATOM     37  C   UNL A   1      44.924  24.138  28.351  1.00  0.00     0.031 C 
ATOM     38  C   UNL A   1      40.109  25.506  27.900  1.00  0.00     0.029 A 
ATOM     39  N   UNL A   1      41.546  27.028  28.695  1.00  0.00    -0.354 N 
ATOM     40  C   UNL A   1      45.739  26.123  29.141  1.00  0.00     0.074 A 
ATOM     41  C   UNL A   1      46.018  24.754  28.770  1.00  0.00     0.031 C 
ATOM     42  C   UNL A   1      39.419  26.639  28.123  1.00  0.00     0.029 A 
ATOM     43  C   UNL A   1      40.321  27.649  28.670  1.00  0.00     0.049 A 
ATOM     44  H   UNL A   1      42.370  27.475  28.993  1.00  0.00     0.167 HD
ATOM     45  C   UNL A   1      46.679  27.004  29.559  1.00  0.00     0.031 A 
ATOM     46  C   UNL A   1      39.968  28.890  29.058  1.00  0.00     0.031 A 
ATOM     47  C   UNL A   1      46.404  28.364  29.937  1.00  0.00     0.049 A 
ATOM     48  C   UNL A   1      41.018  29.824  29.596  1.00  0.00     0.074 A 
ATOM     49  C   UNL A   1      47.291  29.338  30.358  1.00  0.00     0.029 A 
ATOM     50  N   UNL A   1      45.142  28.937  29.950  1.00  0.00    -0.354 N 
ATOM     51  N   UNL A   1      42.309  29.635  29.721  1.00  0.00    -0.248 NA
ATOM     52  C   UNL A   1      40.559  31.149  30.040  1.00  0.00     0.031 C 
ATOM     53  C   UNL A   1      46.559  30.488  30.676  1.00  0.00     0.029 A 
ATOM     54  C   UNL A   1      45.223  30.244  30.400  1.00  0.00     0.049 A 
ATOM     55  H   UNL A   1      44.311  28.483  29.679  1.00  0.00     0.167 HD
ATOM     56  C   UNL A   1      42.820  30.822  30.231  1.00  0.00     0.074 A 
ATOM     57  C   UNL A   1      41.702  31.730  30.380  1.00  0.00     0.031 C 
ATOM     58  C   UNL A   1      44.101  31.134  30.544  1.00  0.00     0.031 A 
BRANCH  45  59
ATOM     59  C   UNL A   1      48.093  26.508  29.663  1.00  0.00    -0.014 A 
ATOM     60  C   UNL A   1      49.014  26.705  28.622  1.00  0.00     0.009 A 
ATOM     61  C   UNL A   1      48.517  25.861  30.833  1.00  0.00     0.009 A 
ATOM     62  C   UNL A   1      50.324  26.235  28.740  1.00  0.00     0.001 A 
ATOM     63  C   UNL A   1      49.833  25.414  30.958  1.00  0.00     0.001 A 
ATOM     64  C   UNL A   1      50.733  25.594  29.909  1.00  0.00     0.000 A 
ENDBRANCH  45  59
BRANCH  46  65
ATOM     65  C   UNL A   1      38.548  29.322  28.972  1.00  0.00    -0.014 A 
ATOM     66  C   UNL A   1      37.696  29.206  30.079  1.00  0.00     0.009 A 
ATOM     67  C   UNL A   1      38.033  29.831  27.768  1.00  0.00     0.009 A 
ATOM     68  C   UNL A   1      36.350  29.569  29.976  1.00  0.00     0.001 A 
ATOM     69  C   UNL A   1      36.696  30.218  27.677  1.00  0.00     0.001 A 
ATOM     70  C   UNL A   1      35.853  30.078  28.778  1.00  0.00     0.000 A 
ENDBRANCH  46  65
BRANCH  58  71
ATOM     71  C   UNL A   1      44.368  32.525  31.047  1.00  0.00    -0.014 A 
ATOM     72  C   UNL A   1      44.772  33.549  30.176  1.00  0.00     0.009 A 
ATOM     73  C   UNL A   1      44.172  32.823  32.405  1.00  0.00     0.009 A 
ATOM     74  C   UNL A   1      45.002  34.838  30.663  1.00  0.00     0.001 A 
ATOM     75  C   UNL A   1      44.376  34.117  32.883  1.00  0.00     0.001 A 
ATOM     76  C   UNL A   1      44.800  35.122  32.014  1.00  0.00     0.000 A 
ENDBRANCH  58  71
ENDBRANCH  32  33
ENDBRANCH  25  27
ENDBRANCH  24  25
ENDBRANCH  23  24
ENDBRANCH  22  23
ENDBRANCH  21  22
ENDBRANCH   1  21
TORSDOF 17
ENDMDL
MODEL 3
REMARK VINA RESULT:     -10.1      5.058     10.588
REMARK SMILES C[C@@H](C(=O)OCCOCCOC(=O)c1ccc(-c2c3nc(c(-c4ccccc4)c4ccc([nH]4)c(-c4ccccc4)c4nc(c(-c5ccccc5)c5ccc2[nH]5)C=C4)C=C3)cc1)c1ccc(C[C@H]2CCCC2=O)cc1
REMARK SMILES IDX 7 1 6 2 5 3 3 4 4 5 2 6 1 7 62 8 63 9 74 10 64 11 73 12
REMARK SMILES IDX 65 13 66 14 67 15 68 16 71 17 69 18 70 19 72 20 8 21 9 22
REMARK SMILES IDX 10 23 11 24 12 25 13 26 14 27 15 28 61 29 16 30 60 31 17 32
REMARK SMILES IDX 18 33 19 34 54 35 20 36 59 37 53 38 55 39 21 40 58 41 52 42
REMARK SMILES IDX 51 43 22 45 44 46 29 47 43 48 30 49 33 50 42 51 56 52 31 53
REMARK SMILES IDX 32 54 41 56 57 57 34 58 23 59 24 60 28 61 25 62 27 63 26 64
REMARK SMILES IDX 45 65 46 66 50 67 47 68 49 69 48 70 35 71 36 72 40 73 37 74
REMARK SMILES IDX 39 75 38 76
REMARK H PARENT 55 44 33 55
REMARK Flexibility Score: inf
ROOT
ATOM      1  C   UNL A   1      34.610  32.601  31.068  1.00  0.00     0.202 C 
ENDROOT
BRANCH   1   2
ATOM      2  C   UNL A   1      35.468  32.934  32.292  1.00  0.00     0.261 C 
BRANCH   2   3
ATOM      3  O   UNL A   1      36.134  31.748  32.766  1.00  0.00    -0.463 OA
BRANCH   3   4
ATOM      4  C   UNL A   1      37.469  31.875  33.003  1.00  0.00     0.313 C 
ATOM      5  O   UNL A   1      38.224  32.553  32.315  1.00  0.00    -0.252 OA
BRANCH   4   6
ATOM      6  C   UNL A   1      37.930  31.093  34.243  1.00  0.00     0.126 C 
ATOM      7  C   UNL A   1      38.150  31.941  35.501  1.00  0.00     0.025 C 
BRANCH   6   8
ATOM      8  C   UNL A   1      39.130  30.221  33.885  1.00  0.00    -0.034 A 
ATOM      9  C   UNL A   1      39.021  29.066  33.098  1.00  0.00     0.005 A 
ATOM     10  C   UNL A   1      40.376  30.515  34.457  1.00  0.00     0.005 A 
ATOM     11  C   UNL A   1      40.109  28.203  32.933  1.00  0.00     0.004 A 
ATOM     12  C   UNL A   1      41.465  29.656  34.290  1.00  0.00     0.004 A 
ATOM     13  C   UNL A   1      41.333  28.475  33.552  1.00  0.00    -0.047 A 
BRANCH  13  14
ATOM     14  C   UNL A   1      42.479  27.497  33.457  1.00  0.00     0.047 C 
BRANCH  14  15
ATOM     15  C   UNL A   1      42.875  26.786  34.757  1.00  0.00     0.060 C 
ATOM     16  C   UNL A   1      41.760  26.560  35.785  1.00  0.00     0.012 C 
ATOM     17  C   UNL A   1      43.385  25.381  34.526  1.00  0.00     0.136 C 
ATOM     18  C   UNL A   1      41.313  25.112  35.619  1.00  0.00     0.009 C 
ATOM     19  C   UNL A   1      42.575  24.342  35.257  1.00  0.00     0.076 C 
ATOM     20  O   UNL A   1      44.372  25.115  33.848  1.00  0.00    -0.299 OA
ENDBRANCH  14  15
ENDBRANCH  13  14
ENDBRANCH   6   8
ENDBRANCH   4   6
ENDBRANCH   3   4
ENDBRANCH   2   3
ENDBRANCH   1   2
BRANCH   1  21
ATOM     21  O   UNL A   1      34.069  33.723  30.364  1.00  0.00    -0.374 OA
BRANCH  21  22
ATOM     22  C   UNL A   1      34.829  34.227  29.269  1.00  0.00     0.202 C 
BRANCH  22  23
ATOM     23  C   UNL A   1      35.767  33.230  28.578  1.00  0.00     0.261 C 
BRANCH  23  24
ATOM     24  O   UNL A   1      35.089  32.438  27.588  1.00  0.00    -0.460 OA
BRANCH  24  25
ATOM     25  C   UNL A   1      34.823  31.169  27.975  1.00  0.00     0.338 C 
ATOM     26  O   UNL A   1      33.729  30.622  28.036  1.00  0.00    -0.246 OA
BRANCH  25  27
ATOM     27  C   UNL A   1      36.078  30.422  28.173  1.00  0.00     0.060 A 
ATOM     28  C   UNL A   1      36.318  29.905  29.452  1.00  0.00     0.016 A 
ATOM     29  C   UNL A   1      37.031  30.288  27.161  1.00  0.00     0.016 A 
ATOM     30  C   UNL A   1      37.537  29.300  29.743  1.00  0.00     0.010 A 
ATOM     31  C   UNL A   1      38.261  29.686  27.458  1.00  0.00     0.010 A 
ATOM     32  C   UNL A   1      38.532  29.225  28.759  1.00  0.00    -0.014 A 
BRANCH  32  33
ATOM     33  C   UNL A   1      39.899  28.809  29.147  1.00  0.00     0.031 A 
ATOM     34  C   UNL A   1      40.383  27.439  28.756  1.00  0.00     0.074 A 
ATOM     35  C   UNL A   1      40.721  29.655  29.794  1.00  0.00     0.049 A 
ATOM     36  N   UNL A   1      41.543  26.875  28.974  1.00  0.00    -0.248 NA
ATOM     37  C   UNL A   1      39.432  26.594  28.015  1.00  0.00     0.031 C 
ATOM     38  C   UNL A   1      40.389  31.024  30.186  1.00  0.00     0.029 A 
ATOM     39  N   UNL A   1      42.010  29.480  30.231  1.00  0.00    -0.354 N 
ATOM     40  C   UNL A   1      41.461  25.611  28.405  1.00  0.00     0.074 A 
ATOM     41  C   UNL A   1      40.130  25.480  27.854  1.00  0.00     0.031 C 
ATOM     42  C   UNL A   1      41.452  31.568  30.805  1.00  0.00     0.029 A 
ATOM     43  C   UNL A   1      42.524  30.578  30.878  1.00  0.00     0.049 A 
ATOM     44  H   UNL A   1      42.519  28.650  30.092  1.00  0.00     0.167 HD
ATOM     45  C   UNL A   1      42.410  24.647  28.338  1.00  0.00     0.031 A 
ATOM     46  C   UNL A   1      43.719  30.755  31.472  1.00  0.00     0.031 A 
ATOM     47  C   UNL A   1      43.731  24.770  28.893  1.00  0.00     0.049 A 
ATOM     48  C   UNL A   1      44.727  29.637  31.456  1.00  0.00     0.074 A 
ATOM     49  C   UNL A   1      44.767  23.855  28.862  1.00  0.00     0.029 A 
ATOM     50  N   UNL A   1      44.192  25.878  29.588  1.00  0.00    -0.354 N 
ATOM     51  N   UNL A   1      44.647  28.459  30.890  1.00  0.00    -0.248 NA
ATOM     52  C   UNL A   1      45.996  29.882  32.159  1.00  0.00     0.031 C 
ATOM     53  C   UNL A   1      45.841  24.387  29.585  1.00  0.00     0.029 A 
ATOM     54  C   UNL A   1      45.489  25.656  30.018  1.00  0.00     0.049 A 
ATOM     55  H   UNL A   1      43.675  26.699  29.751  1.00  0.00     0.167 HD
ATOM     56  C   UNL A   1      45.861  27.832  31.142  1.00  0.00     0.074 A 
ATOM     57  C   UNL A   1      46.666  28.766  31.902  1.00  0.00     0.031 C 
ATOM     58  C   UNL A   1      46.275  26.595  30.774  1.00  0.00     0.031 A 
BRANCH  45  59
ATOM     59  C   UNL A   1      42.035  23.355  27.671  1.00  0.00    -0.014 A 
ATOM     60  C   UNL A   1      41.350  22.346  28.365  1.00  0.00     0.009 A 
ATOM     61  C   UNL A   1      42.348  23.157  26.317  1.00  0.00     0.009 A 
ATOM     62  C   UNL A   1      41.012  21.152  27.725  1.00  0.00     0.001 A 
ATOM     63  C   UNL A   1      41.987  21.973  25.673  1.00  0.00     0.001 A 
ATOM     64  C   UNL A   1      41.327  20.968  26.378  1.00  0.00     0.000 A 
ENDBRANCH  45  59
BRANCH  46  65
ATOM     65  C   UNL A   1      44.028  32.039  32.154  1.00  0.00    -0.014 A 
ATOM     66  C   UNL A   1      43.709  32.227  33.506  1.00  0.00     0.009 A 
ATOM     67  C   UNL A   1      44.624  33.094  31.444  1.00  0.00     0.009 A 
ATOM     68  C   UNL A   1      43.959  33.454  34.128  1.00  0.00     0.001 A 
ATOM     69  C   UNL A   1      44.897  34.308  32.075  1.00  0.00     0.001 A 
ATOM     70  C   UNL A   1      44.556  34.490  33.413  1.00  0.00     0.000 A 
ENDBRANCH  46  65
BRANCH  58  71
ATOM     71  C   UNL A   1      47.671  26.193  31.159  1.00  0.00    -0.014 A 
ATOM     72  C   UNL A   1      48.758  26.427  30.303  1.00  0.00     0.009 A 
ATOM     73  C   UNL A   1      47.905  25.610  32.415  1.00  0.00     0.009 A 
ATOM     74  C   UNL A   1      50.050  26.057  30.687  1.00  0.00     0.001 A 
ATOM     75  C   UNL A   1      49.200  25.266  32.806  1.00  0.00     0.001 A 
ATOM     76  C   UNL A   1      50.269  25.482  31.939  1.00  0.00     0.000 A 
ENDBRANCH  58  71
ENDBRANCH  32  33
ENDBRANCH  25  27
ENDBRANCH  24  25
ENDBRANCH  23  24
ENDBRANCH  22  23
ENDBRANCH  21  22
ENDBRANCH   1  21
TORSDOF 17
ENDMDL
