MODEL 1
REMARK VINA RESULT:     -10.7      0.000      0.000
REMARK SMILES O=C(OCCOCCOC(=O)c1c[nH]c(=O)c(-c2cccc([N+](=O)[O-])c2)c1)c1ccc(-c2c3nc(c(-c4ccccc4)c4ccc([nH]4)c(-c4ccccc4)c4nc(c(-c5ccccc5)c5ccc2[nH]5)C=C4)C=C3)cc1
REMARK SMILES IDX 6 1 5 2 4 3 3 4 2 5 1 6 28 7 29 8 75 9 30 10 74 11 31 12
REMARK SMILES IDX 32 13 33 14 68 15 34 16 73 17 67 18 69 19 35 20 72 21 66 22
REMARK SMILES IDX 65 23 36 25 58 26 43 27 57 28 44 29 47 30 56 31 70 32 45 33
REMARK SMILES IDX 46 34 55 36 71 37 48 38 37 39 38 40 42 41 39 42 41 43 40 44
REMARK SMILES IDX 59 45 60 46 64 47 61 48 63 49 62 50 49 51 50 52 54 53 51 54
REMARK SMILES IDX 53 55 52 56 7 57 8 58 9 59 10 60 11 61 12 62 13 63 27 64
REMARK SMILES IDX 14 65 17 66 15 67 16 69 18 70 19 71 26 72 20 73 22 74 21 75
REMARK SMILES IDX 23 76 24 77 25 78
REMARK H PARENT 69 24 47 35 14 68
REMARK Flexibility Score: inf
ROOT
ATOM      1  O   UNL A   1      31.105  30.388  25.298  1.00  0.00    -0.374 OA
ENDROOT
BRANCH   1   2
ATOM      2  C   UNL A   1      31.019  31.717  25.806  1.00  0.00     0.202 C 
BRANCH   2   3
ATOM      3  C   UNL A   1      31.968  32.006  26.968  1.00  0.00     0.261 C 
BRANCH   3   4
ATOM      4  O   UNL A   1      32.026  33.419  27.216  1.00  0.00    -0.460 OA
BRANCH   4   5
ATOM      5  C   UNL A   1      32.871  34.076  28.043  1.00  0.00     0.338 C 
ATOM      6  O   UNL A   1      32.580  35.212  28.409  1.00  0.00    -0.246 OA
BRANCH   5   7
ATOM      7  C   UNL A   1      34.156  33.496  28.533  1.00  0.00     0.060 A 
ATOM      8  C   UNL A   1      35.421  33.888  28.091  1.00  0.00     0.016 A 
ATOM      9  C   UNL A   1      34.081  32.596  29.605  1.00  0.00     0.016 A 
ATOM     10  C   UNL A   1      36.580  33.413  28.675  1.00  0.00     0.010 A 
ATOM     11  C   UNL A   1      35.244  32.132  30.226  1.00  0.00     0.010 A 
ATOM     12  C   UNL A   1      36.493  32.559  29.764  1.00  0.00    -0.014 A 
BRANCH  12  13
ATOM     13  C   UNL A   1      37.752  32.104  30.363  1.00  0.00     0.031 A 
ATOM     14  C   UNL A   1      38.479  30.980  29.711  1.00  0.00     0.074 A 
ATOM     15  C   UNL A   1      38.258  32.786  31.407  1.00  0.00     0.049 A 
ATOM     16  N   UNL A   1      39.552  30.356  30.110  1.00  0.00    -0.248 NA
ATOM     17  C   UNL A   1      37.934  30.498  28.428  1.00  0.00     0.031 C 
ATOM     18  C   UNL A   1      37.665  33.991  31.999  1.00  0.00     0.029 A 
ATOM     19  N   UNL A   1      39.393  32.580  32.140  1.00  0.00    -0.354 N 
ATOM     20  C   UNL A   1      39.782  29.377  29.155  1.00  0.00     0.074 A 
ATOM     21  C   UNL A   1      38.756  29.499  28.146  1.00  0.00     0.031 C 
ATOM     22  C   UNL A   1      38.445  34.415  33.006  1.00  0.00     0.029 A 
ATOM     23  C   UNL A   1      39.538  33.467  33.180  1.00  0.00     0.049 A 
ATOM     24  H   UNL A   1      40.042  31.866  31.945  1.00  0.00     0.167 HD
ATOM     25  C   UNL A   1      40.759  28.444  29.154  1.00  0.00     0.031 A 
ATOM     26  C   UNL A   1      40.424  33.463  34.192  1.00  0.00     0.031 A 
ATOM     27  C   UNL A   1      41.755  28.358  30.186  1.00  0.00     0.049 A 
ATOM     28  C   UNL A   1      41.430  32.344  34.224  1.00  0.00     0.074 A 
ATOM     29  C   UNL A   1      42.780  27.444  30.323  1.00  0.00     0.029 A 
ATOM     30  N   UNL A   1      41.834  29.226  31.267  1.00  0.00    -0.354 N 
ATOM     31  N   UNL A   1      41.631  31.392  33.341  1.00  0.00    -0.248 NA
ATOM     32  C   UNL A   1      42.310  32.277  35.396  1.00  0.00     0.031 C 
ATOM     33  C   UNL A   1      43.438  27.718  31.526  1.00  0.00     0.029 A 
ATOM     34  C   UNL A   1      42.864  28.843  32.103  1.00  0.00     0.049 A 
ATOM     35  H   UNL A   1      41.244  30.000  31.416  1.00  0.00     0.167 HD
ATOM     36  C   UNL A   1      42.666  30.620  33.844  1.00  0.00     0.074 A 
ATOM     37  C   UNL A   1      43.070  31.233  35.095  1.00  0.00     0.031 C 
ATOM     38  C   UNL A   1      43.228  29.497  33.334  1.00  0.00     0.031 A 
BRANCH  25  39
ATOM     39  C   UNL A   1      40.719  27.401  28.078  1.00  0.00    -0.014 A 
ATOM     40  C   UNL A   1      39.991  26.210  28.219  1.00  0.00     0.009 A 
ATOM     41  C   UNL A   1      41.438  27.622  26.892  1.00  0.00     0.009 A 
ATOM     42  C   UNL A   1      40.006  25.251  27.203  1.00  0.00     0.001 A 
ATOM     43  C   UNL A   1      41.432  26.674  25.869  1.00  0.00     0.001 A 
ATOM     44  C   UNL A   1      40.722  25.486  26.028  1.00  0.00     0.000 A 
ENDBRANCH  25  39
BRANCH  26  45
ATOM     45  C   UNL A   1      40.330  34.457  35.296  1.00  0.00    -0.014 A 
ATOM     46  C   UNL A   1      41.043  35.664  35.253  1.00  0.00     0.009 A 
ATOM     47  C   UNL A   1      39.553  34.177  36.435  1.00  0.00     0.009 A 
ATOM     48  C   UNL A   1      41.008  36.549  36.337  1.00  0.00     0.001 A 
ATOM     49  C   UNL A   1      39.492  35.079  37.501  1.00  0.00     0.001 A 
ATOM     50  C   UNL A   1      40.232  36.256  37.457  1.00  0.00     0.000 A 
ENDBRANCH  26  45
BRANCH  38  51
ATOM     51  C   UNL A   1      44.347  28.883  34.122  1.00  0.00    -0.014 A 
ATOM     52  C   UNL A   1      45.669  29.325  33.960  1.00  0.00     0.009 A 
ATOM     53  C   UNL A   1      44.058  27.911  35.091  1.00  0.00     0.009 A 
ATOM     54  C   UNL A   1      46.686  28.786  34.747  1.00  0.00     0.001 A 
ATOM     55  C   UNL A   1      45.072  27.400  35.897  1.00  0.00     0.001 A 
ATOM     56  C   UNL A   1      46.386  27.832  35.720  1.00  0.00     0.000 A 
ENDBRANCH  38  51
ENDBRANCH  12  13
ENDBRANCH   5   7
ENDBRANCH   4   5
ENDBRANCH   3   4
ENDBRANCH   2   3
ENDBRANCH   1   2
BRANCH   1  57
ATOM     57  C   UNL A   1      32.184  29.576  25.769  1.00  0.00     0.202 C 
BRANCH  57  58
ATOM     58  C   UNL A   1      31.588  28.312  26.398  1.00  0.00     0.261 C 
BRANCH  58  59
ATOM     59  O   UNL A   1      31.008  27.525  25.349  1.00  0.00    -0.460 OA
BRANCH  59  60
ATOM     60  C   UNL A   1      30.877  26.195  25.625  1.00  0.00     0.339 C 
ATOM     61  O   UNL A   1      30.228  25.688  26.516  1.00  0.00    -0.246 OA
BRANCH  60  62
ATOM     62  C   UNL A   1      31.553  25.449  24.526  1.00  0.00     0.077 A 
ATOM     63  C   UNL A   1      31.479  25.885  23.260  1.00  0.00     0.101 A 
ATOM     64  C   UNL A   1      32.333  24.272  24.814  1.00  0.00     0.031 A 
ATOM     65  N   UNL A   1      32.154  25.221  22.259  1.00  0.00    -0.328 N 
ATOM     66  C   UNL A   1      32.924  23.540  23.853  1.00  0.00     0.048 A 
ATOM     67  C   UNL A   1      32.893  24.066  22.449  1.00  0.00     0.255 A 
ATOM     68  H   UNL A   1      32.107  25.592  21.348  1.00  0.00     0.169 HD
ATOM     69  O   UNL A   1      33.482  23.520  21.523  1.00  0.00    -0.269 OA
BRANCH  66  70
ATOM     70  C   UNL A   1      33.532  22.268  24.279  1.00  0.00    -0.006 A 
ATOM     71  C   UNL A   1      34.892  22.281  24.658  1.00  0.00     0.009 A 
ATOM     72  C   UNL A   1      32.851  21.051  24.235  1.00  0.00     0.094 A 
ATOM     73  C   UNL A   1      35.588  21.104  24.911  1.00  0.00     0.008 A 
ATOM     74  C   UNL A   1      33.555  19.866  24.508  1.00  0.00     0.270 A 
ATOM     75  C   UNL A   1      34.922  19.888  24.828  1.00  0.00     0.085 A 
BRANCH  74  76
ATOM     76  N   UNL A   1      32.866  18.572  24.427  1.00  0.00     0.062 N 
ATOM     77  O   UNL A   1      32.004  18.326  25.284  1.00  0.00    -0.258 OA
ATOM     78  O   UNL A   1      33.194  17.798  23.518  1.00  0.00    -0.258 OA
ENDBRANCH  74  76
ENDBRANCH  66  70
ENDBRANCH  60  62
ENDBRANCH  59  60
ENDBRANCH  58  59
ENDBRANCH  57  58
ENDBRANCH   1  57
TORSDOF 16
ENDMDL
MODEL 2
REMARK VINA RESULT:     -10.7      3.204      8.923
REMARK SMILES O=C(OCCOCCOC(=O)c1c[nH]c(=O)c(-c2cccc([N+](=O)[O-])c2)c1)c1ccc(-c2c3nc(c(-c4ccccc4)c4ccc([nH]4)c(-c4ccccc4)c4nc(c(-c5ccccc5)c5ccc2[nH]5)C=C4)C=C3)cc1
REMARK SMILES IDX 6 1 5 2 4 3 3 4 2 5 1 6 28 7 29 8 75 9 30 10 74 11 31 12
REMARK SMILES IDX 32 13 33 14 68 15 34 16 73 17 67 18 69 19 35 20 72 21 66 22
REMARK SMILES IDX 65 23 36 25 58 26 43 27 57 28 44 29 47 30 56 31 70 32 45 33
REMARK SMILES IDX 46 34 55 36 71 37 48 38 37 39 38 40 42 41 39 42 41 43 40 44
REMARK SMILES IDX 59 45 60 46 64 47 61 48 63 49 62 50 49 51 50 52 54 53 51 54
REMARK SMILES IDX 53 55 52 56 7 57 8 58 9 59 10 60 11 61 12 62 13 63 27 64
REMARK SMILES IDX 14 65 17 66 15 67 16 69 18 70 19 71 26 72 20 73 22 74 21 75
REMARK SMILES IDX 23 76 24 77 25 78
REMARK H PARENT 69 24 47 35 14 68
REMARK Flexibility Score: inf
ROOT
ATOM      1  O   UNL A   1      41.088  19.995  27.082  1.00  0.00    -0.374 OA
ENDROOT
BRANCH   1   2
ATOM      2  C   UNL A   1      42.277  19.366  26.610  1.00  0.00     0.202 C 
BRANCH   2   3
ATOM      3  C   UNL A   1      42.977  20.116  25.479  1.00  0.00     0.261 C 
BRANCH   3   4
ATOM      4  O   UNL A   1      43.564  21.327  25.980  1.00  0.00    -0.460 OA
BRANCH   4   5
ATOM      5  C   UNL A   1      43.261  22.596  25.626  1.00  0.00     0.338 C 
ATOM      6  O   UNL A   1      43.189  22.879  24.432  1.00  0.00    -0.246 OA
BRANCH   5   7
ATOM      7  C   UNL A   1      43.016  23.688  26.613  1.00  0.00     0.060 A 
ATOM      8  C   UNL A   1      43.329  25.031  26.402  1.00  0.00     0.016 A 
ATOM      9  C   UNL A   1      42.300  23.351  27.771  1.00  0.00     0.016 A 
ATOM     10  C   UNL A   1      42.959  26.019  27.295  1.00  0.00     0.010 A 
ATOM     11  C   UNL A   1      41.891  24.343  28.667  1.00  0.00     0.010 A 
ATOM     12  C   UNL A   1      42.212  25.681  28.413  1.00  0.00    -0.014 A 
BRANCH  12  13
ATOM     13  C   UNL A   1      41.822  26.768  29.316  1.00  0.00     0.031 A 
ATOM     14  C   UNL A   1      42.694  27.060  30.488  1.00  0.00     0.074 A 
ATOM     15  C   UNL A   1      40.762  27.532  28.993  1.00  0.00     0.049 A 
ATOM     16  N   UNL A   1      42.504  27.905  31.462  1.00  0.00    -0.248 NA
ATOM     17  C   UNL A   1      43.959  26.307  30.572  1.00  0.00     0.031 C 
ATOM     18  C   UNL A   1      39.954  27.389  27.777  1.00  0.00     0.029 A 
ATOM     19  N   UNL A   1      40.194  28.590  29.647  1.00  0.00    -0.354 N 
ATOM     20  C   UNL A   1      43.598  27.752  32.299  1.00  0.00     0.074 A 
ATOM     21  C   UNL A   1      44.461  26.752  31.714  1.00  0.00     0.031 C 
ATOM     22  C   UNL A   1      38.994  28.327  27.774  1.00  0.00     0.029 A 
ATOM     23  C   UNL A   1      39.070  29.075  29.022  1.00  0.00     0.049 A 
ATOM     24  H   UNL A   1      40.553  28.967  30.482  1.00  0.00     0.167 HD
ATOM     25  C   UNL A   1      43.831  28.383  33.470  1.00  0.00     0.031 A 
ATOM     26  C   UNL A   1      38.173  29.979  29.454  1.00  0.00     0.031 A 
ATOM     27  C   UNL A   1      42.938  29.367  34.016  1.00  0.00     0.049 A 
ATOM     28  C   UNL A   1      38.401  30.581  30.815  1.00  0.00     0.074 A 
ATOM     29  C   UNL A   1      43.038  30.059  35.206  1.00  0.00     0.029 A 
ATOM     30  N   UNL A   1      41.768  29.787  33.396  1.00  0.00    -0.354 N 
ATOM     31  N   UNL A   1      39.418  30.414  31.629  1.00  0.00    -0.248 NA
ATOM     32  C   UNL A   1      37.355  31.471  31.330  1.00  0.00     0.031 C 
ATOM     33  C   UNL A   1      41.891  30.848  35.338  1.00  0.00     0.029 A 
ATOM     34  C   UNL A   1      41.111  30.697  34.200  1.00  0.00     0.049 A 
ATOM     35  H   UNL A   1      41.454  29.481  32.515  1.00  0.00     0.167 HD
ATOM     36  C   UNL A   1      39.140  31.184  32.748  1.00  0.00     0.074 A 
ATOM     37  C   UNL A   1      37.873  31.842  32.493  1.00  0.00     0.031 C 
ATOM     38  C   UNL A   1      39.853  31.328  33.892  1.00  0.00     0.031 A 
BRANCH  25  39
ATOM     39  C   UNL A   1      45.023  27.946  34.267  1.00  0.00    -0.014 A 
ATOM     40  C   UNL A   1      44.975  26.850  35.143  1.00  0.00     0.009 A 
ATOM     41  C   UNL A   1      46.226  28.658  34.136  1.00  0.00     0.009 A 
ATOM     42  C   UNL A   1      46.102  26.496  35.889  1.00  0.00     0.001 A 
ATOM     43  C   UNL A   1      47.356  28.288  34.864  1.00  0.00     0.001 A 
ATOM     44  C   UNL A   1      47.292  27.211  35.746  1.00  0.00     0.000 A 
ENDBRANCH  25  39
BRANCH  26  45
ATOM     45  C   UNL A   1      36.945  30.277  28.668  1.00  0.00    -0.014 A 
ATOM     46  C   UNL A   1      36.617  31.589  28.295  1.00  0.00     0.009 A 
ATOM     47  C   UNL A   1      36.058  29.241  28.323  1.00  0.00     0.009 A 
ATOM     48  C   UNL A   1      35.417  31.859  27.629  1.00  0.00     0.001 A 
ATOM     49  C   UNL A   1      34.878  29.509  27.625  1.00  0.00     0.001 A 
ATOM     50  C   UNL A   1      34.551  30.820  27.293  1.00  0.00     0.000 A 
ENDBRANCH  26  45
BRANCH  38  51
ATOM     51  C   UNL A   1      39.284  32.247  34.931  1.00  0.00    -0.014 A 
ATOM     52  C   UNL A   1      39.570  33.620  34.915  1.00  0.00     0.009 A 
ATOM     53  C   UNL A   1      38.389  31.740  35.886  1.00  0.00     0.009 A 
ATOM     54  C   UNL A   1      38.981  34.468  35.852  1.00  0.00     0.001 A 
ATOM     55  C   UNL A   1      37.777  32.595  36.799  1.00  0.00     0.001 A 
ATOM     56  C   UNL A   1      38.078  33.957  36.786  1.00  0.00     0.000 A 
ENDBRANCH  38  51
ENDBRANCH  12  13
ENDBRANCH   5   7
ENDBRANCH   4   5
ENDBRANCH   3   4
ENDBRANCH   2   3
ENDBRANCH   1   2
BRANCH   1  57
ATOM     57  C   UNL A   1      40.154  20.448  26.098  1.00  0.00     0.202 C 
BRANCH  57  58
ATOM     58  C   UNL A   1      39.681  21.849  26.501  1.00  0.00     0.261 C 
BRANCH  58  59
ATOM     59  O   UNL A   1      38.519  22.165  25.724  1.00  0.00    -0.460 OA
BRANCH  59  60
ATOM     60  C   UNL A   1      37.948  23.375  25.998  1.00  0.00     0.339 C 
ATOM     61  O   UNL A   1      38.392  24.255  26.705  1.00  0.00    -0.246 OA
BRANCH  60  62
ATOM     62  C   UNL A   1      36.739  23.496  25.135  1.00  0.00     0.077 A 
ATOM     63  C   UNL A   1      36.663  22.836  23.971  1.00  0.00     0.101 A 
ATOM     64  C   UNL A   1      35.615  24.290  25.561  1.00  0.00     0.031 A 
ATOM     65  N   UNL A   1      35.518  22.908  23.207  1.00  0.00    -0.328 N 
ATOM     66  C   UNL A   1      34.521  24.466  24.800  1.00  0.00     0.048 A 
ATOM     67  C   UNL A   1      34.412  23.676  23.529  1.00  0.00     0.255 A 
ATOM     68  H   UNL A   1      35.485  22.380  22.377  1.00  0.00     0.169 HD
ATOM     69  O   UNL A   1      33.415  23.697  22.818  1.00  0.00    -0.269 OA
BRANCH  66  70
ATOM     70  C   UNL A   1      33.535  25.447  25.285  1.00  0.00    -0.006 A 
ATOM     71  C   UNL A   1      32.504  24.983  26.132  1.00  0.00     0.009 A 
ATOM     72  C   UNL A   1      33.526  26.780  24.873  1.00  0.00     0.094 A 
ATOM     73  C   UNL A   1      31.441  25.800  26.499  1.00  0.00     0.008 A 
ATOM     74  C   UNL A   1      32.458  27.607  25.261  1.00  0.00     0.270 A 
ATOM     75  C   UNL A   1      31.410  27.117  26.057  1.00  0.00     0.085 A 
BRANCH  74  76
ATOM     76  N   UNL A   1      32.410  29.001  24.804  1.00  0.00     0.062 N 
ATOM     77  O   UNL A   1      31.500  29.718  25.246  1.00  0.00    -0.258 OA
ATOM     78  O   UNL A   1      33.271  29.376  23.998  1.00  0.00    -0.258 OA
ENDBRANCH  74  76
ENDBRANCH  66  70
ENDBRANCH  60  62
ENDBRANCH  59  60
ENDBRANCH  58  59
ENDBRANCH  57  58
ENDBRANCH   1  57
TORSDOF 16
ENDMDL
MODEL 3
REMARK VINA RESULT:     -10.7      2.285      6.965
REMARK SMILES O=C(OCCOCCOC(=O)c1c[nH]c(=O)c(-c2cccc([N+](=O)[O-])c2)c1)c1ccc(-c2c3nc(c(-c4ccccc4)c4ccc([nH]4)c(-c4ccccc4)c4nc(c(-c5ccccc5)c5ccc2[nH]5)C=C4)C=C3)cc1
REMARK SMILES IDX 6 1 5 2 4 3 3 4 2 5 1 6 28 7 29 8 75 9 30 10 74 11 31 12
REMARK SMILES IDX 32 13 33 14 68 15 34 16 73 17 67 18 69 19 35 20 72 21 66 22
REMARK SMILES IDX 65 23 36 25 58 26 43 27 57 28 44 29 47 30 56 31 70 32 45 33
REMARK SMILES IDX 46 34 55 36 71 37 48 38 37 39 38 40 42 41 39 42 41 43 40 44
REMARK SMILES IDX 59 45 60 46 64 47 61 48 63 49 62 50 49 51 50 52 54 53 51 54
REMARK SMILES IDX 53 55 52 56 7 57 8 58 9 59 10 60 11 61 12 62 13 63 27 64
REMARK SMILES IDX 14 65 17 66 15 67 16 69 18 70 19 71 26 72 20 73 22 74 21 75
REMARK SMILES IDX 23 76 24 77 25 78
REMARK H PARENT 69 24 47 35 14 68
REMARK Flexibility Score: inf
ROOT
ATOM      1  O   UNL A   1      34.487  34.205  29.294  1.00  0.00    -0.374 OA
ENDROOT
BRANCH   1   2
ATOM      2  C   UNL A   1      33.281  34.810  28.833  1.00  0.00     0.202 C 
BRANCH   2   3
ATOM      3  C   UNL A   1      32.899  36.090  29.573  1.00  0.00     0.261 C 
BRANCH   3   4
ATOM      4  O   UNL A   1      32.177  35.769  30.772  1.00  0.00    -0.460 OA
BRANCH   4   5
ATOM      5  C   UNL A   1      32.627  35.830  32.046  1.00  0.00     0.338 C 
ATOM      6  O   UNL A   1      32.053  36.566  32.845  1.00  0.00    -0.246 OA
BRANCH   5   7
ATOM      7  C   UNL A   1      33.802  35.054  32.540  1.00  0.00     0.060 A 
ATOM      8  C   UNL A   1      33.753  33.721  32.952  1.00  0.00     0.016 A 
ATOM      9  C   UNL A   1      35.058  35.672  32.451  1.00  0.00     0.016 A 
ATOM     10  C   UNL A   1      34.895  33.012  33.274  1.00  0.00     0.010 A 
ATOM     11  C   UNL A   1      36.223  34.958  32.742  1.00  0.00     0.010 A 
ATOM     12  C   UNL A   1      36.135  33.619  33.138  1.00  0.00    -0.014 A 
BRANCH  12  13
ATOM     13  C   UNL A   1      37.317  32.816  33.467  1.00  0.00     0.031 A 
ATOM     14  C   UNL A   1      37.958  33.014  34.797  1.00  0.00     0.074 A 
ATOM     15  C   UNL A   1      37.708  31.856  32.610  1.00  0.00     0.049 A 
ATOM     16  N   UNL A   1      39.055  32.488  35.265  1.00  0.00    -0.248 NA
ATOM     17  C   UNL A   1      37.267  33.919  35.734  1.00  0.00     0.031 C 
ATOM     18  C   UNL A   1      37.029  31.512  31.355  1.00  0.00     0.029 A 
ATOM     19  N   UNL A   1      38.757  30.981  32.670  1.00  0.00    -0.354 N 
ATOM     20  C   UNL A   1      39.212  33.034  36.530  1.00  0.00     0.074 A 
ATOM     21  C   UNL A   1      38.092  33.915  36.769  1.00  0.00     0.031 C 
ATOM     22  C   UNL A   1      37.681  30.498  30.766  1.00  0.00     0.029 A 
ATOM     23  C   UNL A   1      38.864  30.182  31.556  1.00  0.00     0.049 A 
ATOM     24  H   UNL A   1      39.375  30.928  33.434  1.00  0.00     0.167 HD
ATOM     25  C   UNL A   1      40.229  32.827  37.394  1.00  0.00     0.031 A 
ATOM     26  C   UNL A   1      39.850  29.341  31.197  1.00  0.00     0.031 A 
ATOM     27  C   UNL A   1      41.327  31.946  37.107  1.00  0.00     0.049 A 
ATOM     28  C   UNL A   1      41.025  29.218  32.130  1.00  0.00     0.074 A 
ATOM     29  C   UNL A   1      42.437  31.668  37.879  1.00  0.00     0.029 A 
ATOM     30  N   UNL A   1      41.447  31.203  35.939  1.00  0.00    -0.354 N 
ATOM     31  N   UNL A   1      41.197  29.760  33.314  1.00  0.00    -0.248 NA
ATOM     32  C   UNL A   1      42.151  28.395  31.673  1.00  0.00     0.031 C 
ATOM     33  C   UNL A   1      43.263  30.811  37.146  1.00  0.00     0.029 A 
ATOM     34  C   UNL A   1      42.636  30.502  35.947  1.00  0.00     0.049 A 
ATOM     35  H   UNL A   1      40.782  31.182  35.212  1.00  0.00     0.167 HD
ATOM     36  C   UNL A   1      42.443  29.337  33.748  1.00  0.00     0.074 A 
ATOM     37  C   UNL A   1      42.971  28.469  32.713  1.00  0.00     0.031 C 
ATOM     38  C   UNL A   1      43.107  29.644  34.890  1.00  0.00     0.031 A 
BRANCH  25  39
ATOM     39  C   UNL A   1      40.246  33.641  38.652  1.00  0.00    -0.014 A 
ATOM     40  C   UNL A   1      40.890  34.885  38.728  1.00  0.00     0.009 A 
ATOM     41  C   UNL A   1      39.600  33.140  39.793  1.00  0.00     0.009 A 
ATOM     42  C   UNL A   1      40.907  35.597  39.930  1.00  0.00     0.001 A 
ATOM     43  C   UNL A   1      39.598  33.864  40.985  1.00  0.00     0.001 A 
ATOM     44  C   UNL A   1      40.258  35.089  41.055  1.00  0.00     0.000 A 
ENDBRANCH  25  39
BRANCH  26  45
ATOM     45  C   UNL A   1      39.831  28.657  29.876  1.00  0.00    -0.014 A 
ATOM     46  C   UNL A   1      40.248  29.314  28.709  1.00  0.00     0.009 A 
ATOM     47  C   UNL A   1      39.344  27.342  29.767  1.00  0.00     0.009 A 
ATOM     48  C   UNL A   1      40.145  28.684  27.463  1.00  0.00     0.001 A 
ATOM     49  C   UNL A   1      39.275  26.702  28.527  1.00  0.00     0.001 A 
ATOM     50  C   UNL A   1      39.661  27.380  27.375  1.00  0.00     0.000 A 
ENDBRANCH  26  45
BRANCH  38  51
ATOM     51  C   UNL A   1      44.457  29.018  35.077  1.00  0.00    -0.014 A 
ATOM     52  C   UNL A   1      45.619  29.662  34.627  1.00  0.00     0.009 A 
ATOM     53  C   UNL A   1      44.566  27.810  35.782  1.00  0.00     0.009 A 
ATOM     54  C   UNL A   1      46.870  29.093  34.867  1.00  0.00     0.001 A 
ATOM     55  C   UNL A   1      45.818  27.263  36.048  1.00  0.00     0.001 A 
ATOM     56  C   UNL A   1      46.968  27.900  35.584  1.00  0.00     0.000 A 
ENDBRANCH  38  51
ENDBRANCH  12  13
ENDBRANCH   5   7
ENDBRANCH   4   5
ENDBRANCH   3   4
ENDBRANCH   2   3
ENDBRANCH   1   2
BRANCH   1  57
ATOM     57  C   UNL A   1      34.510  32.778  29.383  1.00  0.00     0.202 C 
BRANCH  57  58
ATOM     58  C   UNL A   1      34.867  32.221  28.001  1.00  0.00     0.261 C 
BRANCH  58  59
ATOM     59  O   UNL A   1      33.910  31.205  27.672  1.00  0.00    -0.460 OA
BRANCH  59  60
ATOM     60  C   UNL A   1      34.443  30.020  27.252  1.00  0.00     0.339 C 
ATOM     61  O   UNL A   1      35.512  29.541  27.565  1.00  0.00    -0.246 OA
BRANCH  60  62
ATOM     62  C   UNL A   1      33.394  29.327  26.451  1.00  0.00     0.077 A 
ATOM     63  C   UNL A   1      32.372  30.015  25.923  1.00  0.00     0.101 A 
ATOM     64  C   UNL A   1      33.487  27.911  26.196  1.00  0.00     0.031 A 
ATOM     65  N   UNL A   1      31.439  29.375  25.137  1.00  0.00    -0.328 N 
ATOM     66  C   UNL A   1      32.545  27.233  25.519  1.00  0.00     0.048 A 
ATOM     67  C   UNL A   1      31.439  28.016  24.875  1.00  0.00     0.255 A 
ATOM     68  H   UNL A   1      30.724  29.921  24.736  1.00  0.00     0.169 HD
ATOM     69  O   UNL A   1      30.588  27.499  24.161  1.00  0.00    -0.269 OA
BRANCH  66  70
ATOM     70  C   UNL A   1      32.683  25.767  25.493  1.00  0.00    -0.006 A 
ATOM     71  C   UNL A   1      31.947  25.018  26.438  1.00  0.00     0.009 A 
ATOM     72  C   UNL A   1      33.570  25.103  24.644  1.00  0.00     0.094 A 
ATOM     73  C   UNL A   1      32.144  23.651  26.596  1.00  0.00     0.008 A 
ATOM     74  C   UNL A   1      33.753  23.719  24.796  1.00  0.00     0.270 A 
ATOM     75  C   UNL A   1      33.057  22.996  25.779  1.00  0.00     0.085 A 
BRANCH  74  76
ATOM     76  N   UNL A   1      34.711  23.010  23.939  1.00  0.00     0.062 N 
ATOM     77  O   UNL A   1      35.051  21.868  24.282  1.00  0.00    -0.258 OA
ATOM     78  O   UNL A   1      35.133  23.597  22.934  1.00  0.00    -0.258 OA
ENDBRANCH  74  76
ENDBRANCH  66  70
ENDBRANCH  60  62
ENDBRANCH  59  60
ENDBRANCH  58  59
ENDBRANCH  57  58
ENDBRANCH   1  57
TORSDOF 16
ENDMDL
