MODEL 1
REMARK VINA RESULT:     -10.3      0.000      0.000
REMARK SMILES O=C(CS[C@H](C(=O)Nc1ccc(C(F)(F)F)cc1)c1ccccc1)OCCOCCOC(=O)c1ccc(-c2c3nc(c(-c4ccccc4)c4ccc([nH]4)c(-c4ccccc4)c4nc(c(-c5ccccc5)c5ccc2[nH]5)C=C4)C=C3)cc1
REMARK SMILES IDX 26 1 25 2 2 3 1 4 3 5 4 6 5 7 19 8 20 9 24 10 21 11 23 12
REMARK SMILES IDX 22 13 6 14 7 15 8 16 9 18 10 19 18 20 11 21 17 22 12 23
REMARK SMILES IDX 13 24 14 25 15 26 16 27 27 28 28 29 29 30 30 31 31 32 32 33
REMARK SMILES IDX 33 34 34 35 35 36 81 37 36 38 80 39 37 40 38 41 39 42 74 43
REMARK SMILES IDX 40 44 79 45 73 46 75 47 41 48 78 49 72 50 71 51 42 53 64 54
REMARK SMILES IDX 49 55 63 56 50 57 53 58 62 59 76 60 51 61 52 62 61 64 77 65
REMARK SMILES IDX 54 66 43 67 44 68 48 69 45 70 47 71 46 72 65 73 66 74 70 75
REMARK SMILES IDX 67 76 69 77 68 78 55 79 56 80 60 81 57 82 59 83 58 84
REMARK H PARENT 8 17 75 52 53 63
REMARK Flexibility Score: inf
ROOT
ATOM      1  C   UNL A   1      35.463  31.734  28.002  1.00  0.00     0.261 C 
ENDROOT
BRANCH   1   2
ATOM      2  O   UNL A   1      35.200  30.672  27.074  1.00  0.00    -0.463 OA
BRANCH   2   3
ATOM      3  C   UNL A   1      34.114  29.868  27.071  1.00  0.00     0.316 C 
ATOM      4  O   UNL A   1      34.087  28.895  27.821  1.00  0.00    -0.251 OA
BRANCH   3   5
ATOM      5  C   UNL A   1      33.019  30.159  26.083  1.00  0.00     0.193 C 
BRANCH   5   6
ATOM      6  S   UNL A   1      31.794  28.810  25.911  1.00  0.00    -0.132 SA
BRANCH   6   7
ATOM      7  C   UNL A   1      32.542  27.597  24.697  1.00  0.00     0.166 C 
BRANCH   7   8
ATOM      8  C   UNL A   1      32.773  26.254  25.382  1.00  0.00    -0.026 A 
ATOM      9  C   UNL A   1      33.958  25.508  25.282  1.00  0.00     0.005 A 
ATOM     10  C   UNL A   1      31.724  25.680  26.131  1.00  0.00     0.005 A 
ATOM     11  C   UNL A   1      34.110  24.276  25.934  1.00  0.00     0.000 A 
ATOM     12  C   UNL A   1      31.874  24.452  26.786  1.00  0.00     0.000 A 
ATOM     13  C   UNL A   1      33.071  23.753  26.693  1.00  0.00     0.000 A 
ENDBRANCH   7   8
BRANCH   7  14
ATOM     14  C   UNL A   1      31.975  27.737  23.259  1.00  0.00     0.242 C 
ATOM     15  O   UNL A   1      31.898  28.846  22.706  1.00  0.00    -0.273 OA
ATOM     16  N   UNL A   1      31.693  26.721  22.392  1.00  0.00    -0.325 N 
ATOM     17  H   UNL A   1      31.383  27.023  21.508  1.00  0.00     0.169 HD
BRANCH  16  18
ATOM     18  C   UNL A   1      31.764  25.340  22.526  1.00  0.00     0.041 A 
ATOM     19  C   UNL A   1      32.908  24.699  22.052  1.00  0.00     0.027 A 
ATOM     20  C   UNL A   1      30.741  24.584  23.073  1.00  0.00     0.027 A 
ATOM     21  C   UNL A   1      33.126  23.354  22.356  1.00  0.00     0.015 A 
ATOM     22  C   UNL A   1      30.960  23.247  23.397  1.00  0.00     0.015 A 
ATOM     23  C   UNL A   1      32.186  22.640  23.110  1.00  0.00     0.056 A 
BRANCH  23  24
ATOM     24  C   UNL A   1      32.494  21.259  23.628  1.00  0.00     0.416 C 
ATOM     25  F   UNL A   1      31.819  20.955  24.766  1.00  0.00    -0.166 F 
ATOM     26  F   UNL A   1      32.173  20.289  22.725  1.00  0.00    -0.166 F 
ATOM     27  F   UNL A   1      33.816  21.075  23.904  1.00  0.00    -0.166 F 
ENDBRANCH  23  24
ENDBRANCH  16  18
ENDBRANCH   7  14
ENDBRANCH   6   7
ENDBRANCH   5   6
ENDBRANCH   3   5
ENDBRANCH   2   3
ENDBRANCH   1   2
BRANCH   1  28
ATOM     28  C   UNL A   1      34.242  32.511  28.495  1.00  0.00     0.202 C 
BRANCH  28  29
ATOM     29  O   UNL A   1      34.423  33.814  29.022  1.00  0.00    -0.374 OA
BRANCH  29  30
ATOM     30  C   UNL A   1      33.655  34.894  28.510  1.00  0.00     0.202 C 
BRANCH  30  31
ATOM     31  C   UNL A   1      32.969  35.828  29.513  1.00  0.00     0.261 C 
BRANCH  31  32
ATOM     32  O   UNL A   1      32.406  35.166  30.664  1.00  0.00    -0.460 OA
BRANCH  32  33
ATOM     33  C   UNL A   1      32.701  35.723  31.860  1.00  0.00     0.338 C 
ATOM     34  O   UNL A   1      32.119  36.649  32.413  1.00  0.00    -0.246 OA
BRANCH  33  35
ATOM     35  C   UNL A   1      33.837  35.034  32.495  1.00  0.00     0.060 A 
ATOM     36  C   UNL A   1      35.125  35.569  32.368  1.00  0.00     0.016 A 
ATOM     37  C   UNL A   1      33.648  33.775  33.069  1.00  0.00     0.016 A 
ATOM     38  C   UNL A   1      36.236  34.828  32.793  1.00  0.00     0.010 A 
ATOM     39  C   UNL A   1      34.760  33.034  33.481  1.00  0.00     0.010 A 
ATOM     40  C   UNL A   1      36.062  33.542  33.322  1.00  0.00    -0.014 A 
BRANCH  40  41
ATOM     41  C   UNL A   1      37.220  32.670  33.649  1.00  0.00     0.031 A 
ATOM     42  C   UNL A   1      37.989  32.896  34.921  1.00  0.00     0.074 A 
ATOM     43  C   UNL A   1      37.634  31.734  32.776  1.00  0.00     0.049 A 
ATOM     44  N   UNL A   1      39.132  32.378  35.298  1.00  0.00    -0.248 NA
ATOM     45  C   UNL A   1      37.403  33.836  35.890  1.00  0.00     0.031 C 
ATOM     46  C   UNL A   1      36.972  31.402  31.517  1.00  0.00     0.029 A 
ATOM     47  N   UNL A   1      38.734  30.911  32.806  1.00  0.00    -0.354 N 
ATOM     48  C   UNL A   1      39.418  32.952  36.530  1.00  0.00     0.074 A 
ATOM     49  C   UNL A   1      38.328  33.852  36.841  1.00  0.00     0.031 C 
ATOM     50  C   UNL A   1      37.687  30.456  30.886  1.00  0.00     0.029 A 
ATOM     51  C   UNL A   1      38.888  30.161  31.666  1.00  0.00     0.049 A 
ATOM     52  H   UNL A   1      39.353  30.864  33.572  1.00  0.00     0.167 HD
ATOM     53  C   UNL A   1      40.501  32.759  37.322  1.00  0.00     0.031 A 
ATOM     54  C   UNL A   1      39.903  29.371  31.267  1.00  0.00     0.031 A 
ATOM     55  C   UNL A   1      41.588  31.867  37.018  1.00  0.00     0.049 A 
ATOM     56  C   UNL A   1      41.126  29.230  32.134  1.00  0.00     0.074 A 
ATOM     57  C   UNL A   1      42.702  31.575  37.788  1.00  0.00     0.029 A 
ATOM     58  N   UNL A   1      41.709  31.138  35.848  1.00  0.00    -0.354 N 
ATOM     59  N   UNL A   1      41.369  29.752  33.312  1.00  0.00    -0.248 NA
ATOM     60  C   UNL A   1      42.224  28.407  31.604  1.00  0.00     0.031 C 
ATOM     61  C   UNL A   1      43.526  30.714  37.057  1.00  0.00     0.029 A 
ATOM     62  C   UNL A   1      42.899  30.431  35.855  1.00  0.00     0.049 A 
ATOM     63  H   UNL A   1      41.047  31.125  35.119  1.00  0.00     0.167 HD
ATOM     64  C   UNL A   1      42.639  29.311  33.666  1.00  0.00     0.074 A 
ATOM     65  C   UNL A   1      43.107  28.462  32.592  1.00  0.00     0.031 C 
ATOM     66  C   UNL A   1      43.357  29.592  34.780  1.00  0.00     0.031 A 
BRANCH  53  67
ATOM     67  C   UNL A   1      40.596  33.559  38.589  1.00  0.00    -0.014 A 
ATOM     68  C   UNL A   1      40.093  33.069  39.803  1.00  0.00     0.009 A 
ATOM     69  C   UNL A   1      41.279  34.786  38.579  1.00  0.00     0.009 A 
ATOM     70  C   UNL A   1      40.260  33.802  40.981  1.00  0.00     0.001 A 
ATOM     71  C   UNL A   1      41.462  35.506  39.761  1.00  0.00     0.001 A 
ATOM     72  C   UNL A   1      40.949  35.015  40.960  1.00  0.00     0.000 A 
ENDBRANCH  53  67
BRANCH  54  73
ATOM     73  C   UNL A   1      39.857  28.710  29.936  1.00  0.00    -0.014 A 
ATOM     74  C   UNL A   1      39.420  27.382  29.810  1.00  0.00     0.009 A 
ATOM     75  C   UNL A   1      40.298  29.390  28.790  1.00  0.00     0.009 A 
ATOM     76  C   UNL A   1      39.457  26.741  28.569  1.00  0.00     0.001 A 
ATOM     77  C   UNL A   1      40.302  28.759  27.546  1.00  0.00     0.001 A 
ATOM     78  C   UNL A   1      39.893  27.431  27.439  1.00  0.00     0.000 A 
ENDBRANCH  54  73
BRANCH  66  79
ATOM     79  C   UNL A   1      44.716  28.964  34.905  1.00  0.00    -0.014 A 
ATOM     80  C   UNL A   1      45.866  29.632  34.455  1.00  0.00     0.009 A 
ATOM     81  C   UNL A   1      44.854  27.713  35.527  1.00  0.00     0.009 A 
ATOM     82  C   UNL A   1      47.125  29.046  34.603  1.00  0.00     0.001 A 
ATOM     83  C   UNL A   1      46.116  27.142  35.696  1.00  0.00     0.001 A 
ATOM     84  C   UNL A   1      47.249  27.806  35.228  1.00  0.00     0.000 A 
ENDBRANCH  66  79
ENDBRANCH  40  41
ENDBRANCH  33  35
ENDBRANCH  32  33
ENDBRANCH  31  32
ENDBRANCH  30  31
ENDBRANCH  29  30
ENDBRANCH  28  29
ENDBRANCH   1  28
TORSDOF 20
ENDMDL
MODEL 2
REMARK VINA RESULT:     -10.2      4.173      8.829
REMARK SMILES O=C(CS[C@H](C(=O)Nc1ccc(C(F)(F)F)cc1)c1ccccc1)OCCOCCOC(=O)c1ccc(-c2c3nc(c(-c4ccccc4)c4ccc([nH]4)c(-c4ccccc4)c4nc(c(-c5ccccc5)c5ccc2[nH]5)C=C4)C=C3)cc1
REMARK SMILES IDX 26 1 25 2 2 3 1 4 3 5 4 6 5 7 19 8 20 9 24 10 21 11 23 12
REMARK SMILES IDX 22 13 6 14 7 15 8 16 9 18 10 19 18 20 11 21 17 22 12 23
REMARK SMILES IDX 13 24 14 25 15 26 16 27 27 28 28 29 29 30 30 31 31 32 32 33
REMARK SMILES IDX 33 34 34 35 35 36 81 37 36 38 80 39 37 40 38 41 39 42 74 43
REMARK SMILES IDX 40 44 79 45 73 46 75 47 41 48 78 49 72 50 71 51 42 53 64 54
REMARK SMILES IDX 49 55 63 56 50 57 53 58 62 59 76 60 51 61 52 62 61 64 77 65
REMARK SMILES IDX 54 66 43 67 44 68 48 69 45 70 47 71 46 72 65 73 66 74 70 75
REMARK SMILES IDX 67 76 69 77 68 78 55 79 56 80 60 81 57 82 59 83 58 84
REMARK H PARENT 8 17 75 52 53 63
REMARK Flexibility Score: inf
ROOT
ATOM      1  C   UNL A   1      39.978  20.949  26.470  1.00  0.00     0.261 C 
ENDROOT
BRANCH   1   2
ATOM      2  O   UNL A   1      38.787  21.276  25.741  1.00  0.00    -0.463 OA
BRANCH   2   3
ATOM      3  C   UNL A   1      38.154  22.469  25.742  1.00  0.00     0.316 C 
ATOM      4  O   UNL A   1      38.735  23.455  26.192  1.00  0.00    -0.251 OA
BRANCH   3   5
ATOM      5  C   UNL A   1      36.730  22.518  25.263  1.00  0.00     0.193 C 
BRANCH   5   6
ATOM      6  S   UNL A   1      35.536  23.067  26.537  1.00  0.00    -0.132 SA
BRANCH   6   7
ATOM      7  C   UNL A   1      33.910  23.304  25.640  1.00  0.00     0.166 C 
BRANCH   7   8
ATOM      8  C   UNL A   1      33.362  24.700  25.920  1.00  0.00    -0.026 A 
ATOM      9  C   UNL A   1      32.032  24.971  26.276  1.00  0.00     0.005 A 
ATOM     10  C   UNL A   1      34.218  25.811  25.769  1.00  0.00     0.005 A 
ATOM     11  C   UNL A   1      31.586  26.278  26.518  1.00  0.00     0.000 A 
ATOM     12  C   UNL A   1      33.777  27.117  26.013  1.00  0.00     0.000 A 
ATOM     13  C   UNL A   1      32.461  27.350  26.396  1.00  0.00     0.000 A 
ENDBRANCH   7   8
BRANCH   7  14
ATOM     14  C   UNL A   1      33.877  22.638  24.239  1.00  0.00     0.242 C 
ATOM     15  O   UNL A   1      34.134  21.431  24.096  1.00  0.00    -0.273 OA
ATOM     16  N   UNL A   1      33.402  23.191  23.084  1.00  0.00    -0.325 N 
ATOM     17  H   UNL A   1      33.429  22.585  22.309  1.00  0.00     0.169 HD
BRANCH  16  18
ATOM     18  C   UNL A   1      32.887  24.450  22.802  1.00  0.00     0.041 A 
ATOM     19  C   UNL A   1      31.506  24.618  22.879  1.00  0.00     0.027 A 
ATOM     20  C   UNL A   1      33.680  25.519  22.419  1.00  0.00     0.027 A 
ATOM     21  C   UNL A   1      30.959  25.901  22.821  1.00  0.00     0.015 A 
ATOM     22  C   UNL A   1      33.144  26.803  22.379  1.00  0.00     0.015 A 
ATOM     23  C   UNL A   1      31.790  27.016  22.657  1.00  0.00     0.056 A 
BRANCH  23  24
ATOM     24  C   UNL A   1      31.252  28.416  22.803  1.00  0.00     0.416 C 
ATOM     25  F   UNL A   1      32.008  29.346  22.167  1.00  0.00    -0.166 F 
ATOM     26  F   UNL A   1      29.993  28.537  22.292  1.00  0.00    -0.166 F 
ATOM     27  F   UNL A   1      31.157  28.818  24.101  1.00  0.00    -0.166 F 
ENDBRANCH  23  24
ENDBRANCH  16  18
ENDBRANCH   7  14
ENDBRANCH   6   7
ENDBRANCH   5   6
ENDBRANCH   3   5
ENDBRANCH   2   3
ENDBRANCH   1   2
BRANCH   1  28
ATOM     28  C   UNL A   1      40.562  19.560  26.211  1.00  0.00     0.202 C 
BRANCH  28  29
ATOM     29  O   UNL A   1      41.676  19.434  25.344  1.00  0.00    -0.374 OA
BRANCH  29  30
ATOM     30  C   UNL A   1      42.983  19.703  25.831  1.00  0.00     0.202 C 
BRANCH  30  31
ATOM     31  C   UNL A   1      43.659  21.008  25.395  1.00  0.00     0.261 C 
BRANCH  31  32
ATOM     32  O   UNL A   1      42.802  22.167  25.422  1.00  0.00    -0.460 OA
BRANCH  32  33
ATOM     33  C   UNL A   1      43.424  23.356  25.251  1.00  0.00     0.338 C 
ATOM     34  O   UNL A   1      44.044  23.736  24.265  1.00  0.00    -0.246 OA
BRANCH  33  35
ATOM     35  C   UNL A   1      43.229  24.224  26.425  1.00  0.00     0.060 A 
ATOM     36  C   UNL A   1      42.209  23.927  27.338  1.00  0.00     0.016 A 
ATOM     37  C   UNL A   1      43.945  25.418  26.528  1.00  0.00     0.016 A 
ATOM     38  C   UNL A   1      41.884  24.845  28.346  1.00  0.00     0.010 A 
ATOM     39  C   UNL A   1      43.610  26.336  27.528  1.00  0.00     0.010 A 
ATOM     40  C   UNL A   1      42.561  26.070  28.426  1.00  0.00    -0.014 A 
BRANCH  40  41
ATOM     41  C   UNL A   1      42.149  27.126  29.386  1.00  0.00     0.031 A 
ATOM     42  C   UNL A   1      42.869  27.265  30.699  1.00  0.00     0.074 A 
ATOM     43  C   UNL A   1      41.085  27.907  29.124  1.00  0.00     0.049 A 
ATOM     44  N   UNL A   1      42.550  27.986  31.744  1.00  0.00    -0.248 NA
ATOM     45  C   UNL A   1      44.103  26.480  30.861  1.00  0.00     0.031 C 
ATOM     46  C   UNL A   1      40.308  27.887  27.887  1.00  0.00     0.029 A 
ATOM     47  N   UNL A   1      40.455  28.847  29.903  1.00  0.00    -0.354 N 
ATOM     48  C   UNL A   1      43.522  27.719  32.700  1.00  0.00     0.074 A 
ATOM     49  C   UNL A   1      44.447  26.775  32.108  1.00  0.00     0.031 C 
ATOM     50  C   UNL A   1      39.296  28.764  27.995  1.00  0.00     0.029 A 
ATOM     51  C   UNL A   1      39.317  29.359  29.330  1.00  0.00     0.049 A 
ATOM     52  H   UNL A   1      40.788  29.127  30.787  1.00  0.00     0.167 HD
ATOM     53  C   UNL A   1      43.625  28.203  33.961  1.00  0.00     0.031 A 
ATOM     54  C   UNL A   1      38.368  30.169  29.837  1.00  0.00     0.031 A 
ATOM     55  C   UNL A   1      42.708  29.140  34.554  1.00  0.00     0.049 A 
ATOM     56  C   UNL A   1      38.469  30.635  31.266  1.00  0.00     0.074 A 
ATOM     57  C   UNL A   1      42.765  29.720  35.810  1.00  0.00     0.029 A 
ATOM     58  N   UNL A   1      41.564  29.621  33.943  1.00  0.00    -0.354 N 
ATOM     59  N   UNL A   1      39.412  30.402  32.147  1.00  0.00    -0.248 NA
ATOM     60  C   UNL A   1      37.363  31.461  31.775  1.00  0.00     0.031 C 
ATOM     61  C   UNL A   1      41.622  30.507  35.982  1.00  0.00     0.029 A 
ATOM     62  C   UNL A   1      40.883  30.457  34.812  1.00  0.00     0.049 A 
ATOM     63  H   UNL A   1      41.277  29.402  33.027  1.00  0.00     0.167 HD
ATOM     64  C   UNL A   1      39.017  31.060  33.306  1.00  0.00     0.074 A 
ATOM     65  C   UNL A   1      37.764  31.720  33.012  1.00  0.00     0.031 C 
ATOM     66  C   UNL A   1      39.635  31.105  34.511  1.00  0.00     0.031 A 
BRANCH  53  67
ATOM     67  C   UNL A   1      44.751  27.699  34.817  1.00  0.00    -0.014 A 
ATOM     68  C   UNL A   1      45.962  28.400  34.920  1.00  0.00     0.009 A 
ATOM     69  C   UNL A   1      44.559  26.549  35.600  1.00  0.00     0.009 A 
ATOM     70  C   UNL A   1      46.965  27.948  35.781  1.00  0.00     0.001 A 
ATOM     71  C   UNL A   1      45.556  26.112  36.474  1.00  0.00     0.001 A 
ATOM     72  C   UNL A   1      46.759  26.810  36.560  1.00  0.00     0.000 A 
ENDBRANCH  53  67
BRANCH  54  73
ATOM     73  C   UNL A   1      37.179  30.531  29.022  1.00  0.00    -0.014 A 
ATOM     74  C   UNL A   1      36.959  31.859  28.626  1.00  0.00     0.009 A 
ATOM     75  C   UNL A   1      36.231  29.554  28.677  1.00  0.00     0.009 A 
ATOM     76  C   UNL A   1      35.798  32.205  27.929  1.00  0.00     0.001 A 
ATOM     77  C   UNL A   1      35.089  29.897  27.953  1.00  0.00     0.001 A 
ATOM     78  C   UNL A   1      34.867  31.224  27.590  1.00  0.00     0.000 A 
ENDBRANCH  54  73
BRANCH  66  79
ATOM     79  C   UNL A   1      38.977  31.908  35.597  1.00  0.00    -0.014 A 
ATOM     80  C   UNL A   1      38.171  31.291  36.566  1.00  0.00     0.009 A 
ATOM     81  C   UNL A   1      39.208  33.290  35.683  1.00  0.00     0.009 A 
ATOM     82  C   UNL A   1      37.588  32.048  37.585  1.00  0.00     0.001 A 
ATOM     83  C   UNL A   1      38.646  34.040  36.717  1.00  0.00     0.001 A 
ATOM     84  C   UNL A   1      37.831  33.419  37.663  1.00  0.00     0.000 A 
ENDBRANCH  66  79
ENDBRANCH  40  41
ENDBRANCH  33  35
ENDBRANCH  32  33
ENDBRANCH  31  32
ENDBRANCH  30  31
ENDBRANCH  29  30
ENDBRANCH  28  29
ENDBRANCH   1  28
TORSDOF 20
ENDMDL
MODEL 3
REMARK VINA RESULT:     -10.1      4.193      8.529
REMARK SMILES O=C(CS[C@H](C(=O)Nc1ccc(C(F)(F)F)cc1)c1ccccc1)OCCOCCOC(=O)c1ccc(-c2c3nc(c(-c4ccccc4)c4ccc([nH]4)c(-c4ccccc4)c4nc(c(-c5ccccc5)c5ccc2[nH]5)C=C4)C=C3)cc1
REMARK SMILES IDX 26 1 25 2 2 3 1 4 3 5 4 6 5 7 19 8 20 9 24 10 21 11 23 12
REMARK SMILES IDX 22 13 6 14 7 15 8 16 9 18 10 19 18 20 11 21 17 22 12 23
REMARK SMILES IDX 13 24 14 25 15 26 16 27 27 28 28 29 29 30 30 31 31 32 32 33
REMARK SMILES IDX 33 34 34 35 35 36 81 37 36 38 80 39 37 40 38 41 39 42 74 43
REMARK SMILES IDX 40 44 79 45 73 46 75 47 41 48 78 49 72 50 71 51 42 53 64 54
REMARK SMILES IDX 49 55 63 56 50 57 53 58 62 59 76 60 51 61 52 62 61 64 77 65
REMARK SMILES IDX 54 66 43 67 44 68 48 69 45 70 47 71 46 72 65 73 66 74 70 75
REMARK SMILES IDX 67 76 69 77 68 78 55 79 56 80 60 81 57 82 59 83 58 84
REMARK H PARENT 8 17 75 52 53 63
REMARK Flexibility Score: inf
ROOT
ATOM      1  C   UNL A   1      37.287  21.490  24.737  1.00  0.00     0.261 C 
ENDROOT
BRANCH   1   2
ATOM      2  O   UNL A   1      36.048  20.810  24.982  1.00  0.00    -0.463 OA
BRANCH   2   3
ATOM      3  C   UNL A   1      34.827  21.382  25.057  1.00  0.00     0.316 C 
ATOM      4  O   UNL A   1      34.095  21.110  26.007  1.00  0.00    -0.251 OA
BRANCH   3   5
ATOM      5  C   UNL A   1      34.388  22.268  23.924  1.00  0.00     0.193 C 
BRANCH   5   6
ATOM      6  S   UNL A   1      32.642  22.029  23.428  1.00  0.00    -0.132 SA
BRANCH   6   7
ATOM      7  C   UNL A   1      32.023  23.721  22.919  1.00  0.00     0.166 C 
BRANCH   7   8
ATOM      8  C   UNL A   1      31.162  24.313  24.030  1.00  0.00    -0.026 A 
ATOM      9  C   UNL A   1      31.245  23.941  25.381  1.00  0.00     0.005 A 
ATOM     10  C   UNL A   1      30.176  25.265  23.694  1.00  0.00     0.005 A 
ATOM     11  C   UNL A   1      30.422  24.521  26.357  1.00  0.00     0.000 A 
ATOM     12  C   UNL A   1      29.355  25.849  24.666  1.00  0.00     0.000 A 
ATOM     13  C   UNL A   1      29.484  25.482  26.000  1.00  0.00     0.000 A 
ENDBRANCH   7   8
BRANCH   7  14
ATOM     14  C   UNL A   1      33.067  24.543  22.117  1.00  0.00     0.242 C 
ATOM     15  O   UNL A   1      33.373  24.230  20.954  1.00  0.00    -0.273 OA
ATOM     16  N   UNL A   1      33.603  25.747  22.471  1.00  0.00    -0.325 N 
ATOM     17  H   UNL A   1      34.216  26.126  21.801  1.00  0.00     0.169 HD
BRANCH  16  18
ATOM     18  C   UNL A   1      33.442  26.537  23.603  1.00  0.00     0.041 A 
ATOM     19  C   UNL A   1      32.692  27.705  23.478  1.00  0.00     0.027 A 
ATOM     20  C   UNL A   1      34.020  26.230  24.823  1.00  0.00     0.027 A 
ATOM     21  C   UNL A   1      32.319  28.416  24.620  1.00  0.00     0.015 A 
ATOM     22  C   UNL A   1      33.636  26.922  25.969  1.00  0.00     0.015 A 
ATOM     23  C   UNL A   1      32.720  27.975  25.887  1.00  0.00     0.056 A 
BRANCH  23  24
ATOM     24  C   UNL A   1      32.158  28.597  27.140  1.00  0.00     0.416 C 
ATOM     25  F   UNL A   1      31.907  29.924  27.009  1.00  0.00    -0.166 F 
ATOM     26  F   UNL A   1      30.978  28.023  27.512  1.00  0.00    -0.166 F 
ATOM     27  F   UNL A   1      32.981  28.464  28.217  1.00  0.00    -0.166 F 
ENDBRANCH  23  24
ENDBRANCH  16  18
ENDBRANCH   7  14
ENDBRANCH   6   7
ENDBRANCH   5   6
ENDBRANCH   3   5
ENDBRANCH   2   3
ENDBRANCH   1   2
BRANCH   1  28
ATOM     28  C   UNL A   1      37.882  22.248  25.924  1.00  0.00     0.202 C 
BRANCH  28  29
ATOM     29  O   UNL A   1      39.290  22.297  26.073  1.00  0.00    -0.374 OA
BRANCH  29  30
ATOM     30  C   UNL A   1      40.031  21.089  26.174  1.00  0.00     0.202 C 
BRANCH  30  31
ATOM     31  C   UNL A   1      41.560  21.178  26.145  1.00  0.00     0.261 C 
BRANCH  31  32
ATOM     32  O   UNL A   1      42.085  22.294  25.398  1.00  0.00    -0.460 OA
BRANCH  32  33
ATOM     33  C   UNL A   1      43.099  22.967  25.987  1.00  0.00     0.338 C 
ATOM     34  O   UNL A   1      44.295  22.709  25.930  1.00  0.00    -0.246 OA
BRANCH  33  35
ATOM     35  C   UNL A   1      42.595  24.144  26.715  1.00  0.00     0.060 A 
ATOM     36  C   UNL A   1      43.143  25.405  26.447  1.00  0.00     0.016 A 
ATOM     37  C   UNL A   1      41.703  23.971  27.775  1.00  0.00     0.016 A 
ATOM     38  C   UNL A   1      42.819  26.496  27.264  1.00  0.00     0.010 A 
ATOM     39  C   UNL A   1      41.391  25.061  28.595  1.00  0.00     0.010 A 
ATOM     40  C   UNL A   1      41.966  26.323  28.363  1.00  0.00    -0.014 A 
BRANCH  40  41
ATOM     41  C   UNL A   1      41.714  27.419  29.334  1.00  0.00     0.031 A 
ATOM     42  C   UNL A   1      42.514  27.490  30.605  1.00  0.00     0.074 A 
ATOM     43  C   UNL A   1      40.720  28.300  29.121  1.00  0.00     0.049 A 
ATOM     44  N   UNL A   1      42.325  28.244  31.659  1.00  0.00    -0.248 NA
ATOM     45  C   UNL A   1      43.671  26.587  30.709  1.00  0.00     0.031 C 
ATOM     46  C   UNL A   1      39.880  28.353  27.927  1.00  0.00     0.029 A 
ATOM     47  N   UNL A   1      40.230  29.302  29.923  1.00  0.00    -0.354 N 
ATOM     48  C   UNL A   1      43.315  27.885  32.564  1.00  0.00     0.074 A 
ATOM     49  C   UNL A   1      44.108  26.851  31.933  1.00  0.00     0.031 C 
ATOM     50  C   UNL A   1      38.967  29.327  28.081  1.00  0.00     0.029 A 
ATOM     51  C   UNL A   1      39.119  29.923  29.407  1.00  0.00     0.049 A 
ATOM     52  H   UNL A   1      40.636  29.551  30.786  1.00  0.00     0.167 HD
ATOM     53  C   UNL A   1      43.533  28.362  33.813  1.00  0.00     0.031 A 
ATOM     54  C   UNL A   1      38.283  30.825  29.956  1.00  0.00     0.031 A 
ATOM     55  C   UNL A   1      42.747  29.388  34.446  1.00  0.00     0.049 A 
ATOM     56  C   UNL A   1      38.507  31.285  31.373  1.00  0.00     0.074 A 
ATOM     57  C   UNL A   1      42.929  29.965  35.692  1.00  0.00     0.029 A 
ATOM     58  N   UNL A   1      41.625  29.978  33.891  1.00  0.00    -0.354 N 
ATOM     59  N   UNL A   1      39.468  30.962  32.205  1.00  0.00    -0.248 NA
ATOM     60  C   UNL A   1      37.518  32.219  31.931  1.00  0.00     0.031 C 
ATOM     61  C   UNL A   1      41.881  30.863  35.916  1.00  0.00     0.029 A 
ATOM     62  C   UNL A   1      41.078  30.881  34.788  1.00  0.00     0.049 A 
ATOM     63  H   UNL A   1      41.269  29.785  32.994  1.00  0.00     0.167 HD
ATOM     64  C   UNL A   1      39.203  31.661  33.377  1.00  0.00     0.074 A 
ATOM     65  C   UNL A   1      38.007  32.442  33.143  1.00  0.00     0.031 C 
ATOM     66  C   UNL A   1      39.886  31.650  34.547  1.00  0.00     0.031 A 
BRANCH  53  67
ATOM     67  C   UNL A   1      44.648  27.752  34.613  1.00  0.00    -0.014 A 
ATOM     68  C   UNL A   1      44.443  26.607  35.397  1.00  0.00     0.009 A 
ATOM     69  C   UNL A   1      45.943  28.285  34.509  1.00  0.00     0.009 A 
ATOM     70  C   UNL A   1      45.514  26.017  36.073  1.00  0.00     0.001 A 
ATOM     71  C   UNL A   1      47.013  27.682  35.170  1.00  0.00     0.001 A 
ATOM     72  C   UNL A   1      46.797  26.550  35.954  1.00  0.00     0.000 A 
ENDBRANCH  53  67
BRANCH  54  73
ATOM     73  C   UNL A   1      37.094  31.300  29.201  1.00  0.00    -0.014 A 
ATOM     74  C   UNL A   1      36.056  30.417  28.870  1.00  0.00     0.009 A 
ATOM     75  C   UNL A   1      37.016  32.633  28.766  1.00  0.00     0.009 A 
ATOM     76  C   UNL A   1      34.980  30.852  28.090  1.00  0.00     0.001 A 
ATOM     77  C   UNL A   1      35.925  33.072  28.015  1.00  0.00     0.001 A 
ATOM     78  C   UNL A   1      34.914  32.178  27.668  1.00  0.00     0.000 A 
ENDBRANCH  54  73
BRANCH  66  79
ATOM     79  C   UNL A   1      39.371  32.519  35.658  1.00  0.00    -0.014 A 
ATOM     80  C   UNL A   1      38.367  32.063  36.528  1.00  0.00     0.009 A 
ATOM     81  C   UNL A   1      39.932  33.788  35.872  1.00  0.00     0.009 A 
ATOM     82  C   UNL A   1      37.918  32.873  37.573  1.00  0.00     0.001 A 
ATOM     83  C   UNL A   1      39.498  34.585  36.933  1.00  0.00     0.001 A 
ATOM     84  C   UNL A   1      38.488  34.130  37.778  1.00  0.00     0.000 A 
ENDBRANCH  66  79
ENDBRANCH  40  41
ENDBRANCH  33  35
ENDBRANCH  32  33
ENDBRANCH  31  32
ENDBRANCH  30  31
ENDBRANCH  29  30
ENDBRANCH  28  29
ENDBRANCH   1  28
TORSDOF 20
ENDMDL
