MODEL 1
REMARK VINA RESULT:     -10.1      0.000      0.000
REMARK SMILES CC[NH2+][C@H](C)c1cccn1Cc1ccc(C(=O)OCCOCCOC(=O)c2ccc(-c3c4nc(c(-c5ccccc5)c5ccc([nH]5)c(-c5ccccc5)c5nc(c(-c6ccccc6)c6ccc3[nH]6)C=C5)C=C4)cc2)cc1
REMARK SMILES IDX 19 1 18 2 16 3 17 4 15 5 12 6 13 7 76 8 14 9 75 10 11 11
REMARK SMILES IDX 10 12 6 13 7 14 8 15 9 16 4 17 5 18 3 19 2 22 1 23 20 24
REMARK SMILES IDX 21 25 22 26 23 27 24 28 25 29 26 30 27 31 28 32 74 33 29 34
REMARK SMILES IDX 73 35 30 36 31 37 32 38 67 39 33 40 72 41 66 42 68 43 34 44
REMARK SMILES IDX 71 45 65 46 64 47 35 49 57 50 42 51 56 52 43 53 46 54 55 55
REMARK SMILES IDX 69 56 44 57 45 58 54 60 70 61 47 62 36 63 37 64 41 65 38 66
REMARK SMILES IDX 40 67 39 68 58 69 59 70 63 71 60 72 62 73 61 74 48 75 49 76
REMARK SMILES IDX 53 77 50 78 52 79 51 80
REMARK H PARENT 3 20 3 21 68 48 46 59
REMARK Flexibility Score: inf
ROOT
ATOM      1  C   UNL A   1      34.355  31.902  27.744  1.00  0.00     0.261 C 
ENDROOT
BRANCH   1   2
ATOM      2  O   UNL A   1      33.436  30.798  27.725  1.00  0.00    -0.460 OA
BRANCH   2   3
ATOM      3  C   UNL A   1      33.891  29.707  27.061  1.00  0.00     0.338 C 
ATOM      4  O   UNL A   1      34.666  28.866  27.484  1.00  0.00    -0.246 OA
BRANCH   3   5
ATOM      5  C   UNL A   1      33.171  29.545  25.778  1.00  0.00     0.060 A 
ATOM      6  C   UNL A   1      31.584  29.003  23.525  1.00  0.00    -0.028 A 
ATOM      7  C   UNL A   1      31.060  29.722  24.605  1.00  0.00     0.006 A 
ATOM      8  C   UNL A   1      32.959  28.700  23.531  1.00  0.00     0.006 A 
ATOM      9  C   UNL A   1      31.840  29.973  25.732  1.00  0.00     0.016 A 
ATOM     10  C   UNL A   1      33.753  28.964  24.653  1.00  0.00     0.016 A 
BRANCH   6  11
ATOM     11  C   UNL A   1      30.664  28.461  22.442  1.00  0.00     0.157 C 
BRANCH  11  12
ATOM     12  N   UNL A   1      29.383  28.028  23.019  1.00  0.00    -0.342 N 
ATOM     13  C   UNL A   1      29.082  26.865  23.720  1.00  0.00     0.076 A 
ATOM     14  C   UNL A   1      27.699  26.861  23.875  1.00  0.00     0.029 A 
ATOM     15  C   UNL A   1      27.178  28.075  23.390  1.00  0.00     0.020 A 
ATOM     16  C   UNL A   1      28.243  28.802  22.928  1.00  0.00     0.086 A 
BRANCH  13  17
ATOM     17  C   UNL A   1      30.090  25.887  24.295  1.00  0.00     0.227 C 
ATOM     18  C   UNL A   1      29.935  25.737  25.818  1.00  0.00     0.082 C 
BRANCH  17  19
ATOM     19  N   UNL A   1      29.967  24.546  23.719  1.00  0.00    -0.339 N 
ATOM     20  H   UNL A   1      29.611  23.910  24.433  1.00  0.00     0.346 HD
ATOM     21  H   UNL A   1      29.326  24.595  22.926  1.00  0.00     0.346 HD
BRANCH  19  22
ATOM     22  C   UNL A   1      31.259  24.052  23.240  1.00  0.00     0.257 C 
ATOM     23  C   UNL A   1      31.825  22.982  24.161  1.00  0.00     0.071 C 
ENDBRANCH  19  22
ENDBRANCH  17  19
ENDBRANCH  13  17
ENDBRANCH  11  12
ENDBRANCH   6  11
ENDBRANCH   3   5
ENDBRANCH   2   3
ENDBRANCH   1   2
BRANCH   1  24
ATOM     24  C   UNL A   1      33.641  33.229  27.991  1.00  0.00     0.202 C 
BRANCH  24  25
ATOM     25  O   UNL A   1      34.095  34.049  29.068  1.00  0.00    -0.374 OA
BRANCH  25  26
ATOM     26  C   UNL A   1      33.922  35.461  29.022  1.00  0.00     0.202 C 
BRANCH  26  27
ATOM     27  C   UNL A   1      32.912  36.123  29.951  1.00  0.00     0.261 C 
BRANCH  27  28
ATOM     28  O   UNL A   1      33.406  36.365  31.258  1.00  0.00    -0.460 OA
BRANCH  28  29
ATOM     29  C   UNL A   1      32.965  35.422  32.121  1.00  0.00     0.338 C 
ATOM     30  O   UNL A   1      31.810  35.156  32.409  1.00  0.00    -0.246 OA
BRANCH  29  31
ATOM     31  C   UNL A   1      34.086  34.875  32.874  1.00  0.00     0.060 A 
ATOM     32  C   UNL A   1      35.302  35.526  32.663  1.00  0.00     0.016 A 
ATOM     33  C   UNL A   1      33.992  33.553  33.326  1.00  0.00     0.016 A 
ATOM     34  C   UNL A   1      36.445  34.769  32.686  1.00  0.00     0.010 A 
ATOM     35  C   UNL A   1      35.132  32.786  33.315  1.00  0.00     0.010 A 
ATOM     36  C   UNL A   1      36.337  33.398  32.950  1.00  0.00    -0.014 A 
BRANCH  36  37
ATOM     37  C   UNL A   1      37.586  32.660  33.084  1.00  0.00     0.031 A 
ATOM     38  C   UNL A   1      37.641  31.581  32.001  1.00  0.00     0.074 A 
ATOM     39  C   UNL A   1      38.380  32.998  34.147  1.00  0.00     0.049 A 
ATOM     40  N   UNL A   1      38.324  30.487  31.982  1.00  0.00    -0.248 NA
ATOM     41  C   UNL A   1      36.771  31.684  30.785  1.00  0.00     0.031 C 
ATOM     42  C   UNL A   1      38.126  34.120  35.086  1.00  0.00     0.029 A 
ATOM     43  N   UNL A   1      39.542  32.474  34.667  1.00  0.00    -0.354 N 
ATOM     44  C   UNL A   1      38.132  29.885  30.725  1.00  0.00     0.074 A 
ATOM     45  C   UNL A   1      37.092  30.607  30.068  1.00  0.00     0.031 C 
ATOM     46  C   UNL A   1      39.040  34.136  36.084  1.00  0.00     0.029 A 
ATOM     47  C   UNL A   1      39.987  33.055  35.886  1.00  0.00     0.049 A 
ATOM     48  H   UNL A   1      40.033  31.745  34.225  1.00  0.00     0.167 HD
ATOM     49  C   UNL A   1      38.960  28.914  30.256  1.00  0.00     0.031 A 
ATOM     50  C   UNL A   1      41.028  32.667  36.688  1.00  0.00     0.031 A 
ATOM     51  C   UNL A   1      39.872  28.522  31.276  1.00  0.00     0.049 A 
ATOM     52  C   UNL A   1      41.745  31.642  35.922  1.00  0.00     0.074 A 
ATOM     53  C   UNL A   1      39.671  27.874  32.468  1.00  0.00     0.029 A 
ATOM     54  N   UNL A   1      41.056  29.220  31.323  1.00  0.00    -0.354 N 
ATOM     55  N   UNL A   1      42.512  31.886  34.906  1.00  0.00    -0.248 NA
ATOM     56  C   UNL A   1      41.581  30.230  36.290  1.00  0.00     0.031 C 
ATOM     57  C   UNL A   1      40.474  28.610  33.362  1.00  0.00     0.029 A 
ATOM     58  C   UNL A   1      41.315  29.470  32.646  1.00  0.00     0.049 A 
ATOM     59  H   UNL A   1      41.611  29.486  30.555  1.00  0.00     0.167 HD
ATOM     60  C   UNL A   1      42.543  30.666  34.283  1.00  0.00     0.074 A 
ATOM     61  C   UNL A   1      42.292  29.674  35.310  1.00  0.00     0.031 C 
ATOM     62  C   UNL A   1      42.161  30.588  32.981  1.00  0.00     0.031 A 
BRANCH  49  63
ATOM     63  C   UNL A   1      39.225  28.458  28.858  1.00  0.00    -0.014 A 
ATOM     64  C   UNL A   1      39.364  27.066  28.657  1.00  0.00     0.009 A 
ATOM     65  C   UNL A   1      39.683  29.310  27.847  1.00  0.00     0.009 A 
ATOM     66  C   UNL A   1      40.058  26.552  27.563  1.00  0.00     0.001 A 
ATOM     67  C   UNL A   1      40.342  28.790  26.727  1.00  0.00     0.001 A 
ATOM     68  C   UNL A   1      40.565  27.420  26.607  1.00  0.00     0.000 A 
ENDBRANCH  49  63
BRANCH  50  69
ATOM     69  C   UNL A   1      41.612  32.933  38.055  1.00  0.00    -0.014 A 
ATOM     70  C   UNL A   1      40.922  33.365  39.186  1.00  0.00     0.009 A 
ATOM     71  C   UNL A   1      42.990  32.624  38.262  1.00  0.00     0.009 A 
ATOM     72  C   UNL A   1      41.555  33.393  40.452  1.00  0.00     0.001 A 
ATOM     73  C   UNL A   1      43.604  32.594  39.515  1.00  0.00     0.001 A 
ATOM     74  C   UNL A   1      42.876  32.972  40.622  1.00  0.00     0.000 A 
ENDBRANCH  50  69
BRANCH  62  75
ATOM     75  C   UNL A   1      42.299  31.882  32.185  1.00  0.00    -0.014 A 
ATOM     76  C   UNL A   1      43.577  32.355  31.840  1.00  0.00     0.009 A 
ATOM     77  C   UNL A   1      41.212  32.722  31.881  1.00  0.00     0.009 A 
ATOM     78  C   UNL A   1      43.767  33.616  31.256  1.00  0.00     0.001 A 
ATOM     79  C   UNL A   1      41.396  33.987  31.295  1.00  0.00     0.001 A 
ATOM     80  C   UNL A   1      42.676  34.434  30.987  1.00  0.00     0.000 A 
ENDBRANCH  62  75
ENDBRANCH  36  37
ENDBRANCH  29  31
ENDBRANCH  28  29
ENDBRANCH  27  28
ENDBRANCH  26  27
ENDBRANCH  25  26
ENDBRANCH  24  25
ENDBRANCH   1  24
TORSDOF 19
ENDMDL
MODEL 2
REMARK VINA RESULT:     -10.1      1.575      2.319
REMARK SMILES CC[NH2+][C@H](C)c1cccn1Cc1ccc(C(=O)OCCOCCOC(=O)c2ccc(-c3c4nc(c(-c5ccccc5)c5ccc([nH]5)c(-c5ccccc5)c5nc(c(-c6ccccc6)c6ccc3[nH]6)C=C5)C=C4)cc2)cc1
REMARK SMILES IDX 19 1 18 2 16 3 17 4 15 5 12 6 13 7 76 8 14 9 75 10 11 11
REMARK SMILES IDX 10 12 6 13 7 14 8 15 9 16 4 17 5 18 3 19 2 22 1 23 20 24
REMARK SMILES IDX 21 25 22 26 23 27 24 28 25 29 26 30 27 31 28 32 74 33 29 34
REMARK SMILES IDX 73 35 30 36 31 37 32 38 67 39 33 40 72 41 66 42 68 43 34 44
REMARK SMILES IDX 71 45 65 46 64 47 35 49 57 50 42 51 56 52 43 53 46 54 55 55
REMARK SMILES IDX 69 56 44 57 45 58 54 60 70 61 47 62 36 63 37 64 41 65 38 66
REMARK SMILES IDX 40 67 39 68 58 69 59 70 63 71 60 72 62 73 61 74 48 75 49 76
REMARK SMILES IDX 53 77 50 78 52 79 51 80
REMARK H PARENT 3 20 3 21 68 48 46 59
REMARK Flexibility Score: inf
ROOT
ATOM      1  C   UNL A   1      34.072  31.953  28.361  1.00  0.00     0.261 C 
ENDROOT
BRANCH   1   2
ATOM      2  O   UNL A   1      34.135  30.863  27.427  1.00  0.00    -0.460 OA
BRANCH   2   3
ATOM      3  C   UNL A   1      32.946  30.550  26.857  1.00  0.00     0.338 C 
ATOM      4  O   UNL A   1      31.956  31.260  26.799  1.00  0.00    -0.246 OA
BRANCH   3   5
ATOM      5  C   UNL A   1      33.045  29.271  26.119  1.00  0.00     0.060 A 
ATOM      6  C   UNL A   1      33.549  26.791  24.902  1.00  0.00    -0.028 A 
ATOM      7  C   UNL A   1      33.230  26.861  26.263  1.00  0.00     0.006 A 
ATOM      8  C   UNL A   1      33.455  27.967  24.135  1.00  0.00     0.006 A 
ATOM      9  C   UNL A   1      33.000  28.093  26.872  1.00  0.00     0.016 A 
ATOM     10  C   UNL A   1      33.209  29.206  24.737  1.00  0.00     0.016 A 
BRANCH   6  11
ATOM     11  C   UNL A   1      34.100  25.504  24.306  1.00  0.00     0.157 C 
BRANCH  11  12
ATOM     12  N   UNL A   1      33.045  24.485  24.208  1.00  0.00    -0.342 N 
ATOM     13  C   UNL A   1      33.056  23.163  24.642  1.00  0.00     0.076 A 
ATOM     14  C   UNL A   1      31.891  22.589  24.141  1.00  0.00     0.029 A 
ATOM     15  C   UNL A   1      31.114  23.587  23.523  1.00  0.00     0.020 A 
ATOM     16  C   UNL A   1      31.818  24.757  23.635  1.00  0.00     0.086 A 
BRANCH  13  17
ATOM     17  C   UNL A   1      34.079  22.541  25.574  1.00  0.00     0.227 C 
ATOM     18  C   UNL A   1      33.941  23.074  27.010  1.00  0.00     0.082 C 
BRANCH  17  19
ATOM     19  N   UNL A   1      33.963  21.083  25.647  1.00  0.00    -0.339 N 
ATOM     20  H   UNL A   1      33.960  20.800  26.626  1.00  0.00     0.346 HD
ATOM     21  H   UNL A   1      33.094  20.808  25.188  1.00  0.00     0.346 HD
BRANCH  19  22
ATOM     22  C   UNL A   1      35.077  20.426  24.962  1.00  0.00     0.257 C 
ATOM     23  C   UNL A   1      36.341  21.270  25.012  1.00  0.00     0.071 C 
ENDBRANCH  19  22
ENDBRANCH  17  19
ENDBRANCH  13  17
ENDBRANCH  11  12
ENDBRANCH   6  11
ENDBRANCH   3   5
ENDBRANCH   2   3
ENDBRANCH   1   2
BRANCH   1  24
ATOM     24  C   UNL A   1      35.026  33.082  27.978  1.00  0.00     0.202 C 
BRANCH  24  25
ATOM     25  O   UNL A   1      35.041  34.258  28.787  1.00  0.00    -0.374 OA
BRANCH  25  26
ATOM     26  C   UNL A   1      34.003  35.225  28.674  1.00  0.00     0.202 C 
BRANCH  26  27
ATOM     27  C   UNL A   1      32.964  35.342  29.782  1.00  0.00     0.261 C 
BRANCH  27  28
ATOM     28  O   UNL A   1      33.448  35.962  30.961  1.00  0.00    -0.460 OA
BRANCH  28  29
ATOM     29  C   UNL A   1      33.024  35.302  32.062  1.00  0.00     0.338 C 
ATOM     30  O   UNL A   1      31.892  35.255  32.514  1.00  0.00    -0.246 OA
BRANCH  29  31
ATOM     31  C   UNL A   1      34.167  34.800  32.812  1.00  0.00     0.060 A 
ATOM     32  C   UNL A   1      35.368  35.464  32.557  1.00  0.00     0.016 A 
ATOM     33  C   UNL A   1      34.106  33.492  33.309  1.00  0.00     0.016 A 
ATOM     34  C   UNL A   1      36.525  34.729  32.584  1.00  0.00     0.010 A 
ATOM     35  C   UNL A   1      35.259  32.746  33.302  1.00  0.00     0.010 A 
ATOM     36  C   UNL A   1      36.446  33.366  32.895  1.00  0.00    -0.014 A 
BRANCH  36  37
ATOM     37  C   UNL A   1      37.711  32.655  33.031  1.00  0.00     0.031 A 
ATOM     38  C   UNL A   1      37.761  31.534  31.991  1.00  0.00     0.074 A 
ATOM     39  C   UNL A   1      38.522  33.049  34.060  1.00  0.00     0.049 A 
ATOM     40  N   UNL A   1      38.463  30.452  32.000  1.00  0.00    -0.248 NA
ATOM     41  C   UNL A   1      36.864  31.572  30.792  1.00  0.00     0.031 C 
ATOM     42  C   UNL A   1      38.269  34.205  34.959  1.00  0.00     0.029 A 
ATOM     43  N   UNL A   1      39.704  32.567  34.575  1.00  0.00    -0.354 N 
ATOM     44  C   UNL A   1      38.254  29.796  30.774  1.00  0.00     0.074 A 
ATOM     45  C   UNL A   1      37.187  30.473  30.112  1.00  0.00     0.031 C 
ATOM     46  C   UNL A   1      39.204  34.276  35.934  1.00  0.00     0.029 A 
ATOM     47  C   UNL A   1      40.166  33.205  35.759  1.00  0.00     0.049 A 
ATOM     48  H   UNL A   1      40.198  31.829  34.152  1.00  0.00     0.167 HD
ATOM     49  C   UNL A   1      39.088  28.821  30.326  1.00  0.00     0.031 A 
ATOM     50  C   UNL A   1      41.231  32.867  36.553  1.00  0.00     0.031 A 
ATOM     51  C   UNL A   1      40.029  28.486  31.340  1.00  0.00     0.049 A 
ATOM     52  C   UNL A   1      41.949  31.824  35.813  1.00  0.00     0.074 A 
ATOM     53  C   UNL A   1      39.866  27.884  32.561  1.00  0.00     0.029 A 
ATOM     54  N   UNL A   1      41.202  29.205  31.332  1.00  0.00    -0.354 N 
ATOM     55  N   UNL A   1      42.689  32.039  34.770  1.00  0.00    -0.248 NA
ATOM     56  C   UNL A   1      41.817  30.426  36.241  1.00  0.00     0.031 C 
ATOM     57  C   UNL A   1      40.675  28.669  33.406  1.00  0.00     0.029 A 
ATOM     58  C   UNL A   1      41.485  29.513  32.637  1.00  0.00     0.049 A 
ATOM     59  H   UNL A   1      41.735  29.449  30.542  1.00  0.00     0.167 HD
ATOM     60  C   UNL A   1      42.727  30.796  34.196  1.00  0.00     0.074 A 
ATOM     61  C   UNL A   1      42.516  29.843  35.268  1.00  0.00     0.031 C 
ATOM     62  C   UNL A   1      42.319  30.659  32.907  1.00  0.00     0.031 A 
BRANCH  49  63
ATOM     63  C   UNL A   1      39.331  28.313  28.942  1.00  0.00    -0.014 A 
ATOM     64  C   UNL A   1      39.389  26.911  28.778  1.00  0.00     0.009 A 
ATOM     65  C   UNL A   1      39.841  29.109  27.910  1.00  0.00     0.009 A 
ATOM     66  C   UNL A   1      40.055  26.328  27.702  1.00  0.00     0.001 A 
ATOM     67  C   UNL A   1      40.473  28.522  26.808  1.00  0.00     0.001 A 
ATOM     68  C   UNL A   1      40.616  27.138  26.725  1.00  0.00     0.000 A 
ENDBRANCH  49  63
BRANCH  50  69
ATOM     69  C   UNL A   1      41.839  33.199  37.894  1.00  0.00    -0.014 A 
ATOM     70  C   UNL A   1      41.301  32.911  39.147  1.00  0.00     0.009 A 
ATOM     71  C   UNL A   1      43.144  33.776  37.908  1.00  0.00     0.009 A 
ATOM     72  C   UNL A   1      42.065  33.107  40.323  1.00  0.00     0.001 A 
ATOM     73  C   UNL A   1      43.923  33.920  39.057  1.00  0.00     0.001 A 
ATOM     74  C   UNL A   1      43.382  33.571  40.275  1.00  0.00     0.000 A 
ENDBRANCH  50  69
BRANCH  62  75
ATOM     75  C   UNL A   1      42.416  31.921  32.057  1.00  0.00    -0.014 A 
ATOM     76  C   UNL A   1      41.243  32.595  31.674  1.00  0.00     0.009 A 
ATOM     77  C   UNL A   1      43.623  32.391  31.507  1.00  0.00     0.009 A 
ATOM     78  C   UNL A   1      41.266  33.659  30.761  1.00  0.00     0.001 A 
ATOM     79  C   UNL A   1      43.652  33.457  30.591  1.00  0.00     0.001 A 
ATOM     80  C   UNL A   1      42.471  34.088  30.216  1.00  0.00     0.000 A 
ENDBRANCH  62  75
ENDBRANCH  36  37
ENDBRANCH  29  31
ENDBRANCH  28  29
ENDBRANCH  27  28
ENDBRANCH  26  27
ENDBRANCH  25  26
ENDBRANCH  24  25
ENDBRANCH   1  24
TORSDOF 19
ENDMDL
MODEL 3
REMARK VINA RESULT:     -10.1      3.598      8.337
REMARK SMILES CC[NH2+][C@H](C)c1cccn1Cc1ccc(C(=O)OCCOCCOC(=O)c2ccc(-c3c4nc(c(-c5ccccc5)c5ccc([nH]5)c(-c5ccccc5)c5nc(c(-c6ccccc6)c6ccc3[nH]6)C=C5)C=C4)cc2)cc1
REMARK SMILES IDX 19 1 18 2 16 3 17 4 15 5 12 6 13 7 76 8 14 9 75 10 11 11
REMARK SMILES IDX 10 12 6 13 7 14 8 15 9 16 4 17 5 18 3 19 2 22 1 23 20 24
REMARK SMILES IDX 21 25 22 26 23 27 24 28 25 29 26 30 27 31 28 32 74 33 29 34
REMARK SMILES IDX 73 35 30 36 31 37 32 38 67 39 33 40 72 41 66 42 68 43 34 44
REMARK SMILES IDX 71 45 65 46 64 47 35 49 57 50 42 51 56 52 43 53 46 54 55 55
REMARK SMILES IDX 69 56 44 57 45 58 54 60 70 61 47 62 36 63 37 64 41 65 38 66
REMARK SMILES IDX 40 67 39 68 58 69 59 70 63 71 60 72 62 73 61 74 48 75 49 76
REMARK SMILES IDX 53 77 50 78 52 79 51 80
REMARK H PARENT 3 20 3 21 68 48 46 59
REMARK Flexibility Score: inf
ROOT
ATOM      1  C   UNL A   1      40.051  21.482  26.595  1.00  0.00     0.261 C 
ENDROOT
BRANCH   1   2
ATOM      2  O   UNL A   1      38.923  22.232  26.116  1.00  0.00    -0.460 OA
BRANCH   2   3
ATOM      3  C   UNL A   1      38.057  21.511  25.363  1.00  0.00     0.338 C 
ATOM      4  O   UNL A   1      38.105  20.312  25.142  1.00  0.00    -0.246 OA
BRANCH   3   5
ATOM      5  C   UNL A   1      36.895  22.341  24.972  1.00  0.00     0.060 A 
ATOM      6  C   UNL A   1      34.935  24.133  24.060  1.00  0.00    -0.028 A 
ATOM      7  C   UNL A   1      35.623  23.315  23.157  1.00  0.00     0.006 A 
ATOM      8  C   UNL A   1      35.137  23.922  25.437  1.00  0.00     0.006 A 
ATOM      9  C   UNL A   1      36.611  22.441  23.606  1.00  0.00     0.016 A 
ATOM     10  C   UNL A   1      36.116  23.033  25.896  1.00  0.00     0.016 A 
BRANCH   6  11
ATOM     11  C   UNL A   1      34.092  25.295  23.558  1.00  0.00     0.157 C 
BRANCH  11  12
ATOM     12  N   UNL A   1      32.660  24.976  23.656  1.00  0.00    -0.342 N 
ATOM     13  C   UNL A   1      31.624  25.736  24.190  1.00  0.00     0.076 A 
ATOM     14  C   UNL A   1      30.509  24.902  24.204  1.00  0.00     0.029 A 
ATOM     15  C   UNL A   1      30.831  23.691  23.562  1.00  0.00     0.020 A 
ATOM     16  C   UNL A   1      32.143  23.789  23.177  1.00  0.00     0.086 A 
BRANCH  13  17
ATOM     17  C   UNL A   1      31.695  27.207  24.553  1.00  0.00     0.227 C 
ATOM     18  C   UNL A   1      30.521  28.000  23.954  1.00  0.00     0.082 C 
BRANCH  17  19
ATOM     19  N   UNL A   1      31.669  27.433  25.999  1.00  0.00    -0.339 N 
ATOM     20  H   UNL A   1      31.242  28.340  26.185  1.00  0.00     0.346 HD
ATOM     21  H   UNL A   1      31.128  26.684  26.431  1.00  0.00     0.346 HD
BRANCH  19  22
ATOM     22  C   UNL A   1      33.019  27.415  26.565  1.00  0.00     0.257 C 
ATOM     23  C   UNL A   1      33.925  28.428  25.883  1.00  0.00     0.071 C 
ENDBRANCH  19  22
ENDBRANCH  17  19
ENDBRANCH  13  17
ENDBRANCH  11  12
ENDBRANCH   6  11
ENDBRANCH   3   5
ENDBRANCH   2   3
ENDBRANCH   1   2
BRANCH   1  24
ATOM     24  C   UNL A   1      41.371  22.052  26.078  1.00  0.00     0.202 C 
BRANCH  24  25
ATOM     25  O   UNL A   1      42.457  22.180  26.995  1.00  0.00    -0.374 OA
BRANCH  25  26
ATOM     26  C   UNL A   1      42.915  23.466  27.397  1.00  0.00     0.202 C 
BRANCH  26  27
ATOM     27  C   UNL A   1      41.958  24.414  28.108  1.00  0.00     0.261 C 
BRANCH  27  28
ATOM     28  O   UNL A   1      42.032  25.754  27.651  1.00  0.00    -0.460 OA
BRANCH  28  29
ATOM     29  C   UNL A   1      40.971  26.055  26.869  1.00  0.00     0.338 C 
ATOM     30  O   UNL A   1      40.744  25.662  25.737  1.00  0.00    -0.246 OA
BRANCH  29  31
ATOM     31  C   UNL A   1      40.195  27.129  27.475  1.00  0.00     0.060 A 
ATOM     32  C   UNL A   1      40.808  28.382  27.439  1.00  0.00     0.016 A 
ATOM     33  C   UNL A   1      39.212  26.783  28.411  1.00  0.00     0.016 A 
ATOM     34  C   UNL A   1      40.598  29.228  28.498  1.00  0.00     0.010 A 
ATOM     35  C   UNL A   1      39.029  27.614  29.489  1.00  0.00     0.010 A 
ATOM     36  C   UNL A   1      39.761  28.806  29.538  1.00  0.00    -0.014 A 
BRANCH  36  37
ATOM     37  C   UNL A   1      39.473  29.784  30.579  1.00  0.00     0.031 A 
ATOM     38  C   UNL A   1      40.206  29.374  31.858  1.00  0.00     0.074 A 
ATOM     39  C   UNL A   1      38.583  30.772  30.255  1.00  0.00     0.049 A 
ATOM     40  N   UNL A   1      39.941  29.690  33.079  1.00  0.00    -0.248 NA
ATOM     41  C   UNL A   1      41.365  28.426  31.796  1.00  0.00     0.031 C 
ATOM     42  C   UNL A   1      37.993  30.989  28.909  1.00  0.00     0.029 A 
ATOM     43  N   UNL A   1      37.982  31.781  30.973  1.00  0.00    -0.354 N 
ATOM     44  C   UNL A   1      40.965  29.167  33.889  1.00  0.00     0.074 A 
ATOM     45  C   UNL A   1      41.758  28.315  33.064  1.00  0.00     0.031 C 
ATOM     46  C   UNL A   1      37.078  31.986  28.934  1.00  0.00     0.029 A 
ATOM     47  C   UNL A   1      36.998  32.532  30.274  1.00  0.00     0.049 A 
ATOM     48  H   UNL A   1      38.218  31.971  31.910  1.00  0.00     0.167 HD
ATOM     49  C   UNL A   1      41.172  29.599  35.161  1.00  0.00     0.031 A 
ATOM     50  C   UNL A   1      36.161  33.504  30.758  1.00  0.00     0.031 A 
ATOM     51  C   UNL A   1      40.120  30.475  35.551  1.00  0.00     0.049 A 
ATOM     52  C   UNL A   1      36.632  33.777  32.120  1.00  0.00     0.074 A 
ATOM     53  C   UNL A   1      38.786  30.245  35.770  1.00  0.00     0.029 A 
ATOM     54  N   UNL A   1      40.320  31.810  35.285  1.00  0.00    -0.354 N 
ATOM     55  N   UNL A   1      37.706  34.444  32.407  1.00  0.00    -0.248 NA
ATOM     56  C   UNL A   1      35.872  33.246  33.258  1.00  0.00     0.031 C 
ATOM     57  C   UNL A   1      38.171  31.339  35.129  1.00  0.00     0.029 A 
ATOM     58  C   UNL A   1      39.136  32.299  34.801  1.00  0.00     0.049 A 
ATOM     59  H   UNL A   1      41.154  32.316  35.419  1.00  0.00     0.167 HD
ATOM     60  C   UNL A   1      37.957  34.029  33.688  1.00  0.00     0.074 A 
ATOM     61  C   UNL A   1      36.681  33.626  34.246  1.00  0.00     0.031 C 
ATOM     62  C   UNL A   1      39.167  33.477  33.970  1.00  0.00     0.031 A 
BRANCH  49  63
ATOM     63  C   UNL A   1      42.392  29.534  36.021  1.00  0.00    -0.014 A 
ATOM     64  C   UNL A   1      43.258  30.650  35.985  1.00  0.00     0.009 A 
ATOM     65  C   UNL A   1      42.891  28.342  36.556  1.00  0.00     0.009 A 
ATOM     66  C   UNL A   1      44.603  30.542  36.332  1.00  0.00     0.001 A 
ATOM     67  C   UNL A   1      44.232  28.245  36.945  1.00  0.00     0.001 A 
ATOM     68  C   UNL A   1      45.094  29.329  36.795  1.00  0.00     0.000 A 
ENDBRANCH  49  63
BRANCH  50  69
ATOM     69  C   UNL A   1      34.952  34.311  30.353  1.00  0.00    -0.014 A 
ATOM     70  C   UNL A   1      33.988  34.852  31.202  1.00  0.00     0.009 A 
ATOM     71  C   UNL A   1      34.811  34.653  28.974  1.00  0.00     0.009 A 
ATOM     72  C   UNL A   1      33.010  35.748  30.706  1.00  0.00     0.001 A 
ATOM     73  C   UNL A   1      33.886  35.578  28.489  1.00  0.00     0.001 A 
ATOM     74  C   UNL A   1      32.984  36.140  29.365  1.00  0.00     0.000 A 
ENDBRANCH  50  69
BRANCH  62  75
ATOM     75  C   UNL A   1      40.303  33.892  33.041  1.00  0.00    -0.014 A 
ATOM     76  C   UNL A   1      40.621  33.091  31.930  1.00  0.00     0.009 A 
ATOM     77  C   UNL A   1      41.159  34.977  33.303  1.00  0.00     0.009 A 
ATOM     78  C   UNL A   1      41.755  33.337  31.142  1.00  0.00     0.001 A 
ATOM     79  C   UNL A   1      42.297  35.229  32.517  1.00  0.00     0.001 A 
ATOM     80  C   UNL A   1      42.596  34.403  31.438  1.00  0.00     0.000 A 
ENDBRANCH  62  75
ENDBRANCH  36  37
ENDBRANCH  29  31
ENDBRANCH  28  29
ENDBRANCH  27  28
ENDBRANCH  26  27
ENDBRANCH  25  26
ENDBRANCH  24  25
ENDBRANCH   1  24
TORSDOF 19
ENDMDL
