MODEL 1
REMARK VINA RESULT:     -10.5      0.000      0.000
REMARK SMILES O=C(COc1ccc(Br)cc1/C=C1\C(=O)Nc2ccc(Br)cc21)OCCOCCOC(=O)c1ccc(-c2c3nc(c(-c4ccccc4)c4ccc([nH]4)c(-c4ccccc4)c4nc(c(-c5ccccc5)c5ccc2[nH]5)C=C4)C=C3)cc1
REMARK SMILES IDX 26 1 25 2 24 3 2 4 1 5 3 6 4 7 5 8 6 9 11 10 7 11 10 12 8 13
REMARK SMILES IDX 9 14 12 15 13 16 14 17 23 18 15 19 16 20 17 21 22 22 18 24
REMARK SMILES IDX 20 25 19 26 21 27 27 28 28 29 29 30 30 31 31 32 32 33 33 34
REMARK SMILES IDX 34 35 80 36 35 37 79 38 36 39 37 40 38 41 73 42 39 43 78 44
REMARK SMILES IDX 72 45 74 46 40 47 77 48 71 49 70 50 41 52 63 53 48 54 62 55
REMARK SMILES IDX 49 56 52 57 61 58 75 59 50 60 51 61 60 63 76 64 53 65 42 66
REMARK SMILES IDX 43 67 47 68 44 69 46 70 45 71 64 72 65 73 69 74 66 75 68 76
REMARK SMILES IDX 67 77 54 78 55 79 59 80 56 81 58 82 57 83
REMARK H PARENT 16 23 74 51 52 62
REMARK Flexibility Score: inf
ROOT
ATOM      1  C   UNL A   1      34.159  30.508  28.013  1.00  0.00     0.202 C 
ENDROOT
BRANCH   1   2
ATOM      2  C   UNL A   1      34.593  29.483  26.972  1.00  0.00     0.261 C 
BRANCH   2   3
ATOM      3  O   UNL A   1      33.546  28.539  26.699  1.00  0.00    -0.461 OA
BRANCH   3   4
ATOM      4  C   UNL A   1      33.702  27.540  25.791  1.00  0.00     0.344 C 
ATOM      5  O   UNL A   1      33.712  26.368  26.163  1.00  0.00    -0.248 OA
BRANCH   4   6
ATOM      6  C   UNL A   1      33.808  27.917  24.312  1.00  0.00     0.351 C 
BRANCH   6   7
ATOM      7  O   UNL A   1      33.124  27.113  23.344  1.00  0.00    -0.481 OA
BRANCH   7   8
ATOM      8  C   UNL A   1      31.828  27.523  23.136  1.00  0.00     0.127 A 
ATOM      9  C   UNL A   1      31.584  28.848  22.727  1.00  0.00     0.048 A 
ATOM     10  C   UNL A   1      30.772  26.608  23.329  1.00  0.00     0.018 A 
ATOM     11  C   UNL A   1      30.294  29.350  22.675  1.00  0.00     0.019 A 
ATOM     12  C   UNL A   1      29.484  27.162  23.283  1.00  0.00     0.027 A 
ATOM     13  C   UNL A   1      29.248  28.509  22.991  1.00  0.00     0.018 A 
ATOM     14  Br  UNL A   1      27.481  29.182  23.026  1.00  0.00    -0.051 Br
BRANCH  10  15
ATOM     15  C   UNL A   1      31.047  25.161  23.613  1.00  0.00     0.026 C 
ATOM     16  C   UNL A   1      30.943  24.447  24.755  1.00  0.00     0.050 C 
ATOM     17  C   UNL A   1      30.553  24.945  26.121  1.00  0.00     0.256 C 
ATOM     18  C   UNL A   1      31.690  23.199  25.012  1.00  0.00     0.012 A 
ATOM     19  O   UNL A   1      29.565  25.547  26.466  1.00  0.00    -0.269 OA
ATOM     20  N   UNL A   1      31.507  24.398  26.962  1.00  0.00    -0.321 N 
ATOM     21  C   UNL A   1      32.147  23.336  26.333  1.00  0.00     0.049 A 
ATOM     22  C   UNL A   1      31.908  22.015  24.334  1.00  0.00     0.026 A 
ATOM     23  H   UNL A   1      31.704  24.716  27.872  1.00  0.00     0.170 HD
ATOM     24  C   UNL A   1      32.970  22.425  26.954  1.00  0.00     0.028 A 
ATOM     25  C   UNL A   1      32.660  21.027  24.990  1.00  0.00     0.018 A 
ATOM     26  C   UNL A   1      33.232  21.247  26.261  1.00  0.00     0.018 A 
ATOM     27  Br  UNL A   1      32.852  19.314  24.204  1.00  0.00    -0.051 Br
ENDBRANCH  10  15
ENDBRANCH   7   8
ENDBRANCH   6   7
ENDBRANCH   4   6
ENDBRANCH   3   4
ENDBRANCH   2   3
ENDBRANCH   1   2
BRANCH   1  28
ATOM     28  O   UNL A   1      33.974  31.826  27.504  1.00  0.00    -0.374 OA
BRANCH  28  29
ATOM     29  C   UNL A   1      34.703  32.860  28.188  1.00  0.00     0.202 C 
BRANCH  29  30
ATOM     30  C   UNL A   1      34.725  32.745  29.718  1.00  0.00     0.261 C 
BRANCH  30  31
ATOM     31  O   UNL A   1      36.081  32.670  30.201  1.00  0.00    -0.460 OA
BRANCH  31  32
ATOM     32  C   UNL A   1      36.357  31.635  31.030  1.00  0.00     0.338 C 
ATOM     33  O   UNL A   1      35.659  31.208  31.932  1.00  0.00    -0.246 OA
BRANCH  32  34
ATOM     34  C   UNL A   1      37.551  30.917  30.524  1.00  0.00     0.060 A 
ATOM     35  C   UNL A   1      37.778  30.723  29.160  1.00  0.00     0.016 A 
ATOM     36  C   UNL A   1      38.464  30.426  31.469  1.00  0.00     0.016 A 
ATOM     37  C   UNL A   1      38.953  30.092  28.742  1.00  0.00     0.010 A 
ATOM     38  C   UNL A   1      39.634  29.793  31.052  1.00  0.00     0.010 A 
ATOM     39  C   UNL A   1      39.903  29.655  29.684  1.00  0.00    -0.014 A 
BRANCH  39  40
ATOM     40  C   UNL A   1      41.257  29.257  29.237  1.00  0.00     0.031 A 
ATOM     41  C   UNL A   1      42.407  30.215  29.225  1.00  0.00     0.074 A 
ATOM     42  C   UNL A   1      41.421  27.991  28.807  1.00  0.00     0.049 A 
ATOM     43  N   UNL A   1      43.663  29.974  28.950  1.00  0.00    -0.248 NA
ATOM     44  C   UNL A   1      42.117  31.615  29.558  1.00  0.00     0.031 C 
ATOM     45  C   UNL A   1      40.354  26.989  28.740  1.00  0.00     0.029 A 
ATOM     46  N   UNL A   1      42.533  27.326  28.362  1.00  0.00    -0.354 N 
ATOM     47  C   UNL A   1      44.323  31.185  29.098  1.00  0.00     0.074 A 
ATOM     48  C   UNL A   1      43.319  32.170  29.443  1.00  0.00     0.031 C 
ATOM     49  C   UNL A   1      40.871  25.828  28.315  1.00  0.00     0.029 A 
ATOM     50  C   UNL A   1      42.295  26.009  28.056  1.00  0.00     0.049 A 
ATOM     51  H   UNL A   1      43.416  27.753  28.269  1.00  0.00     0.167 HD
ATOM     52  C   UNL A   1      45.647  31.440  28.972  1.00  0.00     0.031 A 
ATOM     53  C   UNL A   1      43.131  25.044  27.629  1.00  0.00     0.031 A 
ATOM     54  C   UNL A   1      46.629  30.454  28.596  1.00  0.00     0.049 A 
ATOM     55  C   UNL A   1      44.588  25.362  27.463  1.00  0.00     0.074 A 
ATOM     56  C   UNL A   1      48.000  30.610  28.480  1.00  0.00     0.029 A 
ATOM     57  N   UNL A   1      46.347  29.139  28.260  1.00  0.00    -0.354 N 
ATOM     58  N   UNL A   1      45.212  26.491  27.694  1.00  0.00    -0.248 NA
ATOM     59  C   UNL A   1      45.458  24.275  26.998  1.00  0.00     0.031 C 
ATOM     60  C   UNL A   1      48.539  29.408  28.012  1.00  0.00     0.029 A 
ATOM     61  C   UNL A   1      47.513  28.481  27.904  1.00  0.00     0.049 A 
ATOM     62  H   UNL A   1      45.450  28.732  28.272  1.00  0.00     0.167 HD
ATOM     63  C   UNL A   1      46.551  26.247  27.423  1.00  0.00     0.074 A 
ATOM     64  C   UNL A   1      46.651  24.858  27.025  1.00  0.00     0.031 C 
ATOM     65  C   UNL A   1      47.600  27.101  27.501  1.00  0.00     0.031 A 
BRANCH  52  66
ATOM     66  C   UNL A   1      46.130  32.836  29.248  1.00  0.00    -0.014 A 
ATOM     67  C   UNL A   1      46.448  33.225  30.558  1.00  0.00     0.009 A 
ATOM     68  C   UNL A   1      46.161  33.801  28.228  1.00  0.00     0.009 A 
ATOM     69  C   UNL A   1      46.774  34.553  30.847  1.00  0.00     0.001 A 
ATOM     70  C   UNL A   1      46.511  35.123  28.514  1.00  0.00     0.001 A 
ATOM     71  C   UNL A   1      46.809  35.499  29.823  1.00  0.00     0.000 A 
ENDBRANCH  52  66
BRANCH  53  72
ATOM     72  C   UNL A   1      42.598  23.679  27.388  1.00  0.00    -0.014 A 
ATOM     73  C   UNL A   1      42.206  23.280  26.100  1.00  0.00     0.009 A 
ATOM     74  C   UNL A   1      42.406  22.795  28.460  1.00  0.00     0.009 A 
ATOM     75  C   UNL A   1      41.612  22.034  25.893  1.00  0.00     0.001 A 
ATOM     76  C   UNL A   1      41.836  21.537  28.246  1.00  0.00     0.001 A 
ATOM     77  C   UNL A   1      41.430  21.162  26.966  1.00  0.00     0.000 A 
ENDBRANCH  53  72
BRANCH  65  78
ATOM     78  C   UNL A   1      48.962  26.567  27.156  1.00  0.00    -0.014 A 
ATOM     79  C   UNL A   1      49.404  26.594  25.823  1.00  0.00     0.009 A 
ATOM     80  C   UNL A   1      49.764  25.946  28.125  1.00  0.00     0.009 A 
ATOM     81  C   UNL A   1      50.612  25.994  25.464  1.00  0.00     0.001 A 
ATOM     82  C   UNL A   1      50.986  25.372  27.768  1.00  0.00     0.001 A 
ATOM     83  C   UNL A   1      51.403  25.387  26.438  1.00  0.00     0.000 A 
ENDBRANCH  65  78
ENDBRANCH  39  40
ENDBRANCH  32  34
ENDBRANCH  31  32
ENDBRANCH  30  31
ENDBRANCH  29  30
ENDBRANCH  28  29
ENDBRANCH   1  28
TORSDOF 17
ENDMDL
MODEL 2
REMARK VINA RESULT:     -10.4      4.659      8.173
REMARK SMILES O=C(COc1ccc(Br)cc1/C=C1\C(=O)Nc2ccc(Br)cc21)OCCOCCOC(=O)c1ccc(-c2c3nc(c(-c4ccccc4)c4ccc([nH]4)c(-c4ccccc4)c4nc(c(-c5ccccc5)c5ccc2[nH]5)C=C4)C=C3)cc1
REMARK SMILES IDX 26 1 25 2 24 3 2 4 1 5 3 6 4 7 5 8 6 9 11 10 7 11 10 12 8 13
REMARK SMILES IDX 9 14 12 15 13 16 14 17 23 18 15 19 16 20 17 21 22 22 18 24
REMARK SMILES IDX 20 25 19 26 21 27 27 28 28 29 29 30 30 31 31 32 32 33 33 34
REMARK SMILES IDX 34 35 80 36 35 37 79 38 36 39 37 40 38 41 73 42 39 43 78 44
REMARK SMILES IDX 72 45 74 46 40 47 77 48 71 49 70 50 41 52 63 53 48 54 62 55
REMARK SMILES IDX 49 56 52 57 61 58 75 59 50 60 51 61 60 63 76 64 53 65 42 66
REMARK SMILES IDX 43 67 47 68 44 69 46 70 45 71 64 72 65 73 69 74 66 75 68 76
REMARK SMILES IDX 67 77 54 78 55 79 59 80 56 81 58 82 57 83
REMARK H PARENT 16 23 74 51 52 62
REMARK Flexibility Score: inf
ROOT
ATOM      1  C   UNL A   1      35.230  33.066  28.181  1.00  0.00     0.202 C 
ENDROOT
BRANCH   1   2
ATOM      2  C   UNL A   1      34.067  32.092  28.314  1.00  0.00     0.261 C 
BRANCH   2   3
ATOM      3  O   UNL A   1      34.057  31.138  27.241  1.00  0.00    -0.461 OA
BRANCH   3   4
ATOM      4  C   UNL A   1      34.234  29.809  27.463  1.00  0.00     0.344 C 
ATOM      5  O   UNL A   1      35.290  29.401  27.943  1.00  0.00    -0.248 OA
BRANCH   4   6
ATOM      6  C   UNL A   1      33.072  28.864  27.149  1.00  0.00     0.351 C 
BRANCH   6   7
ATOM      7  O   UNL A   1      33.139  28.055  25.970  1.00  0.00    -0.481 OA
BRANCH   7   8
ATOM      8  C   UNL A   1      32.103  28.301  25.100  1.00  0.00     0.127 A 
ATOM      9  C   UNL A   1      31.737  29.633  24.827  1.00  0.00     0.048 A 
ATOM     10  C   UNL A   1      31.436  27.217  24.492  1.00  0.00     0.018 A 
ATOM     11  C   UNL A   1      30.594  29.921  24.098  1.00  0.00     0.019 A 
ATOM     12  C   UNL A   1      30.277  27.552  23.777  1.00  0.00     0.027 A 
ATOM     13  C   UNL A   1      29.847  28.873  23.606  1.00  0.00     0.018 A 
ATOM     14  Br  UNL A   1      28.231  29.222  22.689  1.00  0.00    -0.051 Br
BRANCH  10  15
ATOM     15  C   UNL A   1      31.931  25.811  24.664  1.00  0.00     0.026 C 
ATOM     16  C   UNL A   1      32.622  25.006  23.828  1.00  0.00     0.050 C 
ATOM     17  C   UNL A   1      33.059  25.300  22.418  1.00  0.00     0.256 C 
ATOM     18  C   UNL A   1      32.615  23.532  23.918  1.00  0.00     0.012 A 
ATOM     19  O   UNL A   1      33.713  26.221  21.993  1.00  0.00    -0.269 OA
ATOM     20  N   UNL A   1      32.695  24.165  21.713  1.00  0.00    -0.321 N 
ATOM     21  C   UNL A   1      32.480  23.106  22.586  1.00  0.00     0.049 A 
ATOM     22  C   UNL A   1      32.805  22.597  24.918  1.00  0.00     0.026 A 
ATOM     23  H   UNL A   1      32.601  24.117  20.734  1.00  0.00     0.170 HD
ATOM     24  C   UNL A   1      32.343  21.788  22.218  1.00  0.00     0.028 A 
ATOM     25  C   UNL A   1      32.771  21.243  24.547  1.00  0.00     0.018 A 
ATOM     26  C   UNL A   1      32.488  20.839  23.226  1.00  0.00     0.018 A 
ATOM     27  Br  UNL A   1      33.200  19.908  25.822  1.00  0.00    -0.051 Br
ENDBRANCH  10  15
ENDBRANCH   7   8
ENDBRANCH   6   7
ENDBRANCH   4   6
ENDBRANCH   3   4
ENDBRANCH   2   3
ENDBRANCH   1   2
BRANCH   1  28
ATOM     28  O   UNL A   1      35.065  34.288  28.896  1.00  0.00    -0.374 OA
BRANCH  28  29
ATOM     29  C   UNL A   1      34.093  35.197  28.349  1.00  0.00     0.202 C 
BRANCH  29  30
ATOM     30  C   UNL A   1      33.140  35.829  29.372  1.00  0.00     0.261 C 
BRANCH  30  31
ATOM     31  O   UNL A   1      32.895  34.922  30.465  1.00  0.00    -0.460 OA
BRANCH  31  32
ATOM     32  C   UNL A   1      33.091  35.426  31.708  1.00  0.00     0.338 C 
ATOM     33  O   UNL A   1      32.339  36.154  32.333  1.00  0.00    -0.246 OA
BRANCH  32  34
ATOM     34  C   UNL A   1      34.266  34.763  32.319  1.00  0.00     0.060 A 
ATOM     35  C   UNL A   1      34.146  33.613  33.101  1.00  0.00     0.016 A 
ATOM     36  C   UNL A   1      35.528  35.332  32.087  1.00  0.00     0.016 A 
ATOM     37  C   UNL A   1      35.298  32.998  33.600  1.00  0.00     0.010 A 
ATOM     38  C   UNL A   1      36.676  34.720  32.588  1.00  0.00     0.010 A 
ATOM     39  C   UNL A   1      36.570  33.528  33.317  1.00  0.00    -0.014 A 
BRANCH  39  40
ATOM     40  C   UNL A   1      37.783  32.726  33.594  1.00  0.00     0.031 A 
ATOM     41  C   UNL A   1      38.287  31.686  32.644  1.00  0.00     0.074 A 
ATOM     42  C   UNL A   1      38.417  32.945  34.763  1.00  0.00     0.049 A 
ATOM     43  N   UNL A   1      39.387  30.981  32.718  1.00  0.00    -0.248 NA
ATOM     44  C   UNL A   1      37.459  31.395  31.467  1.00  0.00     0.031 C 
ATOM     45  C   UNL A   1      37.984  33.908  35.778  1.00  0.00     0.029 A 
ATOM     46  N   UNL A   1      39.555  32.392  35.289  1.00  0.00    -0.354 N 
ATOM     47  C   UNL A   1      39.398  30.177  31.588  1.00  0.00     0.074 A 
ATOM     48  C   UNL A   1      38.172  30.449  30.867  1.00  0.00     0.031 C 
ATOM     49  C   UNL A   1      38.865  33.905  36.788  1.00  0.00     0.029 A 
ATOM     50  C   UNL A   1      39.908  32.924  36.505  1.00  0.00     0.049 A 
ATOM     51  H   UNL A   1      40.068  31.683  34.840  1.00  0.00     0.167 HD
ATOM     52  C   UNL A   1      40.356  29.306  31.187  1.00  0.00     0.031 A 
ATOM     53  C   UNL A   1      40.962  32.667  37.302  1.00  0.00     0.031 A 
ATOM     54  C   UNL A   1      41.557  29.024  31.934  1.00  0.00     0.049 A 
ATOM     55  C   UNL A   1      41.990  31.672  36.850  1.00  0.00     0.074 A 
ATOM     56  C   UNL A   1      42.603  28.185  31.589  1.00  0.00     0.029 A 
ATOM     57  N   UNL A   1      41.863  29.555  33.177  1.00  0.00    -0.354 N 
ATOM     58  N   UNL A   1      42.033  30.985  35.735  1.00  0.00    -0.248 NA
ATOM     59  C   UNL A   1      43.123  31.429  37.753  1.00  0.00     0.031 C 
ATOM     60  C   UNL A   1      43.511  28.160  32.651  1.00  0.00     0.029 A 
ATOM     61  C   UNL A   1      43.066  29.037  33.629  1.00  0.00     0.049 A 
ATOM     62  H   UNL A   1      41.309  30.205  33.667  1.00  0.00     0.167 HD
ATOM     63  C   UNL A   1      43.204  30.243  35.791  1.00  0.00     0.074 A 
ATOM     64  C   UNL A   1      43.852  30.576  37.044  1.00  0.00     0.031 C 
ATOM     65  C   UNL A   1      43.697  29.368  34.881  1.00  0.00     0.031 A 
BRANCH  52  66
ATOM     66  C   UNL A   1      40.164  28.593  29.878  1.00  0.00    -0.014 A 
ATOM     67  C   UNL A   1      39.553  27.330  29.847  1.00  0.00     0.009 A 
ATOM     68  C   UNL A   1      40.693  29.120  28.689  1.00  0.00     0.009 A 
ATOM     69  C   UNL A   1      39.486  26.602  28.657  1.00  0.00     0.001 A 
ATOM     70  C   UNL A   1      40.602  28.402  27.494  1.00  0.00     0.001 A 
ATOM     71  C   UNL A   1      40.007  27.141  27.481  1.00  0.00     0.000 A 
ENDBRANCH  52  66
BRANCH  53  72
ATOM     72  C   UNL A   1      41.106  33.415  38.576  1.00  0.00    -0.014 A 
ATOM     73  C   UNL A   1      40.415  33.008  39.728  1.00  0.00     0.009 A 
ATOM     74  C   UNL A   1      41.876  34.587  38.626  1.00  0.00     0.009 A 
ATOM     75  C   UNL A   1      40.472  33.769  40.897  1.00  0.00     0.001 A 
ATOM     76  C   UNL A   1      41.953  35.333  39.805  1.00  0.00     0.001 A 
ATOM     77  C   UNL A   1      41.244  34.929  40.935  1.00  0.00     0.000 A 
ENDBRANCH  53  72
BRANCH  65  78
ATOM     78  C   UNL A   1      45.007  28.701  35.191  1.00  0.00    -0.014 A 
ATOM     79  C   UNL A   1      45.024  27.511  35.938  1.00  0.00     0.009 A 
ATOM     80  C   UNL A   1      46.226  29.299  34.837  1.00  0.00     0.009 A 
ATOM     81  C   UNL A   1      46.235  26.944  36.340  1.00  0.00     0.001 A 
ATOM     82  C   UNL A   1      47.436  28.713  35.216  1.00  0.00     0.001 A 
ATOM     83  C   UNL A   1      47.439  27.543  35.975  1.00  0.00     0.000 A 
ENDBRANCH  65  78
ENDBRANCH  39  40
ENDBRANCH  32  34
ENDBRANCH  31  32
ENDBRANCH  30  31
ENDBRANCH  29  30
ENDBRANCH  28  29
ENDBRANCH   1  28
TORSDOF 17
ENDMDL
MODEL 3
REMARK VINA RESULT:     -10.1      3.187      6.238
REMARK SMILES O=C(COc1ccc(Br)cc1/C=C1\C(=O)Nc2ccc(Br)cc21)OCCOCCOC(=O)c1ccc(-c2c3nc(c(-c4ccccc4)c4ccc([nH]4)c(-c4ccccc4)c4nc(c(-c5ccccc5)c5ccc2[nH]5)C=C4)C=C3)cc1
REMARK SMILES IDX 26 1 25 2 24 3 2 4 1 5 3 6 4 7 5 8 6 9 11 10 7 11 10 12 8 13
REMARK SMILES IDX 9 14 12 15 13 16 14 17 23 18 15 19 16 20 17 21 22 22 18 24
REMARK SMILES IDX 20 25 19 26 21 27 27 28 28 29 29 30 30 31 31 32 32 33 33 34
REMARK SMILES IDX 34 35 80 36 35 37 79 38 36 39 37 40 38 41 73 42 39 43 78 44
REMARK SMILES IDX 72 45 74 46 40 47 77 48 71 49 70 50 41 52 63 53 48 54 62 55
REMARK SMILES IDX 49 56 52 57 61 58 75 59 50 60 51 61 60 63 76 64 53 65 42 66
REMARK SMILES IDX 43 67 47 68 44 69 46 70 45 71 64 72 65 73 69 74 66 75 68 76
REMARK SMILES IDX 67 77 54 78 55 79 59 80 56 81 58 82 57 83
REMARK H PARENT 16 23 74 51 52 62
REMARK Flexibility Score: inf
ROOT
ATOM      1  C   UNL A   1      35.044  30.353  27.927  1.00  0.00     0.202 C 
ENDROOT
BRANCH   1   2
ATOM      2  C   UNL A   1      35.143  29.154  26.992  1.00  0.00     0.261 C 
BRANCH   2   3
ATOM      3  O   UNL A   1      33.868  28.518  26.820  1.00  0.00    -0.461 OA
BRANCH   3   4
ATOM      4  C   UNL A   1      33.676  27.535  25.901  1.00  0.00     0.344 C 
ATOM      5  O   UNL A   1      33.415  26.392  26.269  1.00  0.00    -0.248 OA
BRANCH   4   6
ATOM      6  C   UNL A   1      33.742  27.909  24.419  1.00  0.00     0.351 C 
BRANCH   6   7
ATOM      7  O   UNL A   1      33.084  27.068  23.465  1.00  0.00    -0.481 OA
BRANCH   7   8
ATOM      8  C   UNL A   1      31.783  27.446  23.234  1.00  0.00     0.127 A 
ATOM      9  C   UNL A   1      31.513  28.768  22.830  1.00  0.00     0.048 A 
ATOM     10  C   UNL A   1      30.747  26.503  23.399  1.00  0.00     0.018 A 
ATOM     11  C   UNL A   1      30.211  29.238  22.757  1.00  0.00     0.019 A 
ATOM     12  C   UNL A   1      29.446  27.024  23.332  1.00  0.00     0.027 A 
ATOM     13  C   UNL A   1      29.181  28.368  23.045  1.00  0.00     0.018 A 
ATOM     14  Br  UNL A   1      27.397  28.994  23.051  1.00  0.00    -0.051 Br
BRANCH  10  15
ATOM     15  C   UNL A   1      31.053  25.061  23.677  1.00  0.00     0.026 C 
ATOM     16  C   UNL A   1      30.934  24.332  24.809  1.00  0.00     0.050 C 
ATOM     17  C   UNL A   1      30.488  24.805  26.167  1.00  0.00     0.256 C 
ATOM     18  C   UNL A   1      31.707  23.103  25.076  1.00  0.00     0.012 A 
ATOM     19  O   UNL A   1      29.473  25.375  26.486  1.00  0.00    -0.269 OA
ATOM     20  N   UNL A   1      31.430  24.275  27.031  1.00  0.00    -0.321 N 
ATOM     21  C   UNL A   1      32.119  23.239  26.412  1.00  0.00     0.049 A 
ATOM     22  C   UNL A   1      31.979  21.932  24.394  1.00  0.00     0.026 A 
ATOM     23  H   UNL A   1      31.590  24.589  27.950  1.00  0.00     0.170 HD
ATOM     24  C   UNL A   1      32.947  22.344  27.049  1.00  0.00     0.028 A 
ATOM     25  C   UNL A   1      32.738  20.959  25.063  1.00  0.00     0.018 A 
ATOM     26  C   UNL A   1      33.264  21.181  26.353  1.00  0.00     0.018 A 
ATOM     27  Br  UNL A   1      33.002  19.261  24.267  1.00  0.00    -0.051 Br
ENDBRANCH  10  15
ENDBRANCH   7   8
ENDBRANCH   6   7
ENDBRANCH   4   6
ENDBRANCH   3   4
ENDBRANCH   2   3
ENDBRANCH   1   2
BRANCH   1  28
ATOM     28  O   UNL A   1      34.410  31.496  27.359  1.00  0.00    -0.374 OA
BRANCH  28  29
ATOM     29  C   UNL A   1      34.880  32.767  27.842  1.00  0.00     0.202 C 
BRANCH  29  30
ATOM     30  C   UNL A   1      34.111  33.337  29.042  1.00  0.00     0.261 C 
BRANCH  30  31
ATOM     31  O   UNL A   1      35.015  33.657  30.118  1.00  0.00    -0.460 OA
BRANCH  31  32
ATOM     32  C   UNL A   1      35.042  32.780  31.149  1.00  0.00     0.338 C 
ATOM     33  O   UNL A   1      34.132  32.519  31.917  1.00  0.00    -0.246 OA
BRANCH  32  34
ATOM     34  C   UNL A   1      36.287  31.980  31.072  1.00  0.00     0.060 A 
ATOM     35  C   UNL A   1      37.436  32.457  30.439  1.00  0.00     0.016 A 
ATOM     36  C   UNL A   1      36.281  30.707  31.661  1.00  0.00     0.016 A 
ATOM     37  C   UNL A   1      38.599  31.681  30.451  1.00  0.00     0.010 A 
ATOM     38  C   UNL A   1      37.440  29.932  31.671  1.00  0.00     0.010 A 
ATOM     39  C   UNL A   1      38.616  30.431  31.098  1.00  0.00    -0.014 A 
BRANCH  39  40
ATOM     40  C   UNL A   1      39.906  29.753  31.359  1.00  0.00     0.031 A 
ATOM     41  C   UNL A   1      40.413  28.641  30.497  1.00  0.00     0.074 A 
ATOM     42  C   UNL A   1      40.611  30.156  32.434  1.00  0.00     0.049 A 
ATOM     43  N   UNL A   1      41.567  28.026  30.556  1.00  0.00    -0.248 NA
ATOM     44  C   UNL A   1      39.520  28.152  29.438  1.00  0.00     0.031 C 
ATOM     45  C   UNL A   1      40.186  31.205  33.365  1.00  0.00     0.029 A 
ATOM     46  N   UNL A   1      41.826  29.750  32.920  1.00  0.00    -0.354 N 
ATOM     47  C   UNL A   1      41.552  27.092  29.530  1.00  0.00     0.074 A 
ATOM     48  C   UNL A   1      40.255  27.190  28.892  1.00  0.00     0.031 C 
ATOM     49  C   UNL A   1      41.141  31.385  34.287  1.00  0.00     0.029 A 
ATOM     50  C   UNL A   1      42.231  30.450  34.030  1.00  0.00     0.049 A 
ATOM     51  H   UNL A   1      42.356  29.027  32.513  1.00  0.00     0.167 HD
ATOM     52  C   UNL A   1      42.540  26.246  29.151  1.00  0.00     0.031 A 
ATOM     53  C   UNL A   1      43.362  30.365  34.756  1.00  0.00     0.031 A 
ATOM     54  C   UNL A   1      43.814  26.140  29.818  1.00  0.00     0.049 A 
ATOM     55  C   UNL A   1      44.426  29.394  34.335  1.00  0.00     0.074 A 
ATOM     56  C   UNL A   1      44.893  25.338  29.483  1.00  0.00     0.029 A 
ATOM     57  N   UNL A   1      44.175  26.839  30.959  1.00  0.00    -0.354 N 
ATOM     58  N   UNL A   1      44.434  28.580  33.308  1.00  0.00    -0.248 NA
ATOM     59  C   UNL A   1      45.641  29.341  35.158  1.00  0.00     0.031 C 
ATOM     60  C   UNL A   1      45.880  25.506  30.457  1.00  0.00     0.029 A 
ATOM     61  C   UNL A   1      45.447  26.463  31.361  1.00  0.00     0.049 A 
ATOM     62  H   UNL A   1      43.612  27.504  31.417  1.00  0.00     0.167 HD
ATOM     63  C   UNL A   1      45.661  27.932  33.348  1.00  0.00     0.074 A 
ATOM     64  C   UNL A   1      46.376  28.459  34.492  1.00  0.00     0.031 C 
ATOM     65  C   UNL A   1      46.147  26.988  32.506  1.00  0.00     0.031 A 
BRANCH  52  66
ATOM     66  C   UNL A   1      42.302  25.367  27.956  1.00  0.00    -0.014 A 
ATOM     67  C   UNL A   1      41.813  24.062  28.127  1.00  0.00     0.009 A 
ATOM     68  C   UNL A   1      42.672  25.789  26.669  1.00  0.00     0.009 A 
ATOM     69  C   UNL A   1      41.711  23.193  27.039  1.00  0.00     0.001 A 
ATOM     70  C   UNL A   1      42.544  24.926  25.577  1.00  0.00     0.001 A 
ATOM     71  C   UNL A   1      42.072  23.627  25.764  1.00  0.00     0.000 A 
ENDBRANCH  52  66
BRANCH  53  72
ATOM     72  C   UNL A   1      43.547  31.272  35.916  1.00  0.00    -0.014 A 
ATOM     73  C   UNL A   1      43.058  30.921  37.185  1.00  0.00     0.009 A 
ATOM     74  C   UNL A   1      44.147  32.528  35.745  1.00  0.00     0.009 A 
ATOM     75  C   UNL A   1      43.143  31.817  38.252  1.00  0.00     0.001 A 
ATOM     76  C   UNL A   1      44.255  33.413  36.821  1.00  0.00     0.001 A 
ATOM     77  C   UNL A   1      43.745  33.061  38.069  1.00  0.00     0.000 A 
ENDBRANCH  53  72
BRANCH  65  78
ATOM     78  C   UNL A   1      47.525  26.454  32.776  1.00  0.00    -0.014 A 
ATOM     79  C   UNL A   1      48.638  27.058  32.167  1.00  0.00     0.009 A 
ATOM     80  C   UNL A   1      47.716  25.296  33.545  1.00  0.00     0.009 A 
ATOM     81  C   UNL A   1      49.911  26.503  32.308  1.00  0.00     0.001 A 
ATOM     82  C   UNL A   1      48.995  24.759  33.707  1.00  0.00     0.001 A 
ATOM     83  C   UNL A   1      50.089  25.357  33.080  1.00  0.00     0.000 A 
ENDBRANCH  65  78
ENDBRANCH  39  40
ENDBRANCH  32  34
ENDBRANCH  31  32
ENDBRANCH  30  31
ENDBRANCH  29  30
ENDBRANCH  28  29
ENDBRANCH   1  28
TORSDOF 17
ENDMDL
