MODEL 1
REMARK VINA RESULT:     -12.1      0.000      0.000
REMARK SMILES Cc1ccc(C(=O)N2C[C@@H](C(=O)OCCOCCOC(=O)c3ccc(-c4c5nc(c(-c6ccccc6)c6ccc([nH]6)c(-c6ccccc6)c6nc(c(-c7ccccc7)c7ccc4[nH]7)C=C6)C=C5)cc3)C[C@H](C(=O)N3CCOCC3)C2)cc1F
REMARK SMILES IDX 16 1 15 2 14 3 13 4 11 5 12 6 10 7 8 8 9 9 80 10 71 11 70 12
REMARK SMILES IDX 6 13 7 14 5 15 1 16 2 17 3 18 82 19 4 20 81 21 83 22 72 23
REMARK SMILES IDX 73 24 74 25 75 26 79 27 76 28 78 29 77 30 17 31 18 32 19 33
REMARK SMILES IDX 20 34 21 35 22 36 23 37 69 38 24 39 68 40 25 41 26 42 27 43
REMARK SMILES IDX 62 44 28 45 67 46 61 47 63 48 29 49 66 50 60 51 59 52 30 54
REMARK SMILES IDX 52 55 37 56 51 57 38 58 41 59 50 60 64 61 39 62 40 63 49 65
REMARK SMILES IDX 65 66 42 67 31 68 32 69 36 70 33 71 35 72 34 73 53 74 54 75
REMARK SMILES IDX 58 76 55 77 57 78 56 79 43 80 44 81 48 82 45 83 47 84 46 85
REMARK H PARENT 63 53 41 64
REMARK Flexibility Score: inf
ROOT
ATOM      1  O   UNL A   1      40.813  21.902  25.574  1.00  0.00    -0.374 OA
ENDROOT
BRANCH   1   2
ATOM      2  C   UNL A   1      39.645  21.449  26.250  1.00  0.00     0.202 C 
BRANCH   2   3
ATOM      3  C   UNL A   1      38.317  22.146  25.932  1.00  0.00     0.261 C 
BRANCH   3   4
ATOM      4  O   UNL A   1      37.513  21.467  24.951  1.00  0.00    -0.463 OA
BRANCH   4   5
ATOM      5  C   UNL A   1      36.729  22.289  24.205  1.00  0.00     0.310 C 
ATOM      6  O   UNL A   1      37.146  23.157  23.448  1.00  0.00    -0.252 OA
BRANCH   5   7
ATOM      7  C   UNL A   1      35.253  22.045  24.385  1.00  0.00     0.119 C 
ATOM      8  N   UNL A   1      33.098  23.100  24.545  1.00  0.00    -0.337 N 
ATOM      9  C   UNL A   1      34.527  23.326  24.715  1.00  0.00     0.135 C 
ATOM     10  C   UNL A   1      32.490  22.040  25.356  1.00  0.00     0.133 C 
ATOM     11  C   UNL A   1      33.310  20.722  25.360  1.00  0.00     0.099 C 
ATOM     12  C   UNL A   1      34.828  20.945  25.363  1.00  0.00     0.032 C 
BRANCH   8  13
ATOM     13  C   UNL A   1      32.498  23.579  23.387  1.00  0.00     0.254 C 
ATOM     14  O   UNL A   1      32.632  23.029  22.298  1.00  0.00    -0.269 OA
BRANCH  13  15
ATOM     15  C   UNL A   1      31.820  24.899  23.449  1.00  0.00     0.042 A 
ATOM     16  C   UNL A   1      29.476  28.456  22.864  1.00  0.00     0.047 C 
ATOM     17  C   UNL A   1      30.327  27.251  23.123  1.00  0.00    -0.015 A 
ATOM     18  C   UNL A   1      31.648  27.189  22.666  1.00  0.00     0.007 A 
ATOM     19  C   UNL A   1      29.787  26.140  23.777  1.00  0.00     0.126 A 
ATOM     20  C   UNL A   1      32.391  26.017  22.825  1.00  0.00     0.014 A 
ATOM     21  C   UNL A   1      30.515  24.966  23.941  1.00  0.00     0.053 A 
ATOM     22  F   UNL A   1      28.521  26.182  24.219  1.00  0.00    -0.207 F 
ENDBRANCH  13  15
ENDBRANCH   8  13
BRANCH  11  23
ATOM     23  C   UNL A   1      32.702  19.730  24.350  1.00  0.00     0.227 C 
ATOM     24  O   UNL A   1      32.140  20.194  23.351  1.00  0.00    -0.275 OA
ATOM     25  N   UNL A   1      32.996  18.385  24.423  1.00  0.00    -0.338 N 
ATOM     26  C   UNL A   1      32.537  17.479  25.486  1.00  0.00     0.148 C 
ATOM     27  C   UNL A   1      33.205  17.670  23.161  1.00  0.00     0.148 C 
ATOM     28  C   UNL A   1      33.499  16.291  25.636  1.00  0.00     0.181 C 
ATOM     29  C   UNL A   1      34.145  16.479  23.373  1.00  0.00     0.181 C 
ATOM     30  O   UNL A   1      33.634  15.596  24.384  1.00  0.00    -0.378 OA
ENDBRANCH  11  23
ENDBRANCH   5   7
ENDBRANCH   4   5
ENDBRANCH   3   4
ENDBRANCH   2   3
ENDBRANCH   1   2
BRANCH   1  31
ATOM     31  C   UNL A   1      42.071  21.379  25.994  1.00  0.00     0.202 C 
BRANCH  31  32
ATOM     32  C   UNL A   1      43.335  22.093  25.499  1.00  0.00     0.261 C 
BRANCH  32  33
ATOM     33  O   UNL A   1      43.030  23.302  24.774  1.00  0.00    -0.460 OA
BRANCH  33  34
ATOM     34  C   UNL A   1      43.801  24.364  25.112  1.00  0.00     0.338 C 
ATOM     35  O   UNL A   1      44.897  24.657  24.667  1.00  0.00    -0.246 OA
BRANCH  34  36
ATOM     36  C   UNL A   1      43.057  25.276  25.998  1.00  0.00     0.060 A 
ATOM     37  C   UNL A   1      43.627  26.526  26.268  1.00  0.00     0.016 A 
ATOM     38  C   UNL A   1      41.893  24.868  26.654  1.00  0.00     0.016 A 
ATOM     39  C   UNL A   1      43.059  27.358  27.229  1.00  0.00     0.010 A 
ATOM     40  C   UNL A   1      41.330  25.702  27.628  1.00  0.00     0.010 A 
ATOM     41  C   UNL A   1      41.930  26.935  27.944  1.00  0.00    -0.014 A 
BRANCH  41  42
ATOM     42  C   UNL A   1      41.473  27.736  29.105  1.00  0.00     0.031 A 
ATOM     43  C   UNL A   1      42.232  27.660  30.401  1.00  0.00     0.074 A 
ATOM     44  C   UNL A   1      40.431  28.577  28.986  1.00  0.00     0.049 A 
ATOM     45  N   UNL A   1      42.043  28.327  31.512  1.00  0.00    -0.248 NA
ATOM     46  C   UNL A   1      43.357  26.711  30.451  1.00  0.00     0.031 C 
ATOM     47  C   UNL A   1      39.634  28.772  27.776  1.00  0.00     0.029 A 
ATOM     48  N   UNL A   1      39.872  29.435  29.901  1.00  0.00    -0.354 N 
ATOM     49  C   UNL A   1      43.024  27.885  32.391  1.00  0.00     0.074 A 
ATOM     50  C   UNL A   1      43.787  26.869  31.695  1.00  0.00     0.031 C 
ATOM     51  C   UNL A   1      38.691  29.698  28.021  1.00  0.00     0.029 A 
ATOM     52  C   UNL A   1      38.806  30.145  29.407  1.00  0.00     0.049 A 
ATOM     53  H   UNL A   1      40.205  29.532  30.822  1.00  0.00     0.167 HD
ATOM     54  C   UNL A   1      43.276  28.291  33.658  1.00  0.00     0.031 A 
ATOM     55  C   UNL A   1      38.010  31.050  30.006  1.00  0.00     0.031 A 
ATOM     56  C   UNL A   1      42.512  29.285  34.362  1.00  0.00     0.049 A 
ATOM     57  C   UNL A   1      38.271  31.438  31.436  1.00  0.00     0.074 A 
ATOM     58  C   UNL A   1      42.701  29.771  35.645  1.00  0.00     0.029 A 
ATOM     59  N   UNL A   1      41.409  29.943  33.844  1.00  0.00    -0.354 N 
ATOM     60  N   UNL A   1      39.222  31.033  32.243  1.00  0.00    -0.248 NA
ATOM     61  C   UNL A   1      37.352  32.419  32.032  1.00  0.00     0.031 C 
ATOM     62  C   UNL A   1      41.680  30.687  35.920  1.00  0.00     0.029 A 
ATOM     63  C   UNL A   1      40.888  30.810  34.790  1.00  0.00     0.049 A 
ATOM     64  H   UNL A   1      41.047  29.813  32.937  1.00  0.00     0.167 HD
ATOM     65  C   UNL A   1      39.029  31.725  33.432  1.00  0.00     0.074 A 
ATOM     66  C   UNL A   1      37.882  32.587  33.235  1.00  0.00     0.031 C 
ATOM     67  C   UNL A   1      39.740  31.653  34.584  1.00  0.00     0.031 A 
BRANCH  54  68
ATOM     68  C   UNL A   1      44.418  27.630  34.377  1.00  0.00    -0.014 A 
ATOM     69  C   UNL A   1      45.715  28.164  34.328  1.00  0.00     0.009 A 
ATOM     70  C   UNL A   1      44.186  26.473  35.138  1.00  0.00     0.009 A 
ATOM     71  C   UNL A   1      46.764  27.535  35.003  1.00  0.00     0.001 A 
ATOM     72  C   UNL A   1      45.232  25.860  35.831  1.00  0.00     0.001 A 
ATOM     73  C   UNL A   1      46.521  26.387  35.756  1.00  0.00     0.000 A 
ENDBRANCH  54  68
BRANCH  55  74
ATOM     74  C   UNL A   1      36.880  31.656  29.257  1.00  0.00    -0.014 A 
ATOM     75  C   UNL A   1      37.001  32.931  28.684  1.00  0.00     0.009 A 
ATOM     76  C   UNL A   1      35.667  30.964  29.127  1.00  0.00     0.009 A 
ATOM     77  C   UNL A   1      35.920  33.509  28.016  1.00  0.00     0.001 A 
ATOM     78  C   UNL A   1      34.596  31.534  28.437  1.00  0.00     0.001 A 
ATOM     79  C   UNL A   1      34.720  32.809  27.888  1.00  0.00     0.000 A 
ENDBRANCH  55  74
BRANCH  67  80
ATOM     80  C   UNL A   1      39.306  32.548  35.711  1.00  0.00    -0.014 A 
ATOM     81  C   UNL A   1      39.819  33.847  35.847  1.00  0.00     0.009 A 
ATOM     82  C   UNL A   1      38.357  32.091  36.639  1.00  0.00     0.009 A 
ATOM     83  C   UNL A   1      39.419  34.657  36.912  1.00  0.00     0.001 A 
ATOM     84  C   UNL A   1      37.939  32.911  37.688  1.00  0.00     0.001 A 
ATOM     85  C   UNL A   1      38.479  34.189  37.830  1.00  0.00     0.000 A 
ENDBRANCH  67  80
ENDBRANCH  41  42
ENDBRANCH  34  36
ENDBRANCH  33  34
ENDBRANCH  32  33
ENDBRANCH  31  32
ENDBRANCH   1  31
TORSDOF 17
ENDMDL
MODEL 2
REMARK VINA RESULT:     -11.7      0.513      5.639
REMARK SMILES Cc1ccc(C(=O)N2C[C@@H](C(=O)OCCOCCOC(=O)c3ccc(-c4c5nc(c(-c6ccccc6)c6ccc([nH]6)c(-c6ccccc6)c6nc(c(-c7ccccc7)c7ccc4[nH]7)C=C6)C=C5)cc3)C[C@H](C(=O)N3CCOCC3)C2)cc1F
REMARK SMILES IDX 16 1 15 2 14 3 13 4 11 5 12 6 10 7 8 8 9 9 80 10 71 11 70 12
REMARK SMILES IDX 6 13 7 14 5 15 1 16 2 17 3 18 82 19 4 20 81 21 83 22 72 23
REMARK SMILES IDX 73 24 74 25 75 26 79 27 76 28 78 29 77 30 17 31 18 32 19 33
REMARK SMILES IDX 20 34 21 35 22 36 23 37 69 38 24 39 68 40 25 41 26 42 27 43
REMARK SMILES IDX 62 44 28 45 67 46 61 47 63 48 29 49 66 50 60 51 59 52 30 54
REMARK SMILES IDX 52 55 37 56 51 57 38 58 41 59 50 60 64 61 39 62 40 63 49 65
REMARK SMILES IDX 65 66 42 67 31 68 32 69 36 70 33 71 35 72 34 73 53 74 54 75
REMARK SMILES IDX 58 76 55 77 57 78 56 79 43 80 44 81 48 82 45 83 47 84 46 85
REMARK H PARENT 63 53 41 64
REMARK Flexibility Score: inf
ROOT
ATOM      1  O   UNL A   1      40.926  21.638  26.627  1.00  0.00    -0.374 OA
ENDROOT
BRANCH   1   2
ATOM      2  C   UNL A   1      39.729  21.072  26.106  1.00  0.00     0.202 C 
BRANCH   2   3
ATOM      3  C   UNL A   1      38.538  22.008  25.865  1.00  0.00     0.261 C 
BRANCH   3   4
ATOM      4  O   UNL A   1      37.498  21.442  25.048  1.00  0.00    -0.463 OA
BRANCH   4   5
ATOM      5  C   UNL A   1      36.693  22.361  24.452  1.00  0.00     0.310 C 
ATOM      6  O   UNL A   1      37.089  23.332  23.819  1.00  0.00    -0.252 OA
BRANCH   5   7
ATOM      7  C   UNL A   1      35.223  22.087  24.635  1.00  0.00     0.119 C 
ATOM      8  N   UNL A   1      33.058  23.102  24.890  1.00  0.00    -0.337 N 
ATOM      9  C   UNL A   1      34.486  23.334  25.056  1.00  0.00     0.135 C 
ATOM     10  C   UNL A   1      32.474  21.984  25.638  1.00  0.00     0.133 C 
ATOM     11  C   UNL A   1      33.309  20.679  25.547  1.00  0.00     0.099 C 
ATOM     12  C   UNL A   1      34.825  20.921  25.544  1.00  0.00     0.032 C 
BRANCH   8  13
ATOM     13  C   UNL A   1      32.437  23.647  23.772  1.00  0.00     0.254 C 
ATOM     14  O   UNL A   1      32.524  23.141  22.657  1.00  0.00    -0.269 OA
BRANCH  13  15
ATOM     15  C   UNL A   1      31.796  24.979  23.912  1.00  0.00     0.042 A 
ATOM     16  C   UNL A   1      29.912  28.813  23.424  1.00  0.00     0.047 C 
ATOM     17  C   UNL A   1      30.577  27.493  23.666  1.00  0.00    -0.015 A 
ATOM     18  C   UNL A   1      31.968  27.396  23.775  1.00  0.00     0.007 A 
ATOM     19  C   UNL A   1      29.812  26.324  23.723  1.00  0.00     0.126 A 
ATOM     20  C   UNL A   1      32.577  26.144  23.896  1.00  0.00     0.014 A 
ATOM     21  C   UNL A   1      30.405  25.071  23.839  1.00  0.00     0.053 A 
ATOM     22  F   UNL A   1      28.477  26.400  23.616  1.00  0.00    -0.207 F 
ENDBRANCH  13  15
ENDBRANCH   8  13
BRANCH  11  23
ATOM     23  C   UNL A   1      32.700  19.747  24.483  1.00  0.00     0.227 C 
ATOM     24  O   UNL A   1      32.150  20.267  23.505  1.00  0.00    -0.275 OA
ATOM     25  N   UNL A   1      32.981  18.396  24.488  1.00  0.00    -0.338 N 
ATOM     26  C   UNL A   1      32.506  17.442  25.500  1.00  0.00     0.148 C 
ATOM     27  C   UNL A   1      33.193  17.745  23.193  1.00  0.00     0.148 C 
ATOM     28  C   UNL A   1      33.454  16.238  25.596  1.00  0.00     0.181 C 
ATOM     29  C   UNL A   1      34.120  16.536  23.350  1.00  0.00     0.181 C 
ATOM     30  O   UNL A   1      33.592  15.607  24.311  1.00  0.00    -0.378 OA
ENDBRANCH  11  23
ENDBRANCH   5   7
ENDBRANCH   4   5
ENDBRANCH   3   4
ENDBRANCH   2   3
ENDBRANCH   1   2
BRANCH   1  31
ATOM     31  C   UNL A   1      42.165  21.040  26.252  1.00  0.00     0.202 C 
BRANCH  31  32
ATOM     32  C   UNL A   1      43.179  21.918  25.509  1.00  0.00     0.261 C 
BRANCH  32  33
ATOM     33  O   UNL A   1      42.638  23.213  25.175  1.00  0.00    -0.460 OA
BRANCH  33  34
ATOM     34  C   UNL A   1      43.459  24.252  25.463  1.00  0.00     0.338 C 
ATOM     35  O   UNL A   1      44.535  24.511  24.953  1.00  0.00    -0.246 OA
BRANCH  34  36
ATOM     36  C   UNL A   1      42.796  25.187  26.389  1.00  0.00     0.060 A 
ATOM     37  C   UNL A   1      43.167  26.536  26.323  1.00  0.00     0.016 A 
ATOM     38  C   UNL A   1      41.930  24.735  27.387  1.00  0.00     0.016 A 
ATOM     39  C   UNL A   1      42.705  27.433  27.283  1.00  0.00     0.010 A 
ATOM     40  C   UNL A   1      41.475  25.637  28.357  1.00  0.00     0.010 A 
ATOM     41  C   UNL A   1      41.889  26.982  28.329  1.00  0.00    -0.014 A 
BRANCH  41  42
ATOM     42  C   UNL A   1      41.588  27.901  29.452  1.00  0.00     0.031 A 
ATOM     43  C   UNL A   1      40.393  28.811  29.363  1.00  0.00     0.074 A 
ATOM     44  C   UNL A   1      42.332  27.879  30.572  1.00  0.00     0.049 A 
ATOM     45  N   UNL A   1      39.914  29.639  30.258  1.00  0.00    -0.248 NA
ATOM     46  C   UNL A   1      39.634  28.781  28.103  1.00  0.00     0.031 C 
ATOM     47  C   UNL A   1      43.492  27.018  30.800  1.00  0.00     0.029 A 
ATOM     48  N   UNL A   1      42.210  28.597  31.735  1.00  0.00    -0.354 N 
ATOM     49  C   UNL A   1      38.798  30.224  29.673  1.00  0.00     0.074 A 
ATOM     50  C   UNL A   1      38.689  29.680  28.335  1.00  0.00     0.031 C 
ATOM     51  C   UNL A   1      43.973  27.255  32.032  1.00  0.00     0.029 A 
ATOM     52  C   UNL A   1      43.168  28.293  32.671  1.00  0.00     0.049 A 
ATOM     53  H   UNL A   1      41.503  29.266  31.884  1.00  0.00     0.167 HD
ATOM     54  C   UNL A   1      37.935  31.125  30.201  1.00  0.00     0.031 A 
ATOM     55  C   UNL A   1      43.375  28.800  33.900  1.00  0.00     0.031 A 
ATOM     56  C   UNL A   1      38.047  31.683  31.522  1.00  0.00     0.049 A 
ATOM     57  C   UNL A   1      42.439  29.847  34.441  1.00  0.00     0.074 A 
ATOM     58  C   UNL A   1      37.213  32.593  32.148  1.00  0.00     0.029 A 
ATOM     59  N   UNL A   1      39.062  31.388  32.418  1.00  0.00    -0.354 N 
ATOM     60  N   UNL A   1      41.371  30.366  33.887  1.00  0.00    -0.248 NA
ATOM     61  C   UNL A   1      42.736  30.367  35.783  1.00  0.00     0.031 C 
ATOM     62  C   UNL A   1      37.751  32.886  33.406  1.00  0.00     0.029 A 
ATOM     63  C   UNL A   1      38.891  32.119  33.582  1.00  0.00     0.049 A 
ATOM     64  H   UNL A   1      39.796  30.753  32.252  1.00  0.00     0.167 HD
ATOM     65  C   UNL A   1      40.856  31.257  34.820  1.00  0.00     0.074 A 
ATOM     66  C   UNL A   1      41.719  31.194  35.982  1.00  0.00     0.031 C 
ATOM     67  C   UNL A   1      39.764  32.055  34.725  1.00  0.00     0.031 A 
BRANCH  54  68
ATOM     68  C   UNL A   1      36.803  31.585  29.328  1.00  0.00    -0.014 A 
ATOM     69  C   UNL A   1      35.675  30.777  29.113  1.00  0.00     0.009 A 
ATOM     70  C   UNL A   1      36.852  32.856  28.735  1.00  0.00     0.009 A 
ATOM     71  C   UNL A   1      34.632  31.222  28.298  1.00  0.00     0.001 A 
ATOM     72  C   UNL A   1      35.797  33.308  27.940  1.00  0.00     0.001 A 
ATOM     73  C   UNL A   1      34.692  32.487  27.716  1.00  0.00     0.000 A 
ENDBRANCH  54  68
BRANCH  55  74
ATOM     74  C   UNL A   1      44.524  28.327  34.713  1.00  0.00    -0.014 A 
ATOM     75  C   UNL A   1      45.768  28.972  34.641  1.00  0.00     0.009 A 
ATOM     76  C   UNL A   1      44.384  27.213  35.555  1.00  0.00     0.009 A 
ATOM     77  C   UNL A   1      46.854  28.496  35.378  1.00  0.00     0.001 A 
ATOM     78  C   UNL A   1      45.464  26.755  36.311  1.00  0.00     0.001 A 
ATOM     79  C   UNL A   1      46.701  27.392  36.216  1.00  0.00     0.000 A 
ENDBRANCH  55  74
BRANCH  67  80
ATOM     80  C   UNL A   1      39.434  32.906  35.918  1.00  0.00    -0.014 A 
ATOM     81  C   UNL A   1      38.708  32.389  37.002  1.00  0.00     0.009 A 
ATOM     82  C   UNL A   1      39.870  34.239  35.966  1.00  0.00     0.009 A 
ATOM     83  C   UNL A   1      38.393  33.201  38.094  1.00  0.00     0.001 A 
ATOM     84  C   UNL A   1      39.577  35.042  37.069  1.00  0.00     0.001 A 
ATOM     85  C   UNL A   1      38.829  34.526  38.127  1.00  0.00     0.000 A 
ENDBRANCH  67  80
ENDBRANCH  41  42
ENDBRANCH  34  36
ENDBRANCH  33  34
ENDBRANCH  32  33
ENDBRANCH  31  32
ENDBRANCH   1  31
TORSDOF 17
ENDMDL
MODEL 3
REMARK VINA RESULT:     -11.7      4.701     10.192
REMARK SMILES Cc1ccc(C(=O)N2C[C@@H](C(=O)OCCOCCOC(=O)c3ccc(-c4c5nc(c(-c6ccccc6)c6ccc([nH]6)c(-c6ccccc6)c6nc(c(-c7ccccc7)c7ccc4[nH]7)C=C6)C=C5)cc3)C[C@H](C(=O)N3CCOCC3)C2)cc1F
REMARK SMILES IDX 16 1 15 2 14 3 13 4 11 5 12 6 10 7 8 8 9 9 80 10 71 11 70 12
REMARK SMILES IDX 6 13 7 14 5 15 1 16 2 17 3 18 82 19 4 20 81 21 83 22 72 23
REMARK SMILES IDX 73 24 74 25 75 26 79 27 76 28 78 29 77 30 17 31 18 32 19 33
REMARK SMILES IDX 20 34 21 35 22 36 23 37 69 38 24 39 68 40 25 41 26 42 27 43
REMARK SMILES IDX 62 44 28 45 67 46 61 47 63 48 29 49 66 50 60 51 59 52 30 54
REMARK SMILES IDX 52 55 37 56 51 57 38 58 41 59 50 60 64 61 39 62 40 63 49 65
REMARK SMILES IDX 65 66 42 67 31 68 32 69 36 70 33 71 35 72 34 73 53 74 54 75
REMARK SMILES IDX 58 76 55 77 57 78 56 79 43 80 44 81 48 82 45 83 47 84 46 85
REMARK H PARENT 63 53 41 64
REMARK Flexibility Score: inf
ROOT
ATOM      1  O   UNL A   1      33.604  32.543  28.921  1.00  0.00    -0.374 OA
ENDROOT
BRANCH   1   2
ATOM      2  C   UNL A   1      34.148  32.056  27.699  1.00  0.00     0.202 C 
BRANCH   2   3
ATOM      3  C   UNL A   1      33.895  30.589  27.334  1.00  0.00     0.261 C 
BRANCH   3   4
ATOM      4  O   UNL A   1      32.623  30.349  26.705  1.00  0.00    -0.463 OA
BRANCH   4   5
ATOM      5  C   UNL A   1      32.119  29.105  26.922  1.00  0.00     0.310 C 
ATOM      6  O   UNL A   1      32.039  28.563  28.018  1.00  0.00    -0.252 OA
BRANCH   5   7
ATOM      7  C   UNL A   1      31.647  28.417  25.668  1.00  0.00     0.119 C 
ATOM      8  N   UNL A   1      31.628  26.335  24.464  1.00  0.00    -0.337 N 
ATOM      9  C   UNL A   1      32.348  27.094  25.477  1.00  0.00     0.135 C 
ATOM     10  C   UNL A   1      31.498  26.948  23.138  1.00  0.00     0.133 C 
ATOM     11  C   UNL A   1      31.068  28.438  23.190  1.00  0.00     0.099 C 
ATOM     12  C   UNL A   1      31.685  29.215  24.361  1.00  0.00     0.032 C 
BRANCH   8  13
ATOM     13  C   UNL A   1      30.782  25.319  24.894  1.00  0.00     0.254 C 
ATOM     14  O   UNL A   1      29.715  25.544  25.457  1.00  0.00    -0.269 OA
BRANCH  13  15
ATOM     15  C   UNL A   1      31.279  23.922  24.821  1.00  0.00     0.042 A 
ATOM     16  C   UNL A   1      33.517  20.262  24.527  1.00  0.00     0.047 C 
ATOM     17  C   UNL A   1      32.675  21.497  24.625  1.00  0.00    -0.015 A 
ATOM     18  C   UNL A   1      32.104  22.073  23.484  1.00  0.00     0.007 A 
ATOM     19  C   UNL A   1      32.501  22.130  25.860  1.00  0.00     0.126 A 
ATOM     20  C   UNL A   1      31.410  23.281  23.581  1.00  0.00     0.014 A 
ATOM     21  C   UNL A   1      31.815  23.335  25.970  1.00  0.00     0.053 A 
ATOM     22  F   UNL A   1      33.045  21.593  26.962  1.00  0.00    -0.207 F 
ENDBRANCH  13  15
ENDBRANCH   8  13
BRANCH  11  23
ATOM     23  C   UNL A   1      29.553  28.550  22.936  1.00  0.00     0.227 C 
ATOM     24  O   UNL A   1      28.855  27.551  23.149  1.00  0.00    -0.275 OA
ATOM     25  N   UNL A   1      28.964  29.780  22.729  1.00  0.00    -0.338 N 
ATOM     26  C   UNL A   1      29.157  30.616  21.536  1.00  0.00     0.148 C 
ATOM     27  C   UNL A   1      27.653  30.013  23.342  1.00  0.00     0.148 C 
ATOM     28  C   UNL A   1      28.918  32.097  21.868  1.00  0.00     0.181 C 
ATOM     29  C   UNL A   1      27.454  31.505  23.624  1.00  0.00     0.181 C 
ATOM     30  O   UNL A   1      27.603  32.279  22.423  1.00  0.00    -0.378 OA
ENDBRANCH  11  23
ENDBRANCH   5   7
ENDBRANCH   4   5
ENDBRANCH   3   4
ENDBRANCH   2   3
ENDBRANCH   1   2
BRANCH   1  31
ATOM     31  C   UNL A   1      34.193  33.706  29.498  1.00  0.00     0.202 C 
BRANCH  31  32
ATOM     32  C   UNL A   1      34.458  33.691  31.008  1.00  0.00     0.261 C 
BRANCH  32  33
ATOM     33  O   UNL A   1      34.537  32.350  31.534  1.00  0.00    -0.460 OA
BRANCH  33  34
ATOM     34  C   UNL A   1      35.590  32.136  32.360  1.00  0.00     0.338 C 
ATOM     35  O   UNL A   1      35.667  32.396  33.548  1.00  0.00    -0.246 OA
BRANCH  34  36
ATOM     36  C   UNL A   1      36.630  31.352  31.670  1.00  0.00     0.060 A 
ATOM     37  C   UNL A   1      37.733  30.934  32.424  1.00  0.00     0.016 A 
ATOM     38  C   UNL A   1      36.592  31.145  30.289  1.00  0.00     0.016 A 
ATOM     39  C   UNL A   1      38.824  30.342  31.793  1.00  0.00     0.010 A 
ATOM     40  C   UNL A   1      37.696  30.560  29.656  1.00  0.00     0.010 A 
ATOM     41  C   UNL A   1      38.830  30.188  30.401  1.00  0.00    -0.014 A 
BRANCH  41  42
ATOM     42  C   UNL A   1      40.081  29.758  29.731  1.00  0.00     0.031 A 
ATOM     43  C   UNL A   1      40.140  28.408  29.071  1.00  0.00     0.074 A 
ATOM     44  C   UNL A   1      41.134  30.590  29.652  1.00  0.00     0.049 A 
ATOM     45  N   UNL A   1      41.110  27.868  28.375  1.00  0.00    -0.248 NA
ATOM     46  C   UNL A   1      38.949  27.555  29.208  1.00  0.00     0.031 C 
ATOM     47  C   UNL A   1      41.192  31.938  30.217  1.00  0.00     0.029 A 
ATOM     48  N   UNL A   1      42.357  30.423  29.051  1.00  0.00    -0.354 N 
ATOM     49  C   UNL A   1      40.645  26.618  27.987  1.00  0.00     0.074 A 
ATOM     50  C   UNL A   1      39.321  26.465  28.552  1.00  0.00     0.031 C 
ATOM     51  C   UNL A   1      42.389  32.478  29.929  1.00  0.00     0.029 A 
ATOM     52  C   UNL A   1      43.185  31.510  29.179  1.00  0.00     0.049 A 
ATOM     53  H   UNL A   1      42.615  29.601  28.574  1.00  0.00     0.167 HD
ATOM     54  C   UNL A   1      41.259  25.683  27.223  1.00  0.00     0.031 A 
ATOM     55  C   UNL A   1      44.445  31.701  28.744  1.00  0.00     0.031 A 
ATOM     56  C   UNL A   1      42.581  25.819  26.674  1.00  0.00     0.049 A 
ATOM     57  C   UNL A   1      45.129  30.621  27.951  1.00  0.00     0.074 A 
ATOM     58  C   UNL A   1      43.281  24.929  25.877  1.00  0.00     0.029 A 
ATOM     59  N   UNL A   1      43.407  26.914  26.870  1.00  0.00    -0.354 N 
ATOM     60  N   UNL A   1      44.665  29.457  27.567  1.00  0.00    -0.248 NA
ATOM     61  C   UNL A   1      46.510  30.891  27.523  1.00  0.00     0.031 C 
ATOM     62  C   UNL A   1      44.550  25.466  25.632  1.00  0.00     0.029 A 
ATOM     63  C   UNL A   1      44.620  26.712  26.233  1.00  0.00     0.049 A 
ATOM     64  H   UNL A   1      43.167  27.717  27.386  1.00  0.00     0.167 HD
ATOM     65  C   UNL A   1      45.687  28.865  26.835  1.00  0.00     0.074 A 
ATOM     66  C   UNL A   1      46.788  29.806  26.814  1.00  0.00     0.031 C 
ATOM     67  C   UNL A   1      45.710  27.651  26.231  1.00  0.00     0.031 A 
BRANCH  54  68
ATOM     68  C   UNL A   1      40.508  24.408  26.960  1.00  0.00    -0.014 A 
ATOM     69  C   UNL A   1      41.018  23.166  27.369  1.00  0.00     0.009 A 
ATOM     70  C   UNL A   1      39.259  24.454  26.322  1.00  0.00     0.009 A 
ATOM     71  C   UNL A   1      40.305  21.992  27.116  1.00  0.00     0.001 A 
ATOM     72  C   UNL A   1      38.538  23.281  26.092  1.00  0.00     0.001 A 
ATOM     73  C   UNL A   1      39.065  22.051  26.482  1.00  0.00     0.000 A 
ENDBRANCH  54  68
BRANCH  55  74
ATOM     74  C   UNL A   1      45.151  32.970  29.052  1.00  0.00    -0.014 A 
ATOM     75  C   UNL A   1      45.924  33.097  30.216  1.00  0.00     0.009 A 
ATOM     76  C   UNL A   1      45.040  34.069  28.186  1.00  0.00     0.009 A 
ATOM     77  C   UNL A   1      46.553  34.307  30.517  1.00  0.00     0.001 A 
ATOM     78  C   UNL A   1      45.689  35.269  28.477  1.00  0.00     0.001 A 
ATOM     79  C   UNL A   1      46.439  35.391  29.646  1.00  0.00     0.000 A 
ENDBRANCH  55  74
BRANCH  67  80
ATOM     80  C   UNL A   1      46.961  27.285  25.482  1.00  0.00    -0.014 A 
ATOM     81  C   UNL A   1      47.147  27.672  24.146  1.00  0.00     0.009 A 
ATOM     82  C   UNL A   1      47.973  26.559  26.128  1.00  0.00     0.009 A 
ATOM     83  C   UNL A   1      48.307  27.305  23.460  1.00  0.00     0.001 A 
ATOM     84  C   UNL A   1      49.143  26.215  25.448  1.00  0.00     0.001 A 
ATOM     85  C   UNL A   1      49.304  26.579  24.112  1.00  0.00     0.000 A 
ENDBRANCH  67  80
ENDBRANCH  41  42
ENDBRANCH  34  36
ENDBRANCH  33  34
ENDBRANCH  32  33
ENDBRANCH  31  32
ENDBRANCH   1  31
TORSDOF 17
ENDMDL
