MODEL 1
REMARK VINA RESULT:     -10.3      0.000      0.000
REMARK SMILES COc1ccc(/C=C/c2ncc(C(=O)OCCOCCOC(=O)c3ccc(-c4c5nc(c(-c6ccccc6)c6ccc([nH]6)c(-c6ccccc6)c6nc(c(-c7ccccc7)c7ccc4[nH]7)C=C6)C=C5)cc3)s2)cc1O
REMARK SMILES IDX 17 1 16 2 15 3 13 4 14 5 12 6 9 7 10 8 72 9 11 10 8 11 7 12
REMARK SMILES IDX 6 13 3 14 4 15 74 16 5 17 73 18 2 19 1 20 75 21 18 23 19 24
REMARK SMILES IDX 20 25 21 26 22 27 23 28 24 29 25 30 71 31 26 32 70 33 27 34
REMARK SMILES IDX 28 35 29 36 64 37 30 38 69 39 63 40 65 41 31 42 68 43 62 44
REMARK SMILES IDX 61 45 32 47 54 48 39 49 53 50 40 51 43 52 52 53 66 54 41 55
REMARK SMILES IDX 42 56 51 58 67 59 44 60 33 61 34 62 38 63 35 64 37 65 36 66
REMARK SMILES IDX 55 67 56 68 60 69 57 70 59 71 58 72 45 73 46 74 50 75 47 76
REMARK SMILES IDX 49 77 48 78
REMARK H PARENT 75 22 65 46 43 57
REMARK Flexibility Score: inf
ROOT
ATOM      1  C   UNL A   1      33.558  35.480  29.267  1.00  0.00     0.202 C 
ENDROOT
BRANCH   1   2
ATOM      2  C   UNL A   1      34.266  34.548  28.281  1.00  0.00     0.261 C 
BRANCH   2   3
ATOM      3  O   UNL A   1      33.990  33.177  28.619  1.00  0.00    -0.459 OA
BRANCH   3   4
ATOM      4  C   UNL A   1      33.121  32.532  27.787  1.00  0.00     0.350 C 
ATOM      5  O   UNL A   1      32.142  33.054  27.268  1.00  0.00    -0.245 OA
BRANCH   4   6
ATOM      6  C   UNL A   1      33.586  31.190  27.545  1.00  0.00     0.132 A 
ATOM      7  C   UNL A   1      33.742  28.834  26.914  1.00  0.00     0.116 A 
ATOM      8  N   UNL A   1      34.926  29.289  27.283  1.00  0.00    -0.244 NA
ATOM      9  S   UNL A   1      32.480  30.013  26.985  1.00  0.00    -0.107 S 
ATOM     10  C   UNL A   1      34.843  30.631  27.622  1.00  0.00     0.139 A 
BRANCH   7  11
ATOM     11  C   UNL A   1      33.397  27.516  26.502  1.00  0.00     0.040 C 
ATOM     12  C   UNL A   1      34.003  26.927  25.458  1.00  0.00     0.011 C 
BRANCH  12  13
ATOM     13  C   UNL A   1      33.799  25.514  25.096  1.00  0.00    -0.022 A 
ATOM     14  C   UNL A   1      33.550  22.809  24.297  1.00  0.00     0.160 A 
ATOM     15  C   UNL A   1      33.500  23.163  25.648  1.00  0.00     0.051 A 
ATOM     16  C   UNL A   1      33.728  23.820  23.352  1.00  0.00     0.158 A 
ATOM     17  C   UNL A   1      33.616  24.501  26.045  1.00  0.00     0.012 A 
ATOM     18  C   UNL A   1      33.820  25.160  23.741  1.00  0.00     0.058 A 
BRANCH  14  19
ATOM     19  O   UNL A   1      33.479  21.465  24.059  1.00  0.00    -0.493 OA
ATOM     20  C   UNL A   1      33.475  20.603  25.192  1.00  0.00     0.278 C 
ENDBRANCH  14  19
BRANCH  16  21
ATOM     21  O   UNL A   1      33.909  23.573  22.021  1.00  0.00    -0.504 OA
ATOM     22  H   UNL A   1      34.544  22.942  21.743  1.00  0.00     0.293 HD
ENDBRANCH  16  21
ENDBRANCH  12  13
ENDBRANCH   7  11
ENDBRANCH   4   6
ENDBRANCH   3   4
ENDBRANCH   2   3
ENDBRANCH   1   2
BRANCH   1  23
ATOM     23  O   UNL A   1      33.286  34.880  30.534  1.00  0.00    -0.374 OA
BRANCH  23  24
ATOM     24  C   UNL A   1      34.389  34.797  31.441  1.00  0.00     0.202 C 
BRANCH  24  25
ATOM     25  C   UNL A   1      34.137  33.911  32.666  1.00  0.00     0.261 C 
BRANCH  25  26
ATOM     26  O   UNL A   1      34.747  32.618  32.490  1.00  0.00    -0.460 OA
BRANCH  26  27
ATOM     27  C   UNL A   1      35.912  32.438  33.155  1.00  0.00     0.338 C 
ATOM     28  O   UNL A   1      36.147  32.706  34.321  1.00  0.00    -0.246 OA
BRANCH  27  29
ATOM     29  C   UNL A   1      36.861  31.687  32.305  1.00  0.00     0.060 A 
ATOM     30  C   UNL A   1      37.887  30.989  32.954  1.00  0.00     0.016 A 
ATOM     31  C   UNL A   1      36.786  31.697  30.910  1.00  0.00     0.016 A 
ATOM     32  C   UNL A   1      38.874  30.346  32.211  1.00  0.00     0.010 A 
ATOM     33  C   UNL A   1      37.782  31.058  30.165  1.00  0.00     0.010 A 
ATOM     34  C   UNL A   1      38.850  30.411  30.812  1.00  0.00    -0.014 A 
BRANCH  34  35
ATOM     35  C   UNL A   1      40.025  29.940  30.041  1.00  0.00     0.031 A 
ATOM     36  C   UNL A   1      41.185  30.875  29.838  1.00  0.00     0.074 A 
ATOM     37  C   UNL A   1      40.082  28.683  29.566  1.00  0.00     0.049 A 
ATOM     38  N   UNL A   1      42.311  30.674  29.201  1.00  0.00    -0.248 NA
ATOM     39  C   UNL A   1      41.061  32.215  30.434  1.00  0.00     0.031 C 
ATOM     40  C   UNL A   1      39.047  27.664  29.734  1.00  0.00     0.029 A 
ATOM     41  N   UNL A   1      41.063  28.053  28.842  1.00  0.00    -0.354 N 
ATOM     42  C   UNL A   1      43.027  31.857  29.320  1.00  0.00     0.074 A 
ATOM     43  C   UNL A   1      42.199  32.783  30.063  1.00  0.00     0.031 C 
ATOM     44  C   UNL A   1      39.449  26.533  29.127  1.00  0.00     0.029 A 
ATOM     45  C   UNL A   1      40.753  26.759  28.507  1.00  0.00     0.049 A 
ATOM     46  H   UNL A   1      41.908  28.489  28.585  1.00  0.00     0.167 HD
ATOM     47  C   UNL A   1      44.267  32.150  28.860  1.00  0.00     0.031 A 
ATOM     48  C   UNL A   1      41.439  25.862  27.770  1.00  0.00     0.031 A 
ATOM     49  C   UNL A   1      45.089  31.243  28.108  1.00  0.00     0.049 A 
ATOM     50  C   UNL A   1      42.779  26.239  27.199  1.00  0.00     0.074 A 
ATOM     51  C   UNL A   1      46.361  31.449  27.601  1.00  0.00     0.029 A 
ATOM     52  N   UNL A   1      44.717  29.957  27.750  1.00  0.00    -0.354 N 
ATOM     53  N   UNL A   1      43.451  27.357  27.335  1.00  0.00    -0.248 NA
ATOM     54  C   UNL A   1      43.455  25.226  26.376  1.00  0.00     0.031 C 
ATOM     55  C   UNL A   1      46.741  30.301  26.897  1.00  0.00     0.029 A 
ATOM     56  C   UNL A   1      45.726  29.365  27.009  1.00  0.00     0.049 A 
ATOM     57  H   UNL A   1      43.864  29.528  27.987  1.00  0.00     0.167 HD
ATOM     58  C   UNL A   1      44.640  27.170  26.640  1.00  0.00     0.074 A 
ATOM     59  C   UNL A   1      44.601  25.829  26.093  1.00  0.00     0.031 C 
ATOM     60  C   UNL A   1      45.674  28.031  26.474  1.00  0.00     0.031 A 
BRANCH  47  61
ATOM     61  C   UNL A   1      44.795  33.527  29.139  1.00  0.00    -0.014 A 
ATOM     62  C   UNL A   1      44.531  34.596  28.268  1.00  0.00     0.009 A 
ATOM     63  C   UNL A   1      45.543  33.765  30.302  1.00  0.00     0.009 A 
ATOM     64  C   UNL A   1      45.032  35.870  28.543  1.00  0.00     0.001 A 
ATOM     65  C   UNL A   1      46.022  35.044  30.586  1.00  0.00     0.001 A 
ATOM     66  C   UNL A   1      45.773  36.094  29.703  1.00  0.00     0.000 A 
ENDBRANCH  47  61
BRANCH  48  67
ATOM     67  C   UNL A   1      40.867  24.516  27.513  1.00  0.00    -0.014 A 
ATOM     68  C   UNL A   1      41.423  23.376  28.112  1.00  0.00     0.009 A 
ATOM     69  C   UNL A   1      39.778  24.363  26.640  1.00  0.00     0.009 A 
ATOM     70  C   UNL A   1      40.915  22.107  27.824  1.00  0.00     0.001 A 
ATOM     71  C   UNL A   1      39.257  23.096  26.373  1.00  0.00     0.001 A 
ATOM     72  C   UNL A   1      39.832  21.968  26.957  1.00  0.00     0.000 A 
ENDBRANCH  48  67
BRANCH  60  73
ATOM     73  C   UNL A   1      46.863  27.538  25.700  1.00  0.00    -0.014 A 
ATOM     74  C   UNL A   1      46.959  27.728  24.313  1.00  0.00     0.009 A 
ATOM     75  C   UNL A   1      47.920  26.912  26.378  1.00  0.00     0.009 A 
ATOM     76  C   UNL A   1      48.080  27.274  23.616  1.00  0.00     0.001 A 
ATOM     77  C   UNL A   1      49.051  26.482  25.682  1.00  0.00     0.001 A 
ATOM     78  C   UNL A   1      49.127  26.655  24.301  1.00  0.00     0.000 A 
ENDBRANCH  60  73
ENDBRANCH  34  35
ENDBRANCH  27  29
ENDBRANCH  26  27
ENDBRANCH  25  26
ENDBRANCH  24  25
ENDBRANCH  23  24
ENDBRANCH   1  23
TORSDOF 18
ENDMDL
MODEL 2
REMARK VINA RESULT:      -9.9      4.026      9.331
REMARK SMILES COc1ccc(/C=C/c2ncc(C(=O)OCCOCCOC(=O)c3ccc(-c4c5nc(c(-c6ccccc6)c6ccc([nH]6)c(-c6ccccc6)c6nc(c(-c7ccccc7)c7ccc4[nH]7)C=C6)C=C5)cc3)s2)cc1O
REMARK SMILES IDX 17 1 16 2 15 3 13 4 14 5 12 6 9 7 10 8 72 9 11 10 8 11 7 12
REMARK SMILES IDX 6 13 3 14 4 15 74 16 5 17 73 18 2 19 1 20 75 21 18 23 19 24
REMARK SMILES IDX 20 25 21 26 22 27 23 28 24 29 25 30 71 31 26 32 70 33 27 34
REMARK SMILES IDX 28 35 29 36 64 37 30 38 69 39 63 40 65 41 31 42 68 43 62 44
REMARK SMILES IDX 61 45 32 47 54 48 39 49 53 50 40 51 43 52 52 53 66 54 41 55
REMARK SMILES IDX 42 56 51 58 67 59 44 60 33 61 34 62 38 63 35 64 37 65 36 66
REMARK SMILES IDX 55 67 56 68 60 69 57 70 59 71 58 72 45 73 46 74 50 75 47 76
REMARK SMILES IDX 49 77 48 78
REMARK H PARENT 75 22 65 46 43 57
REMARK Flexibility Score: inf
ROOT
ATOM      1  C   UNL A   1      36.914  22.379  24.703  1.00  0.00     0.202 C 
ENDROOT
BRANCH   1   2
ATOM      2  C   UNL A   1      35.568  21.653  24.625  1.00  0.00     0.261 C 
BRANCH   2   3
ATOM      3  O   UNL A   1      34.615  22.293  25.492  1.00  0.00    -0.459 OA
BRANCH   3   4
ATOM      4  C   UNL A   1      33.326  21.865  25.362  1.00  0.00     0.350 C 
ATOM      5  O   UNL A   1      33.001  20.715  25.092  1.00  0.00    -0.245 OA
BRANCH   4   6
ATOM      6  C   UNL A   1      32.422  22.941  25.683  1.00  0.00     0.132 A 
ATOM      7  C   UNL A   1      30.914  24.861  25.562  1.00  0.00     0.116 A 
ATOM      8  N   UNL A   1      30.951  24.384  26.793  1.00  0.00    -0.244 NA
ATOM      9  S   UNL A   1      31.915  24.002  24.443  1.00  0.00    -0.107 S 
ATOM     10  C   UNL A   1      31.789  23.282  26.859  1.00  0.00     0.139 A 
BRANCH   7  11
ATOM     11  C   UNL A   1      30.187  25.983  25.075  1.00  0.00     0.040 C 
ATOM     12  C   UNL A   1      30.652  26.734  24.064  1.00  0.00     0.011 C 
BRANCH  12  13
ATOM     13  C   UNL A   1      29.866  27.799  23.418  1.00  0.00    -0.022 A 
ATOM     14  C   UNL A   1      28.252  29.850  22.320  1.00  0.00     0.160 A 
ATOM     15  C   UNL A   1      29.646  29.959  22.319  1.00  0.00     0.051 A 
ATOM     16  C   UNL A   1      27.676  28.708  22.878  1.00  0.00     0.158 A 
ATOM     17  C   UNL A   1      30.446  28.943  22.856  1.00  0.00     0.012 A 
ATOM     18  C   UNL A   1      28.471  27.680  23.392  1.00  0.00     0.058 A 
BRANCH  14  19
ATOM     19  O   UNL A   1      27.597  30.939  21.816  1.00  0.00    -0.493 OA
ATOM     20  C   UNL A   1      28.391  32.062  21.446  1.00  0.00     0.278 C 
ENDBRANCH  14  19
BRANCH  16  21
ATOM     21  O   UNL A   1      26.328  28.555  23.037  1.00  0.00    -0.504 OA
ATOM     22  H   UNL A   1      25.974  28.374  23.886  1.00  0.00     0.293 HD
ENDBRANCH  16  21
ENDBRANCH  12  13
ENDBRANCH   7  11
ENDBRANCH   4   6
ENDBRANCH   3   4
ENDBRANCH   2   3
ENDBRANCH   1   2
BRANCH   1  23
ATOM     23  O   UNL A   1      37.543  22.291  25.982  1.00  0.00    -0.374 OA
BRANCH  23  24
ATOM     24  C   UNL A   1      38.930  21.939  25.978  1.00  0.00     0.202 C 
BRANCH  24  25
ATOM     25  C   UNL A   1      39.208  20.458  25.701  1.00  0.00     0.261 C 
BRANCH  25  26
ATOM     26  O   UNL A   1      40.195  19.948  26.618  1.00  0.00    -0.460 OA
BRANCH  26  27
ATOM     27  C   UNL A   1      41.459  19.904  26.135  1.00  0.00     0.338 C 
ATOM     28  O   UNL A   1      41.932  19.074  25.377  1.00  0.00    -0.246 OA
BRANCH  27  29
ATOM     29  C   UNL A   1      42.184  21.133  26.521  1.00  0.00     0.060 A 
ATOM     30  C   UNL A   1      42.281  21.416  27.890  1.00  0.00     0.016 A 
ATOM     31  C   UNL A   1      42.717  22.016  25.578  1.00  0.00     0.016 A 
ATOM     32  C   UNL A   1      42.859  22.608  28.318  1.00  0.00     0.010 A 
ATOM     33  C   UNL A   1      43.291  23.217  26.010  1.00  0.00     0.010 A 
ATOM     34  C   UNL A   1      43.331  23.534  27.380  1.00  0.00    -0.014 A 
BRANCH  34  35
ATOM     35  C   UNL A   1      43.717  24.892  27.828  1.00  0.00     0.031 A 
ATOM     36  C   UNL A   1      42.636  25.891  28.141  1.00  0.00     0.074 A 
ATOM     37  C   UNL A   1      45.009  25.224  27.998  1.00  0.00     0.049 A 
ATOM     38  N   UNL A   1      42.744  27.130  28.549  1.00  0.00    -0.248 NA
ATOM     39  C   UNL A   1      41.248  25.429  27.974  1.00  0.00     0.031 C 
ATOM     40  C   UNL A   1      46.150  24.337  27.777  1.00  0.00     0.029 A 
ATOM     41  N   UNL A   1      45.575  26.408  28.404  1.00  0.00    -0.354 N 
ATOM     42  C   UNL A   1      41.443  27.594  28.688  1.00  0.00     0.074 A 
ATOM     43  C   UNL A   1      40.561  26.516  28.293  1.00  0.00     0.031 C 
ATOM     44  C   UNL A   1      47.282  25.010  28.048  1.00  0.00     0.029 A 
ATOM     45  C   UNL A   1      46.946  26.379  28.434  1.00  0.00     0.049 A 
ATOM     46  H   UNL A   1      45.046  27.202  28.648  1.00  0.00     0.167 HD
ATOM     47  C   UNL A   1      41.014  28.806  29.113  1.00  0.00     0.031 A 
ATOM     48  C   UNL A   1      47.831  27.352  28.729  1.00  0.00     0.031 A 
ATOM     49  C   UNL A   1      41.883  29.888  29.492  1.00  0.00     0.049 A 
ATOM     50  C   UNL A   1      47.332  28.717  29.118  1.00  0.00     0.074 A 
ATOM     51  C   UNL A   1      41.541  31.153  29.938  1.00  0.00     0.029 A 
ATOM     52  N   UNL A   1      43.266  29.832  29.463  1.00  0.00    -0.354 N 
ATOM     53  N   UNL A   1      46.097  29.136  29.263  1.00  0.00    -0.248 NA
ATOM     54  C   UNL A   1      48.351  29.741  29.391  1.00  0.00     0.031 C 
ATOM     55  C   UNL A   1      42.721  31.878  30.138  1.00  0.00     0.029 A 
ATOM     56  C   UNL A   1      43.795  31.048  29.862  1.00  0.00     0.049 A 
ATOM     57  H   UNL A   1      43.796  29.045  29.198  1.00  0.00     0.167 HD
ATOM     58  C   UNL A   1      46.193  30.462  29.669  1.00  0.00     0.074 A 
ATOM     59  C   UNL A   1      47.605  30.773  29.759  1.00  0.00     0.031 C 
ATOM     60  C   UNL A   1      45.200  31.341  29.949  1.00  0.00     0.031 A 
BRANCH  47  61
ATOM     61  C   UNL A   1      39.532  29.032  29.163  1.00  0.00    -0.014 A 
ATOM     62  C   UNL A   1      38.798  28.777  30.333  1.00  0.00     0.009 A 
ATOM     63  C   UNL A   1      38.863  29.532  28.035  1.00  0.00     0.009 A 
ATOM     64  C   UNL A   1      37.418  28.991  30.360  1.00  0.00     0.001 A 
ATOM     65  C   UNL A   1      37.488  29.766  28.074  1.00  0.00     0.001 A 
ATOM     66  C   UNL A   1      36.766  29.489  29.233  1.00  0.00     0.000 A 
ENDBRANCH  47  61
BRANCH  48  67
ATOM     67  C   UNL A   1      49.289  27.081  28.653  1.00  0.00    -0.014 A 
ATOM     68  C   UNL A   1      50.017  26.755  29.807  1.00  0.00     0.009 A 
ATOM     69  C   UNL A   1      49.966  27.179  27.427  1.00  0.00     0.009 A 
ATOM     70  C   UNL A   1      51.398  26.555  29.739  1.00  0.00     0.001 A 
ATOM     71  C   UNL A   1      51.342  26.955  27.358  1.00  0.00     0.001 A 
ATOM     72  C   UNL A   1      52.058  26.652  28.514  1.00  0.00     0.000 A 
ENDBRANCH  48  67
BRANCH  60  73
ATOM     73  C   UNL A   1      45.604  32.712  30.412  1.00  0.00    -0.014 A 
ATOM     74  C   UNL A   1      45.777  33.766  29.502  1.00  0.00     0.009 A 
ATOM     75  C   UNL A   1      45.772  32.958  31.784  1.00  0.00     0.009 A 
ATOM     76  C   UNL A   1      46.139  35.036  29.958  1.00  0.00     0.001 A 
ATOM     77  C   UNL A   1      46.109  34.234  32.237  1.00  0.00     0.001 A 
ATOM     78  C   UNL A   1      46.300  35.270  31.324  1.00  0.00     0.000 A 
ENDBRANCH  60  73
ENDBRANCH  34  35
ENDBRANCH  27  29
ENDBRANCH  26  27
ENDBRANCH  25  26
ENDBRANCH  24  25
ENDBRANCH  23  24
ENDBRANCH   1  23
TORSDOF 18
ENDMDL
MODEL 3
REMARK VINA RESULT:      -9.8      4.019      6.427
REMARK SMILES COc1ccc(/C=C/c2ncc(C(=O)OCCOCCOC(=O)c3ccc(-c4c5nc(c(-c6ccccc6)c6ccc([nH]6)c(-c6ccccc6)c6nc(c(-c7ccccc7)c7ccc4[nH]7)C=C6)C=C5)cc3)s2)cc1O
REMARK SMILES IDX 17 1 16 2 15 3 13 4 14 5 12 6 9 7 10 8 72 9 11 10 8 11 7 12
REMARK SMILES IDX 6 13 3 14 4 15 74 16 5 17 73 18 2 19 1 20 75 21 18 23 19 24
REMARK SMILES IDX 20 25 21 26 22 27 23 28 24 29 25 30 71 31 26 32 70 33 27 34
REMARK SMILES IDX 28 35 29 36 64 37 30 38 69 39 63 40 65 41 31 42 68 43 62 44
REMARK SMILES IDX 61 45 32 47 54 48 39 49 53 50 40 51 43 52 52 53 66 54 41 55
REMARK SMILES IDX 42 56 51 58 67 59 44 60 33 61 34 62 38 63 35 64 37 65 36 66
REMARK SMILES IDX 55 67 56 68 60 69 57 70 59 71 58 72 45 73 46 74 50 75 47 76
REMARK SMILES IDX 49 77 48 78
REMARK H PARENT 75 22 65 46 43 57
REMARK Flexibility Score: inf
ROOT
ATOM      1  C   UNL A   1      31.829  29.136  27.011  1.00  0.00     0.202 C 
ENDROOT
BRANCH   1   2
ATOM      2  C   UNL A   1      31.810  29.244  25.484  1.00  0.00     0.261 C 
BRANCH   2   3
ATOM      3  O   UNL A   1      32.230  27.998  24.899  1.00  0.00    -0.459 OA
BRANCH   3   4
ATOM      4  C   UNL A   1      31.734  27.739  23.655  1.00  0.00     0.350 C 
ATOM      5  O   UNL A   1      31.016  28.503  23.021  1.00  0.00    -0.245 OA
BRANCH   4   6
ATOM      6  C   UNL A   1      32.260  26.486  23.174  1.00  0.00     0.132 A 
ATOM      7  C   UNL A   1      32.676  24.113  22.763  1.00  0.00     0.116 A 
ATOM      8  N   UNL A   1      33.429  24.854  21.970  1.00  0.00    -0.244 NA
ATOM      9  S   UNL A   1      31.653  25.024  23.817  1.00  0.00    -0.107 S 
ATOM     10  C   UNL A   1      33.179  26.200  22.187  1.00  0.00     0.139 A 
BRANCH   7  11
ATOM     11  C   UNL A   1      32.633  22.694  22.861  1.00  0.00     0.040 C 
ATOM     12  C   UNL A   1      32.934  22.062  24.007  1.00  0.00     0.011 C 
BRANCH  12  13
ATOM     13  C   UNL A   1      32.747  20.614  24.206  1.00  0.00    -0.022 A 
ATOM     14  C   UNL A   1      32.488  17.804  24.445  1.00  0.00     0.160 A 
ATOM     15  C   UNL A   1      32.846  18.586  25.547  1.00  0.00     0.051 A 
ATOM     16  C   UNL A   1      32.264  18.442  23.224  1.00  0.00     0.158 A 
ATOM     17  C   UNL A   1      32.969  19.976  25.432  1.00  0.00     0.012 A 
ATOM     18  C   UNL A   1      32.360  19.832  23.110  1.00  0.00     0.058 A 
BRANCH  14  19
ATOM     19  O   UNL A   1      32.461  16.459  24.688  1.00  0.00    -0.493 OA
ATOM     20  C   UNL A   1      33.713  15.803  24.853  1.00  0.00     0.278 C 
ENDBRANCH  14  19
BRANCH  16  21
ATOM     21  O   UNL A   1      32.025  17.764  22.062  1.00  0.00    -0.504 OA
ATOM     22  H   UNL A   1      32.405  16.919  21.927  1.00  0.00     0.293 HD
ENDBRANCH  16  21
ENDBRANCH  12  13
ENDBRANCH   7  11
ENDBRANCH   4   6
ENDBRANCH   3   4
ENDBRANCH   2   3
ENDBRANCH   1   2
BRANCH   1  23
ATOM     23  O   UNL A   1      32.784  29.994  27.637  1.00  0.00    -0.374 OA
BRANCH  23  24
ATOM     24  C   UNL A   1      33.111  31.194  26.932  1.00  0.00     0.202 C 
BRANCH  24  25
ATOM     25  C   UNL A   1      32.346  32.436  27.402  1.00  0.00     0.261 C 
BRANCH  25  26
ATOM     26  O   UNL A   1      33.185  33.604  27.332  1.00  0.00    -0.460 OA
BRANCH  26  27
ATOM     27  C   UNL A   1      33.309  34.293  28.490  1.00  0.00     0.338 C 
ATOM     28  O   UNL A   1      32.544  35.130  28.938  1.00  0.00    -0.246 OA
BRANCH  27  29
ATOM     29  C   UNL A   1      34.451  33.763  29.266  1.00  0.00     0.060 A 
ATOM     30  C   UNL A   1      35.735  34.145  28.856  1.00  0.00     0.016 A 
ATOM     31  C   UNL A   1      34.284  32.879  30.335  1.00  0.00     0.016 A 
ATOM     32  C   UNL A   1      36.857  33.602  29.477  1.00  0.00     0.010 A 
ATOM     33  C   UNL A   1      35.412  32.329  30.953  1.00  0.00     0.010 A 
ATOM     34  C   UNL A   1      36.703  32.660  30.502  1.00  0.00    -0.014 A 
BRANCH  34  35
ATOM     35  C   UNL A   1      37.885  31.910  30.985  1.00  0.00     0.031 A 
ATOM     36  C   UNL A   1      38.443  32.228  32.346  1.00  0.00     0.074 A 
ATOM     37  C   UNL A   1      38.432  30.928  30.248  1.00  0.00     0.049 A 
ATOM     38  N   UNL A   1      39.465  31.698  32.969  1.00  0.00    -0.248 NA
ATOM     39  C   UNL A   1      37.754  33.283  33.107  1.00  0.00     0.031 C 
ATOM     40  C   UNL A   1      37.960  30.488  28.936  1.00  0.00     0.029 A 
ATOM     41  N   UNL A   1      39.510  30.119  30.507  1.00  0.00    -0.354 N 
ATOM     42  C   UNL A   1      39.541  32.353  34.191  1.00  0.00     0.074 A 
ATOM     43  C   UNL A   1      38.482  33.339  34.213  1.00  0.00     0.031 C 
ATOM     44  C   UNL A   1      38.748  29.488  28.503  1.00  0.00     0.029 A 
ATOM     45  C   UNL A   1      39.792  29.238  29.494  1.00  0.00     0.049 A 
ATOM     46  H   UNL A   1      40.033  30.168  31.341  1.00  0.00     0.167 HD
ATOM     47  C   UNL A   1      40.409  32.150  35.211  1.00  0.00     0.031 A 
ATOM     48  C   UNL A   1      40.790  28.339  29.374  1.00  0.00     0.031 A 
ATOM     49  C   UNL A   1      41.473  31.184  35.191  1.00  0.00     0.049 A 
ATOM     50  C   UNL A   1      41.793  28.190  30.486  1.00  0.00     0.074 A 
ATOM     51  C   UNL A   1      42.402  30.903  36.179  1.00  0.00     0.029 A 
ATOM     52  N   UNL A   1      41.753  30.344  34.126  1.00  0.00    -0.354 N 
ATOM     53  N   UNL A   1      41.841  28.803  31.644  1.00  0.00    -0.248 NA
ATOM     54  C   UNL A   1      42.875  27.217  30.275  1.00  0.00     0.031 C 
ATOM     55  C   UNL A   1      43.273  29.922  35.692  1.00  0.00     0.029 A 
ATOM     56  C   UNL A   1      42.855  29.559  34.422  1.00  0.00     0.049 A 
ATOM     57  H   UNL A   1      41.245  30.309  33.284  1.00  0.00     0.167 HD
ATOM     58  C   UNL A   1      42.940  28.272  32.308  1.00  0.00     0.074 A 
ATOM     59  C   UNL A   1      43.523  27.278  31.429  1.00  0.00     0.031 C 
ATOM     60  C   UNL A   1      43.421  28.575  33.539  1.00  0.00     0.031 A 
BRANCH  47  61
ATOM     61  C   UNL A   1      40.254  33.015  36.426  1.00  0.00    -0.014 A 
ATOM     62  C   UNL A   1      39.370  32.664  37.460  1.00  0.00     0.009 A 
ATOM     63  C   UNL A   1      41.022  34.183  36.554  1.00  0.00     0.009 A 
ATOM     64  C   UNL A   1      39.237  33.483  38.583  1.00  0.00     0.001 A 
ATOM     65  C   UNL A   1      40.904  34.986  37.689  1.00  0.00     0.001 A 
ATOM     66  C   UNL A   1      40.007  34.640  38.698  1.00  0.00     0.000 A 
ENDBRANCH  47  61
BRANCH  48  67
ATOM     67  C   UNL A   1      40.907  27.515  28.145  1.00  0.00    -0.014 A 
ATOM     68  C   UNL A   1      41.621  27.985  27.033  1.00  0.00     0.009 A 
ATOM     69  C   UNL A   1      40.275  26.263  28.067  1.00  0.00     0.009 A 
ATOM     70  C   UNL A   1      41.682  27.229  25.860  1.00  0.00     0.001 A 
ATOM     71  C   UNL A   1      40.358  25.499  26.902  1.00  0.00     0.001 A 
ATOM     72  C   UNL A   1      41.053  25.986  25.797  1.00  0.00     0.000 A 
ENDBRANCH  48  67
BRANCH  60  73
ATOM     73  C   UNL A   1      44.614  27.801  34.023  1.00  0.00    -0.014 A 
ATOM     74  C   UNL A   1      45.921  28.209  33.715  1.00  0.00     0.009 A 
ATOM     75  C   UNL A   1      44.424  26.671  34.833  1.00  0.00     0.009 A 
ATOM     76  C   UNL A   1      47.015  27.482  34.188  1.00  0.00     0.001 A 
ATOM     77  C   UNL A   1      45.521  25.961  35.325  1.00  0.00     0.001 A 
ATOM     78  C   UNL A   1      46.815  26.361  34.995  1.00  0.00     0.000 A 
ENDBRANCH  60  73
ENDBRANCH  34  35
ENDBRANCH  27  29
ENDBRANCH  26  27
ENDBRANCH  25  26
ENDBRANCH  24  25
ENDBRANCH  23  24
ENDBRANCH   1  23
TORSDOF 18
ENDMDL
