MODEL 1
REMARK VINA RESULT:      -8.6      0.000      0.000
REMARK SMILES C=CCN(CC(=O)OCCOCCOC(=O)c1ccc(-c2c3nc(c(-c4ccccc4)c4ccc([nH]4)c(-c4ccccc4)c4nc(c(-c5ccccc5)c5ccc2[nH]5)C=C4)C=C3)cc1)C(=O)N(C)[C@H]1CCC[N@H+](C)C1
REMARK SMILES IDX 10 1 9 2 8 3 6 4 7 5 5 6 4 7 3 8 2 9 1 10 65 11 66 12 67 13
REMARK SMILES IDX 68 14 69 15 70 16 75 17 71 18 73 19 72 20 74 21 11 23 12 24
REMARK SMILES IDX 13 25 14 26 15 27 16 28 17 29 18 30 64 31 19 32 63 33 20 34
REMARK SMILES IDX 21 35 22 36 57 37 23 38 62 39 56 40 58 41 24 42 61 43 55 44
REMARK SMILES IDX 54 45 25 47 47 48 32 49 46 50 33 51 36 52 45 53 59 54 34 55
REMARK SMILES IDX 35 56 44 58 60 59 37 60 26 61 27 62 31 63 28 64 30 65 29 66
REMARK SMILES IDX 48 67 49 68 53 69 50 70 52 71 51 72 38 73 39 74 43 75 40 76
REMARK SMILES IDX 42 77 41 78
REMARK H PARENT 73 22 58 46 36 57
REMARK Flexibility Score: inf
ROOT
ATOM      1  C   UNL A   1      33.467  22.614  23.567  1.00  0.00     0.202 C 
ENDROOT
BRANCH   1   2
ATOM      2  C   UNL A   1      34.213  23.445  22.513  1.00  0.00     0.261 C 
BRANCH   2   3
ATOM      3  O   UNL A   1      34.068  24.870  22.717  1.00  0.00    -0.462 OA
BRANCH   3   4
ATOM      4  C   UNL A   1      33.131  25.488  21.944  1.00  0.00     0.325 C 
ATOM      5  O   UNL A   1      33.154  25.509  20.716  1.00  0.00    -0.250 OA
BRANCH   4   6
ATOM      6  C   UNL A   1      32.028  26.206  22.737  1.00  0.00     0.244 C 
BRANCH   6   7
ATOM      7  N   UNL A   1      32.352  27.521  23.305  1.00  0.00    -0.310 N 
BRANCH   7   8
ATOM      8  C   UNL A   1      31.543  28.616  22.756  1.00  0.00     0.149 C 
BRANCH   8   9
ATOM      9  C   UNL A   1      30.160  28.085  22.486  1.00  0.00    -0.013 C 
ATOM     10  C   UNL A   1      29.112  28.270  23.301  1.00  0.00     0.006 C 
ENDBRANCH   8   9
ENDBRANCH   7   8
BRANCH   7  11
ATOM     11  C   UNL A   1      33.310  27.900  24.237  1.00  0.00     0.321 C 
ATOM     12  O   UNL A   1      34.059  28.830  23.923  1.00  0.00    -0.248 OA
BRANCH  11  13
ATOM     13  N   UNL A   1      33.429  27.294  25.484  1.00  0.00    -0.319 N 
ATOM     14  C   UNL A   1      33.982  25.970  25.729  1.00  0.00     0.149 C 
BRANCH  13  15
ATOM     15  C   UNL A   1      32.965  27.979  26.754  1.00  0.00     0.141 C 
ATOM     16  C   UNL A   1      33.973  28.722  27.660  1.00  0.00     0.037 C 
ATOM     17  C   UNL A   1      31.772  28.958  26.529  1.00  0.00     0.287 C 
ATOM     18  C   UNL A   1      34.349  30.103  27.115  1.00  0.00     0.064 C 
ATOM     19  N   UNL A   1      32.196  30.206  25.881  1.00  0.00    -0.336 N 
ATOM     20  C   UNL A   1      33.116  30.939  26.763  1.00  0.00     0.262 C 
ATOM     21  C   UNL A   1      31.035  31.024  25.545  1.00  0.00     0.332 C 
ATOM     22  H   UNL A   1      32.686  29.981  25.014  1.00  0.00     0.347 HD
ENDBRANCH  13  15
ENDBRANCH  11  13
ENDBRANCH   7  11
ENDBRANCH   6   7
ENDBRANCH   4   6
ENDBRANCH   3   4
ENDBRANCH   2   3
ENDBRANCH   1   2
BRANCH   1  23
ATOM     23  O   UNL A   1      34.292  21.929  24.517  1.00  0.00    -0.374 OA
BRANCH  23  24
ATOM     24  C   UNL A   1      35.681  22.250  24.491  1.00  0.00     0.202 C 
BRANCH  24  25
ATOM     25  C   UNL A   1      36.199  23.028  25.698  1.00  0.00     0.261 C 
BRANCH  25  26
ATOM     26  O   UNL A   1      37.406  23.724  25.400  1.00  0.00    -0.460 OA
BRANCH  26  27
ATOM     27  C   UNL A   1      38.502  23.187  25.973  1.00  0.00     0.338 C 
ATOM     28  O   UNL A   1      38.951  22.063  25.850  1.00  0.00    -0.246 OA
BRANCH  27  29
ATOM     29  C   UNL A   1      39.209  24.265  26.662  1.00  0.00     0.060 A 
ATOM     30  C   UNL A   1      38.965  24.420  28.029  1.00  0.00     0.016 A 
ATOM     31  C   UNL A   1      40.042  25.136  25.958  1.00  0.00     0.016 A 
ATOM     32  C   UNL A   1      39.510  25.509  28.693  1.00  0.00     0.010 A 
ATOM     33  C   UNL A   1      40.587  26.229  26.628  1.00  0.00     0.010 A 
ATOM     34  C   UNL A   1      40.285  26.438  27.985  1.00  0.00    -0.014 A 
BRANCH  34  35
ATOM     35  C   UNL A   1      40.630  27.714  28.642  1.00  0.00     0.031 A 
ATOM     36  C   UNL A   1      42.047  27.927  29.092  1.00  0.00     0.074 A 
ATOM     37  C   UNL A   1      39.707  28.682  28.758  1.00  0.00     0.049 A 
ATOM     38  N   UNL A   1      42.593  28.987  29.627  1.00  0.00    -0.248 NA
ATOM     39  C   UNL A   1      42.974  26.797  28.908  1.00  0.00     0.031 C 
ATOM     40  C   UNL A   1      38.318  28.581  28.312  1.00  0.00     0.029 A 
ATOM     41  N   UNL A   1      39.807  29.945  29.275  1.00  0.00    -0.354 N 
ATOM     42  C   UNL A   1      43.927  28.656  29.832  1.00  0.00     0.074 A 
ATOM     43  C   UNL A   1      44.100  27.287  29.405  1.00  0.00     0.031 C 
ATOM     44  C   UNL A   1      37.694  29.744  28.568  1.00  0.00     0.029 A 
ATOM     45  C   UNL A   1      38.634  30.655  29.216  1.00  0.00     0.049 A 
ATOM     46  H   UNL A   1      40.639  30.310  29.653  1.00  0.00     0.167 HD
ATOM     47  C   UNL A   1      44.921  29.432  30.322  1.00  0.00     0.031 A 
ATOM     48  C   UNL A   1      38.357  31.900  29.645  1.00  0.00     0.031 A 
ATOM     49  C   UNL A   1      44.729  30.784  30.772  1.00  0.00     0.049 A 
ATOM     50  C   UNL A   1      39.461  32.712  30.264  1.00  0.00     0.074 A 
ATOM     51  C   UNL A   1      45.658  31.659  31.303  1.00  0.00     0.029 A 
ATOM     52  N   UNL A   1      43.513  31.450  30.747  1.00  0.00    -0.354 N 
ATOM     53  N   UNL A   1      40.724  32.398  30.433  1.00  0.00    -0.248 NA
ATOM     54  C   UNL A   1      39.105  34.054  30.744  1.00  0.00     0.031 C 
ATOM     55  C   UNL A   1      44.992  32.843  31.643  1.00  0.00     0.029 A 
ATOM     56  C   UNL A   1      43.661  32.720  31.274  1.00  0.00     0.049 A 
ATOM     57  H   UNL A   1      42.670  31.075  30.405  1.00  0.00     0.167 HD
ATOM     58  C   UNL A   1      41.318  33.511  31.013  1.00  0.00     0.074 A 
ATOM     59  C   UNL A   1      40.280  34.512  31.151  1.00  0.00     0.031 C 
ATOM     60  C   UNL A   1      42.606  33.692  31.398  1.00  0.00     0.031 A 
BRANCH  47  61
ATOM     61  C   UNL A   1      46.289  28.819  30.418  1.00  0.00    -0.014 A 
ATOM     62  C   UNL A   1      47.245  29.013  29.409  1.00  0.00     0.009 A 
ATOM     63  C   UNL A   1      46.631  28.043  31.537  1.00  0.00     0.009 A 
ATOM     64  C   UNL A   1      48.504  28.416  29.502  1.00  0.00     0.001 A 
ATOM     65  C   UNL A   1      47.899  27.469  31.639  1.00  0.00     0.001 A 
ATOM     66  C   UNL A   1      48.831  27.648  30.619  1.00  0.00     0.000 A 
ENDBRANCH  47  61
BRANCH  48  67
ATOM     67  C   UNL A   1      36.982  32.448  29.515  1.00  0.00    -0.014 A 
ATOM     68  C   UNL A   1      36.036  32.270  30.534  1.00  0.00     0.009 A 
ATOM     69  C   UNL A   1      36.605  33.145  28.356  1.00  0.00     0.009 A 
ATOM     70  C   UNL A   1      34.734  32.756  30.385  1.00  0.00     0.001 A 
ATOM     71  C   UNL A   1      35.311  33.654  28.220  1.00  0.00     0.001 A 
ATOM     72  C   UNL A   1      34.374  33.450  29.232  1.00  0.00     0.000 A 
ENDBRANCH  48  67
BRANCH  60  73
ATOM     73  C   UNL A   1      42.960  35.032  31.976  1.00  0.00    -0.014 A 
ATOM     74  C   UNL A   1      43.533  36.036  31.181  1.00  0.00     0.009 A 
ATOM     75  C   UNL A   1      42.677  35.302  33.324  1.00  0.00     0.009 A 
ATOM     76  C   UNL A   1      43.844  37.278  31.736  1.00  0.00     0.001 A 
ATOM     77  C   UNL A   1      42.964  36.555  33.867  1.00  0.00     0.001 A 
ATOM     78  C   UNL A   1      43.556  37.538  33.076  1.00  0.00     0.000 A 
ENDBRANCH  60  73
ENDBRANCH  34  35
ENDBRANCH  27  29
ENDBRANCH  26  27
ENDBRANCH  25  26
ENDBRANCH  24  25
ENDBRANCH  23  24
ENDBRANCH   1  23
TORSDOF 20
ENDMDL
MODEL 2
REMARK VINA RESULT:      -8.4      2.959      7.524
REMARK SMILES C=CCN(CC(=O)OCCOCCOC(=O)c1ccc(-c2c3nc(c(-c4ccccc4)c4ccc([nH]4)c(-c4ccccc4)c4nc(c(-c5ccccc5)c5ccc2[nH]5)C=C4)C=C3)cc1)C(=O)N(C)[C@H]1CCC[N@H+](C)C1
REMARK SMILES IDX 10 1 9 2 8 3 6 4 7 5 5 6 4 7 3 8 2 9 1 10 65 11 66 12 67 13
REMARK SMILES IDX 68 14 69 15 70 16 75 17 71 18 73 19 72 20 74 21 11 23 12 24
REMARK SMILES IDX 13 25 14 26 15 27 16 28 17 29 18 30 64 31 19 32 63 33 20 34
REMARK SMILES IDX 21 35 22 36 57 37 23 38 62 39 56 40 58 41 24 42 61 43 55 44
REMARK SMILES IDX 54 45 25 47 47 48 32 49 46 50 33 51 36 52 45 53 59 54 34 55
REMARK SMILES IDX 35 56 44 58 60 59 37 60 26 61 27 62 31 63 28 64 30 65 29 66
REMARK SMILES IDX 48 67 49 68 53 69 50 70 52 71 51 72 38 73 39 74 43 75 40 76
REMARK SMILES IDX 42 77 41 78
REMARK H PARENT 73 22 58 46 36 57
REMARK Flexibility Score: inf
ROOT
ATOM      1  C   UNL A   1      36.129  21.764  25.339  1.00  0.00     0.202 C 
ENDROOT
BRANCH   1   2
ATOM      2  C   UNL A   1      35.931  23.183  25.890  1.00  0.00     0.261 C 
BRANCH   2   3
ATOM      3  O   UNL A   1      34.576  23.428  26.334  1.00  0.00    -0.462 OA
BRANCH   3   4
ATOM      4  C   UNL A   1      33.912  24.431  25.692  1.00  0.00     0.325 C 
ATOM      5  O   UNL A   1      32.862  24.928  26.089  1.00  0.00    -0.250 OA
BRANCH   4   6
ATOM      6  C   UNL A   1      34.570  24.888  24.381  1.00  0.00     0.244 C 
BRANCH   6   7
ATOM      7  N   UNL A   1      33.837  24.635  23.134  1.00  0.00    -0.310 N 
BRANCH   7   8
ATOM      8  C   UNL A   1      33.928  23.246  22.670  1.00  0.00     0.149 C 
BRANCH   8   9
ATOM      9  C   UNL A   1      32.659  22.536  23.065  1.00  0.00    -0.013 C 
ATOM     10  C   UNL A   1      32.620  21.444  23.842  1.00  0.00     0.006 C 
ENDBRANCH   8   9
ENDBRANCH   7   8
BRANCH   7  11
ATOM     11  C   UNL A   1      33.111  25.489  22.313  1.00  0.00     0.321 C 
ATOM     12  O   UNL A   1      33.282  25.373  21.095  1.00  0.00    -0.248 OA
BRANCH  11  13
ATOM     13  N   UNL A   1      32.211  26.426  22.810  1.00  0.00    -0.319 N 
ATOM     14  C   UNL A   1      30.908  26.123  23.384  1.00  0.00     0.149 C 
BRANCH  13  15
ATOM     15  C   UNL A   1      32.510  27.913  22.787  1.00  0.00     0.141 C 
ATOM     16  C   UNL A   1      31.363  28.947  22.850  1.00  0.00     0.037 C 
ATOM     17  C   UNL A   1      33.555  28.351  23.859  1.00  0.00     0.287 C 
ATOM     18  C   UNL A   1      30.813  29.132  24.267  1.00  0.00     0.064 C 
ATOM     19  N   UNL A   1      32.982  28.375  25.211  1.00  0.00    -0.336 N 
ATOM     20  C   UNL A   1      31.924  29.394  25.286  1.00  0.00     0.262 C 
ATOM     21  C   UNL A   1      34.025  28.634  26.200  1.00  0.00     0.332 C 
ATOM     22  H   UNL A   1      32.572  27.464  25.415  1.00  0.00     0.347 HD
ENDBRANCH  13  15
ENDBRANCH  11  13
ENDBRANCH   7  11
ENDBRANCH   6   7
ENDBRANCH   4   6
ENDBRANCH   3   4
ENDBRANCH   2   3
ENDBRANCH   1   2
BRANCH   1  23
ATOM     23  O   UNL A   1      37.399  21.506  24.730  1.00  0.00    -0.374 OA
BRANCH  23  24
ATOM     24  C   UNL A   1      38.509  21.376  25.616  1.00  0.00     0.202 C 
BRANCH  24  25
ATOM     25  C   UNL A   1      39.101  19.974  25.728  1.00  0.00     0.261 C 
BRANCH  25  26
ATOM     26  O   UNL A   1      40.075  19.893  26.764  1.00  0.00    -0.460 OA
BRANCH  26  27
ATOM     27  C   UNL A   1      41.315  19.596  26.326  1.00  0.00     0.338 C 
ATOM     28  O   UNL A   1      41.699  18.595  25.751  1.00  0.00    -0.246 OA
BRANCH  27  29
ATOM     29  C   UNL A   1      42.138  20.792  26.492  1.00  0.00     0.060 A 
ATOM     30  C   UNL A   1      42.274  21.302  27.786  1.00  0.00     0.016 A 
ATOM     31  C   UNL A   1      42.706  21.428  25.387  1.00  0.00     0.016 A 
ATOM     32  C   UNL A   1      42.934  22.507  27.973  1.00  0.00     0.010 A 
ATOM     33  C   UNL A   1      43.368  22.639  25.577  1.00  0.00     0.010 A 
ATOM     34  C   UNL A   1      43.443  23.199  26.864  1.00  0.00    -0.014 A 
BRANCH  34  35
ATOM     35  C   UNL A   1      43.900  24.590  27.051  1.00  0.00     0.031 A 
ATOM     36  C   UNL A   1      42.893  25.624  27.462  1.00  0.00     0.074 A 
ATOM     37  C   UNL A   1      45.202  24.892  26.927  1.00  0.00     0.049 A 
ATOM     38  N   UNL A   1      43.075  26.887  27.749  1.00  0.00    -0.248 NA
ATOM     39  C   UNL A   1      41.494  25.176  27.572  1.00  0.00     0.031 C 
ATOM     40  C   UNL A   1      46.259  23.945  26.573  1.00  0.00     0.029 A 
ATOM     41  N   UNL A   1      45.856  26.082  27.101  1.00  0.00    -0.354 N 
ATOM     42  C   UNL A   1      41.819  27.378  28.084  1.00  0.00     0.074 A 
ATOM     43  C   UNL A   1      40.877  26.294  27.926  1.00  0.00     0.031 C 
ATOM     44  C   UNL A   1      47.437  24.592  26.564  1.00  0.00     0.029 A 
ATOM     45  C   UNL A   1      47.209  25.998  26.888  1.00  0.00     0.049 A 
ATOM     46  H   UNL A   1      45.401  26.917  27.355  1.00  0.00     0.167 HD
ATOM     47  C   UNL A   1      41.486  28.622  28.499  1.00  0.00     0.031 A 
ATOM     48  C   UNL A   1      48.152  26.957  26.943  1.00  0.00     0.031 A 
ATOM     49  C   UNL A   1      42.427  29.700  28.624  1.00  0.00     0.049 A 
ATOM     50  C   UNL A   1      47.740  28.353  27.326  1.00  0.00     0.074 A 
ATOM     51  C   UNL A   1      42.201  31.006  29.018  1.00  0.00     0.029 A 
ATOM     52  N   UNL A   1      43.781  29.591  28.345  1.00  0.00    -0.354 N 
ATOM     53  N   UNL A   1      46.554  28.802  27.663  1.00  0.00    -0.248 NA
ATOM     54  C   UNL A   1      48.798  29.371  27.346  1.00  0.00     0.031 C 
ATOM     55  C   UNL A   1      43.413  31.700  28.933  1.00  0.00     0.029 A 
ATOM     56  C   UNL A   1      44.402  30.812  28.536  1.00  0.00     0.049 A 
ATOM     57  H   UNL A   1      44.234  28.767  28.054  1.00  0.00     0.167 HD
ATOM     58  C   UNL A   1      46.727  30.147  27.960  1.00  0.00     0.074 A 
ATOM     59  C   UNL A   1      48.136  30.435  27.778  1.00  0.00     0.031 C 
ATOM     60  C   UNL A   1      45.807  31.065  28.346  1.00  0.00     0.031 A 
BRANCH  47  61
ATOM     61  C   UNL A   1      40.040  28.876  28.817  1.00  0.00    -0.014 A 
ATOM     62  C   UNL A   1      39.534  28.679  30.112  1.00  0.00     0.009 A 
ATOM     63  C   UNL A   1      39.171  29.328  27.811  1.00  0.00     0.009 A 
ATOM     64  C   UNL A   1      38.182  28.897  30.385  1.00  0.00     0.001 A 
ATOM     65  C   UNL A   1      37.825  29.569  28.094  1.00  0.00     0.001 A 
ATOM     66  C   UNL A   1      37.330  29.346  29.377  1.00  0.00     0.000 A 
ENDBRANCH  47  61
BRANCH  48  67
ATOM     67  C   UNL A   1      49.566  26.636  26.622  1.00  0.00    -0.014 A 
ATOM     68  C   UNL A   1      50.037  26.697  25.302  1.00  0.00     0.009 A 
ATOM     69  C   UNL A   1      50.454  26.252  27.640  1.00  0.00     0.009 A 
ATOM     70  C   UNL A   1      51.359  26.356  25.005  1.00  0.00     0.001 A 
ATOM     71  C   UNL A   1      51.783  25.938  27.344  1.00  0.00     0.001 A 
ATOM     72  C   UNL A   1      52.231  25.980  26.025  1.00  0.00     0.000 A 
ENDBRANCH  48  67
BRANCH  60  73
ATOM     73  C   UNL A   1      46.307  32.452  28.626  1.00  0.00    -0.014 A 
ATOM     74  C   UNL A   1      46.324  33.434  27.624  1.00  0.00     0.009 A 
ATOM     75  C   UNL A   1      46.726  32.789  29.923  1.00  0.00     0.009 A 
ATOM     76  C   UNL A   1      46.782  34.721  27.910  1.00  0.00     0.001 A 
ATOM     77  C   UNL A   1      47.158  34.084  30.211  1.00  0.00     0.001 A 
ATOM     78  C   UNL A   1      47.194  35.045  29.202  1.00  0.00     0.000 A 
ENDBRANCH  60  73
ENDBRANCH  34  35
ENDBRANCH  27  29
ENDBRANCH  26  27
ENDBRANCH  25  26
ENDBRANCH  24  25
ENDBRANCH  23  24
ENDBRANCH   1  23
TORSDOF 20
ENDMDL
MODEL 3
REMARK VINA RESULT:      -8.3      2.729      5.001
REMARK SMILES C=CCN(CC(=O)OCCOCCOC(=O)c1ccc(-c2c3nc(c(-c4ccccc4)c4ccc([nH]4)c(-c4ccccc4)c4nc(c(-c5ccccc5)c5ccc2[nH]5)C=C4)C=C3)cc1)C(=O)N(C)[C@H]1CCC[N@H+](C)C1
REMARK SMILES IDX 10 1 9 2 8 3 6 4 7 5 5 6 4 7 3 8 2 9 1 10 65 11 66 12 67 13
REMARK SMILES IDX 68 14 69 15 70 16 75 17 71 18 73 19 72 20 74 21 11 23 12 24
REMARK SMILES IDX 13 25 14 26 15 27 16 28 17 29 18 30 64 31 19 32 63 33 20 34
REMARK SMILES IDX 21 35 22 36 57 37 23 38 62 39 56 40 58 41 24 42 61 43 55 44
REMARK SMILES IDX 54 45 25 47 47 48 32 49 46 50 33 51 36 52 45 53 59 54 34 55
REMARK SMILES IDX 35 56 44 58 60 59 37 60 26 61 27 62 31 63 28 64 30 65 29 66
REMARK SMILES IDX 48 67 49 68 53 69 50 70 52 71 51 72 38 73 39 74 43 75 40 76
REMARK SMILES IDX 42 77 41 78
REMARK H PARENT 73 22 58 46 36 57
REMARK Flexibility Score: inf
ROOT
ATOM      1  C   UNL A   1      37.997  23.868  25.753  1.00  0.00     0.202 C 
ENDROOT
BRANCH   1   2
ATOM      2  C   UNL A   1      36.589  23.609  25.199  1.00  0.00     0.261 C 
BRANCH   2   3
ATOM      3  O   UNL A   1      35.566  24.361  25.893  1.00  0.00    -0.462 OA
BRANCH   3   4
ATOM      4  C   UNL A   1      34.470  24.694  25.155  1.00  0.00     0.325 C 
ATOM      5  O   UNL A   1      34.481  24.855  23.938  1.00  0.00    -0.250 OA
BRANCH   4   6
ATOM      6  C   UNL A   1      33.188  24.893  25.979  1.00  0.00     0.244 C 
BRANCH   6   7
ATOM      7  N   UNL A   1      32.098  23.929  25.773  1.00  0.00    -0.310 N 
BRANCH   7   8
ATOM      8  C   UNL A   1      30.848  24.544  25.313  1.00  0.00     0.149 C 
BRANCH   8   9
ATOM      9  C   UNL A   1      30.961  24.780  23.829  1.00  0.00    -0.013 C 
ATOM     10  C   UNL A   1      30.536  25.891  23.211  1.00  0.00     0.006 C 
ENDBRANCH   8   9
ENDBRANCH   7   8
BRANCH   7  11
ATOM     11  C   UNL A   1      32.046  22.556  25.975  1.00  0.00     0.321 C 
ATOM     12  O   UNL A   1      30.946  22.012  25.836  1.00  0.00    -0.248 OA
BRANCH  11  13
ATOM     13  N   UNL A   1      33.168  21.799  26.296  1.00  0.00    -0.319 N 
ATOM     14  C   UNL A   1      33.745  21.667  27.626  1.00  0.00     0.149 C 
BRANCH  13  15
ATOM     15  C   UNL A   1      33.932  21.016  25.246  1.00  0.00     0.141 C 
ATOM     16  C   UNL A   1      33.949  19.470  25.275  1.00  0.00     0.037 C 
ATOM     17  C   UNL A   1      33.571  21.424  23.785  1.00  0.00     0.287 C 
ATOM     18  C   UNL A   1      32.661  18.856  24.719  1.00  0.00     0.064 C 
ATOM     19  N   UNL A   1      32.260  20.906  23.374  1.00  0.00    -0.336 N 
ATOM     20  C   UNL A   1      32.289  19.435  23.352  1.00  0.00     0.262 C 
ATOM     21  C   UNL A   1      31.890  21.438  22.066  1.00  0.00     0.332 C 
ATOM     22  H   UNL A   1      31.557  21.207  24.049  1.00  0.00     0.347 HD
ENDBRANCH  13  15
ENDBRANCH  11  13
ENDBRANCH   7  11
ENDBRANCH   6   7
ENDBRANCH   4   6
ENDBRANCH   3   4
ENDBRANCH   2   3
ENDBRANCH   1   2
BRANCH   1  23
ATOM     23  O   UNL A   1      38.768  22.701  26.062  1.00  0.00    -0.374 OA
BRANCH  23  24
ATOM     24  C   UNL A   1      38.208  21.452  25.661  1.00  0.00     0.202 C 
BRANCH  24  25
ATOM     25  C   UNL A   1      39.215  20.381  25.252  1.00  0.00     0.261 C 
BRANCH  25  26
ATOM     26  O   UNL A   1      39.903  19.843  26.377  1.00  0.00    -0.460 OA
BRANCH  26  27
ATOM     27  C   UNL A   1      41.228  19.685  26.183  1.00  0.00     0.338 C 
ATOM     28  O   UNL A   1      41.811  18.783  25.612  1.00  0.00    -0.246 OA
BRANCH  27  29
ATOM     29  C   UNL A   1      41.886  20.912  26.628  1.00  0.00     0.060 A 
ATOM     30  C   UNL A   1      41.836  21.208  27.993  1.00  0.00     0.016 A 
ATOM     31  C   UNL A   1      42.481  21.778  25.708  1.00  0.00     0.016 A 
ATOM     32  C   UNL A   1      42.330  22.424  28.440  1.00  0.00     0.010 A 
ATOM     33  C   UNL A   1      42.975  22.999  26.161  1.00  0.00     0.010 A 
ATOM     34  C   UNL A   1      42.860  23.339  27.520  1.00  0.00    -0.014 A 
BRANCH  34  35
ATOM     35  C   UNL A   1      43.132  24.717  27.974  1.00  0.00     0.031 A 
ATOM     36  C   UNL A   1      44.562  25.153  28.116  1.00  0.00     0.074 A 
ATOM     37  C   UNL A   1      42.117  25.572  28.176  1.00  0.00     0.049 A 
ATOM     38  N   UNL A   1      45.039  26.329  28.432  1.00  0.00    -0.248 NA
ATOM     39  C   UNL A   1      45.592  24.132  27.863  1.00  0.00     0.031 C 
ATOM     40  C   UNL A   1      40.699  25.249  28.021  1.00  0.00     0.029 A 
ATOM     41  N   UNL A   1      42.128  26.890  28.542  1.00  0.00    -0.354 N 
ATOM     42  C   UNL A   1      46.421  26.190  28.403  1.00  0.00     0.074 A 
ATOM     43  C   UNL A   1      46.708  24.811  28.081  1.00  0.00     0.031 C 
ATOM     44  C   UNL A   1      39.972  26.349  28.283  1.00  0.00     0.029 A 
ATOM     45  C   UNL A   1      40.874  27.439  28.646  1.00  0.00     0.049 A 
ATOM     46  H   UNL A   1      42.954  27.397  28.715  1.00  0.00     0.167 HD
ATOM     47  C   UNL A   1      47.366  27.135  28.614  1.00  0.00     0.031 A 
ATOM     48  C   UNL A   1      40.504  28.683  29.002  1.00  0.00     0.031 A 
ATOM     49  C   UNL A   1      47.068  28.497  28.963  1.00  0.00     0.049 A 
ATOM     50  C   UNL A   1      41.575  29.693  29.315  1.00  0.00     0.074 A 
ATOM     51  C   UNL A   1      47.943  29.537  29.218  1.00  0.00     0.029 A 
ATOM     52  N   UNL A   1      45.785  29.002  29.114  1.00  0.00    -0.354 N 
ATOM     53  N   UNL A   1      42.879  29.558  29.262  1.00  0.00    -0.248 NA
ATOM     54  C   UNL A   1      41.123  31.029  29.726  1.00  0.00     0.031 C 
ATOM     55  C   UNL A   1      47.188  30.662  29.569  1.00  0.00     0.029 A 
ATOM     56  C   UNL A   1      45.843  30.334  29.480  1.00  0.00     0.049 A 
ATOM     57  H   UNL A   1      44.956  28.488  28.980  1.00  0.00     0.167 HD
ATOM     58  C   UNL A   1      43.404  30.796  29.607  1.00  0.00     0.074 A 
ATOM     59  C   UNL A   1      42.275  31.672  29.851  1.00  0.00     0.031 C 
ATOM     60  C   UNL A   1      44.700  31.178  29.716  1.00  0.00     0.031 A 
BRANCH  47  61
ATOM     61  C   UNL A   1      48.802  26.710  28.499  1.00  0.00    -0.014 A 
ATOM     62  C   UNL A   1      49.521  26.268  29.622  1.00  0.00     0.009 A 
ATOM     63  C   UNL A   1      49.444  26.741  27.251  1.00  0.00     0.009 A 
ATOM     64  C   UNL A   1      50.863  25.899  29.502  1.00  0.00     0.001 A 
ATOM     65  C   UNL A   1      50.778  26.347  27.131  1.00  0.00     0.001 A 
ATOM     66  C   UNL A   1      51.489  25.935  28.256  1.00  0.00     0.000 A 
ENDBRANCH  47  61
BRANCH  48  67
ATOM     67  C   UNL A   1      39.065  29.039  29.092  1.00  0.00    -0.014 A 
ATOM     68  C   UNL A   1      38.348  28.851  30.282  1.00  0.00     0.009 A 
ATOM     69  C   UNL A   1      38.394  29.562  27.974  1.00  0.00     0.009 A 
ATOM     70  C   UNL A   1      36.985  29.153  30.345  1.00  0.00     0.001 A 
ATOM     71  C   UNL A   1      37.038  29.889  28.046  1.00  0.00     0.001 A 
ATOM     72  C   UNL A   1      36.333  29.674  29.229  1.00  0.00     0.000 A 
ENDBRANCH  48  67
BRANCH  60  73
ATOM     73  C   UNL A   1      44.958  32.610  30.084  1.00  0.00    -0.014 A 
ATOM     74  C   UNL A   1      45.104  33.001  31.423  1.00  0.00     0.009 A 
ATOM     75  C   UNL A   1      45.099  33.571  29.070  1.00  0.00     0.009 A 
ATOM     76  C   UNL A   1      45.355  34.337  31.741  1.00  0.00     0.001 A 
ATOM     77  C   UNL A   1      45.377  34.900  29.391  1.00  0.00     0.001 A 
ATOM     78  C   UNL A   1      45.495  35.283  30.726  1.00  0.00     0.000 A 
ENDBRANCH  60  73
ENDBRANCH  34  35
ENDBRANCH  27  29
ENDBRANCH  26  27
ENDBRANCH  25  26
ENDBRANCH  24  25
ENDBRANCH  23  24
ENDBRANCH   1  23
TORSDOF 20
ENDMDL
