MODEL 1
REMARK VINA RESULT:     -11.9      0.000      0.000
REMARK SMILES Cc1ccc(C(=O)N2CCCC[C@@H]2C(=O)OCCOCCOC(=O)c2ccc(-c3c4nc(c(-c5ccccc5)c5ccc([nH]5)c(-c5ccccc5)c5nc(c(-c6ccccc6)c6ccc3[nH]6)C=C5)C=C4)cc2)cc1S(=O)(=O)N1CCCCC1
REMARK SMILES IDX 18 1 17 2 16 3 14 4 15 5 13 6 8 7 9 8 10 9 12 10 11 11 6 12
REMARK SMILES IDX 7 13 5 14 1 15 2 16 3 17 74 18 4 19 73 20 75 21 76 22 77 23
REMARK SMILES IDX 78 24 79 25 83 26 80 27 82 28 81 29 19 30 20 31 21 32 22 33
REMARK SMILES IDX 23 34 24 35 25 36 26 37 72 38 27 39 71 40 28 41 29 42 30 43
REMARK SMILES IDX 65 44 31 45 70 46 64 47 66 48 32 49 69 50 63 51 62 52 33 54
REMARK SMILES IDX 55 55 40 56 54 57 41 58 44 59 53 60 67 61 42 62 43 63 52 65
REMARK SMILES IDX 68 66 45 67 34 68 35 69 39 70 36 71 38 72 37 73 56 74 57 75
REMARK SMILES IDX 61 76 58 77 60 78 59 79 46 80 47 81 51 82 48 83 50 84 49 85
REMARK H PARENT 66 53 44 64
REMARK Flexibility Score: inf
ROOT
ATOM      1  C   UNL A   1      35.358  29.713  27.252  1.00  0.00     0.202 C 
ENDROOT
BRANCH   1   2
ATOM      2  C   UNL A   1      34.172  28.883  26.740  1.00  0.00     0.261 C 
BRANCH   2   3
ATOM      3  O   UNL A   1      34.409  28.342  25.414  1.00  0.00    -0.462 OA
BRANCH   3   4
ATOM      4  C   UNL A   1      33.526  28.662  24.418  1.00  0.00     0.328 C 
ATOM      5  O   UNL A   1      33.833  28.967  23.274  1.00  0.00    -0.250 OA
BRANCH   4   6
ATOM      6  C   UNL A   1      32.061  28.376  24.843  1.00  0.00     0.195 C 
ATOM      7  N   UNL A   1      31.533  26.980  25.000  1.00  0.00    -0.325 N 
ATOM      8  C   UNL A   1      30.370  26.529  24.240  1.00  0.00     0.121 C 
ATOM      9  C   UNL A   1      29.901  27.433  23.127  1.00  0.00     0.022 C 
ATOM     10  C   UNL A   1      31.215  29.317  23.942  1.00  0.00     0.037 C 
ATOM     11  C   UNL A   1      29.809  28.844  23.669  1.00  0.00     0.005 C 
BRANCH   7  12
ATOM     12  C   UNL A   1      31.752  26.170  26.140  1.00  0.00     0.254 C 
ATOM     13  O   UNL A   1      31.391  26.487  27.274  1.00  0.00    -0.269 OA
BRANCH  12  14
ATOM     14  C   UNL A   1      32.138  24.771  25.969  1.00  0.00     0.041 A 
ATOM     15  C   UNL A   1      31.993  21.291  24.128  1.00  0.00     0.046 C 
ATOM     16  C   UNL A   1      32.248  22.250  25.188  1.00  0.00    -0.031 A 
ATOM     17  C   UNL A   1      31.149  22.640  25.959  1.00  0.00     0.005 A 
ATOM     18  C   UNL A   1      33.440  22.938  25.083  1.00  0.00     0.086 A 
ATOM     19  C   UNL A   1      31.101  23.928  26.377  1.00  0.00     0.014 A 
ATOM     20  C   UNL A   1      33.360  24.287  25.427  1.00  0.00     0.035 A 
BRANCH  18  21
ATOM     21  S   UNL A   1      34.891  22.123  24.288  1.00  0.00     0.243 S 
ATOM     22  O   UNL A   1      34.643  20.696  24.349  1.00  0.00    -0.207 OA
ATOM     23  O   UNL A   1      35.036  22.806  23.018  1.00  0.00    -0.207 OA
BRANCH  21  24
ATOM     24  N   UNL A   1      36.383  22.428  25.195  1.00  0.00    -0.198 NA
ATOM     25  C   UNL A   1      37.576  21.021  25.367  1.00  0.00     0.102 C 
ATOM     26  C   UNL A   1      36.737  24.151  25.868  1.00  0.00     0.102 C 
ATOM     27  C   UNL A   1      39.396  21.341  26.157  1.00  0.00     0.017 C 
ATOM     28  C   UNL A   1      38.506  24.483  26.802  1.00  0.00     0.017 C 
ATOM     29  C   UNL A   1      39.811  23.058  26.936  1.00  0.00     0.003 C 
ENDBRANCH  21  24
ENDBRANCH  18  21
ENDBRANCH  12  14
ENDBRANCH   7  12
ENDBRANCH   4   6
ENDBRANCH   3   4
ENDBRANCH   2   3
ENDBRANCH   1   2
BRANCH   1  30
ATOM     30  O   UNL A   1      34.872  30.996  27.633  1.00  0.00    -0.374 OA
BRANCH  30  31
ATOM     31  C   UNL A   1      33.465  31.201  27.562  1.00  0.00     0.202 C 
BRANCH  31  32
ATOM     32  C   UNL A   1      33.030  32.672  27.471  1.00  0.00     0.261 C 
BRANCH  32  33
ATOM     33  O   UNL A   1      34.049  33.515  28.037  1.00  0.00    -0.460 OA
BRANCH  33  34
ATOM     34  C   UNL A   1      33.766  34.005  29.272  1.00  0.00     0.338 C 
ATOM     35  O   UNL A   1      32.796  34.686  29.561  1.00  0.00    -0.246 OA
BRANCH  34  36
ATOM     36  C   UNL A   1      34.939  33.811  30.167  1.00  0.00     0.060 A 
ATOM     37  C   UNL A   1      36.240  33.938  29.651  1.00  0.00     0.016 A 
ATOM     38  C   UNL A   1      34.749  33.237  31.424  1.00  0.00     0.016 A 
ATOM     39  C   UNL A   1      37.333  33.411  30.353  1.00  0.00     0.010 A 
ATOM     40  C   UNL A   1      35.811  32.619  32.055  1.00  0.00     0.010 A 
ATOM     41  C   UNL A   1      37.116  32.696  31.537  1.00  0.00    -0.014 A 
BRANCH  41  42
ATOM     42  C   UNL A   1      38.135  31.823  32.200  1.00  0.00     0.031 A 
ATOM     43  C   UNL A   1      38.424  30.445  31.557  1.00  0.00     0.074 A 
ATOM     44  C   UNL A   1      39.053  32.609  32.809  1.00  0.00     0.049 A 
ATOM     45  N   UNL A   1      39.393  29.576  31.710  1.00  0.00    -0.248 NA
ATOM     46  C   UNL A   1      37.417  29.939  30.643  1.00  0.00     0.031 C 
ATOM     47  C   UNL A   1      40.375  32.967  32.337  1.00  0.00     0.029 A 
ATOM     48  N   UNL A   1      38.910  33.551  33.797  1.00  0.00    -0.354 N 
ATOM     49  C   UNL A   1      39.444  28.663  30.603  1.00  0.00     0.074 A 
ATOM     50  C   UNL A   1      38.042  28.902  30.098  1.00  0.00     0.031 C 
ATOM     51  C   UNL A   1      41.068  33.678  33.227  1.00  0.00     0.029 A 
ATOM     52  C   UNL A   1      40.153  33.974  34.277  1.00  0.00     0.049 A 
ATOM     53  H   UNL A   1      38.044  33.885  34.125  1.00  0.00     0.167 HD
ATOM     54  C   UNL A   1      40.750  27.956  30.068  1.00  0.00     0.031 A 
ATOM     55  C   UNL A   1      40.478  33.876  35.581  1.00  0.00     0.031 A 
ATOM     56  C   UNL A   1      41.721  28.255  31.530  1.00  0.00     0.049 A 
ATOM     57  C   UNL A   1      41.100  32.524  35.868  1.00  0.00     0.074 A 
ATOM     58  C   UNL A   1      43.101  28.394  31.873  1.00  0.00     0.029 A 
ATOM     59  N   UNL A   1      41.163  28.420  32.866  1.00  0.00    -0.354 N 
ATOM     60  N   UNL A   1      41.127  31.483  35.059  1.00  0.00    -0.248 NA
ATOM     61  C   UNL A   1      41.842  32.306  37.104  1.00  0.00     0.031 C 
ATOM     62  C   UNL A   1      43.284  29.008  33.116  1.00  0.00     0.029 A 
ATOM     63  C   UNL A   1      42.082  28.978  33.770  1.00  0.00     0.049 A 
ATOM     64  H   UNL A   1      40.241  28.169  33.109  1.00  0.00     0.167 HD
ATOM     65  C   UNL A   1      41.781  30.449  35.693  1.00  0.00     0.074 A 
ATOM     66  C   UNL A   1      42.258  31.043  36.938  1.00  0.00     0.031 C 
ATOM     67  C   UNL A   1      41.952  29.171  35.216  1.00  0.00     0.031 A 
BRANCH  54  68
ATOM     68  C   UNL A   1      41.284  27.006  28.283  1.00  0.00    -0.014 A 
ATOM     69  C   UNL A   1      41.073  27.324  26.772  1.00  0.00     0.009 A 
ATOM     70  C   UNL A   1      42.128  25.743  27.945  1.00  0.00     0.009 A 
ATOM     71  C   UNL A   1      41.508  26.737  25.521  1.00  0.00     0.001 A 
ATOM     72  C   UNL A   1      42.586  25.111  26.719  1.00  0.00     0.001 A 
ATOM     73  C   UNL A   1      42.281  25.621  25.495  1.00  0.00     0.000 A 
ENDBRANCH  54  68
BRANCH  55  74
ATOM     74  C   UNL A   1      39.516  34.740  36.335  1.00  0.00    -0.014 A 
ATOM     75  C   UNL A   1      38.766  34.007  37.294  1.00  0.00     0.009 A 
ATOM     76  C   UNL A   1      39.895  36.054  36.660  1.00  0.00     0.009 A 
ATOM     77  C   UNL A   1      38.680  34.449  38.619  1.00  0.00     0.001 A 
ATOM     78  C   UNL A   1      39.802  36.489  37.994  1.00  0.00     0.001 A 
ATOM     79  C   UNL A   1      39.252  35.664  38.978  1.00  0.00     0.000 A 
ENDBRANCH  55  74
BRANCH  67  80
ATOM     80  C   UNL A   1      42.473  28.046  36.111  1.00  0.00    -0.014 A 
ATOM     81  C   UNL A   1      41.662  27.010  36.596  1.00  0.00     0.009 A 
ATOM     82  C   UNL A   1      43.850  27.954  36.422  1.00  0.00     0.009 A 
ATOM     83  C   UNL A   1      42.178  25.990  37.408  1.00  0.00     0.001 A 
ATOM     84  C   UNL A   1      44.377  26.921  37.202  1.00  0.00     0.001 A 
ATOM     85  C   UNL A   1      43.535  25.942  37.704  1.00  0.00     0.000 A 
ENDBRANCH  67  80
ENDBRANCH  41  42
ENDBRANCH  34  36
ENDBRANCH  33  34
ENDBRANCH  32  33
ENDBRANCH  31  32
ENDBRANCH  30  31
ENDBRANCH   1  30
TORSDOF 18
ENDMDL
MODEL 2
REMARK VINA RESULT:     -11.6      1.286      1.744
REMARK SMILES Cc1ccc(C(=O)N2CCCC[C@@H]2C(=O)OCCOCCOC(=O)c2ccc(-c3c4nc(c(-c5ccccc5)c5ccc([nH]5)c(-c5ccccc5)c5nc(c(-c6ccccc6)c6ccc3[nH]6)C=C5)C=C4)cc2)cc1S(=O)(=O)N1CCCCC1
REMARK SMILES IDX 18 1 17 2 16 3 14 4 15 5 13 6 8 7 9 8 10 9 12 10 11 11 6 12
REMARK SMILES IDX 7 13 5 14 1 15 2 16 3 17 74 18 4 19 73 20 75 21 76 22 77 23
REMARK SMILES IDX 78 24 79 25 83 26 80 27 82 28 81 29 19 30 20 31 21 32 22 33
REMARK SMILES IDX 23 34 24 35 25 36 26 37 72 38 27 39 71 40 28 41 29 42 30 43
REMARK SMILES IDX 65 44 31 45 70 46 64 47 66 48 32 49 69 50 63 51 62 52 33 54
REMARK SMILES IDX 55 55 40 56 54 57 41 58 44 59 53 60 67 61 42 62 43 63 52 65
REMARK SMILES IDX 68 66 45 67 34 68 35 69 39 70 36 71 38 72 37 73 56 74 57 75
REMARK SMILES IDX 61 76 58 77 60 78 59 79 46 80 47 81 51 82 48 83 50 84 49 85
REMARK H PARENT 66 53 44 64
REMARK Flexibility Score: inf
ROOT
ATOM      1  C   UNL A   1      33.585  28.890  26.249  1.00  0.00     0.202 C 
ENDROOT
BRANCH   1   2
ATOM      2  C   UNL A   1      32.687  29.518  25.173  1.00  0.00     0.261 C 
BRANCH   2   3
ATOM      3  O   UNL A   1      32.340  28.576  24.125  1.00  0.00    -0.462 OA
BRANCH   3   4
ATOM      4  C   UNL A   1      31.451  28.977  23.164  1.00  0.00     0.328 C 
ATOM      5  O   UNL A   1      31.697  29.066  21.968  1.00  0.00    -0.250 OA
BRANCH   4   6
ATOM      6  C   UNL A   1      30.012  29.096  23.733  1.00  0.00     0.195 C 
ATOM      7  N   UNL A   1      28.920  28.140  23.350  1.00  0.00    -0.325 N 
ATOM      8  C   UNL A   1      27.677  28.623  22.756  1.00  0.00     0.121 C 
ATOM      9  C   UNL A   1      27.654  30.068  22.321  1.00  0.00     0.022 C 
ATOM     10  C   UNL A   1      29.669  30.604  23.583  1.00  0.00     0.037 C 
ATOM     11  C   UNL A   1      28.198  30.913  23.454  1.00  0.00     0.005 C 
BRANCH   7  12
ATOM     12  C   UNL A   1      28.760  26.849  23.908  1.00  0.00     0.254 C 
ATOM     13  O   UNL A   1      27.698  26.227  23.876  1.00  0.00    -0.269 OA
BRANCH  12  14
ATOM     14  C   UNL A   1      29.940  26.067  24.269  1.00  0.00     0.041 A 
ATOM     15  C   UNL A   1      31.719  22.913  25.821  1.00  0.00     0.046 C 
ATOM     16  C   UNL A   1      31.562  24.266  25.320  1.00  0.00    -0.031 A 
ATOM     17  C   UNL A   1      30.977  25.193  26.188  1.00  0.00     0.005 A 
ATOM     18  C   UNL A   1      31.661  24.401  23.950  1.00  0.00     0.086 A 
ATOM     19  C   UNL A   1      30.160  26.130  25.648  1.00  0.00     0.014 A 
ATOM     20  C   UNL A   1      30.752  25.299  23.391  1.00  0.00     0.035 A 
BRANCH  18  21
ATOM     21  S   UNL A   1      32.744  23.248  23.001  1.00  0.00     0.243 S 
ATOM     22  O   UNL A   1      31.987  22.023  22.829  1.00  0.00    -0.207 OA
ATOM     23  O   UNL A   1      33.183  24.025  21.859  1.00  0.00    -0.207 OA
BRANCH  21  24
ATOM     24  N   UNL A   1      34.204  22.830  23.915  1.00  0.00    -0.198 NA
ATOM     25  C   UNL A   1      34.512  21.034  24.250  1.00  0.00     0.102 C 
ATOM     26  C   UNL A   1      35.407  24.184  24.433  1.00  0.00     0.102 C 
ATOM     27  C   UNL A   1      36.258  20.451  25.055  1.00  0.00     0.017 C 
ATOM     28  C   UNL A   1      37.119  23.650  25.379  1.00  0.00     0.017 C 
ATOM     29  C   UNL A   1      37.513  21.778  25.681  1.00  0.00     0.003 C 
ENDBRANCH  21  24
ENDBRANCH  18  21
ENDBRANCH  12  14
ENDBRANCH   7  12
ENDBRANCH   4   6
ENDBRANCH   3   4
ENDBRANCH   2   3
ENDBRANCH   1   2
BRANCH   1  30
ATOM     30  O   UNL A   1      33.515  29.701  27.416  1.00  0.00    -0.374 OA
BRANCH  30  31
ATOM     31  C   UNL A   1      33.696  31.102  27.243  1.00  0.00     0.202 C 
BRANCH  31  32
ATOM     32  C   UNL A   1      33.945  31.888  28.539  1.00  0.00     0.261 C 
BRANCH  32  33
ATOM     33  O   UNL A   1      33.923  33.300  28.261  1.00  0.00    -0.460 OA
BRANCH  33  34
ATOM     34  C   UNL A   1      33.841  34.097  29.357  1.00  0.00     0.338 C 
ATOM     35  O   UNL A   1      33.030  34.994  29.523  1.00  0.00    -0.246 OA
BRANCH  34  36
ATOM     36  C   UNL A   1      35.040  33.894  30.215  1.00  0.00     0.060 A 
ATOM     37  C   UNL A   1      36.321  33.905  29.638  1.00  0.00     0.016 A 
ATOM     38  C   UNL A   1      34.873  33.423  31.517  1.00  0.00     0.016 A 
ATOM     39  C   UNL A   1      37.412  33.362  30.332  1.00  0.00     0.010 A 
ATOM     40  C   UNL A   1      35.924  32.786  32.147  1.00  0.00     0.010 A 
ATOM     41  C   UNL A   1      37.207  32.745  31.571  1.00  0.00    -0.014 A 
BRANCH  41  42
ATOM     42  C   UNL A   1      38.202  31.860  32.254  1.00  0.00     0.031 A 
ATOM     43  C   UNL A   1      38.454  30.461  31.640  1.00  0.00     0.074 A 
ATOM     44  C   UNL A   1      39.141  32.634  32.847  1.00  0.00     0.049 A 
ATOM     45  N   UNL A   1      39.399  29.570  31.813  1.00  0.00    -0.248 NA
ATOM     46  C   UNL A   1      37.434  29.963  30.737  1.00  0.00     0.031 C 
ATOM     47  C   UNL A   1      40.472  32.947  32.367  1.00  0.00     0.029 A 
ATOM     48  N   UNL A   1      39.024  33.600  33.814  1.00  0.00    -0.354 N 
ATOM     49  C   UNL A   1      39.426  28.633  30.726  1.00  0.00     0.074 A 
ATOM     50  C   UNL A   1      38.031  28.898  30.215  1.00  0.00     0.031 C 
ATOM     51  C   UNL A   1      41.184  33.657  33.242  1.00  0.00     0.029 A 
ATOM     52  C   UNL A   1      40.277  34.000  34.285  1.00  0.00     0.049 A 
ATOM     53  H   UNL A   1      38.167  33.965  34.134  1.00  0.00     0.167 HD
ATOM     54  C   UNL A   1      40.713  27.880  30.207  1.00  0.00     0.031 A 
ATOM     55  C   UNL A   1      40.600  33.921  35.591  1.00  0.00     0.031 A 
ATOM     56  C   UNL A   1      41.691  28.183  31.662  1.00  0.00     0.049 A 
ATOM     57  C   UNL A   1      41.185  32.559  35.907  1.00  0.00     0.074 A 
ATOM     58  C   UNL A   1      43.074  28.292  32.003  1.00  0.00     0.029 A 
ATOM     59  N   UNL A   1      41.137  28.392  32.994  1.00  0.00    -0.354 N 
ATOM     60  N   UNL A   1      41.184  31.501  35.121  1.00  0.00    -0.248 NA
ATOM     61  C   UNL A   1      41.922  32.348  37.148  1.00  0.00     0.031 C 
ATOM     62  C   UNL A   1      43.274  28.928  33.232  1.00  0.00     0.029 A 
ATOM     63  C   UNL A   1      42.072  28.945  33.886  1.00  0.00     0.049 A 
ATOM     64  H   UNL A   1      40.210  28.171  33.242  1.00  0.00     0.167 HD
ATOM     65  C   UNL A   1      41.810  30.464  35.777  1.00  0.00     0.074 A 
ATOM     66  C   UNL A   1      42.303  31.071  37.009  1.00  0.00     0.031 C 
ATOM     67  C   UNL A   1      41.947  29.172  35.328  1.00  0.00     0.031 A 
BRANCH  54  68
ATOM     68  C   UNL A   1      41.220  26.878  28.442  1.00  0.00    -0.014 A 
ATOM     69  C   UNL A   1      40.755  26.976  26.958  1.00  0.00     0.009 A 
ATOM     70  C   UNL A   1      42.281  25.796  28.084  1.00  0.00     0.009 A 
ATOM     71  C   UNL A   1      41.152  26.363  25.707  1.00  0.00     0.001 A 
ATOM     72  C   UNL A   1      42.713  25.147  26.858  1.00  0.00     0.001 A 
ATOM     73  C   UNL A   1      42.150  25.444  25.655  1.00  0.00     0.000 A 
ENDBRANCH  54  68
BRANCH  55  74
ATOM     74  C   UNL A   1      39.662  34.827  36.327  1.00  0.00    -0.014 A 
ATOM     75  C   UNL A   1      38.782  34.114  37.185  1.00  0.00     0.009 A 
ATOM     76  C   UNL A   1      40.126  36.083  36.753  1.00  0.00     0.009 A 
ATOM     77  C   UNL A   1      38.636  34.491  38.525  1.00  0.00     0.001 A 
ATOM     78  C   UNL A   1      39.971  36.453  38.101  1.00  0.00     0.001 A 
ATOM     79  C   UNL A   1      39.281  35.630  38.994  1.00  0.00     0.000 A 
ENDBRANCH  55  74
BRANCH  67  80
ATOM     80  C   UNL A   1      42.437  28.053  36.247  1.00  0.00    -0.014 A 
ATOM     81  C   UNL A   1      41.648  26.951  36.608  1.00  0.00     0.009 A 
ATOM     82  C   UNL A   1      43.773  28.037  36.711  1.00  0.00     0.009 A 
ATOM     83  C   UNL A   1      42.136  25.939  37.447  1.00  0.00     0.001 A 
ATOM     84  C   UNL A   1      44.277  27.015  37.519  1.00  0.00     0.001 A 
ATOM     85  C   UNL A   1      43.452  25.967  37.896  1.00  0.00     0.000 A 
ENDBRANCH  67  80
ENDBRANCH  41  42
ENDBRANCH  34  36
ENDBRANCH  33  34
ENDBRANCH  32  33
ENDBRANCH  31  32
ENDBRANCH  30  31
ENDBRANCH   1  30
TORSDOF 18
ENDMDL
MODEL 3
REMARK VINA RESULT:     -11.4      4.513     10.632
REMARK SMILES Cc1ccc(C(=O)N2CCCC[C@@H]2C(=O)OCCOCCOC(=O)c2ccc(-c3c4nc(c(-c5ccccc5)c5ccc([nH]5)c(-c5ccccc5)c5nc(c(-c6ccccc6)c6ccc3[nH]6)C=C5)C=C4)cc2)cc1S(=O)(=O)N1CCCCC1
REMARK SMILES IDX 18 1 17 2 16 3 14 4 15 5 13 6 8 7 9 8 10 9 12 10 11 11 6 12
REMARK SMILES IDX 7 13 5 14 1 15 2 16 3 17 74 18 4 19 73 20 75 21 76 22 77 23
REMARK SMILES IDX 78 24 79 25 83 26 80 27 82 28 81 29 19 30 20 31 21 32 22 33
REMARK SMILES IDX 23 34 24 35 25 36 26 37 72 38 27 39 71 40 28 41 29 42 30 43
REMARK SMILES IDX 65 44 31 45 70 46 64 47 66 48 32 49 69 50 63 51 62 52 33 54
REMARK SMILES IDX 55 55 40 56 54 57 41 58 44 59 53 60 67 61 42 62 43 63 52 65
REMARK SMILES IDX 68 66 45 67 34 68 35 69 39 70 36 71 38 72 37 73 56 74 57 75
REMARK SMILES IDX 61 76 58 77 60 78 59 79 46 80 47 81 51 82 48 83 50 84 49 85
REMARK H PARENT 66 53 44 64
REMARK Flexibility Score: inf
ROOT
ATOM      1  C   UNL A   1      37.106  23.314  25.009  1.00  0.00     0.202 C 
ENDROOT
BRANCH   1   2
ATOM      2  C   UNL A   1      35.657  23.372  24.502  1.00  0.00     0.261 C 
BRANCH   2   3
ATOM      3  O   UNL A   1      34.694  23.082  25.548  1.00  0.00    -0.462 OA
BRANCH   3   4
ATOM      4  C   UNL A   1      34.479  21.772  25.883  1.00  0.00     0.328 C 
ATOM      5  O   UNL A   1      34.333  21.350  27.022  1.00  0.00    -0.250 OA
BRANCH   4   6
ATOM      6  C   UNL A   1      34.215  20.899  24.627  1.00  0.00     0.195 C 
ATOM      7  N   UNL A   1      32.882  20.872  23.939  1.00  0.00    -0.325 N 
ATOM      8  C   UNL A   1      32.156  19.618  23.762  1.00  0.00     0.121 C 
ATOM      9  C   UNL A   1      32.682  18.422  24.517  1.00  0.00     0.022 C 
ATOM     10  C   UNL A   1      34.808  19.512  24.999  1.00  0.00     0.037 C 
ATOM     11  C   UNL A   1      34.177  18.339  24.292  1.00  0.00     0.005 C 
BRANCH   7  12
ATOM     12  C   UNL A   1      32.435  21.861  23.031  1.00  0.00     0.254 C 
ATOM     13  O   UNL A   1      32.131  21.618  21.862  1.00  0.00    -0.269 OA
BRANCH  12  14
ATOM     14  C   UNL A   1      32.014  23.167  23.534  1.00  0.00     0.041 A 
ATOM     15  C   UNL A   1      31.998  26.059  26.209  1.00  0.00     0.046 C 
ATOM     16  C   UNL A   1      31.560  25.261  25.078  1.00  0.00    -0.031 A 
ATOM     17  C   UNL A   1      30.869  24.082  25.370  1.00  0.00     0.005 A 
ATOM     18  C   UNL A   1      32.180  25.553  23.879  1.00  0.00     0.086 A 
ATOM     19  C   UNL A   1      31.086  23.012  24.567  1.00  0.00     0.014 A 
ATOM     20  C   UNL A   1      32.483  24.437  23.100  1.00  0.00     0.035 A 
BRANCH  18  21
ATOM     21  S   UNL A   1      32.760  27.273  23.552  1.00  0.00     0.243 S 
ATOM     22  O   UNL A   1      33.709  27.591  24.601  1.00  0.00    -0.207 OA
ATOM     23  O   UNL A   1      33.158  27.260  22.159  1.00  0.00    -0.207 OA
BRANCH  21  24
ATOM     24  N   UNL A   1      31.433  28.441  23.684  1.00  0.00    -0.198 NA
ATOM     25  C   UNL A   1      31.610  29.790  24.940  1.00  0.00     0.102 C 
ATOM     26  C   UNL A   1      29.960  28.323  22.516  1.00  0.00     0.102 C 
ATOM     27  C   UNL A   1      30.280  31.296  24.987  1.00  0.00     0.017 C 
ATOM     28  C   UNL A   1      28.518  29.745  22.627  1.00  0.00     0.017 C 
ATOM     29  C   UNL A   1      28.703  31.213  23.875  1.00  0.00     0.003 C 
ENDBRANCH  21  24
ENDBRANCH  18  21
ENDBRANCH  12  14
ENDBRANCH   7  12
ENDBRANCH   4   6
ENDBRANCH   3   4
ENDBRANCH   2   3
ENDBRANCH   1   2
BRANCH   1  30
ATOM     30  O   UNL A   1      37.700  22.116  24.523  1.00  0.00    -0.374 OA
BRANCH  30  31
ATOM     31  C   UNL A   1      38.116  21.161  25.493  1.00  0.00     0.202 C 
BRANCH  31  32
ATOM     32  C   UNL A   1      39.434  21.498  26.209  1.00  0.00     0.261 C 
BRANCH  32  33
ATOM     33  O   UNL A   1      40.545  21.026  25.426  1.00  0.00    -0.460 OA
BRANCH  33  34
ATOM     34  C   UNL A   1      41.611  20.595  26.147  1.00  0.00     0.338 C 
ATOM     35  O   UNL A   1      41.713  19.503  26.680  1.00  0.00    -0.246 OA
BRANCH  34  36
ATOM     36  C   UNL A   1      42.530  21.736  26.412  1.00  0.00     0.060 A 
ATOM     37  C   UNL A   1      42.661  22.237  27.718  1.00  0.00     0.016 A 
ATOM     38  C   UNL A   1      43.031  22.470  25.337  1.00  0.00     0.016 A 
ATOM     39  C   UNL A   1      43.212  23.509  27.934  1.00  0.00     0.010 A 
ATOM     40  C   UNL A   1      43.465  23.765  25.544  1.00  0.00     0.010 A 
ATOM     41  C   UNL A   1      43.566  24.306  26.839  1.00  0.00    -0.014 A 
BRANCH  41  42
ATOM     42  C   UNL A   1      43.856  25.772  26.914  1.00  0.00     0.031 A 
ATOM     43  C   UNL A   1      42.647  26.736  27.001  1.00  0.00     0.074 A 
ATOM     44  C   UNL A   1      45.044  25.952  27.536  1.00  0.00     0.049 A 
ATOM     45  N   UNL A   1      42.538  28.001  27.326  1.00  0.00    -0.248 NA
ATOM     46  C   UNL A   1      41.365  26.198  26.583  1.00  0.00     0.031 C 
ATOM     47  C   UNL A   1      45.282  26.325  28.915  1.00  0.00     0.029 A 
ATOM     48  N   UNL A   1      46.301  25.507  27.209  1.00  0.00    -0.354 N 
ATOM     49  C   UNL A   1      41.181  28.329  27.662  1.00  0.00     0.074 A 
ATOM     50  C   UNL A   1      40.529  27.147  26.986  1.00  0.00     0.031 C 
ATOM     51  C   UNL A   1      46.573  26.518  29.185  1.00  0.00     0.029 A 
ATOM     52  C   UNL A   1      47.274  26.102  28.016  1.00  0.00     0.049 A 
ATOM     53  H   UNL A   1      46.492  24.854  26.498  1.00  0.00     0.167 HD
ATOM     54  C   UNL A   1      40.744  29.449  28.685  1.00  0.00     0.031 A 
ATOM     55  C   UNL A   1      48.299  26.802  27.490  1.00  0.00     0.031 A 
ATOM     56  C   UNL A   1      42.308  30.298  28.693  1.00  0.00     0.049 A 
ATOM     57  C   UNL A   1      47.906  28.255  27.310  1.00  0.00     0.074 A 
ATOM     58  C   UNL A   1      43.052  31.137  29.578  1.00  0.00     0.029 A 
ATOM     59  N   UNL A   1      43.253  30.286  27.583  1.00  0.00    -0.354 N 
ATOM     60  N   UNL A   1      46.694  28.761  27.414  1.00  0.00    -0.248 NA
ATOM     61  C   UNL A   1      48.932  29.269  27.090  1.00  0.00     0.031 C 
ATOM     62  C   UNL A   1      44.405  31.212  29.235  1.00  0.00     0.029 A 
ATOM     63  C   UNL A   1      44.532  30.730  27.959  1.00  0.00     0.049 A 
ATOM     64  H   UNL A   1      43.022  29.998  26.670  1.00  0.00     0.167 HD
ATOM     65  C   UNL A   1      46.760  30.117  27.177  1.00  0.00     0.074 A 
ATOM     66  C   UNL A   1      48.188  30.383  27.043  1.00  0.00     0.031 C 
ATOM     67  C   UNL A   1      45.702  30.992  27.117  1.00  0.00     0.031 A 
BRANCH  54  68
ATOM     68  C   UNL A   1      38.993  29.868  29.750  1.00  0.00    -0.014 A 
ATOM     69  C   UNL A   1      37.489  29.504  29.564  1.00  0.00     0.009 A 
ATOM     70  C   UNL A   1      38.696  30.596  31.093  1.00  0.00     0.009 A 
ATOM     71  C   UNL A   1      36.275  29.701  30.330  1.00  0.00     0.001 A 
ATOM     72  C   UNL A   1      37.507  30.826  31.897  1.00  0.00     0.001 A 
ATOM     73  C   UNL A   1      36.286  30.363  31.515  1.00  0.00     0.000 A 
ENDBRANCH  54  68
BRANCH  55  74
ATOM     74  C   UNL A   1      49.094  25.847  26.656  1.00  0.00    -0.014 A 
ATOM     75  C   UNL A   1      49.211  26.273  25.306  1.00  0.00     0.009 A 
ATOM     76  C   UNL A   1      50.193  25.191  27.238  1.00  0.00     0.009 A 
ATOM     77  C   UNL A   1      50.464  26.328  24.683  1.00  0.00     0.001 A 
ATOM     78  C   UNL A   1      51.446  25.248  26.603  1.00  0.00     0.001 A 
ATOM     79  C   UNL A   1      51.589  25.868  25.359  1.00  0.00     0.000 A 
ENDBRANCH  55  74
BRANCH  67  80
ATOM     80  C   UNL A   1      45.873  32.421  26.600  1.00  0.00    -0.014 A 
ATOM     81  C   UNL A   1      47.071  33.142  26.716  1.00  0.00     0.009 A 
ATOM     82  C   UNL A   1      44.831  33.058  25.887  1.00  0.00     0.009 A 
ATOM     83  C   UNL A   1      47.192  34.449  26.222  1.00  0.00     0.001 A 
ATOM     84  C   UNL A   1      44.957  34.347  25.362  1.00  0.00     0.001 A 
ATOM     85  C   UNL A   1      46.140  35.048  25.540  1.00  0.00     0.000 A 
ENDBRANCH  67  80
ENDBRANCH  41  42
ENDBRANCH  34  36
ENDBRANCH  33  34
ENDBRANCH  32  33
ENDBRANCH  31  32
ENDBRANCH  30  31
ENDBRANCH   1  30
TORSDOF 18
ENDMDL
