MODEL 1
REMARK VINA RESULT:     -11.1      0.000      0.000
REMARK SMILES Cc1cc2c(c(C)c1Br)C=C(C(=O)OCCOCCOC(=O)c1ccc(-c3c4nc(c(-c5ccccc5)c5ccc([nH]5)c(-c5ccccc5)c5nc(c(-c6ccccc6)c6ccc3[nH]6)C=C5)C=C4)cc1)[C@@H](C(F)(F)F)O2
REMARK SMILES IDX 18 1 17 2 16 3 15 4 14 5 12 6 13 7 11 8 1 9 2 10 3 11 8 12
REMARK SMILES IDX 4 13 6 14 9 15 5 16 76 17 7 18 10 19 71 20 72 21 73 22 74 23
REMARK SMILES IDX 75 24 19 25 20 26 21 27 22 28 23 29 24 30 70 31 25 32 69 33
REMARK SMILES IDX 26 34 27 35 28 36 63 37 29 38 68 39 62 40 64 41 30 42 67 43
REMARK SMILES IDX 61 44 60 45 31 47 53 48 38 49 52 50 39 51 42 52 51 53 65 54
REMARK SMILES IDX 40 55 41 56 50 58 66 59 43 60 32 61 33 62 37 63 34 64 36 65
REMARK SMILES IDX 35 66 54 67 55 68 59 69 56 70 58 71 57 72 44 73 45 74 49 75
REMARK SMILES IDX 46 76 48 77 47 78
REMARK H PARENT 64 46 42 57
REMARK Flexibility Score: inf
ROOT
ATOM      1  C   UNL A   1      35.798  21.802  25.882  1.00  0.00     0.202 C 
ENDROOT
BRANCH   1   2
ATOM      2  O   UNL A   1      34.499  21.295  26.194  1.00  0.00    -0.374 OA
BRANCH   2   3
ATOM      3  C   UNL A   1      33.768  21.931  27.240  1.00  0.00     0.202 C 
BRANCH   3   4
ATOM      4  C   UNL A   1      32.731  22.975  26.818  1.00  0.00     0.261 C 
BRANCH   4   5
ATOM      5  O   UNL A   1      33.328  24.268  26.640  1.00  0.00    -0.460 OA
BRANCH   5   6
ATOM      6  C   UNL A   1      33.370  24.694  25.356  1.00  0.00     0.338 C 
ATOM      7  O   UNL A   1      33.631  24.022  24.369  1.00  0.00    -0.246 OA
BRANCH   6   8
ATOM      8  C   UNL A   1      32.924  26.095  25.277  1.00  0.00     0.087 C 
ATOM      9  C   UNL A   1      31.370  32.192  26.731  1.00  0.00     0.046 C 
ATOM     10  C   UNL A   1      32.091  30.900  26.453  1.00  0.00    -0.033 A 
ATOM     11  C   UNL A   1      31.469  29.958  25.621  1.00  0.00     0.051 A 
ATOM     12  C   UNL A   1      33.339  30.583  27.029  1.00  0.00     0.024 A 
ATOM     13  C   UNL A   1      32.030  28.699  25.419  1.00  0.00     0.128 A 
ATOM     14  C   UNL A   1      33.947  29.327  26.798  1.00  0.00    -0.026 A 
ATOM     15  Br  UNL A   1      34.170  31.873  28.173  1.00  0.00    -0.050 Br
ATOM     16  C   UNL A   1      33.241  28.363  26.033  1.00  0.00     0.021 A 
ATOM     17  O   UNL A   1      31.315  27.865  24.607  1.00  0.00    -0.475 OA
ATOM     18  C   UNL A   1      35.304  28.968  27.361  1.00  0.00     0.046 C 
ATOM     19  C   UNL A   1      33.690  26.978  25.930  1.00  0.00     0.027 C 
ATOM     20  C   UNL A   1      31.670  26.457  24.541  1.00  0.00     0.316 C 
BRANCH  20  21
ATOM     21  C   UNL A   1      30.455  25.634  24.990  1.00  0.00     0.430 C 
ATOM     22  F   UNL A   1      30.419  25.507  26.339  1.00  0.00    -0.167 F 
ATOM     23  F   UNL A   1      29.289  26.223  24.630  1.00  0.00    -0.167 F 
ATOM     24  F   UNL A   1      30.459  24.388  24.465  1.00  0.00    -0.167 F 
ENDBRANCH  20  21
ENDBRANCH   6   8
ENDBRANCH   5   6
ENDBRANCH   4   5
ENDBRANCH   3   4
ENDBRANCH   2   3
ENDBRANCH   1   2
BRANCH   1  25
ATOM     25  C   UNL A   1      36.819  20.808  25.316  1.00  0.00     0.261 C 
BRANCH  25  26
ATOM     26  O   UNL A   1      38.078  21.437  25.017  1.00  0.00    -0.460 OA
BRANCH  26  27
ATOM     27  C   UNL A   1      39.063  21.170  25.905  1.00  0.00     0.338 C 
ATOM     28  O   UNL A   1      39.656  20.113  26.063  1.00  0.00    -0.246 OA
BRANCH  27  29
ATOM     29  C   UNL A   1      39.486  22.405  26.586  1.00  0.00     0.060 A 
ATOM     30  C   UNL A   1      38.921  23.610  26.149  1.00  0.00     0.016 A 
ATOM     31  C   UNL A   1      40.504  22.399  27.542  1.00  0.00     0.016 A 
ATOM     32  C   UNL A   1      39.420  24.823  26.614  1.00  0.00     0.010 A 
ATOM     33  C   UNL A   1      41.016  23.618  27.995  1.00  0.00     0.010 A 
ATOM     34  C   UNL A   1      40.508  24.831  27.496  1.00  0.00    -0.014 A 
BRANCH  34  35
ATOM     35  C   UNL A   1      41.249  26.094  27.719  1.00  0.00     0.031 A 
ATOM     36  C   UNL A   1      40.621  27.148  28.589  1.00  0.00     0.074 A 
ATOM     37  C   UNL A   1      42.475  26.284  27.203  1.00  0.00     0.049 A 
ATOM     38  N   UNL A   1      41.050  28.350  28.878  1.00  0.00    -0.248 NA
ATOM     39  C   UNL A   1      39.339  26.797  29.223  1.00  0.00     0.031 C 
ATOM     40  C   UNL A   1      43.225  25.308  26.417  1.00  0.00     0.029 A 
ATOM     41  N   UNL A   1      43.304  27.375  27.274  1.00  0.00    -0.354 N 
ATOM     42  C   UNL A   1      40.092  28.898  29.722  1.00  0.00     0.074 A 
ATOM     43  C   UNL A   1      39.048  27.908  29.883  1.00  0.00     0.031 C 
ATOM     44  C   UNL A   1      44.408  25.847  26.072  1.00  0.00     0.029 A 
ATOM     45  C   UNL A   1      44.478  27.216  26.581  1.00  0.00     0.049 A 
ATOM     46  H   UNL A   1      43.078  28.193  27.772  1.00  0.00     0.167 HD
ATOM     47  C   UNL A   1      40.082  30.114  30.315  1.00  0.00     0.031 A 
ATOM     48  C   UNL A   1      45.481  28.087  26.362  1.00  0.00     0.031 A 
ATOM     49  C   UNL A   1      41.106  31.107  30.140  1.00  0.00     0.049 A 
ATOM     50  C   UNL A   1      45.392  29.476  26.936  1.00  0.00     0.074 A 
ATOM     51  C   UNL A   1      41.176  32.380  30.678  1.00  0.00     0.029 A 
ATOM     52  N   UNL A   1      42.241  30.936  29.363  1.00  0.00    -0.354 N 
ATOM     53  N   UNL A   1      44.467  29.996  27.707  1.00  0.00    -0.248 NA
ATOM     54  C   UNL A   1      46.486  30.400  26.602  1.00  0.00     0.031 C 
ATOM     55  C   UNL A   1      42.330  32.997  30.186  1.00  0.00     0.029 A 
ATOM     56  C   UNL A   1      43.005  32.090  29.385  1.00  0.00     0.049 A 
ATOM     57  H   UNL A   1      42.469  30.117  28.867  1.00  0.00     0.167 HD
ATOM     58  C   UNL A   1      44.872  31.301  27.959  1.00  0.00     0.074 A 
ATOM     59  C   UNL A   1      46.137  31.485  27.278  1.00  0.00     0.031 C 
ATOM     60  C   UNL A   1      44.252  32.262  28.686  1.00  0.00     0.031 A 
BRANCH  47  61
ATOM     61  C   UNL A   1      38.902  30.449  31.181  1.00  0.00    -0.014 A 
ATOM     62  C   UNL A   1      38.995  30.411  32.581  1.00  0.00     0.009 A 
ATOM     63  C   UNL A   1      37.690  30.838  30.589  1.00  0.00     0.009 A 
ATOM     64  C   UNL A   1      37.888  30.733  33.370  1.00  0.00     0.001 A 
ATOM     65  C   UNL A   1      36.594  31.182  31.381  1.00  0.00     0.001 A 
ATOM     66  C   UNL A   1      36.692  31.123  32.770  1.00  0.00     0.000 A 
ENDBRANCH  47  61
BRANCH  48  67
ATOM     67  C   UNL A   1      46.647  27.685  25.535  1.00  0.00    -0.014 A 
ATOM     68  C   UNL A   1      46.645  27.896  24.148  1.00  0.00     0.009 A 
ATOM     69  C   UNL A   1      47.764  27.077  26.128  1.00  0.00     0.009 A 
ATOM     70  C   UNL A   1      47.732  27.490  23.370  1.00  0.00     0.001 A 
ATOM     71  C   UNL A   1      48.861  26.696  25.351  1.00  0.00     0.001 A 
ATOM     72  C   UNL A   1      48.841  26.897  23.973  1.00  0.00     0.000 A 
ENDBRANCH  48  67
BRANCH  60  73
ATOM     73  C   UNL A   1      44.935  33.596  28.787  1.00  0.00    -0.014 A 
ATOM     74  C   UNL A   1      45.763  33.904  29.878  1.00  0.00     0.009 A 
ATOM     75  C   UNL A   1      44.783  34.539  27.759  1.00  0.00     0.009 A 
ATOM     76  C   UNL A   1      46.399  35.144  29.951  1.00  0.00     0.001 A 
ATOM     77  C   UNL A   1      45.442  35.766  27.821  1.00  0.00     0.001 A 
ATOM     78  C   UNL A   1      46.243  36.072  28.922  1.00  0.00     0.000 A 
ENDBRANCH  60  73
ENDBRANCH  34  35
ENDBRANCH  27  29
ENDBRANCH  26  27
ENDBRANCH  25  26
ENDBRANCH   1  25
TORSDOF 15
ENDMDL
MODEL 2
REMARK VINA RESULT:     -10.6      2.434      3.407
REMARK SMILES Cc1cc2c(c(C)c1Br)C=C(C(=O)OCCOCCOC(=O)c1ccc(-c3c4nc(c(-c5ccccc5)c5ccc([nH]5)c(-c5ccccc5)c5nc(c(-c6ccccc6)c6ccc3[nH]6)C=C5)C=C4)cc1)[C@@H](C(F)(F)F)O2
REMARK SMILES IDX 18 1 17 2 16 3 15 4 14 5 12 6 13 7 11 8 1 9 2 10 3 11 8 12
REMARK SMILES IDX 4 13 6 14 9 15 5 16 76 17 7 18 10 19 71 20 72 21 73 22 74 23
REMARK SMILES IDX 75 24 19 25 20 26 21 27 22 28 23 29 24 30 70 31 25 32 69 33
REMARK SMILES IDX 26 34 27 35 28 36 63 37 29 38 68 39 62 40 64 41 30 42 67 43
REMARK SMILES IDX 61 44 60 45 31 47 53 48 38 49 52 50 39 51 42 52 51 53 65 54
REMARK SMILES IDX 40 55 41 56 50 58 66 59 43 60 32 61 33 62 37 63 34 64 36 65
REMARK SMILES IDX 35 66 54 67 55 68 59 69 56 70 58 71 57 72 44 73 45 74 49 75
REMARK SMILES IDX 46 76 48 77 47 78
REMARK H PARENT 64 46 42 57
REMARK Flexibility Score: inf
ROOT
ATOM      1  C   UNL A   1      38.569  19.562  25.042  1.00  0.00     0.202 C 
ENDROOT
BRANCH   1   2
ATOM      2  O   UNL A   1      37.882  20.815  25.054  1.00  0.00    -0.374 OA
BRANCH   2   3
ATOM      3  C   UNL A   1      38.501  21.909  25.727  1.00  0.00     0.202 C 
BRANCH   3   4
ATOM      4  C   UNL A   1      37.667  23.184  25.878  1.00  0.00     0.261 C 
BRANCH   4   5
ATOM      5  O   UNL A   1      36.537  23.181  24.994  1.00  0.00    -0.460 OA
BRANCH   5   6
ATOM      6  C   UNL A   1      35.343  23.340  25.610  1.00  0.00     0.338 C 
ATOM      7  O   UNL A   1      35.009  22.879  26.692  1.00  0.00    -0.246 OA
BRANCH   6   8
ATOM      8  C   UNL A   1      34.504  24.278  24.845  1.00  0.00     0.087 C 
ATOM      9  C   UNL A   1      30.171  28.764  23.172  1.00  0.00     0.046 C 
ATOM     10  C   UNL A   1      31.365  28.023  23.713  1.00  0.00    -0.033 A 
ATOM     11  C   UNL A   1      31.721  26.808  23.109  1.00  0.00     0.051 A 
ATOM     12  C   UNL A   1      32.105  28.476  24.824  1.00  0.00     0.024 A 
ATOM     13  C   UNL A   1      32.741  26.019  23.636  1.00  0.00     0.128 A 
ATOM     14  C   UNL A   1      33.175  27.712  25.345  1.00  0.00    -0.026 A 
ATOM     15  Br  UNL A   1      31.599  30.130  25.645  1.00  0.00    -0.050 Br
ATOM     16  C   UNL A   1      33.442  26.441  24.771  1.00  0.00     0.021 A 
ATOM     17  O   UNL A   1      32.976  24.849  22.971  1.00  0.00    -0.475 OA
ATOM     18  C   UNL A   1      34.021  28.186  26.505  1.00  0.00     0.046 C 
ATOM     19  C   UNL A   1      34.374  25.498  25.380  1.00  0.00     0.027 C 
ATOM     20  C   UNL A   1      33.828  23.842  23.581  1.00  0.00     0.316 C 
BRANCH  20  21
ATOM     21  C   UNL A   1      33.003  22.558  23.757  1.00  0.00     0.430 C 
ATOM     22  F   UNL A   1      32.138  22.387  22.727  1.00  0.00    -0.167 F 
ATOM     23  F   UNL A   1      33.790  21.456  23.783  1.00  0.00    -0.167 F 
ATOM     24  F   UNL A   1      32.280  22.568  24.898  1.00  0.00    -0.167 F 
ENDBRANCH  20  21
ENDBRANCH   6   8
ENDBRANCH   5   6
ENDBRANCH   4   5
ENDBRANCH   3   4
ENDBRANCH   2   3
ENDBRANCH   1   2
BRANCH   1  25
ATOM     25  C   UNL A   1      39.751  19.404  26.005  1.00  0.00     0.261 C 
BRANCH  25  26
ATOM     26  O   UNL A   1      41.003  19.271  25.308  1.00  0.00    -0.460 OA
BRANCH  26  27
ATOM     27  C   UNL A   1      42.094  19.570  26.050  1.00  0.00     0.338 C 
ATOM     28  O   UNL A   1      43.109  18.902  26.186  1.00  0.00    -0.246 OA
BRANCH  27  29
ATOM     29  C   UNL A   1      41.994  20.943  26.574  1.00  0.00     0.060 A 
ATOM     30  C   UNL A   1      42.283  21.993  25.693  1.00  0.00     0.016 A 
ATOM     31  C   UNL A   1      41.749  21.191  27.926  1.00  0.00     0.016 A 
ATOM     32  C   UNL A   1      42.397  23.294  26.173  1.00  0.00     0.010 A 
ATOM     33  C   UNL A   1      41.881  22.496  28.410  1.00  0.00     0.010 A 
ATOM     34  C   UNL A   1      42.253  23.541  27.544  1.00  0.00    -0.014 A 
BRANCH  34  35
ATOM     35  C   UNL A   1      42.706  24.838  28.097  1.00  0.00     0.031 A 
ATOM     36  C   UNL A   1      41.679  25.912  28.333  1.00  0.00     0.074 A 
ATOM     37  C   UNL A   1      43.990  25.044  28.431  1.00  0.00     0.049 A 
ATOM     38  N   UNL A   1      41.846  27.141  28.751  1.00  0.00    -0.248 NA
ATOM     39  C   UNL A   1      40.277  25.550  28.068  1.00  0.00     0.031 C 
ATOM     40  C   UNL A   1      45.061  24.055  28.332  1.00  0.00     0.029 A 
ATOM     41  N   UNL A   1      44.605  26.164  28.928  1.00  0.00    -0.354 N 
ATOM     42  C   UNL A   1      40.573  27.697  28.795  1.00  0.00     0.074 A 
ATOM     43  C   UNL A   1      39.647  26.682  28.342  1.00  0.00     0.031 C 
ATOM     44  C   UNL A   1      46.209  24.617  28.752  1.00  0.00     0.029 A 
ATOM     45  C   UNL A   1      45.957  26.011  29.113  1.00  0.00     0.049 A 
ATOM     46  H   UNL A   1      44.124  26.998  29.133  1.00  0.00     0.167 HD
ATOM     47  C   UNL A   1      40.205  28.941  29.182  1.00  0.00     0.031 A 
ATOM     48  C   UNL A   1      46.886  26.904  29.503  1.00  0.00     0.031 A 
ATOM     49  C   UNL A   1      41.125  29.958  29.612  1.00  0.00     0.049 A 
ATOM     50  C   UNL A   1      46.469  28.316  29.815  1.00  0.00     0.074 A 
ATOM     51  C   UNL A   1      40.855  31.258  30.001  1.00  0.00     0.029 A 
ATOM     52  N   UNL A   1      42.497  29.788  29.706  1.00  0.00    -0.354 N 
ATOM     53  N   UNL A   1      45.268  28.842  29.824  1.00  0.00    -0.248 NA
ATOM     54  C   UNL A   1      47.541  29.259  30.167  1.00  0.00     0.031 C 
ATOM     55  C   UNL A   1      42.070  31.890  30.284  1.00  0.00     0.029 A 
ATOM     56  C   UNL A   1      43.091  30.967  30.122  1.00  0.00     0.049 A 
ATOM     57  H   UNL A   1      42.978  28.953  29.505  1.00  0.00     0.167 HD
ATOM     58  C   UNL A   1      45.437  30.171  30.191  1.00  0.00     0.074 A 
ATOM     59  C   UNL A   1      46.855  30.364  30.419  1.00  0.00     0.031 C 
ATOM     60  C   UNL A   1      44.505  31.145  30.325  1.00  0.00     0.031 A 
BRANCH  47  61
ATOM     61  C   UNL A   1      38.744  29.278  29.120  1.00  0.00    -0.014 A 
ATOM     62  C   UNL A   1      37.913  29.116  30.240  1.00  0.00     0.009 A 
ATOM     63  C   UNL A   1      38.197  29.795  27.936  1.00  0.00     0.009 A 
ATOM     64  C   UNL A   1      36.557  29.442  30.166  1.00  0.00     0.001 A 
ATOM     65  C   UNL A   1      36.847  30.143  27.872  1.00  0.00     0.001 A 
ATOM     66  C   UNL A   1      36.027  29.960  28.984  1.00  0.00     0.000 A 
ENDBRANCH  47  61
BRANCH  48  67
ATOM     67  C   UNL A   1      48.313  26.501  29.590  1.00  0.00    -0.014 A 
ATOM     68  C   UNL A   1      48.824  25.931  30.765  1.00  0.00     0.009 A 
ATOM     69  C   UNL A   1      49.175  26.698  28.499  1.00  0.00     0.009 A 
ATOM     70  C   UNL A   1      50.174  25.580  30.851  1.00  0.00     0.001 A 
ATOM     71  C   UNL A   1      50.518  26.322  28.579  1.00  0.00     0.001 A 
ATOM     72  C   UNL A   1      51.017  25.770  29.757  1.00  0.00     0.000 A 
ENDBRANCH  48  67
BRANCH  60  73
ATOM     73  C   UNL A   1      44.987  32.506  30.743  1.00  0.00    -0.014 A 
ATOM     74  C   UNL A   1      45.103  32.848  32.099  1.00  0.00     0.009 A 
ATOM     75  C   UNL A   1      45.372  33.441  29.768  1.00  0.00     0.009 A 
ATOM     76  C   UNL A   1      45.563  34.112  32.470  1.00  0.00     0.001 A 
ATOM     77  C   UNL A   1      45.858  34.693  30.143  1.00  0.00     0.001 A 
ATOM     78  C   UNL A   1      45.945  35.032  31.494  1.00  0.00     0.000 A 
ENDBRANCH  60  73
ENDBRANCH  34  35
ENDBRANCH  27  29
ENDBRANCH  26  27
ENDBRANCH  25  26
ENDBRANCH   1  25
TORSDOF 15
ENDMDL
MODEL 3
REMARK VINA RESULT:     -10.5      2.171      6.127
REMARK SMILES Cc1cc2c(c(C)c1Br)C=C(C(=O)OCCOCCOC(=O)c1ccc(-c3c4nc(c(-c5ccccc5)c5ccc([nH]5)c(-c5ccccc5)c5nc(c(-c6ccccc6)c6ccc3[nH]6)C=C5)C=C4)cc1)[C@@H](C(F)(F)F)O2
REMARK SMILES IDX 18 1 17 2 16 3 15 4 14 5 12 6 13 7 11 8 1 9 2 10 3 11 8 12
REMARK SMILES IDX 4 13 6 14 9 15 5 16 76 17 7 18 10 19 71 20 72 21 73 22 74 23
REMARK SMILES IDX 75 24 19 25 20 26 21 27 22 28 23 29 24 30 70 31 25 32 69 33
REMARK SMILES IDX 26 34 27 35 28 36 63 37 29 38 68 39 62 40 64 41 30 42 67 43
REMARK SMILES IDX 61 44 60 45 31 47 53 48 38 49 52 50 39 51 42 52 51 53 65 54
REMARK SMILES IDX 40 55 41 56 50 58 66 59 43 60 32 61 33 62 37 63 34 64 36 65
REMARK SMILES IDX 35 66 54 67 55 68 59 69 56 70 58 71 57 72 44 73 45 74 49 75
REMARK SMILES IDX 46 76 48 77 47 78
REMARK H PARENT 64 46 42 57
REMARK Flexibility Score: inf
ROOT
ATOM      1  C   UNL A   1      37.838  20.482  24.912  1.00  0.00     0.202 C 
ENDROOT
BRANCH   1   2
ATOM      2  O   UNL A   1      38.048  21.836  25.317  1.00  0.00    -0.374 OA
BRANCH   2   3
ATOM      3  C   UNL A   1      37.045  22.795  24.986  1.00  0.00     0.202 C 
BRANCH   3   4
ATOM      4  C   UNL A   1      35.884  22.944  25.972  1.00  0.00     0.261 C 
BRANCH   4   5
ATOM      5  O   UNL A   1      34.616  22.918  25.301  1.00  0.00    -0.460 OA
BRANCH   5   6
ATOM      6  C   UNL A   1      33.595  23.450  26.010  1.00  0.00     0.338 C 
ATOM      7  O   UNL A   1      33.227  23.119  27.128  1.00  0.00    -0.246 OA
BRANCH   6   8
ATOM      8  C   UNL A   1      33.036  24.610  25.293  1.00  0.00     0.087 C 
ATOM      9  C   UNL A   1      30.021  30.133  23.846  1.00  0.00     0.046 C 
ATOM     10  C   UNL A   1      30.977  29.085  24.351  1.00  0.00    -0.033 A 
ATOM     11  C   UNL A   1      31.022  27.852  23.685  1.00  0.00     0.051 A 
ATOM     12  C   UNL A   1      31.790  29.277  25.488  1.00  0.00     0.024 A 
ATOM     13  C   UNL A   1      31.797  26.803  24.173  1.00  0.00     0.128 A 
ATOM     14  C   UNL A   1      32.620  28.238  25.971  1.00  0.00    -0.026 A 
ATOM     15  Br  UNL A   1      31.708  30.961  26.395  1.00  0.00    -0.050 Br
ATOM     16  C   UNL A   1      32.563  26.973  25.331  1.00  0.00     0.021 A 
ATOM     17  O   UNL A   1      31.738  25.647  23.447  1.00  0.00    -0.475 OA
ATOM     18  C   UNL A   1      33.538  28.421  27.158  1.00  0.00     0.046 C 
ATOM     19  C   UNL A   1      33.213  25.794  25.892  1.00  0.00     0.027 C 
ATOM     20  C   UNL A   1      32.293  24.425  24.005  1.00  0.00     0.316 C 
BRANCH  20  21
ATOM     21  C   UNL A   1      31.166  23.388  24.109  1.00  0.00     0.430 C 
ATOM     22  F   UNL A   1      30.220  23.596  23.160  1.00  0.00    -0.167 F 
ATOM     23  F   UNL A   1      31.624  22.127  23.921  1.00  0.00    -0.167 F 
ATOM     24  F   UNL A   1      30.550  23.421  25.311  1.00  0.00    -0.167 F 
ENDBRANCH  20  21
ENDBRANCH   6   8
ENDBRANCH   5   6
ENDBRANCH   4   5
ENDBRANCH   3   4
ENDBRANCH   2   3
ENDBRANCH   1   2
BRANCH   1  25
ATOM     25  C   UNL A   1      38.902  19.457  25.320  1.00  0.00     0.261 C 
BRANCH  25  26
ATOM     26  O   UNL A   1      39.750  19.948  26.374  1.00  0.00    -0.460 OA
BRANCH  26  27
ATOM     27  C   UNL A   1      41.074  19.772  26.158  1.00  0.00     0.338 C 
ATOM     28  O   UNL A   1      41.615  18.848  25.567  1.00  0.00    -0.246 OA
BRANCH  27  29
ATOM     29  C   UNL A   1      41.825  20.963  26.587  1.00  0.00     0.060 A 
ATOM     30  C   UNL A   1      41.867  21.241  27.960  1.00  0.00     0.016 A 
ATOM     31  C   UNL A   1      42.366  21.857  25.661  1.00  0.00     0.016 A 
ATOM     32  C   UNL A   1      42.390  22.449  28.411  1.00  0.00     0.010 A 
ATOM     33  C   UNL A   1      42.876  23.077  26.114  1.00  0.00     0.010 A 
ATOM     34  C   UNL A   1      42.844  23.395  27.484  1.00  0.00    -0.014 A 
BRANCH  34  35
ATOM     35  C   UNL A   1      43.076  24.789  27.928  1.00  0.00     0.031 A 
ATOM     36  C   UNL A   1      44.492  25.238  28.168  1.00  0.00     0.074 A 
ATOM     37  C   UNL A   1      42.059  25.655  28.068  1.00  0.00     0.049 A 
ATOM     38  N   UNL A   1      44.934  26.385  28.615  1.00  0.00    -0.248 NA
ATOM     39  C   UNL A   1      45.551  24.263  27.857  1.00  0.00     0.031 C 
ATOM     40  C   UNL A   1      40.655  25.367  27.783  1.00  0.00     0.029 A 
ATOM     41  N   UNL A   1      42.061  26.962  28.484  1.00  0.00    -0.354 N 
ATOM     42  C   UNL A   1      46.319  26.269  28.641  1.00  0.00     0.074 A 
ATOM     43  C   UNL A   1      46.644  24.934  28.187  1.00  0.00     0.031 C 
ATOM     44  C   UNL A   1      39.927  26.469  28.039  1.00  0.00     0.029 A 
ATOM     45  C   UNL A   1      40.810  27.522  28.539  1.00  0.00     0.049 A 
ATOM     46  H   UNL A   1      42.882  27.451  28.721  1.00  0.00     0.167 HD
ATOM     47  C   UNL A   1      47.239  27.191  29.006  1.00  0.00     0.031 A 
ATOM     48  C   UNL A   1      40.420  28.737  28.970  1.00  0.00     0.031 A 
ATOM     49  C   UNL A   1      46.918  28.510  29.478  1.00  0.00     0.049 A 
ATOM     50  C   UNL A   1      41.453  29.705  29.482  1.00  0.00     0.074 A 
ATOM     51  C   UNL A   1      47.778  29.510  29.896  1.00  0.00     0.029 A 
ATOM     52  N   UNL A   1      45.631  29.010  29.597  1.00  0.00    -0.354 N 
ATOM     53  N   UNL A   1      42.757  29.574  29.533  1.00  0.00    -0.248 NA
ATOM     54  C   UNL A   1      40.956  30.986  30.003  1.00  0.00     0.031 C 
ATOM     55  C   UNL A   1      47.007  30.600  30.314  1.00  0.00     0.029 A 
ATOM     56  C   UNL A   1      45.671  30.297  30.107  1.00  0.00     0.049 A 
ATOM     57  H   UNL A   1      44.811  28.523  29.356  1.00  0.00     0.167 HD
ATOM     58  C   UNL A   1      43.236  30.759  30.080  1.00  0.00     0.074 A 
ATOM     59  C   UNL A   1      42.084  31.604  30.322  1.00  0.00     0.031 C 
ATOM     60  C   UNL A   1      44.514  31.115  30.358  1.00  0.00     0.031 A 
BRANCH  47  61
ATOM     61  C   UNL A   1      48.683  26.786  28.943  1.00  0.00    -0.014 A 
ATOM     62  C   UNL A   1      49.331  26.228  30.057  1.00  0.00     0.009 A 
ATOM     63  C   UNL A   1      49.398  26.936  27.745  1.00  0.00     0.009 A 
ATOM     64  C   UNL A   1      50.673  25.850  29.977  1.00  0.00     0.001 A 
ATOM     65  C   UNL A   1      50.732  26.535  27.661  1.00  0.00     0.001 A 
ATOM     66  C   UNL A   1      51.370  26.000  28.778  1.00  0.00     0.000 A 
ENDBRANCH  47  61
BRANCH  48  67
ATOM     67  C   UNL A   1      38.981  29.100  28.967  1.00  0.00    -0.014 A 
ATOM     68  C   UNL A   1      38.177  28.847  30.089  1.00  0.00     0.009 A 
ATOM     69  C   UNL A   1      38.399  29.692  27.834  1.00  0.00     0.009 A 
ATOM     70  C   UNL A   1      36.817  29.165  30.070  1.00  0.00     0.001 A 
ATOM     71  C   UNL A   1      37.044  30.033  27.828  1.00  0.00     0.001 A 
ATOM     72  C   UNL A   1      36.254  29.763  28.944  1.00  0.00     0.000 A 
ENDBRANCH  48  67
BRANCH  60  73
ATOM     73  C   UNL A   1      44.734  32.478  30.951  1.00  0.00    -0.014 A 
ATOM     74  C   UNL A   1      44.906  33.604  30.132  1.00  0.00     0.009 A 
ATOM     75  C   UNL A   1      44.725  32.644  32.345  1.00  0.00     0.009 A 
ATOM     76  C   UNL A   1      45.099  34.865  30.699  1.00  0.00     0.001 A 
ATOM     77  C   UNL A   1      44.889  33.909  32.908  1.00  0.00     0.001 A 
ATOM     78  C   UNL A   1      45.085  35.018  32.085  1.00  0.00     0.000 A 
ENDBRANCH  60  73
ENDBRANCH  34  35
ENDBRANCH  27  29
ENDBRANCH  26  27
ENDBRANCH  25  26
ENDBRANCH   1  25
TORSDOF 15
ENDMDL
