MODEL 1
REMARK VINA RESULT:      -9.2      0.000      0.000
REMARK SMILES C[C@@H]([NH3+])CCC(=O)N[C@H]1C=C[C@@H](C(=O)OCCOCCOC(=O)c2ccc(-c3c4nc(c(-c5ccccc5)c5ccc([nH]5)c(-c5ccccc5)c5nc(c(-c6ccccc6)c6ccc3[nH]6)C=C5)C=C4)cc2)C1
REMARK SMILES IDX 16 1 15 2 13 3 14 4 12 5 9 6 10 7 72 8 11 9 8 10 6 11 7 12
REMARK SMILES IDX 5 14 4 15 2 16 1 17 3 18 17 22 18 23 19 24 20 25 21 26 22 27
REMARK SMILES IDX 23 28 24 29 25 30 71 31 26 32 70 33 27 34 28 35 29 36 64 37
REMARK SMILES IDX 30 38 69 39 63 40 65 41 31 42 68 43 62 44 61 45 32 47 54 48
REMARK SMILES IDX 39 49 53 50 40 51 43 52 52 53 66 54 41 55 42 56 51 58 67 59
REMARK SMILES IDX 44 60 33 61 34 62 38 63 35 64 37 65 36 66 55 67 56 68 60 69
REMARK SMILES IDX 57 70 59 71 58 72 45 73 46 74 50 75 47 76 49 77 48 78
REMARK H PARENT 8 13 3 19 3 20 3 21 65 46 43 57
REMARK Flexibility Score: inf
ROOT
ATOM      1  C   UNL A   1      31.234  26.709  24.802  1.00  0.00     0.261 C 
ENDROOT
BRANCH   1   2
ATOM      2  O   UNL A   1      31.658  25.356  25.030  1.00  0.00    -0.463 OA
BRANCH   2   3
ATOM      3  C   UNL A   1      31.190  24.763  26.160  1.00  0.00     0.312 C 
ATOM      4  O   UNL A   1      30.002  24.644  26.434  1.00  0.00    -0.252 OA
BRANCH   3   5
ATOM      5  C   UNL A   1      32.333  24.169  26.990  1.00  0.00     0.124 C 
ATOM      6  C   UNL A   1      33.586  22.074  27.190  1.00  0.00     0.106 C 
ATOM      7  C   UNL A   1      34.308  23.040  26.328  1.00  0.00    -0.006 C 
ATOM      8  C   UNL A   1      32.185  22.675  27.323  1.00  0.00     0.048 C 
ATOM      9  C   UNL A   1      33.645  24.203  26.251  1.00  0.00    -0.014 C 
BRANCH   6  10
ATOM     10  N   UNL A   1      33.571  20.692  26.757  1.00  0.00    -0.350 N 
ATOM     11  C   UNL A   1      33.224  20.053  25.611  1.00  0.00     0.220 C 
ATOM     12  O   UNL A   1      32.815  18.893  25.721  1.00  0.00    -0.275 OA
ATOM     13  H   UNL A   1      33.884  20.072  27.456  1.00  0.00     0.164 HD
BRANCH  11  14
ATOM     14  C   UNL A   1      33.413  20.670  24.244  1.00  0.00     0.106 C 
BRANCH  14  15
ATOM     15  C   UNL A   1      32.131  21.240  23.632  1.00  0.00     0.074 C 
BRANCH  15  16
ATOM     16  C   UNL A   1      32.237  22.723  23.264  1.00  0.00     0.178 C 
ATOM     17  C   UNL A   1      33.276  23.030  22.186  1.00  0.00     0.075 C 
BRANCH  16  18
ATOM     18  N   UNL A   1      30.940  23.239  22.827  1.00  0.00    -0.355 N 
ATOM     19  H   UNL A   1      30.491  23.731  23.601  1.00  0.00     0.344 HD
ATOM     20  H   UNL A   1      30.348  22.463  22.529  1.00  0.00     0.344 HD
ATOM     21  H   UNL A   1      31.075  23.882  22.047  1.00  0.00     0.344 HD
ENDBRANCH  16  18
ENDBRANCH  15  16
ENDBRANCH  14  15
ENDBRANCH  11  14
ENDBRANCH   6  10
ENDBRANCH   3   5
ENDBRANCH   2   3
ENDBRANCH   1   2
BRANCH   1  22
ATOM     22  C   UNL A   1      31.879  27.633  25.841  1.00  0.00     0.202 C 
BRANCH  22  23
ATOM     23  O   UNL A   1      31.495  29.008  25.776  1.00  0.00    -0.374 OA
BRANCH  23  24
ATOM     24  C   UNL A   1      32.520  29.996  25.841  1.00  0.00     0.202 C 
BRANCH  24  25
ATOM     25  C   UNL A   1      32.962  30.456  27.238  1.00  0.00     0.261 C 
BRANCH  25  26
ATOM     26  O   UNL A   1      34.148  31.271  27.244  1.00  0.00    -0.460 OA
BRANCH  26  27
ATOM     27  C   UNL A   1      34.782  31.312  28.445  1.00  0.00     0.338 C 
ATOM     28  O   UNL A   1      34.415  31.896  29.450  1.00  0.00    -0.246 OA
BRANCH  27  29
ATOM     29  C   UNL A   1      35.972  30.441  28.457  1.00  0.00     0.060 A 
ATOM     30  C   UNL A   1      36.303  29.827  29.671  1.00  0.00     0.016 A 
ATOM     31  C   UNL A   1      36.835  30.359  27.362  1.00  0.00     0.016 A 
ATOM     32  C   UNL A   1      37.529  29.179  29.814  1.00  0.00     0.010 A 
ATOM     33  C   UNL A   1      38.070  29.714  27.510  1.00  0.00     0.010 A 
ATOM     34  C   UNL A   1      38.440  29.159  28.749  1.00  0.00    -0.014 A 
BRANCH  34  35
ATOM     35  C   UNL A   1      39.826  28.684  28.989  1.00  0.00     0.031 A 
ATOM     36  C   UNL A   1      40.806  29.585  29.692  1.00  0.00     0.074 A 
ATOM     37  C   UNL A   1      40.199  27.442  28.633  1.00  0.00     0.049 A 
ATOM     38  N   UNL A   1      42.050  29.354  30.032  1.00  0.00    -0.248 NA
ATOM     39  C   UNL A   1      40.318  30.921  30.067  1.00  0.00     0.031 C 
ATOM     40  C   UNL A   1      39.338  26.450  27.993  1.00  0.00     0.029 A 
ATOM     41  N   UNL A   1      41.407  26.805  28.772  1.00  0.00    -0.354 N 
ATOM     42  C   UNL A   1      42.493  30.515  30.654  1.00  0.00     0.074 A 
ATOM     43  C   UNL A   1      41.395  31.456  30.624  1.00  0.00     0.031 C 
ATOM     44  C   UNL A   1      40.044  25.323  27.802  1.00  0.00     0.029 A 
ATOM     45  C   UNL A   1      41.410  25.524  28.278  1.00  0.00     0.049 A 
ATOM     46  H   UNL A   1      42.195  27.225  29.187  1.00  0.00     0.167 HD
ATOM     47  C   UNL A   1      43.703  30.774  31.205  1.00  0.00     0.031 A 
ATOM     48  C   UNL A   1      42.406  24.620  28.210  1.00  0.00     0.031 A 
ATOM     49  C   UNL A   1      44.806  29.852  31.227  1.00  0.00     0.049 A 
ATOM     50  C   UNL A   1      43.769  24.968  28.743  1.00  0.00     0.074 A 
ATOM     51  C   UNL A   1      46.060  30.017  31.790  1.00  0.00     0.029 A 
ATOM     52  N   UNL A   1      44.791  28.594  30.648  1.00  0.00    -0.354 N 
ATOM     53  N   UNL A   1      44.164  26.054  29.359  1.00  0.00    -0.248 NA
ATOM     54  C   UNL A   1      44.823  23.956  28.570  1.00  0.00     0.031 C 
ATOM     55  C   UNL A   1      46.822  28.878  31.505  1.00  0.00     0.029 A 
ATOM     56  C   UNL A   1      46.025  27.985  30.808  1.00  0.00     0.049 A 
ATOM     57  H   UNL A   1      44.019  28.191  30.190  1.00  0.00     0.167 HD
ATOM     58  C   UNL A   1      45.502  25.849  29.670  1.00  0.00     0.074 A 
ATOM     59  C   UNL A   1      45.850  24.531  29.181  1.00  0.00     0.031 C 
ATOM     60  C   UNL A   1      46.364  26.677  30.310  1.00  0.00     0.031 A 
BRANCH  47  61
ATOM     61  C   UNL A   1      43.906  32.140  31.797  1.00  0.00    -0.014 A 
ATOM     62  C   UNL A   1      43.632  32.397  33.149  1.00  0.00     0.009 A 
ATOM     63  C   UNL A   1      44.396  33.181  30.992  1.00  0.00     0.009 A 
ATOM     64  C   UNL A   1      43.808  33.680  33.674  1.00  0.00     0.001 A 
ATOM     65  C   UNL A   1      44.594  34.455  31.525  1.00  0.00     0.001 A 
ATOM     66  C   UNL A   1      44.291  34.707  32.862  1.00  0.00     0.000 A 
ENDBRANCH  47  61
BRANCH  48  67
ATOM     67  C   UNL A   1      42.155  23.288  27.605  1.00  0.00    -0.014 A 
ATOM     68  C   UNL A   1      42.538  23.025  26.281  1.00  0.00     0.009 A 
ATOM     69  C   UNL A   1      41.525  22.276  28.345  1.00  0.00     0.009 A 
ATOM     70  C   UNL A   1      42.281  21.779  25.705  1.00  0.00     0.001 A 
ATOM     71  C   UNL A   1      41.291  21.024  27.774  1.00  0.00     0.001 A 
ATOM     72  C   UNL A   1      41.663  20.779  26.454  1.00  0.00     0.000 A 
ENDBRANCH  48  67
BRANCH  60  73
ATOM     73  C   UNL A   1      47.759  26.170  30.545  1.00  0.00    -0.014 A 
ATOM     74  C   UNL A   1      48.726  26.207  29.530  1.00  0.00     0.009 A 
ATOM     75  C   UNL A   1      48.117  25.682  31.812  1.00  0.00     0.009 A 
ATOM     76  C   UNL A   1      50.019  25.738  29.770  1.00  0.00     0.001 A 
ATOM     77  C   UNL A   1      49.417  25.236  32.055  1.00  0.00     0.001 A 
ATOM     78  C   UNL A   1      50.364  25.256  31.033  1.00  0.00     0.000 A 
ENDBRANCH  60  73
ENDBRANCH  34  35
ENDBRANCH  27  29
ENDBRANCH  26  27
ENDBRANCH  25  26
ENDBRANCH  24  25
ENDBRANCH  23  24
ENDBRANCH  22  23
ENDBRANCH   1  22
TORSDOF 19
ENDMDL
MODEL 2
REMARK VINA RESULT:      -8.9      2.773      4.331
REMARK SMILES C[C@@H]([NH3+])CCC(=O)N[C@H]1C=C[C@@H](C(=O)OCCOCCOC(=O)c2ccc(-c3c4nc(c(-c5ccccc5)c5ccc([nH]5)c(-c5ccccc5)c5nc(c(-c6ccccc6)c6ccc3[nH]6)C=C5)C=C4)cc2)C1
REMARK SMILES IDX 16 1 15 2 13 3 14 4 12 5 9 6 10 7 72 8 11 9 8 10 6 11 7 12
REMARK SMILES IDX 5 14 4 15 2 16 1 17 3 18 17 22 18 23 19 24 20 25 21 26 22 27
REMARK SMILES IDX 23 28 24 29 25 30 71 31 26 32 70 33 27 34 28 35 29 36 64 37
REMARK SMILES IDX 30 38 69 39 63 40 65 41 31 42 68 43 62 44 61 45 32 47 54 48
REMARK SMILES IDX 39 49 53 50 40 51 43 52 52 53 66 54 41 55 42 56 51 58 67 59
REMARK SMILES IDX 44 60 33 61 34 62 38 63 35 64 37 65 36 66 55 67 56 68 60 69
REMARK SMILES IDX 57 70 59 71 58 72 45 73 46 74 50 75 47 76 49 77 48 78
REMARK H PARENT 8 13 3 19 3 20 3 21 65 46 43 57
REMARK Flexibility Score: inf
ROOT
ATOM      1  C   UNL A   1      32.417  28.833  24.927  1.00  0.00     0.261 C 
ENDROOT
BRANCH   1   2
ATOM      2  O   UNL A   1      31.499  27.762  25.198  1.00  0.00    -0.463 OA
BRANCH   2   3
ATOM      3  C   UNL A   1      30.624  27.458  24.202  1.00  0.00     0.312 C 
ATOM      4  O   UNL A   1      30.283  28.238  23.321  1.00  0.00    -0.252 OA
BRANCH   3   5
ATOM      5  C   UNL A   1      30.208  25.983  24.260  1.00  0.00     0.124 C 
ATOM      6  C   UNL A   1      31.224  23.761  24.095  1.00  0.00     0.106 C 
ATOM      7  C   UNL A   1      31.082  24.173  25.513  1.00  0.00    -0.006 C 
ATOM      8  C   UNL A   1      30.982  25.053  23.311  1.00  0.00     0.048 C 
ATOM      9  C   UNL A   1      30.488  25.371  25.608  1.00  0.00    -0.014 C 
BRANCH   6  10
ATOM     10  N   UNL A   1      32.457  23.097  23.725  1.00  0.00    -0.350 N 
ATOM     11  C   UNL A   1      33.034  21.910  24.035  1.00  0.00     0.220 C 
ATOM     12  O   UNL A   1      34.268  21.864  24.006  1.00  0.00    -0.275 OA
ATOM     13  H   UNL A   1      33.003  23.633  23.104  1.00  0.00     0.164 HD
BRANCH  11  14
ATOM     14  C   UNL A   1      32.230  20.658  24.309  1.00  0.00     0.106 C 
BRANCH  14  15
ATOM     15  C   UNL A   1      32.783  19.796  25.447  1.00  0.00     0.074 C 
BRANCH  15  16
ATOM     16  C   UNL A   1      33.053  18.345  25.037  1.00  0.00     0.178 C 
ATOM     17  C   UNL A   1      34.386  18.132  24.322  1.00  0.00     0.075 C 
BRANCH  16  18
ATOM     18  N   UNL A   1      32.998  17.463  26.203  1.00  0.00    -0.355 N 
ATOM     19  H   UNL A   1      33.199  16.505  25.914  1.00  0.00     0.344 HD
ATOM     20  H   UNL A   1      32.068  17.505  26.617  1.00  0.00     0.344 HD
ATOM     21  H   UNL A   1      33.691  17.763  26.889  1.00  0.00     0.344 HD
ENDBRANCH  16  18
ENDBRANCH  15  16
ENDBRANCH  14  15
ENDBRANCH  11  14
ENDBRANCH   6  10
ENDBRANCH   3   5
ENDBRANCH   2   3
ENDBRANCH   1   2
BRANCH   1  22
ATOM     22  C   UNL A   1      32.051  30.053  25.779  1.00  0.00     0.202 C 
BRANCH  22  23
ATOM     23  O   UNL A   1      32.668  30.120  27.067  1.00  0.00    -0.374 OA
BRANCH  23  24
ATOM     24  C   UNL A   1      33.427  31.283  27.389  1.00  0.00     0.202 C 
BRANCH  24  25
ATOM     25  C   UNL A   1      32.651  32.593  27.590  1.00  0.00     0.261 C 
BRANCH  25  26
ATOM     26  O   UNL A   1      33.477  33.770  27.616  1.00  0.00    -0.460 OA
BRANCH  26  27
ATOM     27  C   UNL A   1      33.540  34.372  28.832  1.00  0.00     0.338 C 
ATOM     28  O   UNL A   1      32.708  35.111  29.331  1.00  0.00    -0.246 OA
BRANCH  27  29
ATOM     29  C   UNL A   1      34.728  33.937  29.589  1.00  0.00     0.060 A 
ATOM     30  C   UNL A   1      35.982  34.242  29.044  1.00  0.00     0.016 A 
ATOM     31  C   UNL A   1      34.625  33.109  30.709  1.00  0.00     0.016 A 
ATOM     32  C   UNL A   1      37.135  33.671  29.581  1.00  0.00     0.010 A 
ATOM     33  C   UNL A   1      35.784  32.530  31.242  1.00  0.00     0.010 A 
ATOM     34  C   UNL A   1      37.039  32.774  30.654  1.00  0.00    -0.014 A 
BRANCH  34  35
ATOM     35  C   UNL A   1      38.235  31.993  31.055  1.00  0.00     0.031 A 
ATOM     36  C   UNL A   1      38.973  32.362  32.313  1.00  0.00     0.074 A 
ATOM     37  C   UNL A   1      38.634  30.928  30.337  1.00  0.00     0.049 A 
ATOM     38  N   UNL A   1      40.017  31.791  32.862  1.00  0.00    -0.248 NA
ATOM     39  C   UNL A   1      38.466  33.527  33.055  1.00  0.00     0.031 C 
ATOM     40  C   UNL A   1      37.981  30.430  29.128  1.00  0.00     0.029 A 
ATOM     41  N   UNL A   1      39.687  30.069  30.533  1.00  0.00    -0.354 N 
ATOM     42  C   UNL A   1      40.293  32.528  34.007  1.00  0.00     0.074 A 
ATOM     43  C   UNL A   1      39.323  33.600  34.063  1.00  0.00     0.031 C 
ATOM     44  C   UNL A   1      38.644  29.344  28.694  1.00  0.00     0.029 A 
ATOM     45  C   UNL A   1      39.782  29.091  29.574  1.00  0.00     0.049 A 
ATOM     46  H   UNL A   1      40.313  30.147  31.288  1.00  0.00     0.167 HD
ATOM     47  C   UNL A   1      41.261  32.329  34.933  1.00  0.00     0.031 A 
ATOM     48  C   UNL A   1      40.689  28.108  29.421  1.00  0.00     0.031 A 
ATOM     49  C   UNL A   1      42.239  31.275  34.880  1.00  0.00     0.049 A 
ATOM     50  C   UNL A   1      41.813  27.968  30.410  1.00  0.00     0.074 A 
ATOM     51  C   UNL A   1      43.240  30.978  35.789  1.00  0.00     0.029 A 
ATOM     52  N   UNL A   1      42.346  30.353  33.852  1.00  0.00    -0.354 N 
ATOM     53  N   UNL A   1      42.041  28.648  31.506  1.00  0.00    -0.248 NA
ATOM     54  C   UNL A   1      42.805  26.916  30.138  1.00  0.00     0.031 C 
ATOM     55  C   UNL A   1      43.986  29.908  35.284  1.00  0.00     0.029 A 
ATOM     56  C   UNL A   1      43.419  29.508  34.085  1.00  0.00     0.049 A 
ATOM     57  H   UNL A   1      41.749  30.305  33.071  1.00  0.00     0.167 HD
ATOM     58  C   UNL A   1      43.185  28.093  32.067  1.00  0.00     0.074 A 
ATOM     59  C   UNL A   1      43.600  27.014  31.194  1.00  0.00     0.031 C 
ATOM     60  C   UNL A   1      43.828  28.443  33.207  1.00  0.00     0.031 A 
BRANCH  47  61
ATOM     61  C   UNL A   1      41.333  33.309  36.070  1.00  0.00    -0.014 A 
ATOM     62  C   UNL A   1      40.648  33.081  37.273  1.00  0.00     0.009 A 
ATOM     63  C   UNL A   1      42.112  34.469  35.939  1.00  0.00     0.009 A 
ATOM     64  C   UNL A   1      40.712  34.015  38.310  1.00  0.00     0.001 A 
ATOM     65  C   UNL A   1      42.193  35.390  36.985  1.00  0.00     0.001 A 
ATOM     66  C   UNL A   1      41.486  35.167  38.165  1.00  0.00     0.000 A 
ENDBRANCH  47  61
BRANCH  48  67
ATOM     67  C   UNL A   1      40.579  27.173  28.273  1.00  0.00    -0.014 A 
ATOM     68  C   UNL A   1      39.817  26.000  28.384  1.00  0.00     0.009 A 
ATOM     69  C   UNL A   1      41.239  27.445  27.066  1.00  0.00     0.009 A 
ATOM     70  C   UNL A   1      39.732  25.110  27.311  1.00  0.00     0.001 A 
ATOM     71  C   UNL A   1      41.133  26.565  25.988  1.00  0.00     0.001 A 
ATOM     72  C   UNL A   1      40.386  25.396  26.113  1.00  0.00     0.000 A 
ENDBRANCH  48  67
BRANCH  60  73
ATOM     73  C   UNL A   1      45.033  27.633  33.593  1.00  0.00    -0.014 A 
ATOM     74  C   UNL A   1      46.324  28.018  33.202  1.00  0.00     0.009 A 
ATOM     75  C   UNL A   1      44.875  26.486  34.388  1.00  0.00     0.009 A 
ATOM     76  C   UNL A   1      47.432  27.254  33.577  1.00  0.00     0.001 A 
ATOM     77  C   UNL A   1      45.986  25.739  34.781  1.00  0.00     0.001 A 
ATOM     78  C   UNL A   1      47.262  26.118  34.368  1.00  0.00     0.000 A 
ENDBRANCH  60  73
ENDBRANCH  34  35
ENDBRANCH  27  29
ENDBRANCH  26  27
ENDBRANCH  25  26
ENDBRANCH  24  25
ENDBRANCH  23  24
ENDBRANCH  22  23
ENDBRANCH   1  22
TORSDOF 19
ENDMDL
MODEL 3
REMARK VINA RESULT:      -8.9      2.623      7.094
REMARK SMILES C[C@@H]([NH3+])CCC(=O)N[C@H]1C=C[C@@H](C(=O)OCCOCCOC(=O)c2ccc(-c3c4nc(c(-c5ccccc5)c5ccc([nH]5)c(-c5ccccc5)c5nc(c(-c6ccccc6)c6ccc3[nH]6)C=C5)C=C4)cc2)C1
REMARK SMILES IDX 16 1 15 2 13 3 14 4 12 5 9 6 10 7 72 8 11 9 8 10 6 11 7 12
REMARK SMILES IDX 5 14 4 15 2 16 1 17 3 18 17 22 18 23 19 24 20 25 21 26 22 27
REMARK SMILES IDX 23 28 24 29 25 30 71 31 26 32 70 33 27 34 28 35 29 36 64 37
REMARK SMILES IDX 30 38 69 39 63 40 65 41 31 42 68 43 62 44 61 45 32 47 54 48
REMARK SMILES IDX 39 49 53 50 40 51 43 52 52 53 66 54 41 55 42 56 51 58 67 59
REMARK SMILES IDX 44 60 33 61 34 62 38 63 35 64 37 65 36 66 55 67 56 68 60 69
REMARK SMILES IDX 57 70 59 71 58 72 45 73 46 74 50 75 47 76 49 77 48 78
REMARK H PARENT 8 13 3 19 3 20 3 21 65 46 43 57
REMARK Flexibility Score: inf
ROOT
ATOM      1  C   UNL A   1      32.284  28.300  24.666  1.00  0.00     0.261 C 
ENDROOT
BRANCH   1   2
ATOM      2  O   UNL A   1      31.049  27.744  25.144  1.00  0.00    -0.463 OA
BRANCH   2   3
ATOM      3  C   UNL A   1      31.156  26.654  25.949  1.00  0.00     0.312 C 
ATOM      4  O   UNL A   1      31.448  26.700  27.138  1.00  0.00    -0.252 OA
BRANCH   3   5
ATOM      5  C   UNL A   1      30.756  25.373  25.206  1.00  0.00     0.124 C 
ATOM      6  C   UNL A   1      31.669  23.156  24.707  1.00  0.00     0.106 C 
ATOM      7  C   UNL A   1      30.783  23.107  25.895  1.00  0.00    -0.006 C 
ATOM      8  C   UNL A   1      31.910  24.652  24.489  1.00  0.00     0.048 C 
ATOM      9  C   UNL A   1      30.248  24.310  26.146  1.00  0.00    -0.014 C 
BRANCH   6  10
ATOM     10  N   UNL A   1      32.895  22.389  24.770  1.00  0.00    -0.350 N 
ATOM     11  C   UNL A   1      33.196  21.079  24.953  1.00  0.00     0.220 C 
ATOM     12  O   UNL A   1      34.282  20.824  25.482  1.00  0.00    -0.275 OA
ATOM     13  H   UNL A   1      33.698  22.949  24.654  1.00  0.00     0.164 HD
BRANCH  11  14
ATOM     14  C   UNL A   1      32.309  19.961  24.453  1.00  0.00     0.106 C 
BRANCH  14  15
ATOM     15  C   UNL A   1      33.061  18.676  24.101  1.00  0.00     0.074 C 
BRANCH  15  16
ATOM     16  C   UNL A   1      32.844  17.545  25.111  1.00  0.00     0.178 C 
ATOM     17  C   UNL A   1      33.899  16.441  25.054  1.00  0.00     0.075 C 
BRANCH  16  18
ATOM     18  N   UNL A   1      32.791  18.075  26.473  1.00  0.00    -0.355 N 
ATOM     19  H   UNL A   1      33.727  18.061  26.879  1.00  0.00     0.344 HD
ATOM     20  H   UNL A   1      32.167  17.499  27.038  1.00  0.00     0.344 HD
ATOM     21  H   UNL A   1      32.443  19.033  26.451  1.00  0.00     0.344 HD
ENDBRANCH  16  18
ENDBRANCH  15  16
ENDBRANCH  14  15
ENDBRANCH  11  14
ENDBRANCH   6  10
ENDBRANCH   3   5
ENDBRANCH   2   3
ENDBRANCH   1   2
BRANCH   1  22
ATOM     22  C   UNL A   1      32.552  29.636  25.366  1.00  0.00     0.202 C 
BRANCH  22  23
ATOM     23  O   UNL A   1      31.418  30.490  25.535  1.00  0.00    -0.374 OA
BRANCH  23  24
ATOM     24  C   UNL A   1      31.452  31.454  26.584  1.00  0.00     0.202 C 
BRANCH  24  25
ATOM     25  C   UNL A   1      32.789  31.648  27.314  1.00  0.00     0.261 C 
BRANCH  25  26
ATOM     26  O   UNL A   1      33.425  32.913  27.055  1.00  0.00    -0.460 OA
BRANCH  26  27
ATOM     27  C   UNL A   1      33.449  33.747  28.127  1.00  0.00     0.338 C 
ATOM     28  O   UNL A   1      32.581  34.532  28.468  1.00  0.00    -0.246 OA
BRANCH  27  29
ATOM     29  C   UNL A   1      34.648  33.524  28.956  1.00  0.00     0.060 A 
ATOM     30  C   UNL A   1      35.886  33.861  28.395  1.00  0.00     0.016 A 
ATOM     31  C   UNL A   1      34.583  32.851  30.178  1.00  0.00     0.016 A 
ATOM     32  C   UNL A   1      37.067  33.471  29.025  1.00  0.00     0.010 A 
ATOM     33  C   UNL A   1      35.771  32.453  30.806  1.00  0.00     0.010 A 
ATOM     34  C   UNL A   1      37.017  32.724  30.210  1.00  0.00    -0.014 A 
BRANCH  34  35
ATOM     35  C   UNL A   1      38.263  32.112  30.735  1.00  0.00     0.031 A 
ATOM     36  C   UNL A   1      38.789  30.849  30.106  1.00  0.00     0.074 A 
ATOM     37  C   UNL A   1      38.953  32.699  31.728  1.00  0.00     0.049 A 
ATOM     38  N   UNL A   1      39.875  30.172  30.387  1.00  0.00    -0.248 NA
ATOM     39  C   UNL A   1      37.989  30.277  29.012  1.00  0.00     0.031 C 
ATOM     40  C   UNL A   1      38.585  33.948  32.391  1.00  0.00     0.029 A 
ATOM     41  N   UNL A   1      40.119  32.318  32.345  1.00  0.00    -0.354 N 
ATOM     42  C   UNL A   1      39.885  29.094  29.510  1.00  0.00     0.074 A 
ATOM     43  C   UNL A   1      38.687  29.194  28.704  1.00  0.00     0.031 C 
ATOM     44  C   UNL A   1      39.514  34.236  33.319  1.00  0.00     0.029 A 
ATOM     45  C   UNL A   1      40.522  33.179  33.335  1.00  0.00     0.049 A 
ATOM     46  H   UNL A   1      40.617  31.505  32.101  1.00  0.00     0.167 HD
ATOM     47  C   UNL A   1      40.809  28.112  29.382  1.00  0.00     0.031 A 
ATOM     48  C   UNL A   1      41.580  33.117  34.165  1.00  0.00     0.031 A 
ATOM     49  C   UNL A   1      41.995  27.995  30.186  1.00  0.00     0.049 A 
ATOM     50  C   UNL A   1      42.540  31.963  34.066  1.00  0.00     0.074 A 
ATOM     51  C   UNL A   1      43.003  27.050  30.108  1.00  0.00     0.029 A 
ATOM     52  N   UNL A   1      42.326  28.846  31.228  1.00  0.00    -0.354 N 
ATOM     53  N   UNL A   1      42.557  30.971  33.211  1.00  0.00    -0.248 NA
ATOM     54  C   UNL A   1      43.632  31.927  35.053  1.00  0.00     0.031 C 
ATOM     55  C   UNL A   1      43.918  27.298  31.138  1.00  0.00     0.029 A 
ATOM     56  C   UNL A   1      43.504  28.428  31.824  1.00  0.00     0.049 A 
ATOM     57  H   UNL A   1      41.801  29.632  31.505  1.00  0.00     0.167 HD
ATOM     58  C   UNL A   1      43.671  30.207  33.538  1.00  0.00     0.074 A 
ATOM     59  C   UNL A   1      44.309  30.855  34.665  1.00  0.00     0.031 C 
ATOM     60  C   UNL A   1      44.127  29.074  32.951  1.00  0.00     0.031 A 
BRANCH  47  61
ATOM     61  C   UNL A   1      40.543  27.053  28.348  1.00  0.00    -0.014 A 
ATOM     62  C   UNL A   1      41.043  27.169  27.042  1.00  0.00     0.009 A 
ATOM     63  C   UNL A   1      39.796  25.916  28.694  1.00  0.00     0.009 A 
ATOM     64  C   UNL A   1      40.767  26.183  26.091  1.00  0.00     0.001 A 
ATOM     65  C   UNL A   1      39.542  24.922  27.749  1.00  0.00     0.001 A 
ATOM     66  C   UNL A   1      40.018  25.060  26.446  1.00  0.00     0.000 A 
ENDBRANCH  47  61
BRANCH  48  67
ATOM     67  C   UNL A   1      41.790  34.183  35.176  1.00  0.00    -0.014 A 
ATOM     68  C   UNL A   1      42.568  35.310  34.869  1.00  0.00     0.009 A 
ATOM     69  C   UNL A   1      41.221  34.077  36.454  1.00  0.00     0.009 A 
ATOM     70  C   UNL A   1      42.783  36.302  35.828  1.00  0.00     0.001 A 
ATOM     71  C   UNL A   1      41.419  35.081  37.402  1.00  0.00     0.001 A 
ATOM     72  C   UNL A   1      42.204  36.189  37.092  1.00  0.00     0.000 A 
ENDBRANCH  48  67
BRANCH  60  73
ATOM     73  C   UNL A   1      45.392  28.477  33.498  1.00  0.00    -0.014 A 
ATOM     74  C   UNL A   1      46.641  28.779  32.935  1.00  0.00     0.009 A 
ATOM     75  C   UNL A   1      45.334  27.627  34.614  1.00  0.00     0.009 A 
ATOM     76  C   UNL A   1      47.806  28.218  33.463  1.00  0.00     0.001 A 
ATOM     77  C   UNL A   1      46.503  27.088  35.153  1.00  0.00     0.001 A 
ATOM     78  C   UNL A   1      47.737  27.377  34.573  1.00  0.00     0.000 A 
ENDBRANCH  60  73
ENDBRANCH  34  35
ENDBRANCH  27  29
ENDBRANCH  26  27
ENDBRANCH  25  26
ENDBRANCH  24  25
ENDBRANCH  23  24
ENDBRANCH  22  23
ENDBRANCH   1  22
TORSDOF 19
ENDMDL
