MODEL 1
REMARK VINA RESULT:     -11.0      0.000      0.000
REMARK SMILES Cc1ccnc(C(=O)c2[nH]c3cc(F)ccc3c2CC(=O)OCCOCCOC(=O)c2ccc(-c3c4nc(c(-c5ccccc5)c5ccc([nH]5)c(-c5ccccc5)c5nc(c(-c6ccccc6)c6ccc3[nH]6)C=C5)C=C4)cc2)c1
REMARK SMILES IDX 24 1 23 2 22 3 20 4 21 5 19 6 18 7 9 8 10 9 11 10 17 12
REMARK SMILES IDX 12 13 16 14 13 15 15 16 14 17 7 18 8 19 6 20 1 21 2 22 3 23
REMARK SMILES IDX 79 24 4 25 5 26 25 27 26 28 27 29 28 30 29 31 30 32 31 33
REMARK SMILES IDX 32 34 78 35 33 36 77 37 34 38 35 39 36 40 71 41 37 42 76 43
REMARK SMILES IDX 70 44 72 45 38 46 75 47 69 48 68 49 39 51 61 52 46 53 60 54
REMARK SMILES IDX 47 55 50 56 59 57 73 58 48 59 49 60 58 62 74 63 51 64 40 65
REMARK SMILES IDX 41 66 45 67 42 68 44 69 43 70 62 71 63 72 67 73 64 74 66 75
REMARK SMILES IDX 65 76 52 77 53 78 57 79 54 80 56 81 55 82
REMARK H PARENT 10 11 72 50 50 61
REMARK Flexibility Score: inf
ROOT
ATOM      1  C   UNL A   1      38.279  23.439  26.266  1.00  0.00     0.202 C 
ENDROOT
BRANCH   1   2
ATOM      2  C   UNL A   1      36.935  23.464  25.528  1.00  0.00     0.261 C 
BRANCH   2   3
ATOM      3  O   UNL A   1      35.962  24.347  26.129  1.00  0.00    -0.463 OA
BRANCH   3   4
ATOM      4  C   UNL A   1      34.863  24.596  25.363  1.00  0.00     0.310 C 
ATOM      5  O   UNL A   1      33.799  25.017  25.815  1.00  0.00    -0.252 OA
BRANCH   4   6
ATOM      6  C   UNL A   1      34.983  24.229  23.901  1.00  0.00     0.161 C 
BRANCH   6   7
ATOM      7  C   UNL A   1      33.953  23.325  23.272  1.00  0.00     0.000 A 
ATOM      8  C   UNL A   1      32.916  23.693  22.407  1.00  0.00     0.093 A 
ATOM      9  N   UNL A   1      32.228  22.538  22.101  1.00  0.00    -0.351 N 
ATOM     10  C   UNL A   1      32.610  21.512  22.934  1.00  0.00     0.049 A 
ATOM     11  H   UNL A   1      31.556  22.459  21.386  1.00  0.00     0.167 HD
ATOM     12  C   UNL A   1      33.711  21.965  23.659  1.00  0.00     0.004 A 
ATOM     13  C   UNL A   1      32.060  20.236  23.116  1.00  0.00     0.066 A 
ATOM     14  C   UNL A   1      34.293  21.103  24.614  1.00  0.00     0.013 A 
ATOM     15  C   UNL A   1      32.637  19.426  24.095  1.00  0.00     0.125 A 
ATOM     16  C   UNL A   1      33.734  19.841  24.836  1.00  0.00     0.040 A 
ATOM     17  F   UNL A   1      32.105  18.220  24.337  1.00  0.00    -0.207 F 
BRANCH   8  18
ATOM     18  C   UNL A   1      32.617  25.033  21.908  1.00  0.00     0.227 C 
ATOM     19  O   UNL A   1      33.221  25.513  20.950  1.00  0.00    -0.285 OA
BRANCH  18  20
ATOM     20  C   UNL A   1      31.597  25.903  22.571  1.00  0.00     0.113 A 
ATOM     21  C   UNL A   1      30.083  29.360  22.290  1.00  0.00     0.044 C 
ATOM     22  C   UNL A   1      30.348  27.945  22.708  1.00  0.00    -0.047 A 
ATOM     23  C   UNL A   1      29.431  27.273  23.520  1.00  0.00     0.023 A 
ATOM     24  C   UNL A   1      31.452  27.240  22.214  1.00  0.00     0.036 A 
ATOM     25  C   UNL A   1      29.670  25.948  23.843  1.00  0.00     0.112 A 
ATOM     26  N   UNL A   1      30.738  25.255  23.401  1.00  0.00    -0.253 NA
ENDBRANCH  18  20
ENDBRANCH   8  18
ENDBRANCH   6   7
ENDBRANCH   4   6
ENDBRANCH   3   4
ENDBRANCH   2   3
ENDBRANCH   1   2
BRANCH   1  27
ATOM     27  O   UNL A   1      39.083  22.265  26.167  1.00  0.00    -0.374 OA
BRANCH  27  28
ATOM     28  C   UNL A   1      38.494  21.132  25.535  1.00  0.00     0.202 C 
BRANCH  28  29
ATOM     29  C   UNL A   1      39.347  19.858  25.446  1.00  0.00     0.261 C 
BRANCH  29  30
ATOM     30  O   UNL A   1      40.344  19.762  26.475  1.00  0.00    -0.460 OA
BRANCH  30  31
ATOM     31  C   UNL A   1      41.615  19.939  26.045  1.00  0.00     0.338 C 
ATOM     32  O   UNL A   1      42.249  19.246  25.262  1.00  0.00    -0.246 OA
BRANCH  31  33
ATOM     33  C   UNL A   1      42.122  21.226  26.544  1.00  0.00     0.060 A 
ATOM     34  C   UNL A   1      42.120  21.435  27.929  1.00  0.00     0.016 A 
ATOM     35  C   UNL A   1      42.560  22.223  25.670  1.00  0.00     0.016 A 
ATOM     36  C   UNL A   1      42.549  22.652  28.447  1.00  0.00     0.010 A 
ATOM     37  C   UNL A   1      42.976  23.449  26.192  1.00  0.00     0.010 A 
ATOM     38  C   UNL A   1      42.957  23.674  27.580  1.00  0.00    -0.014 A 
BRANCH  38  39
ATOM     39  C   UNL A   1      43.284  25.010  28.122  1.00  0.00     0.031 A 
ATOM     40  C   UNL A   1      42.177  25.998  28.354  1.00  0.00     0.074 A 
ATOM     41  C   UNL A   1      44.559  25.326  28.409  1.00  0.00     0.049 A 
ATOM     42  N   UNL A   1      42.246  27.232  28.781  1.00  0.00    -0.248 NA
ATOM     43  C   UNL A   1      40.810  25.533  28.067  1.00  0.00     0.031 C 
ATOM     44  C   UNL A   1      45.704  24.427  28.262  1.00  0.00     0.029 A 
ATOM     45  N   UNL A   1      45.105  26.492  28.879  1.00  0.00    -0.354 N 
ATOM     46  C   UNL A   1      40.936  27.695  28.804  1.00  0.00     0.074 A 
ATOM     47  C   UNL A   1      40.095  26.620  28.328  1.00  0.00     0.031 C 
ATOM     48  C   UNL A   1      46.820  25.078  28.632  1.00  0.00     0.029 A 
ATOM     49  C   UNL A   1      46.473  26.448  29.001  1.00  0.00     0.049 A 
ATOM     50  H   UNL A   1      44.568  27.286  29.107  1.00  0.00     0.167 HD
ATOM     51  C   UNL A   1      40.482  28.911  29.188  1.00  0.00     0.031 A 
ATOM     52  C   UNL A   1      47.344  27.416  29.344  1.00  0.00     0.031 A 
ATOM     53  C   UNL A   1      41.331  29.978  29.646  1.00  0.00     0.049 A 
ATOM     54  C   UNL A   1      46.814  28.785  29.677  1.00  0.00     0.074 A 
ATOM     55  C   UNL A   1      40.969  31.239  30.086  1.00  0.00     0.029 A 
ATOM     56  N   UNL A   1      42.715  29.913  29.707  1.00  0.00    -0.354 N 
ATOM     57  N   UNL A   1      45.572  29.199  29.740  1.00  0.00    -0.248 NA
ATOM     58  C   UNL A   1      47.810  29.822  29.987  1.00  0.00     0.031 C 
ATOM     59  C   UNL A   1      42.138  31.959  30.349  1.00  0.00     0.029 A 
ATOM     60  C   UNL A   1      43.224  31.126  30.135  1.00  0.00     0.049 A 
ATOM     61  H   UNL A   1      43.254  29.121  29.482  1.00  0.00     0.167 HD
ATOM     62  C   UNL A   1      45.634  30.534  30.115  1.00  0.00     0.074 A 
ATOM     63  C   UNL A   1      47.035  30.854  30.291  1.00  0.00     0.031 C 
ATOM     64  C   UNL A   1      44.625  31.422  30.297  1.00  0.00     0.031 A 
BRANCH  51  65
ATOM     65  C   UNL A   1      39.004  29.170  29.089  1.00  0.00    -0.014 A 
ATOM     66  C   UNL A   1      38.157  29.018  30.197  1.00  0.00     0.009 A 
ATOM     67  C   UNL A   1      38.462  29.631  27.878  1.00  0.00     0.009 A 
ATOM     68  C   UNL A   1      36.793  29.299  30.087  1.00  0.00     0.001 A 
ATOM     69  C   UNL A   1      37.104  29.935  27.778  1.00  0.00     0.001 A 
ATOM     70  C   UNL A   1      36.269  29.765  28.881  1.00  0.00     0.000 A 
ENDBRANCH  51  65
BRANCH  52  71
ATOM     71  C   UNL A   1      48.807  27.145  29.356  1.00  0.00    -0.014 A 
ATOM     72  C   UNL A   1      49.580  27.322  28.200  1.00  0.00     0.009 A 
ATOM     73  C   UNL A   1      49.433  26.672  30.521  1.00  0.00     0.009 A 
ATOM     74  C   UNL A   1      50.940  27.001  28.200  1.00  0.00     0.001 A 
ATOM     75  C   UNL A   1      50.799  26.384  30.528  1.00  0.00     0.001 A 
ATOM     76  C   UNL A   1      51.549  26.536  29.364  1.00  0.00     0.000 A 
ENDBRANCH  52  71
BRANCH  64  77
ATOM     77  C   UNL A   1      45.001  32.813  30.722  1.00  0.00    -0.014 A 
ATOM     78  C   UNL A   1      45.219  33.827  29.776  1.00  0.00     0.009 A 
ATOM     79  C   UNL A   1      45.096  33.122  32.087  1.00  0.00     0.009 A 
ATOM     80  C   UNL A   1      45.555  35.117  30.191  1.00  0.00     0.001 A 
ATOM     81  C   UNL A   1      45.398  34.420  32.500  1.00  0.00     0.001 A 
ATOM     82  C   UNL A   1      45.638  35.413  31.551  1.00  0.00     0.000 A 
ENDBRANCH  64  77
ENDBRANCH  38  39
ENDBRANCH  31  33
ENDBRANCH  30  31
ENDBRANCH  29  30
ENDBRANCH  28  29
ENDBRANCH  27  28
ENDBRANCH   1  27
TORSDOF 17
ENDMDL
MODEL 2
REMARK VINA RESULT:     -10.9      1.541      2.225
REMARK SMILES Cc1ccnc(C(=O)c2[nH]c3cc(F)ccc3c2CC(=O)OCCOCCOC(=O)c2ccc(-c3c4nc(c(-c5ccccc5)c5ccc([nH]5)c(-c5ccccc5)c5nc(c(-c6ccccc6)c6ccc3[nH]6)C=C5)C=C4)cc2)c1
REMARK SMILES IDX 24 1 23 2 22 3 20 4 21 5 19 6 18 7 9 8 10 9 11 10 17 12
REMARK SMILES IDX 12 13 16 14 13 15 15 16 14 17 7 18 8 19 6 20 1 21 2 22 3 23
REMARK SMILES IDX 79 24 4 25 5 26 25 27 26 28 27 29 28 30 29 31 30 32 31 33
REMARK SMILES IDX 32 34 78 35 33 36 77 37 34 38 35 39 36 40 71 41 37 42 76 43
REMARK SMILES IDX 70 44 72 45 38 46 75 47 69 48 68 49 39 51 61 52 46 53 60 54
REMARK SMILES IDX 47 55 50 56 59 57 73 58 48 59 49 60 58 62 74 63 51 64 40 65
REMARK SMILES IDX 41 66 45 67 42 68 44 69 43 70 62 71 63 72 67 73 64 74 66 75
REMARK SMILES IDX 65 76 52 77 53 78 57 79 54 80 56 81 55 82
REMARK H PARENT 10 11 72 50 50 61
REMARK Flexibility Score: inf
ROOT
ATOM      1  C   UNL A   1      38.247  23.795  26.152  1.00  0.00     0.202 C 
ENDROOT
BRANCH   1   2
ATOM      2  C   UNL A   1      36.779  23.450  25.877  1.00  0.00     0.261 C 
BRANCH   2   3
ATOM      3  O   UNL A   1      36.398  23.610  24.492  1.00  0.00    -0.463 OA
BRANCH   3   4
ATOM      4  C   UNL A   1      35.542  22.662  24.019  1.00  0.00     0.310 C 
ATOM      5  O   UNL A   1      34.701  22.877  23.148  1.00  0.00    -0.252 OA
BRANCH   4   6
ATOM      6  C   UNL A   1      35.608  21.315  24.703  1.00  0.00     0.161 C 
BRANCH   6   7
ATOM      7  C   UNL A   1      34.335  20.559  24.989  1.00  0.00     0.000 A 
ATOM      8  C   UNL A   1      33.228  21.008  25.718  1.00  0.00     0.093 A 
ATOM      9  N   UNL A   1      32.314  19.977  25.724  1.00  0.00    -0.351 N 
ATOM     10  C   UNL A   1      32.892  18.815  25.268  1.00  0.00     0.049 A 
ATOM     11  H   UNL A   1      31.377  20.060  26.014  1.00  0.00     0.167 HD
ATOM     12  C   UNL A   1      34.149  19.155  24.772  1.00  0.00     0.004 A 
ATOM     13  C   UNL A   1      32.414  17.497  25.275  1.00  0.00     0.066 A 
ATOM     14  C   UNL A   1      34.973  18.129  24.256  1.00  0.00     0.013 A 
ATOM     15  C   UNL A   1      33.269  16.506  24.793  1.00  0.00     0.125 A 
ATOM     16  C   UNL A   1      34.526  16.804  24.289  1.00  0.00     0.040 A 
ATOM     17  F   UNL A   1      32.870  15.227  24.834  1.00  0.00    -0.207 F 
BRANCH   8  18
ATOM     18  C   UNL A   1      33.057  22.316  26.347  1.00  0.00     0.227 C 
ATOM     19  O   UNL A   1      33.664  22.621  27.372  1.00  0.00    -0.285 OA
BRANCH  18  20
ATOM     20  C   UNL A   1      32.096  23.324  25.803  1.00  0.00     0.113 A 
ATOM     21  C   UNL A   1      31.095  26.946  26.258  1.00  0.00     0.044 C 
ATOM     22  C   UNL A   1      31.209  25.550  25.722  1.00  0.00    -0.047 A 
ATOM     23  C   UNL A   1      30.652  25.232  24.480  1.00  0.00     0.023 A 
ATOM     24  C   UNL A   1      31.956  24.576  26.394  1.00  0.00     0.036 A 
ATOM     25  C   UNL A   1      30.823  23.951  23.981  1.00  0.00     0.112 A 
ATOM     26  N   UNL A   1      31.516  22.988  24.620  1.00  0.00    -0.253 NA
ENDBRANCH  18  20
ENDBRANCH   8  18
ENDBRANCH   6   7
ENDBRANCH   4   6
ENDBRANCH   3   4
ENDBRANCH   2   3
ENDBRANCH   1   2
BRANCH   1  27
ATOM     27  O   UNL A   1      39.207  22.741  26.122  1.00  0.00    -0.374 OA
BRANCH  27  28
ATOM     28  C   UNL A   1      38.703  21.410  26.132  1.00  0.00     0.202 C 
BRANCH  28  29
ATOM     29  C   UNL A   1      39.554  20.333  25.443  1.00  0.00     0.261 C 
BRANCH  29  30
ATOM     30  O   UNL A   1      40.393  19.598  26.348  1.00  0.00    -0.460 OA
BRANCH  30  31
ATOM     31  C   UNL A   1      41.712  19.637  26.049  1.00  0.00     0.338 C 
ATOM     32  O   UNL A   1      42.367  18.814  25.423  1.00  0.00    -0.246 OA
BRANCH  31  33
ATOM     33  C   UNL A   1      42.266  20.935  26.459  1.00  0.00     0.060 A 
ATOM     34  C   UNL A   1      42.255  21.248  27.824  1.00  0.00     0.016 A 
ATOM     35  C   UNL A   1      42.757  21.845  25.520  1.00  0.00     0.016 A 
ATOM     36  C   UNL A   1      42.728  22.481  28.258  1.00  0.00     0.010 A 
ATOM     37  C   UNL A   1      43.217  23.089  25.956  1.00  0.00     0.010 A 
ATOM     38  C   UNL A   1      43.189  23.418  27.323  1.00  0.00    -0.014 A 
BRANCH  38  39
ATOM     39  C   UNL A   1      43.565  24.776  27.770  1.00  0.00     0.031 A 
ATOM     40  C   UNL A   1      42.484  25.766  28.096  1.00  0.00     0.074 A 
ATOM     41  C   UNL A   1      44.863  25.111  27.887  1.00  0.00     0.049 A 
ATOM     42  N   UNL A   1      42.591  27.016  28.464  1.00  0.00    -0.248 NA
ATOM     43  C   UNL A   1      41.097  25.282  27.996  1.00  0.00     0.031 C 
ATOM     44  C   UNL A   1      45.991  24.214  27.637  1.00  0.00     0.029 A 
ATOM     45  N   UNL A   1      45.449  26.298  28.242  1.00  0.00    -0.354 N 
ATOM     46  C   UNL A   1      41.289  27.472  28.628  1.00  0.00     0.074 A 
ATOM     47  C   UNL A   1      40.408  26.374  28.300  1.00  0.00     0.031 C 
ATOM     48  C   UNL A   1      47.137  24.886  27.843  1.00  0.00     0.029 A 
ATOM     49  C   UNL A   1      46.822  26.267  28.199  1.00  0.00     0.049 A 
ATOM     50  H   UNL A   1      44.935  27.097  28.503  1.00  0.00     0.167 HD
ATOM     51  C   UNL A   1      40.872  28.699  29.017  1.00  0.00     0.031 A 
ATOM     52  C   UNL A   1      47.717  27.253  28.396  1.00  0.00     0.031 A 
ATOM     53  C   UNL A   1      41.758  29.789  29.327  1.00  0.00     0.049 A 
ATOM     54  C   UNL A   1      47.217  28.632  28.738  1.00  0.00     0.074 A 
ATOM     55  C   UNL A   1      41.438  31.064  29.760  1.00  0.00     0.029 A 
ATOM     56  N   UNL A   1      43.140  29.735  29.223  1.00  0.00    -0.354 N 
ATOM     57  N   UNL A   1      45.987  29.040  28.935  1.00  0.00    -0.248 NA
ATOM     58  C   UNL A   1      48.231  29.685  28.884  1.00  0.00     0.031 C 
ATOM     59  C   UNL A   1      42.622  31.801  29.850  1.00  0.00     0.029 A 
ATOM     60  C   UNL A   1      43.684  30.967  29.538  1.00  0.00     0.049 A 
ATOM     61  H   UNL A   1      43.656  28.938  28.964  1.00  0.00     0.167 HD
ATOM     62  C   UNL A   1      46.080  30.389  29.249  1.00  0.00     0.074 A 
ATOM     63  C   UNL A   1      47.489  30.724  29.240  1.00  0.00     0.031 C 
ATOM     64  C   UNL A   1      45.090  31.277  29.517  1.00  0.00     0.031 A 
BRANCH  51  65
ATOM     65  C   UNL A   1      39.390  28.946  29.089  1.00  0.00    -0.014 A 
ATOM     66  C   UNL A   1      38.670  28.751  30.278  1.00  0.00     0.009 A 
ATOM     67  C   UNL A   1      38.715  29.436  27.960  1.00  0.00     0.009 A 
ATOM     68  C   UNL A   1      37.300  29.020  30.327  1.00  0.00     0.001 A 
ATOM     69  C   UNL A   1      37.351  29.729  28.019  1.00  0.00     0.001 A 
ATOM     70  C   UNL A   1      36.644  29.516  29.200  1.00  0.00     0.000 A 
ENDBRANCH  51  65
BRANCH  52  71
ATOM     71  C   UNL A   1      49.174  26.992  28.241  1.00  0.00    -0.014 A 
ATOM     72  C   UNL A   1      49.768  26.968  26.970  1.00  0.00     0.009 A 
ATOM     73  C   UNL A   1      49.974  26.729  29.365  1.00  0.00     0.009 A 
ATOM     74  C   UNL A   1      51.123  26.655  26.827  1.00  0.00     0.001 A 
ATOM     75  C   UNL A   1      51.334  26.449  29.222  1.00  0.00     0.001 A 
ATOM     76  C   UNL A   1      51.904  26.400  27.952  1.00  0.00     0.000 A 
ENDBRANCH  52  71
BRANCH  64  77
ATOM     77  C   UNL A   1      45.501  32.686  29.839  1.00  0.00    -0.014 A 
ATOM     78  C   UNL A   1      45.807  33.070  31.154  1.00  0.00     0.009 A 
ATOM     79  C   UNL A   1      45.626  33.629  28.807  1.00  0.00     0.009 A 
ATOM     80  C   UNL A   1      46.199  34.381  31.432  1.00  0.00     0.001 A 
ATOM     81  C   UNL A   1      46.051  34.928  29.083  1.00  0.00     0.001 A 
ATOM     82  C   UNL A   1      46.327  35.305  30.396  1.00  0.00     0.000 A 
ENDBRANCH  64  77
ENDBRANCH  38  39
ENDBRANCH  31  33
ENDBRANCH  30  31
ENDBRANCH  29  30
ENDBRANCH  28  29
ENDBRANCH  27  28
ENDBRANCH   1  27
TORSDOF 17
ENDMDL
MODEL 3
REMARK VINA RESULT:     -10.9      1.826      3.592
REMARK SMILES Cc1ccnc(C(=O)c2[nH]c3cc(F)ccc3c2CC(=O)OCCOCCOC(=O)c2ccc(-c3c4nc(c(-c5ccccc5)c5ccc([nH]5)c(-c5ccccc5)c5nc(c(-c6ccccc6)c6ccc3[nH]6)C=C5)C=C4)cc2)c1
REMARK SMILES IDX 24 1 23 2 22 3 20 4 21 5 19 6 18 7 9 8 10 9 11 10 17 12
REMARK SMILES IDX 12 13 16 14 13 15 15 16 14 17 7 18 8 19 6 20 1 21 2 22 3 23
REMARK SMILES IDX 79 24 4 25 5 26 25 27 26 28 27 29 28 30 29 31 30 32 31 33
REMARK SMILES IDX 32 34 78 35 33 36 77 37 34 38 35 39 36 40 71 41 37 42 76 43
REMARK SMILES IDX 70 44 72 45 38 46 75 47 69 48 68 49 39 51 61 52 46 53 60 54
REMARK SMILES IDX 47 55 50 56 59 57 73 58 48 59 49 60 58 62 74 63 51 64 40 65
REMARK SMILES IDX 41 66 45 67 42 68 44 69 43 70 62 71 63 72 67 73 64 74 66 75
REMARK SMILES IDX 65 76 52 77 53 78 57 79 54 80 56 81 55 82
REMARK H PARENT 10 11 72 50 50 61
REMARK Flexibility Score: inf
ROOT
ATOM      1  C   UNL A   1      37.150  22.750  25.747  1.00  0.00     0.202 C 
ENDROOT
BRANCH   1   2
ATOM      2  C   UNL A   1      36.291  23.647  24.849  1.00  0.00     0.261 C 
BRANCH   2   3
ATOM      3  O   UNL A   1      35.430  24.546  25.584  1.00  0.00    -0.463 OA
BRANCH   3   4
ATOM      4  C   UNL A   1      34.388  25.055  24.869  1.00  0.00     0.310 C 
ATOM      5  O   UNL A   1      34.198  24.816  23.677  1.00  0.00    -0.252 OA
BRANCH   4   6
ATOM      6  C   UNL A   1      33.502  26.036  25.603  1.00  0.00     0.161 C 
BRANCH   6   7
ATOM      7  C   UNL A   1      32.009  25.989  25.401  1.00  0.00     0.000 A 
ATOM      8  C   UNL A   1      31.137  24.953  25.755  1.00  0.00     0.093 A 
ATOM      9  N   UNL A   1      29.875  25.349  25.367  1.00  0.00    -0.351 N 
ATOM     10  C   UNL A   1      29.943  26.455  24.552  1.00  0.00     0.049 A 
ATOM     11  H   UNL A   1      29.040  24.901  25.636  1.00  0.00     0.167 HD
ATOM     12  C   UNL A   1      31.264  26.898  24.579  1.00  0.00     0.004 A 
ATOM     13  C   UNL A   1      28.952  27.081  23.784  1.00  0.00     0.066 A 
ATOM     14  C   UNL A   1      31.617  28.023  23.800  1.00  0.00     0.013 A 
ATOM     15  C   UNL A   1      29.345  28.165  22.998  1.00  0.00     0.125 A 
ATOM     16  C   UNL A   1      30.649  28.637  22.998  1.00  0.00     0.040 A 
ATOM     17  F   UNL A   1      28.438  28.756  22.207  1.00  0.00    -0.207 F 
BRANCH   8  18
ATOM     18  C   UNL A   1      31.482  23.696  26.416  1.00  0.00     0.227 C 
ATOM     19  O   UNL A   1      31.379  23.561  27.634  1.00  0.00    -0.285 OA
BRANCH  18  20
ATOM     20  C   UNL A   1      32.025  22.534  25.649  1.00  0.00     0.113 A 
ATOM     21  C   UNL A   1      31.990  21.065  22.160  1.00  0.00     0.044 C 
ATOM     22  C   UNL A   1      32.315  21.319  23.602  1.00  0.00    -0.047 A 
ATOM     23  C   UNL A   1      33.395  20.664  24.200  1.00  0.00     0.023 A 
ATOM     24  C   UNL A   1      31.620  22.283  24.341  1.00  0.00     0.036 A 
ATOM     25  C   UNL A   1      33.711  20.961  25.515  1.00  0.00     0.112 A 
ATOM     26  N   UNL A   1      33.042  21.867  26.256  1.00  0.00    -0.253 NA
ENDBRANCH  18  20
ENDBRANCH   8  18
ENDBRANCH   6   7
ENDBRANCH   4   6
ENDBRANCH   3   4
ENDBRANCH   2   3
ENDBRANCH   1   2
BRANCH   1  27
ATOM     27  O   UNL A   1      38.106  21.891  25.129  1.00  0.00    -0.374 OA
BRANCH  27  28
ATOM     28  C   UNL A   1      37.732  20.527  24.960  1.00  0.00     0.202 C 
BRANCH  28  29
ATOM     29  C   UNL A   1      38.863  19.488  24.940  1.00  0.00     0.261 C 
BRANCH  29  30
ATOM     30  O   UNL A   1      39.570  19.384  26.186  1.00  0.00    -0.460 OA
BRANCH  30  31
ATOM     31  C   UNL A   1      40.902  19.604  26.097  1.00  0.00     0.338 C 
ATOM     32  O   UNL A   1      41.747  18.904  25.557  1.00  0.00    -0.246 OA
BRANCH  31  33
ATOM     33  C   UNL A   1      41.210  20.941  26.627  1.00  0.00     0.060 A 
ATOM     34  C   UNL A   1      41.656  21.914  25.724  1.00  0.00     0.016 A 
ATOM     35  C   UNL A   1      41.096  21.227  27.989  1.00  0.00     0.016 A 
ATOM     36  C   UNL A   1      42.002  23.180  26.183  1.00  0.00     0.010 A 
ATOM     37  C   UNL A   1      41.459  22.494  28.450  1.00  0.00     0.010 A 
ATOM     38  C   UNL A   1      41.927  23.469  27.552  1.00  0.00    -0.014 A 
BRANCH  38  39
ATOM     39  C   UNL A   1      42.422  24.769  28.055  1.00  0.00     0.031 A 
ATOM     40  C   UNL A   1      41.439  25.869  28.333  1.00  0.00     0.074 A 
ATOM     41  C   UNL A   1      43.737  24.952  28.266  1.00  0.00     0.049 A 
ATOM     42  N   UNL A   1      41.659  27.093  28.737  1.00  0.00    -0.248 NA
ATOM     43  C   UNL A   1      40.016  25.547  28.129  1.00  0.00     0.031 C 
ATOM     44  C   UNL A   1      44.773  23.937  28.070  1.00  0.00     0.029 A 
ATOM     45  N   UNL A   1      44.427  26.059  28.688  1.00  0.00    -0.354 N 
ATOM     46  C   UNL A   1      40.408  27.690  28.825  1.00  0.00     0.074 A 
ATOM     47  C   UNL A   1      39.434  26.705  28.413  1.00  0.00     0.031 C 
ATOM     48  C   UNL A   1      45.969  24.472  28.367  1.00  0.00     0.029 A 
ATOM     49  C   UNL A   1      45.788  25.873  28.735  1.00  0.00     0.049 A 
ATOM     50  H   UNL A   1      43.989  26.906  28.934  1.00  0.00     0.167 HD
ATOM     51  C   UNL A   1      40.105  28.951  29.216  1.00  0.00     0.031 A 
ATOM     52  C   UNL A   1      46.772  26.748  29.014  1.00  0.00     0.031 A 
ATOM     53  C   UNL A   1      41.084  29.927  29.610  1.00  0.00     0.049 A 
ATOM     54  C   UNL A   1      46.407  28.168  29.356  1.00  0.00     0.074 A 
ATOM     55  C   UNL A   1      40.881  31.223  30.051  1.00  0.00     0.029 A 
ATOM     56  N   UNL A   1      42.455  29.718  29.596  1.00  0.00    -0.354 N 
ATOM     57  N   UNL A   1      45.220  28.710  29.481  1.00  0.00    -0.248 NA
ATOM     58  C   UNL A   1      47.521  29.098  29.594  1.00  0.00     0.031 C 
ATOM     59  C   UNL A   1      42.131  31.820  30.238  1.00  0.00     0.029 A 
ATOM     60  C   UNL A   1      43.112  30.876  29.977  1.00  0.00     0.049 A 
ATOM     61  H   UNL A   1      42.896  28.872  29.353  1.00  0.00     0.167 HD
ATOM     62  C   UNL A   1      45.442  30.035  29.833  1.00  0.00     0.074 A 
ATOM     63  C   UNL A   1      46.877  30.208  29.925  1.00  0.00     0.031 C 
ATOM     64  C   UNL A   1      44.542  31.025  30.056  1.00  0.00     0.031 A 
BRANCH  51  65
ATOM     65  C   UNL A   1      38.659  29.362  29.195  1.00  0.00    -0.014 A 
ATOM     66  C   UNL A   1      37.834  29.201  30.319  1.00  0.00     0.009 A 
ATOM     67  C   UNL A   1      38.130  29.975  28.048  1.00  0.00     0.009 A 
ATOM     68  C   UNL A   1      36.503  29.623  30.285  1.00  0.00     0.001 A 
ATOM     69  C   UNL A   1      36.808  30.419  28.025  1.00  0.00     0.001 A 
ATOM     70  C   UNL A   1      35.993  30.239  29.141  1.00  0.00     0.000 A 
ENDBRANCH  51  65
BRANCH  52  71
ATOM     71  C   UNL A   1      48.198  26.326  28.950  1.00  0.00    -0.014 A 
ATOM     72  C   UNL A   1      48.912  26.390  27.745  1.00  0.00     0.009 A 
ATOM     73  C   UNL A   1      48.843  25.821  30.091  1.00  0.00     0.009 A 
ATOM     74  C   UNL A   1      50.229  25.928  27.676  1.00  0.00     0.001 A 
ATOM     75  C   UNL A   1      50.169  25.391  30.027  1.00  0.00     0.001 A 
ATOM     76  C   UNL A   1      50.857  25.433  28.816  1.00  0.00     0.000 A 
ENDBRANCH  52  71
BRANCH  64  77
ATOM     77  C   UNL A   1      45.085  32.372  30.439  1.00  0.00    -0.014 A 
ATOM     78  C   UNL A   1      45.234  32.739  31.786  1.00  0.00     0.009 A 
ATOM     79  C   UNL A   1      45.493  33.268  29.439  1.00  0.00     0.009 A 
ATOM     80  C   UNL A   1      45.753  33.991  32.122  1.00  0.00     0.001 A 
ATOM     81  C   UNL A   1      46.042  34.505  29.779  1.00  0.00     0.001 A 
ATOM     82  C   UNL A   1      46.161  34.869  31.119  1.00  0.00     0.000 A 
ENDBRANCH  64  77
ENDBRANCH  38  39
ENDBRANCH  31  33
ENDBRANCH  30  31
ENDBRANCH  29  30
ENDBRANCH  28  29
ENDBRANCH  27  28
ENDBRANCH   1  27
TORSDOF 17
ENDMDL
