MODEL 1
REMARK VINA RESULT:     -10.7      0.000      0.000
REMARK SMILES COc1ccc(-c2cccc(Cl)c2C(=O)OCCOCCOC(=O)c2ccc(-c3c4nc(c(-c5ccccc5)c5ccc([nH]5)c(-c5ccccc5)c5nc(c(-c6ccccc6)c6ccc3[nH]6)C=C5)C=C4)cc2)c(F)c1
REMARK SMILES IDX 19 1 18 2 17 3 16 4 14 5 15 6 13 7 7 8 8 9 9 10 11 11 10 12
REMARK SMILES IDX 12 13 6 14 3 15 4 16 75 17 5 18 73 19 74 20 2 21 1 22 20 23
REMARK SMILES IDX 21 24 22 25 23 26 24 27 25 28 26 29 72 30 27 31 71 32 28 33
REMARK SMILES IDX 29 34 30 35 65 36 31 37 70 38 64 39 66 40 32 41 69 42 63 43
REMARK SMILES IDX 62 44 33 46 55 47 40 48 54 49 41 50 44 51 53 52 67 53 42 54
REMARK SMILES IDX 43 55 52 57 68 58 45 59 34 60 35 61 39 62 36 63 38 64 37 65
REMARK SMILES IDX 56 66 57 67 61 68 58 69 60 70 59 71 46 72 47 73 51 74 48 75
REMARK SMILES IDX 50 76 49 77
REMARK H PARENT 66 45 44 56
REMARK Flexibility Score: inf
ROOT
ATOM      1  O   UNL A   1      31.752  31.153  26.174  1.00  0.00    -0.374 OA
ENDROOT
BRANCH   1   2
ATOM      2  C   UNL A   1      32.535  30.181  26.869  1.00  0.00     0.202 C 
BRANCH   2   3
ATOM      3  C   UNL A   1      31.958  28.769  26.970  1.00  0.00     0.261 C 
BRANCH   3   4
ATOM      4  O   UNL A   1      32.419  27.971  25.866  1.00  0.00    -0.460 OA
BRANCH   4   5
ATOM      5  C   UNL A   1      31.740  26.817  25.662  1.00  0.00     0.340 C 
ATOM      6  O   UNL A   1      30.843  26.374  26.359  1.00  0.00    -0.246 OA
BRANCH   5   7
ATOM      7  C   UNL A   1      32.172  26.199  24.388  1.00  0.00     0.086 A 
ATOM      8  C   UNL A   1      31.440  26.458  23.199  1.00  0.00     0.001 A 
ATOM      9  C   UNL A   1      31.805  25.772  22.025  1.00  0.00     0.010 A 
ATOM     10  C   UNL A   1      32.881  24.885  22.013  1.00  0.00     0.002 A 
ATOM     11  C   UNL A   1      33.269  25.323  24.362  1.00  0.00     0.056 A 
ATOM     12  C   UNL A   1      33.622  24.677  23.173  1.00  0.00     0.021 A 
ATOM     13  Cl  UNL A   1      34.228  24.961  25.758  1.00  0.00    -0.083 Cl
BRANCH   8  14
ATOM     14  C   UNL A   1      30.364  27.460  23.113  1.00  0.00     0.019 A 
ATOM     15  C   UNL A   1      28.351  29.449  23.057  1.00  0.00     0.121 A 
ATOM     16  C   UNL A   1      29.665  29.770  22.714  1.00  0.00     0.047 A 
ATOM     17  C   UNL A   1      28.039  28.130  23.387  1.00  0.00     0.086 A 
ATOM     18  C   UNL A   1      30.655  28.779  22.727  1.00  0.00     0.015 A 
ATOM     19  C   UNL A   1      29.033  27.151  23.404  1.00  0.00     0.134 A 
ATOM     20  F   UNL A   1      28.687  25.889  23.699  1.00  0.00    -0.206 F 
BRANCH  15  21
ATOM     21  O   UNL A   1      27.301  30.322  23.112  1.00  0.00    -0.497 OA
ATOM     22  C   UNL A   1      27.597  31.675  23.439  1.00  0.00     0.278 C 
ENDBRANCH  15  21
ENDBRANCH   8  14
ENDBRANCH   5   7
ENDBRANCH   4   5
ENDBRANCH   3   4
ENDBRANCH   2   3
ENDBRANCH   1   2
BRANCH   1  23
ATOM     23  C   UNL A   1      31.387  32.333  26.882  1.00  0.00     0.202 C 
BRANCH  23  24
ATOM     24  C   UNL A   1      32.439  33.439  27.031  1.00  0.00     0.261 C 
BRANCH  24  25
ATOM     25  O   UNL A   1      32.381  34.122  28.286  1.00  0.00    -0.460 OA
BRANCH  25  26
ATOM     26  C   UNL A   1      33.502  34.823  28.580  1.00  0.00     0.338 C 
ATOM     27  O   UNL A   1      33.610  36.033  28.720  1.00  0.00    -0.246 OA
BRANCH  26  28
ATOM     28  C   UNL A   1      34.594  33.886  28.868  1.00  0.00     0.060 A 
ATOM     29  C   UNL A   1      34.273  32.674  29.493  1.00  0.00     0.016 A 
ATOM     30  C   UNL A   1      35.919  34.215  28.577  1.00  0.00     0.016 A 
ATOM     31  C   UNL A   1      35.285  31.799  29.871  1.00  0.00     0.010 A 
ATOM     32  C   UNL A   1      36.934  33.343  28.967  1.00  0.00     0.010 A 
ATOM     33  C   UNL A   1      36.621  32.151  29.647  1.00  0.00    -0.014 A 
BRANCH  33  34
ATOM     34  C   UNL A   1      37.703  31.371  30.282  1.00  0.00     0.031 A 
ATOM     35  C   UNL A   1      38.016  31.630  31.729  1.00  0.00     0.074 A 
ATOM     36  C   UNL A   1      38.390  30.450  29.586  1.00  0.00     0.049 A 
ATOM     37  N   UNL A   1      38.971  31.135  32.473  1.00  0.00    -0.248 NA
ATOM     38  C   UNL A   1      37.136  32.582  32.427  1.00  0.00     0.031 C 
ATOM     39  C   UNL A   1      38.137  30.074  28.196  1.00  0.00     0.029 A 
ATOM     40  N   UNL A   1      39.453  29.669  29.960  1.00  0.00    -0.354 N 
ATOM     41  C   UNL A   1      38.815  31.726  33.720  1.00  0.00     0.074 A 
ATOM     42  C   UNL A   1      37.696  32.637  33.625  1.00  0.00     0.031 C 
ATOM     43  C   UNL A   1      39.028  29.137  27.832  1.00  0.00     0.029 A 
ATOM     44  C   UNL A   1      39.936  28.881  28.947  1.00  0.00     0.049 A 
ATOM     45  H   UNL A   1      39.833  29.674  30.869  1.00  0.00     0.167 HD
ATOM     46  C   UNL A   1      39.537  31.524  34.848  1.00  0.00     0.031 A 
ATOM     47  C   UNL A   1      41.008  28.066  28.920  1.00  0.00     0.031 A 
ATOM     48  C   UNL A   1      40.661  30.629  34.928  1.00  0.00     0.049 A 
ATOM     49  C   UNL A   1      41.855  27.929  30.157  1.00  0.00     0.074 A 
ATOM     50  C   UNL A   1      41.463  30.346  36.019  1.00  0.00     0.029 A 
ATOM     51  N   UNL A   1      41.145  29.877  33.867  1.00  0.00    -0.354 N 
ATOM     52  N   UNL A   1      41.697  28.483  31.336  1.00  0.00    -0.248 NA
ATOM     53  C   UNL A   1      43.028  27.048  30.061  1.00  0.00     0.031 C 
ATOM     54  C   UNL A   1      42.468  29.469  35.603  1.00  0.00     0.029 A 
ATOM     55  C   UNL A   1      42.250  29.150  34.272  1.00  0.00     0.049 A 
ATOM     56  H   UNL A   1      40.759  29.864  32.962  1.00  0.00     0.167 HD
ATOM     57  C   UNL A   1      42.724  27.987  32.130  1.00  0.00     0.074 A 
ATOM     58  C   UNL A   1      43.495  27.085  31.301  1.00  0.00     0.031 C 
ATOM     59  C   UNL A   1      42.999  28.251  33.432  1.00  0.00     0.031 A 
BRANCH  46  60
ATOM     60  C   UNL A   1      39.155  32.319  36.064  1.00  0.00    -0.014 A 
ATOM     61  C   UNL A   1      38.176  31.862  36.960  1.00  0.00     0.009 A 
ATOM     62  C   UNL A   1      39.793  33.543  36.323  1.00  0.00     0.009 A 
ATOM     63  C   UNL A   1      37.814  32.634  38.068  1.00  0.00     0.001 A 
ATOM     64  C   UNL A   1      39.453  34.296  37.447  1.00  0.00     0.001 A 
ATOM     65  C   UNL A   1      38.456  33.847  38.312  1.00  0.00     0.000 A 
ENDBRANCH  46  60
BRANCH  47  66
ATOM     66  C   UNL A   1      41.351  27.327  27.678  1.00  0.00    -0.014 A 
ATOM     67  C   UNL A   1      41.004  25.975  27.533  1.00  0.00     0.009 A 
ATOM     68  C   UNL A   1      42.040  27.964  26.633  1.00  0.00     0.009 A 
ATOM     69  C   UNL A   1      41.361  25.271  26.380  1.00  0.00     0.001 A 
ATOM     70  C   UNL A   1      42.368  27.266  25.468  1.00  0.00     0.001 A 
ATOM     71  C   UNL A   1      42.037  25.918  25.347  1.00  0.00     0.000 A 
ENDBRANCH  47  66
BRANCH  59  72
ATOM     72  C   UNL A   1      44.148  27.510  34.059  1.00  0.00    -0.014 A 
ATOM     73  C   UNL A   1      45.440  28.054  34.101  1.00  0.00     0.009 A 
ATOM     74  C   UNL A   1      43.914  26.267  34.670  1.00  0.00     0.009 A 
ATOM     75  C   UNL A   1      46.481  27.354  34.715  1.00  0.00     0.001 A 
ATOM     76  C   UNL A   1      44.948  25.585  35.312  1.00  0.00     0.001 A 
ATOM     77  C   UNL A   1      46.232  26.125  35.325  1.00  0.00     0.000 A 
ENDBRANCH  59  72
ENDBRANCH  33  34
ENDBRANCH  26  28
ENDBRANCH  25  26
ENDBRANCH  24  25
ENDBRANCH  23  24
ENDBRANCH   1  23
TORSDOF 16
ENDMDL
MODEL 2
REMARK VINA RESULT:     -10.7      0.538      5.949
REMARK SMILES COc1ccc(-c2cccc(Cl)c2C(=O)OCCOCCOC(=O)c2ccc(-c3c4nc(c(-c5ccccc5)c5ccc([nH]5)c(-c5ccccc5)c5nc(c(-c6ccccc6)c6ccc3[nH]6)C=C5)C=C4)cc2)c(F)c1
REMARK SMILES IDX 19 1 18 2 17 3 16 4 14 5 15 6 13 7 7 8 8 9 9 10 11 11 10 12
REMARK SMILES IDX 12 13 6 14 3 15 4 16 75 17 5 18 73 19 74 20 2 21 1 22 20 23
REMARK SMILES IDX 21 24 22 25 23 26 24 27 25 28 26 29 72 30 27 31 71 32 28 33
REMARK SMILES IDX 29 34 30 35 65 36 31 37 70 38 64 39 66 40 32 41 69 42 63 43
REMARK SMILES IDX 62 44 33 46 55 47 40 48 54 49 41 50 44 51 53 52 67 53 42 54
REMARK SMILES IDX 43 55 52 57 68 58 45 59 34 60 35 61 39 62 36 63 38 64 37 65
REMARK SMILES IDX 56 66 57 67 61 68 58 69 60 70 59 71 46 72 47 73 51 74 48 75
REMARK SMILES IDX 50 76 49 77
REMARK H PARENT 66 45 44 56
REMARK Flexibility Score: inf
ROOT
ATOM      1  O   UNL A   1      32.065  30.802  26.223  1.00  0.00    -0.374 OA
ENDROOT
BRANCH   1   2
ATOM      2  C   UNL A   1      32.967  30.055  27.042  1.00  0.00     0.202 C 
BRANCH   2   3
ATOM      3  C   UNL A   1      32.891  28.531  26.945  1.00  0.00     0.261 C 
BRANCH   3   4
ATOM      4  O   UNL A   1      32.695  28.136  25.577  1.00  0.00    -0.460 OA
BRANCH   4   5
ATOM      5  C   UNL A   1      31.962  27.011  25.397  1.00  0.00     0.340 C 
ATOM      6  O   UNL A   1      31.059  26.615  26.116  1.00  0.00    -0.246 OA
BRANCH   5   7
ATOM      7  C   UNL A   1      32.341  26.362  24.123  1.00  0.00     0.086 A 
ATOM      8  C   UNL A   1      31.539  26.560  22.968  1.00  0.00     0.001 A 
ATOM      9  C   UNL A   1      31.859  25.845  21.798  1.00  0.00     0.010 A 
ATOM     10  C   UNL A   1      32.958  24.986  21.756  1.00  0.00     0.002 A 
ATOM     11  C   UNL A   1      33.460  25.515  24.065  1.00  0.00     0.056 A 
ATOM     12  C   UNL A   1      33.766  24.838  22.879  1.00  0.00     0.021 A 
ATOM     13  Cl  UNL A   1      34.504  25.226  25.416  1.00  0.00    -0.083 Cl
BRANCH   8  14
ATOM     14  C   UNL A   1      30.432  27.530  22.910  1.00  0.00     0.019 A 
ATOM     15  C   UNL A   1      28.366  29.465  22.895  1.00  0.00     0.121 A 
ATOM     16  C   UNL A   1      29.636  29.790  22.418  1.00  0.00     0.047 A 
ATOM     17  C   UNL A   1      28.121  28.165  23.340  1.00  0.00     0.086 A 
ATOM     18  C   UNL A   1      30.652  28.824  22.411  1.00  0.00     0.015 A 
ATOM     19  C   UNL A   1      29.140  27.212  23.336  1.00  0.00     0.134 A 
ATOM     20  F   UNL A   1      28.856  25.966  23.745  1.00  0.00    -0.206 F 
BRANCH  15  21
ATOM     21  O   UNL A   1      27.301  30.316  22.983  1.00  0.00    -0.497 OA
ATOM     22  C   UNL A   1      27.550  31.618  23.500  1.00  0.00     0.278 C 
ENDBRANCH  15  21
ENDBRANCH   8  14
ENDBRANCH   5   7
ENDBRANCH   4   5
ENDBRANCH   3   4
ENDBRANCH   2   3
ENDBRANCH   1   2
BRANCH   1  23
ATOM     23  C   UNL A   1      31.404  31.913  26.817  1.00  0.00     0.202 C 
BRANCH  23  24
ATOM     24  C   UNL A   1      32.182  33.228  26.952  1.00  0.00     0.261 C 
BRANCH  24  25
ATOM     25  O   UNL A   1      32.186  33.760  28.278  1.00  0.00    -0.460 OA
BRANCH  25  26
ATOM     26  C   UNL A   1      33.216  34.602  28.528  1.00  0.00     0.338 C 
ATOM     27  O   UNL A   1      33.191  35.825  28.564  1.00  0.00    -0.246 OA
BRANCH  26  28
ATOM     28  C   UNL A   1      34.396  33.818  28.914  1.00  0.00     0.060 A 
ATOM     29  C   UNL A   1      34.203  32.706  29.744  1.00  0.00     0.016 A 
ATOM     30  C   UNL A   1      35.676  34.200  28.510  1.00  0.00     0.016 A 
ATOM     31  C   UNL A   1      35.300  31.991  30.212  1.00  0.00     0.010 A 
ATOM     32  C   UNL A   1      36.776  33.490  28.990  1.00  0.00     0.010 A 
ATOM     33  C   UNL A   1      36.592  32.408  29.870  1.00  0.00    -0.014 A 
BRANCH  33  34
ATOM     34  C   UNL A   1      37.759  31.835  30.573  1.00  0.00     0.031 A 
ATOM     35  C   UNL A   1      38.563  30.774  29.875  1.00  0.00     0.074 A 
ATOM     36  C   UNL A   1      38.097  32.253  31.803  1.00  0.00     0.049 A 
ATOM     37  N   UNL A   1      39.569  30.068  30.320  1.00  0.00    -0.248 NA
ATOM     38  C   UNL A   1      38.171  30.465  28.489  1.00  0.00     0.031 C 
ATOM     39  C   UNL A   1      37.427  33.314  32.553  1.00  0.00     0.029 A 
ATOM     40  N   UNL A   1      39.092  31.820  32.643  1.00  0.00    -0.354 N 
ATOM     41  C   UNL A   1      39.921  29.222  29.276  1.00  0.00     0.074 A 
ATOM     42  C   UNL A   1      39.002  29.480  28.188  1.00  0.00     0.031 C 
ATOM     43  C   UNL A   1      38.027  33.445  33.748  1.00  0.00     0.029 A 
ATOM     44  C   UNL A   1      39.092  32.451  33.860  1.00  0.00     0.049 A 
ATOM     45  H   UNL A   1      39.743  31.125  32.394  1.00  0.00     0.167 HD
ATOM     46  C   UNL A   1      40.923  28.313  29.226  1.00  0.00     0.031 A 
ATOM     47  C   UNL A   1      39.851  32.229  34.950  1.00  0.00     0.031 A 
ATOM     48  C   UNL A   1      41.819  28.050  30.320  1.00  0.00     0.049 A 
ATOM     49  C   UNL A   1      40.897  31.146  34.906  1.00  0.00     0.074 A 
ATOM     50  C   UNL A   1      42.871  27.152  30.376  1.00  0.00     0.029 A 
ATOM     51  N   UNL A   1      41.762  28.682  31.553  1.00  0.00    -0.354 N 
ATOM     52  N   UNL A   1      41.231  30.356  33.913  1.00  0.00    -0.248 NA
ATOM     53  C   UNL A   1      41.676  30.929  36.133  1.00  0.00     0.031 C 
ATOM     54  C   UNL A   1      43.411  27.199  31.665  1.00  0.00     0.029 A 
ATOM     55  C   UNL A   1      42.743  28.176  32.387  1.00  0.00     0.049 A 
ATOM     56  H   UNL A   1      41.118  29.385  31.798  1.00  0.00     0.167 HD
ATOM     57  C   UNL A   1      42.282  29.578  34.382  1.00  0.00     0.074 A 
ATOM     58  C   UNL A   1      42.534  29.995  35.746  1.00  0.00     0.031 C 
ATOM     59  C   UNL A   1      42.982  28.611  33.739  1.00  0.00     0.031 A 
BRANCH  46  60
ATOM     60  C   UNL A   1      41.066  27.513  27.961  1.00  0.00    -0.014 A 
ATOM     61  C   UNL A   1      40.456  26.257  27.815  1.00  0.00     0.009 A 
ATOM     62  C   UNL A   1      41.818  28.030  26.894  1.00  0.00     0.009 A 
ATOM     63  C   UNL A   1      40.630  25.518  26.642  1.00  0.00     0.001 A 
ATOM     64  C   UNL A   1      41.963  27.304  25.711  1.00  0.00     0.001 A 
ATOM     65  C   UNL A   1      41.379  26.044  25.590  1.00  0.00     0.000 A 
ENDBRANCH  46  60
BRANCH  47  66
ATOM     66  C   UNL A   1      39.643  33.034  36.181  1.00  0.00    -0.014 A 
ATOM     67  C   UNL A   1      40.371  34.215  36.392  1.00  0.00     0.009 A 
ATOM     68  C   UNL A   1      38.724  32.622  37.160  1.00  0.00     0.009 A 
ATOM     69  C   UNL A   1      40.202  34.951  37.567  1.00  0.00     0.001 A 
ATOM     70  C   UNL A   1      38.533  33.377  38.319  1.00  0.00     0.001 A 
ATOM     71  C   UNL A   1      39.280  34.536  38.527  1.00  0.00     0.000 A 
ENDBRANCH  47  66
BRANCH  59  72
ATOM     72  C   UNL A   1      44.126  27.975  34.481  1.00  0.00    -0.014 A 
ATOM     73  C   UNL A   1      43.950  26.814  35.248  1.00  0.00     0.009 A 
ATOM     74  C   UNL A   1      45.413  28.522  34.359  1.00  0.00     0.009 A 
ATOM     75  C   UNL A   1      45.038  26.231  35.904  1.00  0.00     0.001 A 
ATOM     76  C   UNL A   1      46.503  27.919  34.987  1.00  0.00     0.001 A 
ATOM     77  C   UNL A   1      46.312  26.780  35.766  1.00  0.00     0.000 A 
ENDBRANCH  59  72
ENDBRANCH  33  34
ENDBRANCH  26  28
ENDBRANCH  25  26
ENDBRANCH  24  25
ENDBRANCH  23  24
ENDBRANCH   1  23
TORSDOF 16
ENDMDL
MODEL 3
REMARK VINA RESULT:     -10.6      4.655      9.438
REMARK SMILES COc1ccc(-c2cccc(Cl)c2C(=O)OCCOCCOC(=O)c2ccc(-c3c4nc(c(-c5ccccc5)c5ccc([nH]5)c(-c5ccccc5)c5nc(c(-c6ccccc6)c6ccc3[nH]6)C=C5)C=C4)cc2)c(F)c1
REMARK SMILES IDX 19 1 18 2 17 3 16 4 14 5 15 6 13 7 7 8 8 9 9 10 11 11 10 12
REMARK SMILES IDX 12 13 6 14 3 15 4 16 75 17 5 18 73 19 74 20 2 21 1 22 20 23
REMARK SMILES IDX 21 24 22 25 23 26 24 27 25 28 26 29 72 30 27 31 71 32 28 33
REMARK SMILES IDX 29 34 30 35 65 36 31 37 70 38 64 39 66 40 32 41 69 42 63 43
REMARK SMILES IDX 62 44 33 46 55 47 40 48 54 49 41 50 44 51 53 52 67 53 42 54
REMARK SMILES IDX 43 55 52 57 68 58 45 59 34 60 35 61 39 62 36 63 38 64 37 65
REMARK SMILES IDX 56 66 57 67 61 68 58 69 60 70 59 71 46 72 47 73 51 74 48 75
REMARK SMILES IDX 50 76 49 77
REMARK H PARENT 66 45 44 56
REMARK Flexibility Score: inf
ROOT
ATOM      1  O   UNL A   1      38.282  22.359  25.647  1.00  0.00    -0.374 OA
ENDROOT
BRANCH   1   2
ATOM      2  C   UNL A   1      37.263  23.349  25.795  1.00  0.00     0.202 C 
BRANCH   2   3
ATOM      3  C   UNL A   1      36.314  23.550  24.613  1.00  0.00     0.261 C 
BRANCH   3   4
ATOM      4  O   UNL A   1      35.353  24.572  24.925  1.00  0.00    -0.460 OA
BRANCH   4   5
ATOM      5  C   UNL A   1      34.334  24.700  24.041  1.00  0.00     0.340 C 
ATOM      6  O   UNL A   1      34.398  24.518  22.836  1.00  0.00    -0.246 OA
BRANCH   5   7
ATOM      7  C   UNL A   1      33.076  24.995  24.763  1.00  0.00     0.086 A 
ATOM      8  C   UNL A   1      32.198  23.932  25.105  1.00  0.00     0.001 A 
ATOM      9  C   UNL A   1      30.959  24.251  25.692  1.00  0.00     0.010 A 
ATOM     10  C   UNL A   1      30.609  25.573  25.966  1.00  0.00     0.002 A 
ATOM     11  C   UNL A   1      32.727  26.321  25.064  1.00  0.00     0.056 A 
ATOM     12  C   UNL A   1      31.498  26.602  25.671  1.00  0.00     0.021 A 
ATOM     13  Cl  UNL A   1      33.741  27.676  24.699  1.00  0.00    -0.083 Cl
BRANCH   8  14
ATOM     14  C   UNL A   1      32.547  22.511  24.944  1.00  0.00     0.019 A 
ATOM     15  C   UNL A   1      33.086  19.748  24.649  1.00  0.00     0.121 A 
ATOM     16  C   UNL A   1      32.405  20.441  23.649  1.00  0.00     0.047 A 
ATOM     17  C   UNL A   1      33.532  20.444  25.773  1.00  0.00     0.086 A 
ATOM     18  C   UNL A   1      32.154  21.813  23.790  1.00  0.00     0.015 A 
ATOM     19  C   UNL A   1      33.272  21.808  25.909  1.00  0.00     0.134 A 
ATOM     20  F   UNL A   1      33.742  22.446  26.992  1.00  0.00    -0.206 F 
BRANCH  15  21
ATOM     21  O   UNL A   1      33.369  18.411  24.648  1.00  0.00    -0.497 OA
ATOM     22  C   UNL A   1      32.712  17.607  25.622  1.00  0.00     0.278 C 
ENDBRANCH  15  21
ENDBRANCH   8  14
ENDBRANCH   5   7
ENDBRANCH   4   5
ENDBRANCH   3   4
ENDBRANCH   2   3
ENDBRANCH   1   2
BRANCH   1  23
ATOM     23  C   UNL A   1      37.875  21.045  25.281  1.00  0.00     0.202 C 
BRANCH  23  24
ATOM     24  C   UNL A   1      38.956  19.963  25.156  1.00  0.00     0.261 C 
BRANCH  24  25
ATOM     25  O   UNL A   1      39.723  19.778  26.348  1.00  0.00    -0.460 OA
BRANCH  25  26
ATOM     26  C   UNL A   1      41.061  19.751  26.139  1.00  0.00     0.338 C 
ATOM     27  O   UNL A   1      41.708  18.902  25.540  1.00  0.00    -0.246 OA
BRANCH  26  28
ATOM     28  C   UNL A   1      41.648  21.008  26.620  1.00  0.00     0.060 A 
ATOM     29  C   UNL A   1      41.593  21.276  27.993  1.00  0.00     0.016 A 
ATOM     30  C   UNL A   1      42.197  21.932  25.728  1.00  0.00     0.016 A 
ATOM     31  C   UNL A   1      42.050  22.495  28.481  1.00  0.00     0.010 A 
ATOM     32  C   UNL A   1      42.643  23.159  26.217  1.00  0.00     0.010 A 
ATOM     33  C   UNL A   1      42.537  23.457  27.588  1.00  0.00    -0.014 A 
BRANCH  33  34
ATOM     34  C   UNL A   1      42.766  24.841  28.050  1.00  0.00     0.031 A 
ATOM     35  C   UNL A   1      44.162  25.246  28.431  1.00  0.00     0.074 A 
ATOM     36  C   UNL A   1      41.753  25.720  28.127  1.00  0.00     0.049 A 
ATOM     37  N   UNL A   1      44.590  26.370  28.944  1.00  0.00    -0.248 NA
ATOM     38  C   UNL A   1      45.216  24.240  28.211  1.00  0.00     0.031 C 
ATOM     39  C   UNL A   1      40.371  25.458  27.730  1.00  0.00     0.029 A 
ATOM     40  N   UNL A   1      41.737  27.015  28.577  1.00  0.00    -0.354 N 
ATOM     41  C   UNL A   1      45.958  26.202  29.120  1.00  0.00     0.074 A 
ATOM     42  C   UNL A   1      46.283  24.859  28.690  1.00  0.00     0.031 C 
ATOM     43  C   UNL A   1      39.637  26.559  27.963  1.00  0.00     0.029 A 
ATOM     44  C   UNL A   1      40.489  27.584  28.561  1.00  0.00     0.049 A 
ATOM     45  H   UNL A   1      42.544  27.491  28.882  1.00  0.00     0.167 HD
ATOM     46  C   UNL A   1      46.864  27.089  29.593  1.00  0.00     0.031 A 
ATOM     47  C   UNL A   1      40.080  28.787  29.006  1.00  0.00     0.031 A 
ATOM     48  C   UNL A   1      46.529  28.416  30.036  1.00  0.00     0.049 A 
ATOM     49  C   UNL A   1      41.089  29.723  29.619  1.00  0.00     0.074 A 
ATOM     50  C   UNL A   1      47.368  29.398  30.532  1.00  0.00     0.029 A 
ATOM     51  N   UNL A   1      45.246  28.942  30.042  1.00  0.00    -0.354 N 
ATOM     52  N   UNL A   1      42.382  29.562  29.773  1.00  0.00    -0.248 NA
ATOM     53  C   UNL A   1      40.581  31.011  30.113  1.00  0.00     0.031 C 
ATOM     54  C   UNL A   1      46.582  30.497  30.894  1.00  0.00     0.029 A 
ATOM     55  C   UNL A   1      45.265  30.226  30.556  1.00  0.00     0.049 A 
ATOM     56  H   UNL A   1      44.440  28.471  29.726  1.00  0.00     0.167 HD
ATOM     57  C   UNL A   1      42.846  30.740  30.344  1.00  0.00     0.074 A 
ATOM     58  C   UNL A   1      41.699  31.609  30.503  1.00  0.00     0.031 C 
ATOM     59  C   UNL A   1      44.111  31.077  30.699  1.00  0.00     0.031 A 
BRANCH  46  60
ATOM     60  C   UNL A   1      48.292  26.630  29.693  1.00  0.00    -0.014 A 
ATOM     61  C   UNL A   1      48.774  25.980  30.840  1.00  0.00     0.009 A 
ATOM     62  C   UNL A   1      49.168  26.844  28.616  1.00  0.00     0.009 A 
ATOM     63  C   UNL A   1      50.114  25.591  30.923  1.00  0.00     0.001 A 
ATOM     64  C   UNL A   1      50.497  26.425  28.689  1.00  0.00     0.001 A 
ATOM     65  C   UNL A   1      50.972  25.810  29.846  1.00  0.00     0.000 A 
ENDBRANCH  46  60
BRANCH  47  66
ATOM     66  C   UNL A   1      38.649  29.173  28.905  1.00  0.00    -0.014 A 
ATOM     67  C   UNL A   1      38.145  29.738  27.724  1.00  0.00     0.009 A 
ATOM     68  C   UNL A   1      37.780  28.992  29.993  1.00  0.00     0.009 A 
ATOM     69  C   UNL A   1      36.808  30.135  27.642  1.00  0.00     0.001 A 
ATOM     70  C   UNL A   1      36.436  29.361  29.899  1.00  0.00     0.001 A 
ATOM     71  C   UNL A   1      35.954  29.941  28.727  1.00  0.00     0.000 A 
ENDBRANCH  47  66
BRANCH  59  72
ATOM     72  C   UNL A   1      44.333  32.463  31.239  1.00  0.00    -0.014 A 
ATOM     73  C   UNL A   1      44.565  33.555  30.390  1.00  0.00     0.009 A 
ATOM     74  C   UNL A   1      44.250  32.683  32.624  1.00  0.00     0.009 A 
ATOM     75  C   UNL A   1      44.740  34.836  30.920  1.00  0.00     0.001 A 
ATOM     76  C   UNL A   1      44.392  33.968  33.148  1.00  0.00     0.001 A 
ATOM     77  C   UNL A   1      44.646  35.041  32.297  1.00  0.00     0.000 A 
ENDBRANCH  59  72
ENDBRANCH  33  34
ENDBRANCH  26  28
ENDBRANCH  25  26
ENDBRANCH  24  25
ENDBRANCH  23  24
ENDBRANCH   1  23
TORSDOF 16
ENDMDL
