MODEL 1
REMARK VINA RESULT:      -8.5      0.000      0.000
REMARK SMILES Cc1c(Cl)ccc2c(OCC(=O)OCCOCCOC(=O)c3ccc(-c4c5nc(c(-c6ccccc6)c6ccc([nH]6)c(-c6ccccc6)c6nc(c(-c7ccccc7)c7ccc4[nH]7)C=C6)C=C5)cc3)ccnc12
REMARK SMILES IDX 16 1 15 2 14 3 13 4 11 5 12 6 10 7 9 8 8 9 1 10 2 11 3 12
REMARK SMILES IDX 73 13 4 14 5 15 7 16 72 17 6 18 71 19 70 20 17 21 18 22
REMARK SMILES IDX 19 23 20 24 21 25 22 26 23 27 69 28 24 29 68 30 25 31 26 32
REMARK SMILES IDX 27 33 62 34 28 35 67 36 61 37 63 38 29 39 66 40 60 41 59 42
REMARK SMILES IDX 30 44 52 45 37 46 51 47 38 48 41 49 50 50 64 51 39 52 40 53
REMARK SMILES IDX 49 55 65 56 42 57 31 58 32 59 36 60 33 61 35 62 34 63 53 64
REMARK SMILES IDX 54 65 58 66 55 67 57 68 56 69 43 70 44 71 48 72 45 73 47 74
REMARK SMILES IDX 46 75
REMARK H PARENT 63 43 41 54
REMARK Flexibility Score: inf
ROOT
ATOM      1  O   UNL A   1      33.549  35.199  32.798  1.00  0.00    -0.374 OA
ENDROOT
BRANCH   1   2
ATOM      2  C   UNL A   1      34.725  35.380  33.582  1.00  0.00     0.202 C 
BRANCH   2   3
ATOM      3  C   UNL A   1      35.633  34.160  33.778  1.00  0.00     0.261 C 
BRANCH   3   4
ATOM      4  O   UNL A   1      35.441  33.482  35.038  1.00  0.00    -0.461 OA
BRANCH   4   5
ATOM      5  C   UNL A   1      36.482  33.557  35.914  1.00  0.00     0.344 C 
ATOM      6  O   UNL A   1      36.388  33.403  37.128  1.00  0.00    -0.248 OA
BRANCH   5   7
ATOM      7  C   UNL A   1      37.813  33.923  35.249  1.00  0.00     0.352 C 
BRANCH   7   8
ATOM      8  O   UNL A   1      38.957  33.107  35.411  1.00  0.00    -0.481 OA
BRANCH   8   9
ATOM      9  C   UNL A   1      38.972  31.822  34.929  1.00  0.00     0.131 A 
ATOM     10  C   UNL A   1      41.787  27.935  33.839  1.00  0.00     0.048 C 
ATOM     11  C   UNL A   1      41.529  29.133  34.722  1.00  0.00    -0.006 A 
ATOM     12  C   UNL A   1      42.460  29.570  35.679  1.00  0.00     0.046 A 
ATOM     13  C   UNL A   1      40.325  29.837  34.545  1.00  0.00     0.078 A 
ATOM     14  Cl  UNL A   1      43.909  28.698  36.038  1.00  0.00    -0.084 Cl
ATOM     15  C   UNL A   1      42.239  30.741  36.397  1.00  0.00     0.022 A 
ATOM     16  C   UNL A   1      40.139  31.071  35.210  1.00  0.00     0.043 A 
ATOM     17  N   UNL A   1      39.363  29.335  33.745  1.00  0.00    -0.256 NA
ATOM     18  C   UNL A   1      41.108  31.506  36.134  1.00  0.00     0.016 A 
ATOM     19  C   UNL A   1      38.203  30.008  33.611  1.00  0.00     0.115 A 
ATOM     20  C   UNL A   1      37.965  31.251  34.164  1.00  0.00     0.067 A 
ENDBRANCH   8   9
ENDBRANCH   7   8
ENDBRANCH   5   7
ENDBRANCH   4   5
ENDBRANCH   3   4
ENDBRANCH   2   3
ENDBRANCH   1   2
BRANCH   1  21
ATOM     21  C   UNL A   1      33.026  36.354  32.144  1.00  0.00     0.202 C 
BRANCH  21  22
ATOM     22  C   UNL A   1      32.496  36.170  30.719  1.00  0.00     0.261 C 
BRANCH  22  23
ATOM     23  O   UNL A   1      33.546  35.852  29.791  1.00  0.00    -0.460 OA
BRANCH  23  24
ATOM     24  C   UNL A   1      33.363  34.705  29.110  1.00  0.00     0.338 C 
ATOM     25  O   UNL A   1      32.435  34.409  28.362  1.00  0.00    -0.246 OA
BRANCH  24  26
ATOM     26  C   UNL A   1      34.557  33.866  29.239  1.00  0.00     0.060 A 
ATOM     27  C   UNL A   1      34.601  32.961  30.306  1.00  0.00     0.016 A 
ATOM     28  C   UNL A   1      35.652  34.035  28.388  1.00  0.00     0.016 A 
ATOM     29  C   UNL A   1      35.766  32.251  30.558  1.00  0.00     0.010 A 
ATOM     30  C   UNL A   1      36.828  33.332  28.653  1.00  0.00     0.010 A 
ATOM     31  C   UNL A   1      36.897  32.471  29.762  1.00  0.00    -0.014 A 
BRANCH  31  32
ATOM     32  C   UNL A   1      38.194  31.930  30.218  1.00  0.00     0.031 A 
ATOM     33  C   UNL A   1      38.644  30.602  29.679  1.00  0.00     0.074 A 
ATOM     34  C   UNL A   1      38.988  32.655  31.022  1.00  0.00     0.049 A 
ATOM     35  N   UNL A   1      39.776  29.978  29.869  1.00  0.00    -0.248 NA
ATOM     36  C   UNL A   1      37.703  29.889  28.797  1.00  0.00     0.031 C 
ATOM     37  C   UNL A   1      38.667  33.981  31.551  1.00  0.00     0.029 A 
ATOM     38  N   UNL A   1      40.239  32.388  31.513  1.00  0.00    -0.354 N 
ATOM     39  C   UNL A   1      39.690  28.812  29.121  1.00  0.00     0.074 A 
ATOM     40  C   UNL A   1      38.384  28.792  28.500  1.00  0.00     0.031 C 
ATOM     41  C   UNL A   1      39.709  34.422  32.277  1.00  0.00     0.029 A 
ATOM     42  C   UNL A   1      40.756  33.402  32.280  1.00  0.00     0.049 A 
ATOM     43  H   UNL A   1      40.722  31.548  31.333  1.00  0.00     0.167 HD
ATOM     44  C   UNL A   1      40.626  27.853  28.953  1.00  0.00     0.031 A 
ATOM     45  C   UNL A   1      41.944  33.497  32.908  1.00  0.00     0.031 A 
ATOM     46  C   UNL A   1      41.916  27.875  29.579  1.00  0.00     0.049 A 
ATOM     47  C   UNL A   1      42.932  32.371  32.783  1.00  0.00     0.074 A 
ATOM     48  C   UNL A   1      42.934  26.944  29.479  1.00  0.00     0.029 A 
ATOM     49  N   UNL A   1      42.364  28.879  30.421  1.00  0.00    -0.354 N 
ATOM     50  N   UNL A   1      42.839  31.274  32.071  1.00  0.00    -0.248 NA
ATOM     51  C   UNL A   1      44.187  32.493  33.540  1.00  0.00     0.031 C 
ATOM     52  C   UNL A   1      43.985  27.365  30.296  1.00  0.00     0.029 A 
ATOM     53  C   UNL A   1      43.638  28.581  30.866  1.00  0.00     0.049 A 
ATOM     54  H   UNL A   1      41.852  29.684  30.667  1.00  0.00     0.167 HD
ATOM     55  C   UNL A   1      44.027  30.585  32.277  1.00  0.00     0.074 A 
ATOM     56  C   UNL A   1      44.828  31.388  33.179  1.00  0.00     0.031 C 
ATOM     57  C   UNL A   1      44.417  29.397  31.758  1.00  0.00     0.031 A 
BRANCH  44  58
ATOM     58  C   UNL A   1      40.299  26.694  28.059  1.00  0.00    -0.014 A 
ATOM     59  C   UNL A   1      40.804  26.635  26.752  1.00  0.00     0.009 A 
ATOM     60  C   UNL A   1      39.564  25.609  28.560  1.00  0.00     0.009 A 
ATOM     61  C   UNL A   1      40.578  25.508  25.961  1.00  0.00     0.001 A 
ATOM     62  C   UNL A   1      39.355  24.476  27.772  1.00  0.00     0.001 A 
ATOM     63  C   UNL A   1      39.862  24.426  26.474  1.00  0.00     0.000 A 
ENDBRANCH  44  58
BRANCH  45  64
ATOM     64  C   UNL A   1      42.258  34.719  33.688  1.00  0.00    -0.014 A 
ATOM     65  C   UNL A   1      42.909  35.803  33.080  1.00  0.00     0.009 A 
ATOM     66  C   UNL A   1      41.858  34.833  35.030  1.00  0.00     0.009 A 
ATOM     67  C   UNL A   1      43.150  36.976  33.798  1.00  0.00     0.001 A 
ATOM     68  C   UNL A   1      42.083  36.014  35.739  1.00  0.00     0.001 A 
ATOM     69  C   UNL A   1      42.730  37.084  35.124  1.00  0.00     0.000 A 
ENDBRANCH  45  64
BRANCH  57  70
ATOM     70  C   UNL A   1      45.773  28.873  32.126  1.00  0.00    -0.014 A 
ATOM     71  C   UNL A   1      46.916  29.309  31.443  1.00  0.00     0.009 A 
ATOM     72  C   UNL A   1      45.919  28.075  33.272  1.00  0.00     0.009 A 
ATOM     73  C   UNL A   1      48.185  28.963  31.909  1.00  0.00     0.001 A 
ATOM     74  C   UNL A   1      47.189  27.747  33.746  1.00  0.00     0.001 A 
ATOM     75  C   UNL A   1      48.321  28.194  33.065  1.00  0.00     0.000 A 
ENDBRANCH  57  70
ENDBRANCH  31  32
ENDBRANCH  24  26
ENDBRANCH  23  24
ENDBRANCH  22  23
ENDBRANCH  21  22
ENDBRANCH   1  21
TORSDOF 16
ENDMDL
MODEL 2
REMARK VINA RESULT:      -7.7      5.471     10.521
REMARK SMILES Cc1c(Cl)ccc2c(OCC(=O)OCCOCCOC(=O)c3ccc(-c4c5nc(c(-c6ccccc6)c6ccc([nH]6)c(-c6ccccc6)c6nc(c(-c7ccccc7)c7ccc4[nH]7)C=C6)C=C5)cc3)ccnc12
REMARK SMILES IDX 16 1 15 2 14 3 13 4 11 5 12 6 10 7 9 8 8 9 1 10 2 11 3 12
REMARK SMILES IDX 73 13 4 14 5 15 7 16 72 17 6 18 71 19 70 20 17 21 18 22
REMARK SMILES IDX 19 23 20 24 21 25 22 26 23 27 69 28 24 29 68 30 25 31 26 32
REMARK SMILES IDX 27 33 62 34 28 35 67 36 61 37 63 38 29 39 66 40 60 41 59 42
REMARK SMILES IDX 30 44 52 45 37 46 51 47 38 48 41 49 50 50 64 51 39 52 40 53
REMARK SMILES IDX 49 55 65 56 42 57 31 58 32 59 36 60 33 61 35 62 34 63 53 64
REMARK SMILES IDX 54 65 58 66 55 67 57 68 56 69 43 70 44 71 48 72 45 73 47 74
REMARK SMILES IDX 46 75
REMARK H PARENT 63 43 41 54
REMARK Flexibility Score: inf
ROOT
ATOM      1  O   UNL A   1      43.023  19.689  26.236  1.00  0.00    -0.374 OA
ENDROOT
BRANCH   1   2
ATOM      2  C   UNL A   1      43.634  18.714  25.396  1.00  0.00     0.202 C 
BRANCH   2   3
ATOM      3  C   UNL A   1      44.731  19.198  24.439  1.00  0.00     0.261 C 
BRANCH   3   4
ATOM      4  O   UNL A   1      44.515  20.530  23.926  1.00  0.00    -0.461 OA
BRANCH   4   5
ATOM      5  C   UNL A   1      45.375  21.484  24.383  1.00  0.00     0.344 C 
ATOM      6  O   UNL A   1      46.402  21.257  25.015  1.00  0.00    -0.248 OA
BRANCH   5   7
ATOM      7  C   UNL A   1      44.909  22.915  24.090  1.00  0.00     0.352 C 
BRANCH   7   8
ATOM      8  O   UNL A   1      44.477  23.768  25.132  1.00  0.00    -0.481 OA
BRANCH   8   9
ATOM      9  C   UNL A   1      45.374  24.274  26.038  1.00  0.00     0.131 A 
ATOM     10  C   UNL A   1      46.105  25.565  30.731  1.00  0.00     0.048 C 
ATOM     11  C   UNL A   1      45.434  24.648  29.736  1.00  0.00    -0.006 A 
ATOM     12  C   UNL A   1      44.445  23.726  30.117  1.00  0.00     0.046 A 
ATOM     13  C   UNL A   1      45.805  24.756  28.383  1.00  0.00     0.078 A 
ATOM     14  Cl  UNL A   1      44.014  23.450  31.768  1.00  0.00    -0.084 Cl
ATOM     15  C   UNL A   1      43.769  22.977  29.159  1.00  0.00     0.022 A 
ATOM     16  C   UNL A   1      45.061  24.060  27.403  1.00  0.00     0.043 A 
ATOM     17  N   UNL A   1      46.859  25.521  28.034  1.00  0.00    -0.256 NA
ATOM     18  C   UNL A   1      44.046  23.174  27.811  1.00  0.00     0.016 A 
ATOM     19  C   UNL A   1      47.219  25.589  26.737  1.00  0.00     0.115 A 
ATOM     20  C   UNL A   1      46.508  25.002  25.708  1.00  0.00     0.067 A 
ENDBRANCH   8   9
ENDBRANCH   7   8
ENDBRANCH   5   7
ENDBRANCH   4   5
ENDBRANCH   3   4
ENDBRANCH   2   3
ENDBRANCH   1   2
BRANCH   1  21
ATOM     21  C   UNL A   1      41.619  19.883  26.084  1.00  0.00     0.202 C 
BRANCH  21  22
ATOM     22  C   UNL A   1      40.909  20.721  27.151  1.00  0.00     0.261 C 
BRANCH  22  23
ATOM     23  O   UNL A   1      40.960  22.125  26.855  1.00  0.00    -0.460 OA
BRANCH  23  24
ATOM     24  C   UNL A   1      39.773  22.672  26.532  1.00  0.00     0.338 C 
ATOM     25  O   UNL A   1      38.782  22.113  26.071  1.00  0.00    -0.246 OA
BRANCH  24  26
ATOM     26  C   UNL A   1      39.741  24.067  26.981  1.00  0.00     0.060 A 
ATOM     27  C   UNL A   1      40.280  25.035  26.126  1.00  0.00     0.016 A 
ATOM     28  C   UNL A   1      39.282  24.403  28.257  1.00  0.00     0.016 A 
ATOM     29  C   UNL A   1      40.407  26.345  26.565  1.00  0.00     0.010 A 
ATOM     30  C   UNL A   1      39.427  25.717  28.703  1.00  0.00     0.010 A 
ATOM     31  C   UNL A   1      40.026  26.678  27.871  1.00  0.00    -0.014 A 
BRANCH  31  32
ATOM     32  C   UNL A   1      40.433  27.994  28.407  1.00  0.00     0.031 A 
ATOM     33  C   UNL A   1      41.899  28.274  28.579  1.00  0.00     0.074 A 
ATOM     34  C   UNL A   1      39.514  28.944  28.645  1.00  0.00     0.049 A 
ATOM     35  N   UNL A   1      42.486  29.382  28.946  1.00  0.00    -0.248 NA
ATOM     36  C   UNL A   1      42.826  27.167  28.283  1.00  0.00     0.031 C 
ATOM     37  C   UNL A   1      38.072  28.789  28.452  1.00  0.00     0.029 A 
ATOM     38  N   UNL A   1      39.663  30.237  29.076  1.00  0.00    -0.354 N 
ATOM     39  C   UNL A   1      43.848  29.111  28.910  1.00  0.00     0.074 A 
ATOM     40  C   UNL A   1      44.004  27.727  28.521  1.00  0.00     0.031 C 
ATOM     41  C   UNL A   1      37.469  29.955  28.744  1.00  0.00     0.029 A 
ATOM     42  C   UNL A   1      38.479  30.925  29.162  1.00  0.00     0.049 A 
ATOM     43  H   UNL A   1      40.535  30.633  29.301  1.00  0.00     0.167 HD
ATOM     44  C   UNL A   1      44.876  29.950  29.162  1.00  0.00     0.031 A 
ATOM     45  C   UNL A   1      38.239  32.198  29.531  1.00  0.00     0.031 A 
ATOM     46  C   UNL A   1      44.714  31.319  29.557  1.00  0.00     0.049 A 
ATOM     47  C   UNL A   1      39.396  33.085  29.900  1.00  0.00     0.074 A 
ATOM     48  C   UNL A   1      45.694  32.251  29.844  1.00  0.00     0.029 A 
ATOM     49  N   UNL A   1      43.492  31.951  29.719  1.00  0.00    -0.354 N 
ATOM     50  N   UNL A   1      40.679  32.817  29.861  1.00  0.00    -0.248 NA
ATOM     51  C   UNL A   1      39.078  34.446  30.358  1.00  0.00     0.031 C 
ATOM     52  C   UNL A   1      45.064  33.437  30.222  1.00  0.00     0.029 A 
ATOM     53  C   UNL A   1      43.692  33.257  30.124  1.00  0.00     0.049 A 
ATOM     54  H   UNL A   1      42.613  31.533  29.570  1.00  0.00     0.167 HD
ATOM     55  C   UNL A   1      41.323  33.978  30.268  1.00  0.00     0.074 A 
ATOM     56  C   UNL A   1      40.290  34.955  30.550  1.00  0.00     0.031 C 
ATOM     57  C   UNL A   1      42.650  34.212  30.392  1.00  0.00     0.031 A 
BRANCH  44  58
ATOM     58  C   UNL A   1      46.272  29.420  29.022  1.00  0.00    -0.014 A 
ATOM     59  C   UNL A   1      46.915  29.422  27.776  1.00  0.00     0.009 A 
ATOM     60  C   UNL A   1      46.982  29.009  30.159  1.00  0.00     0.009 A 
ATOM     61  C   UNL A   1      48.248  29.020  27.672  1.00  0.00     0.001 A 
ATOM     62  C   UNL A   1      48.320  28.625  30.054  1.00  0.00     0.001 A 
ATOM     63  C   UNL A   1      48.952  28.631  28.811  1.00  0.00     0.000 A 
ENDBRANCH  44  58
BRANCH  45  64
ATOM     64  C   UNL A   1      36.844  32.703  29.543  1.00  0.00    -0.014 A 
ATOM     65  C   UNL A   1      36.263  33.213  28.373  1.00  0.00     0.009 A 
ATOM     66  C   UNL A   1      36.065  32.622  30.709  1.00  0.00     0.009 A 
ATOM     67  C   UNL A   1      34.930  33.631  28.370  1.00  0.00     0.001 A 
ATOM     68  C   UNL A   1      34.729  33.023  30.699  1.00  0.00     0.001 A 
ATOM     69  C   UNL A   1      34.161  33.528  29.530  1.00  0.00     0.000 A 
ENDBRANCH  45  64
BRANCH  57  70
ATOM     70  C   UNL A   1      43.094  35.573  30.838  1.00  0.00    -0.014 A 
ATOM     71  C   UNL A   1      43.368  35.827  32.188  1.00  0.00     0.009 A 
ATOM     72  C   UNL A   1      43.406  36.548  29.876  1.00  0.00     0.009 A 
ATOM     73  C   UNL A   1      43.957  37.034  32.568  1.00  0.00     0.001 A 
ATOM     74  C   UNL A   1      44.012  37.745  30.258  1.00  0.00     0.001 A 
ATOM     75  C   UNL A   1      44.289  37.985  31.603  1.00  0.00     0.000 A 
ENDBRANCH  57  70
ENDBRANCH  31  32
ENDBRANCH  24  26
ENDBRANCH  23  24
ENDBRANCH  22  23
ENDBRANCH  21  22
ENDBRANCH   1  21
TORSDOF 16
ENDMDL
MODEL 3
REMARK VINA RESULT:      -7.6      5.333     10.375
REMARK SMILES Cc1c(Cl)ccc2c(OCC(=O)OCCOCCOC(=O)c3ccc(-c4c5nc(c(-c6ccccc6)c6ccc([nH]6)c(-c6ccccc6)c6nc(c(-c7ccccc7)c7ccc4[nH]7)C=C6)C=C5)cc3)ccnc12
REMARK SMILES IDX 16 1 15 2 14 3 13 4 11 5 12 6 10 7 9 8 8 9 1 10 2 11 3 12
REMARK SMILES IDX 73 13 4 14 5 15 7 16 72 17 6 18 71 19 70 20 17 21 18 22
REMARK SMILES IDX 19 23 20 24 21 25 22 26 23 27 69 28 24 29 68 30 25 31 26 32
REMARK SMILES IDX 27 33 62 34 28 35 67 36 61 37 63 38 29 39 66 40 60 41 59 42
REMARK SMILES IDX 30 44 52 45 37 46 51 47 38 48 41 49 50 50 64 51 39 52 40 53
REMARK SMILES IDX 49 55 65 56 42 57 31 58 32 59 36 60 33 61 35 62 34 63 53 64
REMARK SMILES IDX 54 65 58 66 55 67 57 68 56 69 43 70 44 71 48 72 45 73 47 74
REMARK SMILES IDX 46 75
REMARK H PARENT 63 43 41 54
REMARK Flexibility Score: inf
ROOT
ATOM      1  O   UNL A   1      36.411  22.037  23.966  1.00  0.00    -0.374 OA
ENDROOT
BRANCH   1   2
ATOM      2  C   UNL A   1      35.129  22.548  24.320  1.00  0.00     0.202 C 
BRANCH   2   3
ATOM      3  C   UNL A   1      34.786  23.969  23.856  1.00  0.00     0.261 C 
BRANCH   3   4
ATOM      4  O   UNL A   1      34.197  24.029  22.539  1.00  0.00    -0.461 OA
BRANCH   4   5
ATOM      5  C   UNL A   1      33.349  25.073  22.318  1.00  0.00     0.344 C 
ATOM      6  O   UNL A   1      33.646  26.100  21.715  1.00  0.00    -0.248 OA
BRANCH   5   7
ATOM      7  C   UNL A   1      31.969  24.883  22.957  1.00  0.00     0.352 C 
BRANCH   7   8
ATOM      8  O   UNL A   1      31.591  25.618  24.104  1.00  0.00    -0.481 OA
BRANCH   8   9
ATOM      9  C   UNL A   1      31.253  26.945  24.005  1.00  0.00     0.131 A 
ATOM     10  C   UNL A   1      31.482  31.359  26.168  1.00  0.00     0.048 C 
ATOM     11  C   UNL A   1      32.126  30.019  25.902  1.00  0.00    -0.006 A 
ATOM     12  C   UNL A   1      33.293  29.606  26.566  1.00  0.00     0.046 A 
ATOM     13  C   UNL A   1      31.505  29.160  24.977  1.00  0.00     0.078 A 
ATOM     14  Cl  UNL A   1      34.179  30.642  27.628  1.00  0.00    -0.084 Cl
ATOM     15  C   UNL A   1      33.796  28.322  26.379  1.00  0.00     0.022 A 
ATOM     16  C   UNL A   1      31.964  27.829  24.853  1.00  0.00     0.043 A 
ATOM     17  N   UNL A   1      30.482  29.609  24.224  1.00  0.00    -0.256 NA
ATOM     18  C   UNL A   1      33.113  27.428  25.562  1.00  0.00     0.016 A 
ATOM     19  C   UNL A   1      29.918  28.780  23.322  1.00  0.00     0.115 A 
ATOM     20  C   UNL A   1      30.254  27.448  23.184  1.00  0.00     0.067 A 
ENDBRANCH   8   9
ENDBRANCH   7   8
ENDBRANCH   5   7
ENDBRANCH   4   5
ENDBRANCH   3   4
ENDBRANCH   2   3
ENDBRANCH   1   2
BRANCH   1  21
ATOM     21  C   UNL A   1      36.914  20.957  24.749  1.00  0.00     0.202 C 
BRANCH  21  22
ATOM     22  C   UNL A   1      38.285  21.147  25.404  1.00  0.00     0.261 C 
BRANCH  22  23
ATOM     23  O   UNL A   1      38.404  22.430  26.039  1.00  0.00    -0.460 OA
BRANCH  23  24
ATOM     24  C   UNL A   1      39.665  22.783  26.355  1.00  0.00     0.338 C 
ATOM     25  O   UNL A   1      40.703  22.168  26.126  1.00  0.00    -0.246 OA
BRANCH  24  26
ATOM     26  C   UNL A   1      39.670  24.149  26.884  1.00  0.00     0.060 A 
ATOM     27  C   UNL A   1      40.267  25.145  26.102  1.00  0.00     0.016 A 
ATOM     28  C   UNL A   1      39.185  24.428  28.165  1.00  0.00     0.016 A 
ATOM     29  C   UNL A   1      40.428  26.422  26.620  1.00  0.00     0.010 A 
ATOM     30  C   UNL A   1      39.364  25.709  28.690  1.00  0.00     0.010 A 
ATOM     31  C   UNL A   1      40.021  26.693  27.932  1.00  0.00    -0.014 A 
BRANCH  31  32
ATOM     32  C   UNL A   1      40.458  27.960  28.556  1.00  0.00     0.031 A 
ATOM     33  C   UNL A   1      41.925  28.166  28.803  1.00  0.00     0.074 A 
ATOM     34  C   UNL A   1      39.570  28.936  28.806  1.00  0.00     0.049 A 
ATOM     35  N   UNL A   1      42.542  29.226  29.253  1.00  0.00    -0.248 NA
ATOM     36  C   UNL A   1      42.818  27.037  28.486  1.00  0.00     0.031 C 
ATOM     37  C   UNL A   1      38.133  28.855  28.546  1.00  0.00     0.029 A 
ATOM     38  N   UNL A   1      39.753  30.196  29.311  1.00  0.00    -0.354 N 
ATOM     39  C   UNL A   1      43.891  28.898  29.259  1.00  0.00     0.074 A 
ATOM     40  C   UNL A   1      44.006  27.532  28.802  1.00  0.00     0.031 C 
ATOM     41  C   UNL A   1      37.566  30.028  28.874  1.00  0.00     0.029 A 
ATOM     42  C   UNL A   1      38.596  30.931  29.386  1.00  0.00     0.049 A 
ATOM     43  H   UNL A   1      40.630  30.542  29.594  1.00  0.00     0.167 HD
ATOM     44  C   UNL A   1      44.941  29.677  29.598  1.00  0.00     0.031 A 
ATOM     45  C   UNL A   1      38.394  32.192  29.813  1.00  0.00     0.031 A 
ATOM     46  C   UNL A   1      44.819  31.030  30.060  1.00  0.00     0.049 A 
ATOM     47  C   UNL A   1      39.569  33.007  30.277  1.00  0.00     0.074 A 
ATOM     48  C   UNL A   1      45.824  31.901  30.437  1.00  0.00     0.029 A 
ATOM     49  N   UNL A   1      43.618  31.705  30.205  1.00  0.00    -0.354 N 
ATOM     50  N   UNL A   1      40.841  32.685  30.276  1.00  0.00    -0.248 NA
ATOM     51  C   UNL A   1      39.289  34.354  30.794  1.00  0.00     0.031 C 
ATOM     52  C   UNL A   1      45.228  33.093  30.852  1.00  0.00     0.029 A 
ATOM     53  C   UNL A   1      43.855  32.978  30.688  1.00  0.00     0.049 A 
ATOM     54  H   UNL A   1      42.730  31.335  29.997  1.00  0.00     0.167 HD
ATOM     55  C   UNL A   1      41.513  33.794  30.772  1.00  0.00     0.074 A 
ATOM     56  C   UNL A   1      40.511  34.799  31.063  1.00  0.00     0.031 C 
ATOM     57  C   UNL A   1      42.843  33.962  30.963  1.00  0.00     0.031 A 
BRANCH  44  58
ATOM     58  C   UNL A   1      46.319  29.095  29.488  1.00  0.00    -0.014 A 
ATOM     59  C   UNL A   1      47.084  29.285  28.328  1.00  0.00     0.009 A 
ATOM     60  C   UNL A   1      46.891  28.437  30.586  1.00  0.00     0.009 A 
ATOM     61  C   UNL A   1      48.401  28.825  28.271  1.00  0.00     0.001 A 
ATOM     62  C   UNL A   1      48.214  27.995  30.533  1.00  0.00     0.001 A 
ATOM     63  C   UNL A   1      48.967  28.189  29.376  1.00  0.00     0.000 A 
ENDBRANCH  44  58
BRANCH  45  64
ATOM     64  C   UNL A   1      37.022  32.756  29.794  1.00  0.00    -0.014 A 
ATOM     65  C   UNL A   1      36.573  33.497  28.691  1.00  0.00     0.009 A 
ATOM     66  C   UNL A   1      36.132  32.505  30.852  1.00  0.00     0.009 A 
ATOM     67  C   UNL A   1      35.261  33.976  28.648  1.00  0.00     0.001 A 
ATOM     68  C   UNL A   1      34.817  32.968  30.797  1.00  0.00     0.001 A 
ATOM     69  C   UNL A   1      34.382  33.704  29.696  1.00  0.00     0.000 A 
ENDBRANCH  45  64
BRANCH  57  70
ATOM     70  C   UNL A   1      43.323  35.277  31.500  1.00  0.00    -0.014 A 
ATOM     71  C   UNL A   1      43.715  36.303  30.630  1.00  0.00     0.009 A 
ATOM     72  C   UNL A   1      43.214  35.546  32.874  1.00  0.00     0.009 A 
ATOM     73  C   UNL A   1      43.980  37.580  31.126  1.00  0.00     0.001 A 
ATOM     74  C   UNL A   1      43.462  36.827  33.364  1.00  0.00     0.001 A 
ATOM     75  C   UNL A   1      43.842  37.844  32.489  1.00  0.00     0.000 A 
ENDBRANCH  57  70
ENDBRANCH  31  32
ENDBRANCH  24  26
ENDBRANCH  23  24
ENDBRANCH  22  23
ENDBRANCH  21  22
ENDBRANCH   1  21
TORSDOF 16
ENDMDL
