MODEL 1
REMARK VINA RESULT:      -9.8      0.000      0.000
REMARK SMILES CO[C@H](C(=O)OCCOCCOC(=O)c1ccc(-c2c3nc(c(-c4ccccc4)c4ccc([nH]4)c(-c4ccccc4)c4nc(c(-c5ccccc5)c5ccc2[nH]5)C=C4)C=C3)cc1)c1ccc2ccccc2c1
REMARK SMILES IDX 10 1 9 2 8 3 7 4 6 5 4 6 5 7 3 8 2 9 1 10 63 11 64 12 72 13
REMARK SMILES IDX 65 14 71 15 66 16 70 17 67 18 69 19 68 20 11 21 12 22 13 23
REMARK SMILES IDX 14 24 15 25 16 26 62 27 17 28 61 29 18 30 19 31 20 32 55 33
REMARK SMILES IDX 21 34 60 35 54 36 56 37 22 38 59 39 53 40 52 41 23 43 45 44
REMARK SMILES IDX 30 45 44 46 31 47 34 48 43 49 57 50 32 51 33 52 42 54 58 55
REMARK SMILES IDX 35 56 24 57 25 58 29 59 26 60 28 61 27 62 46 63 47 64 51 65
REMARK SMILES IDX 48 66 50 67 49 68 36 69 37 70 41 71 38 72 40 73 39 74
REMARK H PARENT 56 42 34 53
REMARK Flexibility Score: inf
ROOT
ATOM      1  C   UNL A   1      38.161  21.263  25.536  1.00  0.00     0.202 C 
ENDROOT
BRANCH   1   2
ATOM      2  O   UNL A   1      38.775  22.490  25.921  1.00  0.00    -0.374 OA
BRANCH   2   3
ATOM      3  C   UNL A   1      37.974  23.670  25.961  1.00  0.00     0.202 C 
BRANCH   3   4
ATOM      4  C   UNL A   1      36.462  23.476  26.090  1.00  0.00     0.261 C 
BRANCH   4   5
ATOM      5  O   UNL A   1      35.765  24.293  25.139  1.00  0.00    -0.461 OA
BRANCH   5   6
ATOM      6  C   UNL A   1      34.931  23.648  24.276  1.00  0.00     0.340 C 
ATOM      7  O   UNL A   1      35.107  23.574  23.064  1.00  0.00    -0.249 OA
BRANCH   6   8
ATOM      8  C   UNL A   1      33.749  22.975  25.014  1.00  0.00     0.257 C 
BRANCH   8   9
ATOM      9  O   UNL A   1      32.560  23.775  24.972  1.00  0.00    -0.365 OA
ATOM     10  C   UNL A   1      32.019  24.096  26.245  1.00  0.00     0.196 C 
ENDBRANCH   8   9
BRANCH   8  11
ATOM     11  C   UNL A   1      33.487  21.573  24.490  1.00  0.00    -0.007 A 
ATOM     12  C   UNL A   1      32.393  21.288  23.660  1.00  0.00     0.008 A 
ATOM     13  C   UNL A   1      34.353  20.523  24.837  1.00  0.00     0.015 A 
ATOM     14  C   UNL A   1      32.196  20.005  23.152  1.00  0.00     0.009 A 
ATOM     15  C   UNL A   1      34.127  19.213  24.389  1.00  0.00    -0.018 A 
ATOM     16  C   UNL A   1      33.048  18.958  23.515  1.00  0.00    -0.018 A 
ATOM     17  C   UNL A   1      34.943  18.150  24.802  1.00  0.00     0.009 A 
ATOM     18  C   UNL A   1      32.840  17.657  23.038  1.00  0.00     0.009 A 
ATOM     19  C   UNL A   1      34.700  16.852  24.349  1.00  0.00     0.001 A 
ATOM     20  C   UNL A   1      33.659  16.609  23.458  1.00  0.00     0.001 A 
ENDBRANCH   8  11
ENDBRANCH   6   8
ENDBRANCH   5   6
ENDBRANCH   4   5
ENDBRANCH   3   4
ENDBRANCH   2   3
ENDBRANCH   1   2
BRANCH   1  21
ATOM     21  C   UNL A   1      39.064  20.034  25.383  1.00  0.00     0.261 C 
BRANCH  21  22
ATOM     22  O   UNL A   1      40.009  19.889  26.453  1.00  0.00    -0.460 OA
BRANCH  22  23
ATOM     23  C   UNL A   1      41.304  19.947  26.059  1.00  0.00     0.338 C 
ATOM     24  O   UNL A   1      41.882  19.190  25.297  1.00  0.00    -0.246 OA
BRANCH  23  25
ATOM     25  C   UNL A   1      41.943  21.176  26.564  1.00  0.00     0.060 A 
ATOM     26  C   UNL A   1      41.923  21.383  27.949  1.00  0.00     0.016 A 
ATOM     27  C   UNL A   1      42.445  22.154  25.704  1.00  0.00     0.016 A 
ATOM     28  C   UNL A   1      42.348  22.599  28.477  1.00  0.00     0.010 A 
ATOM     29  C   UNL A   1      42.862  23.379  26.235  1.00  0.00     0.010 A 
ATOM     30  C   UNL A   1      42.774  23.620  27.620  1.00  0.00    -0.014 A 
BRANCH  30  31
ATOM     31  C   UNL A   1      42.968  24.984  28.165  1.00  0.00     0.031 A 
ATOM     32  C   UNL A   1      44.352  25.422  28.556  1.00  0.00     0.074 A 
ATOM     33  C   UNL A   1      41.937  25.842  28.257  1.00  0.00     0.049 A 
ATOM     34  N   UNL A   1      44.752  26.570  29.042  1.00  0.00    -0.248 NA
ATOM     35  C   UNL A   1      45.431  24.437  28.372  1.00  0.00     0.031 C 
ATOM     36  C   UNL A   1      40.559  25.552  27.864  1.00  0.00     0.029 A 
ATOM     37  N   UNL A   1      41.897  27.135  28.711  1.00  0.00    -0.354 N 
ATOM     38  C   UNL A   1      46.124  26.443  29.223  1.00  0.00     0.074 A 
ATOM     39  C   UNL A   1      46.484  25.100  28.825  1.00  0.00     0.031 C 
ATOM     40  C   UNL A   1      39.804  26.640  28.099  1.00  0.00     0.029 A 
ATOM     41  C   UNL A   1      40.640  27.686  28.684  1.00  0.00     0.049 A 
ATOM     42  H   UNL A   1      42.693  27.621  29.026  1.00  0.00     0.167 HD
ATOM     43  C   UNL A   1      47.008  27.365  29.674  1.00  0.00     0.031 A 
ATOM     44  C   UNL A   1      40.211  28.892  29.100  1.00  0.00     0.031 A 
ATOM     45  C   UNL A   1      46.651  28.697  30.086  1.00  0.00     0.049 A 
ATOM     46  C   UNL A   1      41.199  29.872  29.673  1.00  0.00     0.074 A 
ATOM     47  C   UNL A   1      47.476  29.706  30.552  1.00  0.00     0.029 A 
ATOM     48  N   UNL A   1      45.361  29.200  30.088  1.00  0.00    -0.354 N 
ATOM     49  N   UNL A   1      42.496  29.748  29.821  1.00  0.00    -0.248 NA
ATOM     50  C   UNL A   1      40.663  31.162  30.131  1.00  0.00     0.031 C 
ATOM     51  C   UNL A   1      46.675  30.804  30.885  1.00  0.00     0.029 A 
ATOM     52  C   UNL A   1      45.361  30.497  30.573  1.00  0.00     0.049 A 
ATOM     53  H   UNL A   1      44.561  28.709  29.789  1.00  0.00     0.167 HD
ATOM     54  C   UNL A   1      42.934  30.951  30.363  1.00  0.00     0.074 A 
ATOM     55  C   UNL A   1      41.765  31.796  30.505  1.00  0.00     0.031 C 
ATOM     56  C   UNL A   1      44.190  31.323  30.711  1.00  0.00     0.031 A 
BRANCH  43  57
ATOM     57  C   UNL A   1      48.448  26.947  29.775  1.00  0.00    -0.014 A 
ATOM     58  C   UNL A   1      49.337  27.125  28.703  1.00  0.00     0.009 A 
ATOM     59  C   UNL A   1      48.929  26.391  30.971  1.00  0.00     0.009 A 
ATOM     60  C   UNL A   1      50.668  26.721  28.815  1.00  0.00     0.001 A 
ATOM     61  C   UNL A   1      50.267  26.014  31.089  1.00  0.00     0.001 A 
ATOM     62  C   UNL A   1      51.134  26.171  30.009  1.00  0.00     0.000 A 
ENDBRANCH  43  57
BRANCH  44  63
ATOM     63  C   UNL A   1      38.768  29.237  29.014  1.00  0.00    -0.014 A 
ATOM     64  C   UNL A   1      38.234  29.808  27.849  1.00  0.00     0.009 A 
ATOM     65  C   UNL A   1      37.919  29.006  30.109  1.00  0.00     0.009 A 
ATOM     66  C   UNL A   1      36.883  30.160  27.791  1.00  0.00     0.001 A 
ATOM     67  C   UNL A   1      36.565  29.335  30.038  1.00  0.00     0.001 A 
ATOM     68  C   UNL A   1      36.049  29.920  28.883  1.00  0.00     0.000 A 
ENDBRANCH  44  63
BRANCH  56  69
ATOM     69  C   UNL A   1      44.372  32.714  31.249  1.00  0.00    -0.014 A 
ATOM     70  C   UNL A   1      44.294  32.981  32.624  1.00  0.00     0.009 A 
ATOM     71  C   UNL A   1      44.667  33.766  30.368  1.00  0.00     0.009 A 
ATOM     72  C   UNL A   1      44.478  34.280  33.102  1.00  0.00     0.001 A 
ATOM     73  C   UNL A   1      44.878  35.058  30.850  1.00  0.00     0.001 A 
ATOM     74  C   UNL A   1      44.774  35.315  32.217  1.00  0.00     0.000 A 
ENDBRANCH  56  69
ENDBRANCH  30  31
ENDBRANCH  23  25
ENDBRANCH  22  23
ENDBRANCH  21  22
ENDBRANCH   1  21
TORSDOF 16
ENDMDL
MODEL 2
REMARK VINA RESULT:      -9.8      4.845      9.703
REMARK SMILES CO[C@H](C(=O)OCCOCCOC(=O)c1ccc(-c2c3nc(c(-c4ccccc4)c4ccc([nH]4)c(-c4ccccc4)c4nc(c(-c5ccccc5)c5ccc2[nH]5)C=C4)C=C3)cc1)c1ccc2ccccc2c1
REMARK SMILES IDX 10 1 9 2 8 3 7 4 6 5 4 6 5 7 3 8 2 9 1 10 63 11 64 12 72 13
REMARK SMILES IDX 65 14 71 15 66 16 70 17 67 18 69 19 68 20 11 21 12 22 13 23
REMARK SMILES IDX 14 24 15 25 16 26 62 27 17 28 61 29 18 30 19 31 20 32 55 33
REMARK SMILES IDX 21 34 60 35 54 36 56 37 22 38 59 39 53 40 52 41 23 43 45 44
REMARK SMILES IDX 30 45 44 46 31 47 34 48 43 49 57 50 32 51 33 52 42 54 58 55
REMARK SMILES IDX 35 56 24 57 25 58 29 59 26 60 28 61 27 62 46 63 47 64 51 65
REMARK SMILES IDX 48 66 50 67 49 68 36 69 37 70 41 71 38 72 40 73 39 74
REMARK H PARENT 56 42 34 53
REMARK Flexibility Score: inf
ROOT
ATOM      1  C   UNL A   1      31.417  31.960  26.765  1.00  0.00     0.202 C 
ENDROOT
BRANCH   1   2
ATOM      2  O   UNL A   1      31.971  30.744  26.271  1.00  0.00    -0.374 OA
BRANCH   2   3
ATOM      3  C   UNL A   1      32.344  29.734  27.208  1.00  0.00     0.202 C 
BRANCH   3   4
ATOM      4  C   UNL A   1      33.407  28.731  26.756  1.00  0.00     0.261 C 
BRANCH   4   5
ATOM      5  O   UNL A   1      32.878  27.397  26.764  1.00  0.00    -0.461 OA
BRANCH   5   6
ATOM      6  C   UNL A   1      32.967  26.699  25.597  1.00  0.00     0.340 C 
ATOM      7  O   UNL A   1      33.936  26.724  24.843  1.00  0.00    -0.249 OA
BRANCH   6   8
ATOM      8  C   UNL A   1      31.713  25.826  25.352  1.00  0.00     0.257 C 
BRANCH   8   9
ATOM      9  O   UNL A   1      31.218  25.241  26.564  1.00  0.00    -0.365 OA
ATOM     10  C   UNL A   1      31.792  23.983  26.890  1.00  0.00     0.196 C 
ENDBRANCH   8   9
BRANCH   8  11
ATOM     11  C   UNL A   1      30.623  26.601  24.631  1.00  0.00    -0.007 A 
ATOM     12  C   UNL A   1      29.322  26.094  24.497  1.00  0.00     0.008 A 
ATOM     13  C   UNL A   1      30.908  27.860  24.077  1.00  0.00     0.015 A 
ATOM     14  C   UNL A   1      28.324  26.840  23.873  1.00  0.00     0.009 A 
ATOM     15  C   UNL A   1      29.931  28.591  23.385  1.00  0.00    -0.018 A 
ATOM     16  C   UNL A   1      28.616  28.084  23.305  1.00  0.00    -0.018 A 
ATOM     17  C   UNL A   1      30.237  29.809  22.761  1.00  0.00     0.009 A 
ATOM     18  C   UNL A   1      27.629  28.827  22.645  1.00  0.00     0.009 A 
ATOM     19  C   UNL A   1      29.252  30.520  22.073  1.00  0.00     0.001 A 
ATOM     20  C   UNL A   1      27.948  30.036  22.028  1.00  0.00     0.001 A 
ENDBRANCH   8  11
ENDBRANCH   6   8
ENDBRANCH   5   6
ENDBRANCH   4   5
ENDBRANCH   3   4
ENDBRANCH   2   3
ENDBRANCH   1   2
BRANCH   1  21
ATOM     21  C   UNL A   1      32.355  33.164  26.901  1.00  0.00     0.261 C 
BRANCH  21  22
ATOM     22  O   UNL A   1      32.202  33.863  28.146  1.00  0.00    -0.460 OA
BRANCH  22  23
ATOM     23  C   UNL A   1      33.287  34.588  28.510  1.00  0.00     0.338 C 
ATOM     24  O   UNL A   1      33.331  35.780  28.766  1.00  0.00    -0.246 OA
BRANCH  23  25
ATOM     25  C   UNL A   1      34.451  33.707  28.716  1.00  0.00     0.060 A 
ATOM     26  C   UNL A   1      34.228  32.503  29.397  1.00  0.00     0.016 A 
ATOM     27  C   UNL A   1      35.744  34.096  28.358  1.00  0.00     0.016 A 
ATOM     28  C   UNL A   1      35.306  31.711  29.780  1.00  0.00     0.010 A 
ATOM     29  C   UNL A   1      36.827  33.303  28.753  1.00  0.00     0.010 A 
ATOM     30  C   UNL A   1      36.613  32.130  29.502  1.00  0.00    -0.014 A 
BRANCH  30  31
ATOM     31  C   UNL A   1      37.747  31.423  30.141  1.00  0.00     0.031 A 
ATOM     32  C   UNL A   1      38.057  31.698  31.587  1.00  0.00     0.074 A 
ATOM     33  C   UNL A   1      38.457  30.505  29.461  1.00  0.00     0.049 A 
ATOM     34  N   UNL A   1      38.992  31.186  32.346  1.00  0.00    -0.248 NA
ATOM     35  C   UNL A   1      37.195  32.677  32.269  1.00  0.00     0.031 C 
ATOM     36  C   UNL A   1      38.223  30.115  28.072  1.00  0.00     0.029 A 
ATOM     37  N   UNL A   1      39.520  29.734  29.856  1.00  0.00    -0.354 N 
ATOM     38  C   UNL A   1      38.833  31.782  33.591  1.00  0.00     0.074 A 
ATOM     39  C   UNL A   1      37.733  32.715  33.479  1.00  0.00     0.031 C 
ATOM     40  C   UNL A   1      39.122  29.177  27.728  1.00  0.00     0.029 A 
ATOM     41  C   UNL A   1      40.009  28.925  28.862  1.00  0.00     0.049 A 
ATOM     42  H   UNL A   1      39.895  29.759  30.766  1.00  0.00     0.167 HD
ATOM     43  C   UNL A   1      39.535  31.567  34.730  1.00  0.00     0.031 A 
ATOM     44  C   UNL A   1      41.065  28.089  28.862  1.00  0.00     0.031 A 
ATOM     45  C   UNL A   1      40.639  30.651  34.840  1.00  0.00     0.049 A 
ATOM     46  C   UNL A   1      41.880  27.927  30.117  1.00  0.00     0.074 A 
ATOM     47  C   UNL A   1      41.409  30.359  35.952  1.00  0.00     0.029 A 
ATOM     48  N   UNL A   1      41.133  29.885  33.798  1.00  0.00    -0.354 N 
ATOM     49  N   UNL A   1      41.708  28.481  31.292  1.00  0.00    -0.248 NA
ATOM     50  C   UNL A   1      43.033  27.017  30.044  1.00  0.00     0.031 C 
ATOM     51  C   UNL A   1      42.404  29.454  35.568  1.00  0.00     0.029 A 
ATOM     52  C   UNL A   1      42.217  29.141  34.231  1.00  0.00     0.049 A 
ATOM     53  H   UNL A   1      40.769  29.873  32.882  1.00  0.00     0.167 HD
ATOM     54  C   UNL A   1      42.712  27.968  32.105  1.00  0.00     0.074 A 
ATOM     55  C   UNL A   1      43.480  27.048  31.291  1.00  0.00     0.031 C 
ATOM     56  C   UNL A   1      42.973  28.233  33.409  1.00  0.00     0.031 A 
BRANCH  43  57
ATOM     57  C   UNL A   1      39.144  32.366  35.940  1.00  0.00    -0.014 A 
ATOM     58  C   UNL A   1      39.714  33.623  36.201  1.00  0.00     0.009 A 
ATOM     59  C   UNL A   1      38.169  31.867  36.819  1.00  0.00     0.009 A 
ATOM     60  C   UNL A   1      39.342  34.345  37.336  1.00  0.00     0.001 A 
ATOM     61  C   UNL A   1      37.780  32.603  37.938  1.00  0.00     0.001 A 
ATOM     62  C   UNL A   1      38.372  33.837  38.201  1.00  0.00     0.000 A 
ENDBRANCH  43  57
BRANCH  44  63
ATOM     63  C   UNL A   1      41.430  27.354  27.623  1.00  0.00    -0.014 A 
ATOM     64  C   UNL A   1      42.253  27.944  26.653  1.00  0.00     0.009 A 
ATOM     65  C   UNL A   1      40.939  26.057  27.400  1.00  0.00     0.009 A 
ATOM     66  C   UNL A   1      42.561  27.258  25.476  1.00  0.00     0.001 A 
ATOM     67  C   UNL A   1      41.271  25.364  26.235  1.00  0.00     0.001 A 
ATOM     68  C   UNL A   1      42.074  25.968  25.270  1.00  0.00     0.000 A 
ENDBRANCH  44  63
BRANCH  56  69
ATOM     69  C   UNL A   1      44.118  27.497  34.045  1.00  0.00    -0.014 A 
ATOM     70  C   UNL A   1      43.939  26.235  34.631  1.00  0.00     0.009 A 
ATOM     71  C   UNL A   1      45.404  28.058  34.018  1.00  0.00     0.009 A 
ATOM     72  C   UNL A   1      45.019  25.564  35.206  1.00  0.00     0.001 A 
ATOM     73  C   UNL A   1      46.489  27.373  34.569  1.00  0.00     0.001 A 
ATOM     74  C   UNL A   1      46.293  26.131  35.171  1.00  0.00     0.000 A 
ENDBRANCH  56  69
ENDBRANCH  30  31
ENDBRANCH  23  25
ENDBRANCH  22  23
ENDBRANCH  21  22
ENDBRANCH   1  21
TORSDOF 16
ENDMDL
MODEL 3
REMARK VINA RESULT:      -9.7      2.448      7.497
REMARK SMILES CO[C@H](C(=O)OCCOCCOC(=O)c1ccc(-c2c3nc(c(-c4ccccc4)c4ccc([nH]4)c(-c4ccccc4)c4nc(c(-c5ccccc5)c5ccc2[nH]5)C=C4)C=C3)cc1)c1ccc2ccccc2c1
REMARK SMILES IDX 10 1 9 2 8 3 7 4 6 5 4 6 5 7 3 8 2 9 1 10 63 11 64 12 72 13
REMARK SMILES IDX 65 14 71 15 66 16 70 17 67 18 69 19 68 20 11 21 12 22 13 23
REMARK SMILES IDX 14 24 15 25 16 26 62 27 17 28 61 29 18 30 19 31 20 32 55 33
REMARK SMILES IDX 21 34 60 35 54 36 56 37 22 38 59 39 53 40 52 41 23 43 45 44
REMARK SMILES IDX 30 45 44 46 31 47 34 48 43 49 57 50 32 51 33 52 42 54 58 55
REMARK SMILES IDX 35 56 24 57 25 58 29 59 26 60 28 61 27 62 46 63 47 64 51 65
REMARK SMILES IDX 48 66 50 67 49 68 36 69 37 70 41 71 38 72 40 73 39 74
REMARK H PARENT 56 42 34 53
REMARK Flexibility Score: inf
ROOT
ATOM      1  C   UNL A   1      32.141  29.648  27.058  1.00  0.00     0.202 C 
ENDROOT
BRANCH   1   2
ATOM      2  O   UNL A   1      31.731  29.057  25.828  1.00  0.00    -0.374 OA
BRANCH   2   3
ATOM      3  C   UNL A   1      32.011  27.675  25.608  1.00  0.00     0.202 C 
BRANCH   3   4
ATOM      4  C   UNL A   1      31.773  26.726  26.785  1.00  0.00     0.261 C 
BRANCH   4   5
ATOM      5  O   UNL A   1      30.980  25.603  26.374  1.00  0.00    -0.461 OA
BRANCH   5   6
ATOM      6  C   UNL A   1      31.532  24.369  26.553  1.00  0.00     0.340 C 
ATOM      7  O   UNL A   1      31.768  23.865  27.646  1.00  0.00    -0.249 OA
BRANCH   6   8
ATOM      8  C   UNL A   1      31.786  23.653  25.205  1.00  0.00     0.257 C 
BRANCH   8   9
ATOM      9  O   UNL A   1      31.631  24.537  24.087  1.00  0.00    -0.365 OA
ATOM     10  C   UNL A   1      30.610  24.161  23.174  1.00  0.00     0.196 C 
ENDBRANCH   8   9
BRANCH   8  11
ATOM     11  C   UNL A   1      33.142  22.968  25.181  1.00  0.00    -0.007 A 
ATOM     12  C   UNL A   1      33.277  21.611  24.855  1.00  0.00     0.008 A 
ATOM     13  C   UNL A   1      34.301  23.699  25.489  1.00  0.00     0.015 A 
ATOM     14  C   UNL A   1      34.534  21.012  24.793  1.00  0.00     0.009 A 
ATOM     15  C   UNL A   1      35.565  23.092  25.498  1.00  0.00    -0.018 A 
ATOM     16  C   UNL A   1      35.684  21.737  25.120  1.00  0.00    -0.018 A 
ATOM     17  C   UNL A   1      36.712  23.799  25.887  1.00  0.00     0.009 A 
ATOM     18  C   UNL A   1      36.949  21.136  25.094  1.00  0.00     0.009 A 
ATOM     19  C   UNL A   1      37.961  23.177  25.893  1.00  0.00     0.001 A 
ATOM     20  C   UNL A   1      38.081  21.852  25.484  1.00  0.00     0.001 A 
ENDBRANCH   8  11
ENDBRANCH   6   8
ENDBRANCH   5   6
ENDBRANCH   4   5
ENDBRANCH   3   4
ENDBRANCH   2   3
ENDBRANCH   1   2
BRANCH   1  21
ATOM     21  C   UNL A   1      33.646  29.809  27.301  1.00  0.00     0.261 C 
BRANCH  21  22
ATOM     22  O   UNL A   1      34.046  31.176  27.483  1.00  0.00    -0.460 OA
BRANCH  22  23
ATOM     23  C   UNL A   1      34.791  31.390  28.595  1.00  0.00     0.338 C 
ATOM     24  O   UNL A   1      34.503  32.081  29.558  1.00  0.00    -0.246 OA
BRANCH  23  25
ATOM     25  C   UNL A   1      35.993  30.538  28.583  1.00  0.00     0.060 A 
ATOM     26  C   UNL A   1      36.315  29.871  29.772  1.00  0.00     0.016 A 
ATOM     27  C   UNL A   1      36.847  30.481  27.479  1.00  0.00     0.016 A 
ATOM     28  C   UNL A   1      37.526  29.195  29.884  1.00  0.00     0.010 A 
ATOM     29  C   UNL A   1      38.069  29.809  27.598  1.00  0.00     0.010 A 
ATOM     30  C   UNL A   1      38.430  29.201  28.815  1.00  0.00    -0.014 A 
BRANCH  30  31
ATOM     31  C   UNL A   1      39.811  28.712  29.036  1.00  0.00     0.031 A 
ATOM     32  C   UNL A   1      40.805  29.616  29.711  1.00  0.00     0.074 A 
ATOM     33  C   UNL A   1      40.161  27.460  28.694  1.00  0.00     0.049 A 
ATOM     34  N   UNL A   1      42.059  29.391  30.013  1.00  0.00    -0.248 NA
ATOM     35  C   UNL A   1      40.322  30.951  30.101  1.00  0.00     0.031 C 
ATOM     36  C   UNL A   1      39.275  26.472  28.079  1.00  0.00     0.029 A 
ATOM     37  N   UNL A   1      41.361  26.807  28.821  1.00  0.00    -0.354 N 
ATOM     38  C   UNL A   1      42.512  30.554  30.624  1.00  0.00     0.074 A 
ATOM     39  C   UNL A   1      41.412  31.492  30.623  1.00  0.00     0.031 C 
ATOM     40  C   UNL A   1      39.965  25.337  27.878  1.00  0.00     0.029 A 
ATOM     41  C   UNL A   1      41.345  25.529  28.321  1.00  0.00     0.049 A 
ATOM     42  H   UNL A   1      42.156  27.217  29.230  1.00  0.00     0.167 HD
ATOM     43  C   UNL A   1      43.734  30.815  31.147  1.00  0.00     0.031 A 
ATOM     44  C   UNL A   1      42.336  24.624  28.219  1.00  0.00     0.031 A 
ATOM     45  C   UNL A   1      44.835  29.889  31.136  1.00  0.00     0.049 A 
ATOM     46  C   UNL A   1      43.708  24.966  28.735  1.00  0.00     0.074 A 
ATOM     47  C   UNL A   1      46.111  30.059  31.646  1.00  0.00     0.029 A 
ATOM     48  N   UNL A   1      44.792  28.622  30.579  1.00  0.00    -0.354 N 
ATOM     49  N   UNL A   1      44.119  26.061  29.327  1.00  0.00    -0.248 NA
ATOM     50  C   UNL A   1      44.751  23.943  28.571  1.00  0.00     0.031 C 
ATOM     51  C   UNL A   1      46.855  28.912  31.350  1.00  0.00     0.029 A 
ATOM     52  C   UNL A   1      46.026  28.007  30.707  1.00  0.00     0.049 A 
ATOM     53  H   UNL A   1      44.001  28.217  30.154  1.00  0.00     0.167 HD
ATOM     54  C   UNL A   1      45.458  25.849  29.631  1.00  0.00     0.074 A 
ATOM     55  C   UNL A   1      45.786  24.515  29.169  1.00  0.00     0.031 C 
ATOM     56  C   UNL A   1      46.338  26.682  30.239  1.00  0.00     0.031 A 
BRANCH  43  57
ATOM     57  C   UNL A   1      43.949  32.176  31.747  1.00  0.00    -0.014 A 
ATOM     58  C   UNL A   1      44.401  33.254  30.969  1.00  0.00     0.009 A 
ATOM     59  C   UNL A   1      43.669  32.389  33.106  1.00  0.00     0.009 A 
ATOM     60  C   UNL A   1      44.602  34.508  31.548  1.00  0.00     0.001 A 
ATOM     61  C   UNL A   1      43.845  33.651  33.676  1.00  0.00     0.001 A 
ATOM     62  C   UNL A   1      44.319  34.706  32.900  1.00  0.00     0.000 A 
ENDBRANCH  43  57
BRANCH  44  63
ATOM     63  C   UNL A   1      42.075  23.308  27.579  1.00  0.00    -0.014 A 
ATOM     64  C   UNL A   1      41.510  22.253  28.310  1.00  0.00     0.009 A 
ATOM     65  C   UNL A   1      42.406  23.100  26.230  1.00  0.00     0.009 A 
ATOM     66  C   UNL A   1      41.302  21.009  27.708  1.00  0.00     0.001 A 
ATOM     67  C   UNL A   1      42.172  21.864  25.625  1.00  0.00     0.001 A 
ATOM     68  C   UNL A   1      41.629  20.817  26.367  1.00  0.00     0.000 A 
ENDBRANCH  44  63
BRANCH  56  69
ATOM     69  C   UNL A   1      47.730  26.166  30.468  1.00  0.00    -0.014 A 
ATOM     70  C   UNL A   1      48.690  26.177  29.447  1.00  0.00     0.009 A 
ATOM     71  C   UNL A   1      48.096  25.699  31.741  1.00  0.00     0.009 A 
ATOM     72  C   UNL A   1      49.982  25.703  29.686  1.00  0.00     0.001 A 
ATOM     73  C   UNL A   1      49.395  25.251  31.986  1.00  0.00     0.001 A 
ATOM     74  C   UNL A   1      50.333  25.245  30.955  1.00  0.00     0.000 A 
ENDBRANCH  56  69
ENDBRANCH  30  31
ENDBRANCH  23  25
ENDBRANCH  22  23
ENDBRANCH  21  22
ENDBRANCH   1  21
TORSDOF 16
ENDMDL
