MODEL 1
REMARK VINA RESULT:      -9.6      0.000      0.000
REMARK SMILES CC(C)C[C@H](C)NS(=O)(=O)c1cc(C(=O)OCCOCCOC(=O)c2ccc(-c3c4nc(c(-c5ccccc5)c5ccc([nH]5)c(-c5ccccc5)c5nc(c(-c6ccccc6)c6ccc3[nH]6)C=C5)C=C4)cc2)ccc1Cl
REMARK SMILES IDX 17 1 16 2 14 3 15 4 13 5 11 6 12 7 75 8 74 9 76 10 73 11
REMARK SMILES IDX 8 12 9 13 10 14 7 15 5 17 6 18 4 19 2 20 1 21 3 22 18 23
REMARK SMILES IDX 19 24 20 25 21 26 22 27 23 28 24 29 25 30 26 31 72 32 27 33
REMARK SMILES IDX 71 34 28 35 29 36 30 37 65 38 31 39 70 40 64 41 66 42 32 43
REMARK SMILES IDX 69 44 63 45 62 46 33 48 55 49 40 50 54 51 41 52 44 53 53 54
REMARK SMILES IDX 67 55 42 56 43 57 52 59 68 60 45 61 34 62 35 63 39 64 36 65
REMARK SMILES IDX 38 66 37 67 56 68 57 69 61 70 58 71 60 72 59 73 46 74 47 75
REMARK SMILES IDX 51 76 48 77 50 78 49 79
REMARK H PARENT 7 16 66 47 44 58
REMARK Flexibility Score: inf
ROOT
ATOM      1  C   UNL A   1      34.513  31.606  28.508  1.00  0.00     0.261 C 
ENDROOT
BRANCH   1   2
ATOM      2  O   UNL A   1      33.531  30.972  27.671  1.00  0.00    -0.460 OA
BRANCH   2   3
ATOM      3  C   UNL A   1      33.945  29.823  27.093  1.00  0.00     0.338 C 
ATOM      4  O   UNL A   1      34.986  29.220  27.297  1.00  0.00    -0.246 OA
BRANCH   3   5
ATOM      5  C   UNL A   1      32.849  29.232  26.302  1.00  0.00     0.061 A 
ATOM      6  C   UNL A   1      31.774  27.170  25.602  1.00  0.00     0.101 A 
ATOM      7  C   UNL A   1      32.655  27.855  26.440  1.00  0.00     0.039 A 
ATOM      8  C   UNL A   1      30.996  27.889  24.694  1.00  0.00     0.061 A 
ATOM      9  C   UNL A   1      31.134  29.287  24.620  1.00  0.00     0.023 A 
ATOM     10  Cl  UNL A   1      29.820  27.170  23.658  1.00  0.00    -0.083 Cl
ATOM     11  C   UNL A   1      32.071  29.963  25.411  1.00  0.00     0.017 A 
BRANCH   6  12
ATOM     12  S   UNL A   1      31.757  25.401  25.650  1.00  0.00     0.242 S 
ATOM     13  O   UNL A   1      30.418  24.917  25.880  1.00  0.00    -0.207 OA
ATOM     14  O   UNL A   1      32.856  25.005  26.504  1.00  0.00    -0.207 OA
BRANCH  12  15
ATOM     15  N   UNL A   1      32.197  24.889  24.110  1.00  0.00    -0.208 NA
ATOM     16  H   UNL A   1      31.329  24.567  23.682  1.00  0.00     0.141 HD
BRANCH  15  17
ATOM     17  C   UNL A   1      33.197  23.851  23.768  1.00  0.00     0.067 C 
ATOM     18  C   UNL A   1      32.827  23.345  22.365  1.00  0.00     0.025 C 
BRANCH  17  19
ATOM     19  C   UNL A   1      34.660  24.311  23.799  1.00  0.00     0.022 C 
BRANCH  19  20
ATOM     20  C   UNL A   1      35.680  23.271  24.320  1.00  0.00    -0.016 C 
ATOM     21  C   UNL A   1      36.663  22.781  23.254  1.00  0.00     0.007 C 
ATOM     22  C   UNL A   1      36.461  23.864  25.496  1.00  0.00     0.007 C 
ENDBRANCH  19  20
ENDBRANCH  17  19
ENDBRANCH  15  17
ENDBRANCH  12  15
ENDBRANCH   6  12
ENDBRANCH   3   5
ENDBRANCH   2   3
ENDBRANCH   1   2
BRANCH   1  23
ATOM     23  C   UNL A   1      34.852  33.014  28.006  1.00  0.00     0.202 C 
BRANCH  23  24
ATOM     24  O   UNL A   1      33.822  34.000  28.083  1.00  0.00    -0.374 OA
BRANCH  24  25
ATOM     25  C   UNL A   1      34.045  35.135  28.916  1.00  0.00     0.202 C 
BRANCH  25  26
ATOM     26  C   UNL A   1      32.864  35.667  29.736  1.00  0.00     0.261 C 
BRANCH  26  27
ATOM     27  O   UNL A   1      33.274  36.243  30.987  1.00  0.00    -0.460 OA
BRANCH  27  28
ATOM     28  C   UNL A   1      32.895  35.524  32.070  1.00  0.00     0.338 C 
ATOM     29  O   UNL A   1      31.758  35.292  32.445  1.00  0.00    -0.246 OA
BRANCH  28  30
ATOM     30  C   UNL A   1      34.066  34.876  32.689  1.00  0.00     0.060 A 
ATOM     31  C   UNL A   1      35.288  35.552  32.589  1.00  0.00     0.016 A 
ATOM     32  C   UNL A   1      33.999  33.605  33.263  1.00  0.00     0.016 A 
ATOM     33  C   UNL A   1      36.464  34.926  32.990  1.00  0.00     0.010 A 
ATOM     34  C   UNL A   1      35.184  32.976  33.665  1.00  0.00     0.010 A 
ATOM     35  C   UNL A   1      36.424  33.615  33.482  1.00  0.00    -0.014 A 
BRANCH  35  36
ATOM     36  C   UNL A   1      37.701  32.877  33.639  1.00  0.00     0.031 A 
ATOM     37  C   UNL A   1      38.508  33.067  34.895  1.00  0.00     0.074 A 
ATOM     38  C   UNL A   1      38.097  31.987  32.713  1.00  0.00     0.049 A 
ATOM     39  N   UNL A   1      39.612  32.473  35.270  1.00  0.00    -0.248 NA
ATOM     40  C   UNL A   1      38.002  34.058  35.859  1.00  0.00     0.031 C 
ATOM     41  C   UNL A   1      37.384  31.681  31.473  1.00  0.00     0.029 A 
ATOM     42  N   UNL A   1      39.194  31.163  32.685  1.00  0.00    -0.354 N 
ATOM     43  C   UNL A   1      39.934  33.019  36.507  1.00  0.00     0.074 A 
ATOM     44  C   UNL A   1      38.932  34.020  36.802  1.00  0.00     0.031 C 
ATOM     45  C   UNL A   1      38.060  30.728  30.808  1.00  0.00     0.029 A 
ATOM     46  C   UNL A   1      39.261  30.377  31.562  1.00  0.00     0.049 A 
ATOM     47  H   UNL A   1      39.869  31.138  33.402  1.00  0.00     0.167 HD
ATOM     48  C   UNL A   1      40.964  32.710  37.331  1.00  0.00     0.031 A 
ATOM     49  C   UNL A   1      40.189  29.478  31.183  1.00  0.00     0.031 A 
ATOM     50  C   UNL A   1      41.970  31.725  37.035  1.00  0.00     0.049 A 
ATOM     51  C   UNL A   1      41.358  29.196  32.088  1.00  0.00     0.074 A 
ATOM     52  C   UNL A   1      43.045  31.329  37.813  1.00  0.00     0.029 A 
ATOM     53  N   UNL A   1      42.030  30.985  35.865  1.00  0.00    -0.354 N 
ATOM     54  N   UNL A   1      41.631  29.695  33.269  1.00  0.00    -0.248 NA
ATOM     55  C   UNL A   1      42.337  28.210  31.610  1.00  0.00     0.031 C 
ATOM     56  C   UNL A   1      43.788  30.392  37.087  1.00  0.00     0.029 A 
ATOM     57  C   UNL A   1      43.139  30.154  35.886  1.00  0.00     0.049 A 
ATOM     58  H   UNL A   1      41.380  31.041  35.127  1.00  0.00     0.167 HD
ATOM     59  C   UNL A   1      42.798  29.065  33.687  1.00  0.00     0.074 A 
ATOM     60  C   UNL A   1      43.165  28.131  32.643  1.00  0.00     0.031 C 
ATOM     61  C   UNL A   1      43.500  29.239  34.834  1.00  0.00     0.031 A 
BRANCH  48  62
ATOM     62  C   UNL A   1      41.073  33.481  38.618  1.00  0.00    -0.014 A 
ATOM     63  C   UNL A   1      40.465  33.023  39.799  1.00  0.00     0.009 A 
ATOM     64  C   UNL A   1      41.814  34.672  38.655  1.00  0.00     0.009 A 
ATOM     65  C   UNL A   1      40.567  33.763  40.980  1.00  0.00     0.001 A 
ATOM     66  C   UNL A   1      41.939  35.394  39.844  1.00  0.00     0.001 A 
ATOM     67  C   UNL A   1      41.307  34.944  41.002  1.00  0.00     0.000 A 
ENDBRANCH  48  62
BRANCH  49  68
ATOM     68  C   UNL A   1      40.057  28.778  29.879  1.00  0.00    -0.014 A 
ATOM     69  C   UNL A   1      40.438  29.406  28.684  1.00  0.00     0.009 A 
ATOM     70  C   UNL A   1      39.528  27.479  29.823  1.00  0.00     0.009 A 
ATOM     71  C   UNL A   1      40.263  28.758  27.457  1.00  0.00     0.001 A 
ATOM     72  C   UNL A   1      39.384  26.822  28.600  1.00  0.00     0.001 A 
ATOM     73  C   UNL A   1      39.742  27.466  27.418  1.00  0.00     0.000 A 
ENDBRANCH  49  68
BRANCH  61  74
ATOM     74  C   UNL A   1      44.717  28.377  35.029  1.00  0.00    -0.014 A 
ATOM     75  C   UNL A   1      44.633  27.115  35.639  1.00  0.00     0.009 A 
ATOM     76  C   UNL A   1      45.969  28.833  34.584  1.00  0.00     0.009 A 
ATOM     77  C   UNL A   1      45.784  26.350  35.844  1.00  0.00     0.001 A 
ATOM     78  C   UNL A   1      47.113  28.052  34.760  1.00  0.00     0.001 A 
ATOM     79  C   UNL A   1      47.022  26.818  35.401  1.00  0.00     0.000 A 
ENDBRANCH  61  74
ENDBRANCH  35  36
ENDBRANCH  28  30
ENDBRANCH  27  28
ENDBRANCH  26  27
ENDBRANCH  25  26
ENDBRANCH  24  25
ENDBRANCH  23  24
ENDBRANCH   1  23
TORSDOF 19
ENDMDL
MODEL 2
REMARK VINA RESULT:      -9.5      4.585     10.241
REMARK SMILES CC(C)C[C@H](C)NS(=O)(=O)c1cc(C(=O)OCCOCCOC(=O)c2ccc(-c3c4nc(c(-c5ccccc5)c5ccc([nH]5)c(-c5ccccc5)c5nc(c(-c6ccccc6)c6ccc3[nH]6)C=C5)C=C4)cc2)ccc1Cl
REMARK SMILES IDX 17 1 16 2 14 3 15 4 13 5 11 6 12 7 75 8 74 9 76 10 73 11
REMARK SMILES IDX 8 12 9 13 10 14 7 15 5 17 6 18 4 19 2 20 1 21 3 22 18 23
REMARK SMILES IDX 19 24 20 25 21 26 22 27 23 28 24 29 25 30 26 31 72 32 27 33
REMARK SMILES IDX 71 34 28 35 29 36 30 37 65 38 31 39 70 40 64 41 66 42 32 43
REMARK SMILES IDX 69 44 63 45 62 46 33 48 55 49 40 50 54 51 41 52 44 53 53 54
REMARK SMILES IDX 67 55 42 56 43 57 52 59 68 60 45 61 34 62 35 63 39 64 36 65
REMARK SMILES IDX 38 66 37 67 56 68 57 69 61 70 58 71 60 72 59 73 46 74 47 75
REMARK SMILES IDX 51 76 48 77 50 78 49 79
REMARK H PARENT 7 16 66 47 44 58
REMARK Flexibility Score: inf
ROOT
ATOM      1  C   UNL A   1      35.384  34.261  34.757  1.00  0.00     0.261 C 
ENDROOT
BRANCH   1   2
ATOM      2  O   UNL A   1      36.329  33.212  35.031  1.00  0.00    -0.460 OA
BRANCH   2   3
ATOM      3  C   UNL A   1      37.614  33.534  34.764  1.00  0.00     0.338 C 
ATOM      4  O   UNL A   1      38.134  34.636  34.825  1.00  0.00    -0.246 OA
BRANCH   3   5
ATOM      5  C   UNL A   1      38.415  32.307  34.587  1.00  0.00     0.061 A 
ATOM      6  C   UNL A   1      40.455  31.144  35.205  1.00  0.00     0.101 A 
ATOM      7  C   UNL A   1      39.531  32.169  35.417  1.00  0.00     0.039 A 
ATOM      8  C   UNL A   1      40.199  30.184  34.225  1.00  0.00     0.061 A 
ATOM      9  C   UNL A   1      39.029  30.282  33.450  1.00  0.00     0.023 A 
ATOM     10  Cl  UNL A   1      41.223  28.832  33.917  1.00  0.00    -0.083 Cl
ATOM     11  C   UNL A   1      38.141  31.351  33.616  1.00  0.00     0.017 A 
BRANCH   6  12
ATOM     12  S   UNL A   1      41.971  31.165  36.117  1.00  0.00     0.242 S 
ATOM     13  O   UNL A   1      43.096  31.282  35.223  1.00  0.00    -0.207 OA
ATOM     14  O   UNL A   1      41.884  30.086  37.078  1.00  0.00    -0.207 OA
BRANCH  12  15
ATOM     15  N   UNL A   1      41.941  32.570  37.040  1.00  0.00    -0.208 NA
ATOM     16  H   UNL A   1      42.921  32.811  37.184  1.00  0.00     0.141 HD
BRANCH  15  17
ATOM     17  C   UNL A   1      41.305  32.753  38.365  1.00  0.00     0.067 C 
ATOM     18  C   UNL A   1      42.431  32.625  39.403  1.00  0.00     0.025 C 
BRANCH  17  19
ATOM     19  C   UNL A   1      40.552  34.075  38.557  1.00  0.00     0.022 C 
BRANCH  19  20
ATOM     20  C   UNL A   1      39.134  33.959  39.165  1.00  0.00    -0.016 C 
ATOM     21  C   UNL A   1      38.248  32.918  38.476  1.00  0.00     0.007 C 
ATOM     22  C   UNL A   1      39.242  33.627  40.656  1.00  0.00     0.007 C 
ENDBRANCH  19  20
ENDBRANCH  17  19
ENDBRANCH  15  17
ENDBRANCH  12  15
ENDBRANCH   6  12
ENDBRANCH   3   5
ENDBRANCH   2   3
ENDBRANCH   1   2
BRANCH   1  23
ATOM     23  C   UNL A   1      34.895  34.206  33.305  1.00  0.00     0.202 C 
BRANCH  23  24
ATOM     24  O   UNL A   1      35.069  35.381  32.513  1.00  0.00    -0.374 OA
BRANCH  24  25
ATOM     25  C   UNL A   1      33.933  36.214  32.294  1.00  0.00     0.202 C 
BRANCH  25  26
ATOM     26  C   UNL A   1      33.253  36.155  30.921  1.00  0.00     0.261 C 
BRANCH  26  27
ATOM     27  O   UNL A   1      32.861  34.822  30.554  1.00  0.00    -0.460 OA
BRANCH  27  28
ATOM     28  C   UNL A   1      33.190  34.485  29.284  1.00  0.00     0.338 C 
ATOM     29  O   UNL A   1      32.639  34.842  28.257  1.00  0.00    -0.246 OA
BRANCH  28  30
ATOM     30  C   UNL A   1      34.457  33.732  29.266  1.00  0.00     0.060 A 
ATOM     31  C   UNL A   1      34.619  32.745  30.246  1.00  0.00     0.016 A 
ATOM     32  C   UNL A   1      35.497  34.041  28.388  1.00  0.00     0.016 A 
ATOM     33  C   UNL A   1      35.851  32.118  30.404  1.00  0.00     0.010 A 
ATOM     34  C   UNL A   1      36.737  33.410  28.549  1.00  0.00     0.010 A 
ATOM     35  C   UNL A   1      36.930  32.484  29.590  1.00  0.00    -0.014 A 
BRANCH  35  36
ATOM     36  C   UNL A   1      38.287  32.010  29.955  1.00  0.00     0.031 A 
ATOM     37  C   UNL A   1      38.760  30.675  29.445  1.00  0.00     0.074 A 
ATOM     38  C   UNL A   1      39.120  32.793  30.664  1.00  0.00     0.049 A 
ATOM     39  N   UNL A   1      39.928  30.100  29.583  1.00  0.00    -0.248 NA
ATOM     40  C   UNL A   1      37.787  29.883  28.674  1.00  0.00     0.031 C 
ATOM     41  C   UNL A   1      38.797  34.122  31.181  1.00  0.00     0.029 A 
ATOM     42  N   UNL A   1      40.418  32.583  31.056  1.00  0.00    -0.354 N 
ATOM     43  C   UNL A   1      39.828  28.881  28.922  1.00  0.00     0.074 A 
ATOM     44  C   UNL A   1      38.477  28.781  28.417  1.00  0.00     0.031 C 
ATOM     45  C   UNL A   1      39.875  34.614  31.817  1.00  0.00     0.029 A 
ATOM     46  C   UNL A   1      40.950  33.626  31.771  1.00  0.00     0.049 A 
ATOM     47  H   UNL A   1      40.919  31.762  30.844  1.00  0.00     0.167 HD
ATOM     48  C   UNL A   1      40.779  27.933  28.741  1.00  0.00     0.031 A 
ATOM     49  C   UNL A   1      42.167  33.766  32.331  1.00  0.00     0.031 A 
ATOM     50  C   UNL A   1      42.121  28.022  29.252  1.00  0.00     0.049 A 
ATOM     51  C   UNL A   1      43.187  32.671  32.167  1.00  0.00     0.074 A 
ATOM     52  C   UNL A   1      43.162  27.121  29.108  1.00  0.00     0.029 A 
ATOM     53  N   UNL A   1      42.606  29.073  30.014  1.00  0.00    -0.354 N 
ATOM     54  N   UNL A   1      43.090  31.540  31.511  1.00  0.00    -0.248 NA
ATOM     55  C   UNL A   1      44.491  32.886  32.808  1.00  0.00     0.031 C 
ATOM     56  C   UNL A   1      44.258  27.599  29.832  1.00  0.00     0.029 A 
ATOM     57  C   UNL A   1      43.923  28.831  30.371  1.00  0.00     0.049 A 
ATOM     58  H   UNL A   1      42.092  29.875  30.264  1.00  0.00     0.167 HD
ATOM     59  C   UNL A   1      44.328  30.921  31.639  1.00  0.00     0.074 A 
ATOM     60  C   UNL A   1      45.164  31.814  32.414  1.00  0.00     0.031 C 
ATOM     61  C   UNL A   1      44.739  29.723  31.154  1.00  0.00     0.031 A 
BRANCH  48  62
ATOM     62  C   UNL A   1      40.382  26.694  27.985  1.00  0.00    -0.014 A 
ATOM     63  C   UNL A   1      39.605  25.688  28.584  1.00  0.00     0.009 A 
ATOM     64  C   UNL A   1      40.774  26.541  26.646  1.00  0.00     0.009 A 
ATOM     65  C   UNL A   1      39.260  24.540  27.867  1.00  0.00     0.001 A 
ATOM     66  C   UNL A   1      40.403  25.405  25.924  1.00  0.00     0.001 A 
ATOM     67  C   UNL A   1      39.655  24.402  26.537  1.00  0.00     0.000 A 
ENDBRANCH  48  62
BRANCH  49  68
ATOM     68  C   UNL A   1      42.492  34.992  33.106  1.00  0.00    -0.014 A 
ATOM     69  C   UNL A   1      42.075  35.132  34.438  1.00  0.00     0.009 A 
ATOM     70  C   UNL A   1      43.208  36.040  32.506  1.00  0.00     0.009 A 
ATOM     71  C   UNL A   1      42.343  36.309  35.143  1.00  0.00     0.001 A 
ATOM     72  C   UNL A   1      43.500  37.201  33.222  1.00  0.00     0.001 A 
ATOM     73  C   UNL A   1      43.059  37.339  34.536  1.00  0.00     0.000 A 
ENDBRANCH  49  68
BRANCH  61  74
ATOM     74  C   UNL A   1      46.166  29.328  31.423  1.00  0.00    -0.014 A 
ATOM     75  C   UNL A   1      47.202  29.670  30.539  1.00  0.00     0.009 A 
ATOM     76  C   UNL A   1      46.479  28.610  32.589  1.00  0.00     0.009 A 
ATOM     77  C   UNL A   1      48.512  29.258  30.792  1.00  0.00     0.001 A 
ATOM     78  C   UNL A   1      47.795  28.228  32.856  1.00  0.00     0.001 A 
ATOM     79  C   UNL A   1      48.808  28.541  31.951  1.00  0.00     0.000 A 
ENDBRANCH  61  74
ENDBRANCH  35  36
ENDBRANCH  28  30
ENDBRANCH  27  28
ENDBRANCH  26  27
ENDBRANCH  25  26
ENDBRANCH  24  25
ENDBRANCH  23  24
ENDBRANCH   1  23
TORSDOF 19
ENDMDL
MODEL 3
REMARK VINA RESULT:      -9.4      4.801      8.163
REMARK SMILES CC(C)C[C@H](C)NS(=O)(=O)c1cc(C(=O)OCCOCCOC(=O)c2ccc(-c3c4nc(c(-c5ccccc5)c5ccc([nH]5)c(-c5ccccc5)c5nc(c(-c6ccccc6)c6ccc3[nH]6)C=C5)C=C4)cc2)ccc1Cl
REMARK SMILES IDX 17 1 16 2 14 3 15 4 13 5 11 6 12 7 75 8 74 9 76 10 73 11
REMARK SMILES IDX 8 12 9 13 10 14 7 15 5 17 6 18 4 19 2 20 1 21 3 22 18 23
REMARK SMILES IDX 19 24 20 25 21 26 22 27 23 28 24 29 25 30 26 31 72 32 27 33
REMARK SMILES IDX 71 34 28 35 29 36 30 37 65 38 31 39 70 40 64 41 66 42 32 43
REMARK SMILES IDX 69 44 63 45 62 46 33 48 55 49 40 50 54 51 41 52 44 53 53 54
REMARK SMILES IDX 67 55 42 56 43 57 52 59 68 60 45 61 34 62 35 63 39 64 36 65
REMARK SMILES IDX 38 66 37 67 56 68 57 69 61 70 58 71 60 72 59 73 46 74 47 75
REMARK SMILES IDX 51 76 48 77 50 78 49 79
REMARK H PARENT 7 16 66 47 44 58
REMARK Flexibility Score: inf
ROOT
ATOM      1  C   UNL A   1      36.195  34.032  35.356  1.00  0.00     0.261 C 
ENDROOT
BRANCH   1   2
ATOM      2  O   UNL A   1      37.407  33.380  35.775  1.00  0.00    -0.460 OA
BRANCH   2   3
ATOM      3  C   UNL A   1      38.535  34.075  35.515  1.00  0.00     0.338 C 
ATOM      4  O   UNL A   1      38.627  35.237  35.152  1.00  0.00    -0.246 OA
BRANCH   3   5
ATOM      5  C   UNL A   1      39.716  33.301  35.943  1.00  0.00     0.061 A 
ATOM      6  C   UNL A   1      40.973  31.244  35.648  1.00  0.00     0.101 A 
ATOM      7  C   UNL A   1      39.997  32.142  35.213  1.00  0.00     0.039 A 
ATOM      8  C   UNL A   1      41.752  31.566  36.760  1.00  0.00     0.061 A 
ATOM      9  C   UNL A   1      41.520  32.776  37.440  1.00  0.00     0.023 A 
ATOM     10  Cl  UNL A   1      43.035  30.578  37.351  1.00  0.00    -0.083 Cl
ATOM     11  C   UNL A   1      40.492  33.641  37.045  1.00  0.00     0.017 A 
BRANCH   6  12
ATOM     12  S   UNL A   1      41.112  29.680  34.833  1.00  0.00     0.242 S 
ATOM     13  O   UNL A   1      42.390  29.566  34.175  1.00  0.00    -0.207 OA
ATOM     14  O   UNL A   1      39.874  29.485  34.109  1.00  0.00    -0.207 OA
BRANCH  12  15
ATOM     15  N   UNL A   1      41.090  28.517  36.048  1.00  0.00    -0.208 NA
ATOM     16  H   UNL A   1      41.255  29.036  36.911  1.00  0.00     0.141 HD
BRANCH  15  17
ATOM     17  C   UNL A   1      41.956  27.320  36.153  1.00  0.00     0.067 C 
ATOM     18  C   UNL A   1      41.281  26.391  37.174  1.00  0.00     0.025 C 
BRANCH  17  19
ATOM     19  C   UNL A   1      42.209  26.573  34.838  1.00  0.00     0.022 C 
BRANCH  19  20
ATOM     20  C   UNL A   1      43.659  26.083  34.611  1.00  0.00    -0.016 C 
ATOM     21  C   UNL A   1      44.073  24.931  35.529  1.00  0.00     0.007 C 
ATOM     22  C   UNL A   1      43.832  25.657  33.151  1.00  0.00     0.007 C 
ENDBRANCH  19  20
ENDBRANCH  17  19
ENDBRANCH  15  17
ENDBRANCH  12  15
ENDBRANCH   6  12
ENDBRANCH   3   5
ENDBRANCH   2   3
ENDBRANCH   1   2
BRANCH   1  23
ATOM     23  C   UNL A   1      36.074  34.059  33.828  1.00  0.00     0.202 C 
BRANCH  23  24
ATOM     24  O   UNL A   1      35.752  35.310  33.220  1.00  0.00    -0.374 OA
BRANCH  24  25
ATOM     25  C   UNL A   1      34.400  35.758  33.290  1.00  0.00     0.202 C 
BRANCH  25  26
ATOM     26  C   UNL A   1      33.691  36.110  31.977  1.00  0.00     0.261 C 
BRANCH  26  27
ATOM     27  O   UNL A   1      33.046  34.976  31.376  1.00  0.00    -0.460 OA
BRANCH  27  28
ATOM     28  C   UNL A   1      33.292  34.847  30.050  1.00  0.00     0.338 C 
ATOM     29  O   UNL A   1      32.715  35.405  29.132  1.00  0.00    -0.246 OA
BRANCH  28  30
ATOM     30  C   UNL A   1      34.508  34.043  29.831  1.00  0.00     0.060 A 
ATOM     31  C   UNL A   1      34.727  32.977  30.712  1.00  0.00     0.016 A 
ATOM     32  C   UNL A   1      35.457  34.374  28.862  1.00  0.00     0.016 A 
ATOM     33  C   UNL A   1      35.934  32.286  30.680  1.00  0.00     0.010 A 
ATOM     34  C   UNL A   1      36.672  33.678  28.833  1.00  0.00     0.010 A 
ATOM     35  C   UNL A   1      36.933  32.667  29.775  1.00  0.00    -0.014 A 
BRANCH  35  36
ATOM     36  C   UNL A   1      38.295  32.106  29.945  1.00  0.00     0.031 A 
ATOM     37  C   UNL A   1      39.310  32.876  30.748  1.00  0.00     0.074 A 
ATOM     38  C   UNL A   1      38.602  30.890  29.461  1.00  0.00     0.049 A 
ATOM     39  N   UNL A   1      40.532  32.542  31.080  1.00  0.00    -0.248 NA
ATOM     40  C   UNL A   1      38.891  34.197  31.245  1.00  0.00     0.031 C 
ATOM     41  C   UNL A   1      37.697  30.028  28.702  1.00  0.00     0.029 A 
ATOM     42  N   UNL A   1      39.763  30.164  29.553  1.00  0.00    -0.354 N 
ATOM     43  C   UNL A   1      41.026  33.611  31.818  1.00  0.00     0.074 A 
ATOM     44  C   UNL A   1      39.990  34.619  31.854  1.00  0.00     0.031 C 
ATOM     45  C   UNL A   1      38.336  28.883  28.405  1.00  0.00     0.029 A 
ATOM     46  C   UNL A   1      39.698  28.944  28.930  1.00  0.00     0.049 A 
ATOM     47  H   UNL A   1      40.567  30.489  30.021  1.00  0.00     0.167 HD
ATOM     48  C   UNL A   1      42.232  33.739  32.424  1.00  0.00     0.031 A 
ATOM     49  C   UNL A   1      40.634  27.984  28.794  1.00  0.00     0.031 A 
ATOM     50  C   UNL A   1      43.270  32.744  32.382  1.00  0.00     0.049 A 
ATOM     51  C   UNL A   1      41.987  28.177  29.425  1.00  0.00     0.074 A 
ATOM     52  C   UNL A   1      44.520  32.774  32.977  1.00  0.00     0.029 A 
ATOM     53  N   UNL A   1      43.183  31.542  31.698  1.00  0.00    -0.354 N 
ATOM     54  N   UNL A   1      42.429  29.177  30.148  1.00  0.00    -0.248 NA
ATOM     55  C   UNL A   1      42.962  27.095  29.232  1.00  0.00     0.031 C 
ATOM     56  C   UNL A   1      45.210  31.616  32.605  1.00  0.00     0.029 A 
ATOM     57  C   UNL A   1      44.366  30.833  31.833  1.00  0.00     0.049 A 
ATOM     58  H   UNL A   1      42.396  31.235  31.192  1.00  0.00     0.167 HD
ATOM     59  C   UNL A   1      43.724  28.833  30.520  1.00  0.00     0.074 A 
ATOM     60  C   UNL A   1      43.985  27.523  29.960  1.00  0.00     0.031 C 
ATOM     61  C   UNL A   1      44.616  29.535  31.261  1.00  0.00     0.031 A 
BRANCH  48  62
ATOM     62  C   UNL A   1      42.503  35.026  33.155  1.00  0.00    -0.014 A 
ATOM     63  C   UNL A   1      42.121  35.202  34.494  1.00  0.00     0.009 A 
ATOM     64  C   UNL A   1      43.172  36.071  32.498  1.00  0.00     0.009 A 
ATOM     65  C   UNL A   1      42.370  36.411  35.148  1.00  0.00     0.001 A 
ATOM     66  C   UNL A   1      43.446  37.267  33.163  1.00  0.00     0.001 A 
ATOM     67  C   UNL A   1      43.036  37.440  34.484  1.00  0.00     0.000 A 
ENDBRANCH  48  62
BRANCH  49  68
ATOM     68  C   UNL A   1      40.328  26.751  28.023  1.00  0.00    -0.014 A 
ATOM     69  C   UNL A   1      39.602  25.701  28.604  1.00  0.00     0.009 A 
ATOM     70  C   UNL A   1      40.782  26.612  26.702  1.00  0.00     0.009 A 
ATOM     71  C   UNL A   1      39.362  24.525  27.887  1.00  0.00     0.001 A 
ATOM     72  C   UNL A   1      40.514  25.450  25.978  1.00  0.00     0.001 A 
ATOM     73  C   UNL A   1      39.814  24.403  26.574  1.00  0.00     0.000 A 
ENDBRANCH  49  68
BRANCH  61  74
ATOM     74  C   UNL A   1      45.944  28.882  31.534  1.00  0.00    -0.014 A 
ATOM     75  C   UNL A   1      47.014  28.989  30.632  1.00  0.00     0.009 A 
ATOM     76  C   UNL A   1      46.129  28.156  32.722  1.00  0.00     0.009 A 
ATOM     77  C   UNL A   1      48.225  28.341  30.890  1.00  0.00     0.001 A 
ATOM     78  C   UNL A   1      47.350  27.538  32.994  1.00  0.00     0.001 A 
ATOM     79  C   UNL A   1      48.393  27.620  32.072  1.00  0.00     0.000 A 
ENDBRANCH  61  74
ENDBRANCH  35  36
ENDBRANCH  28  30
ENDBRANCH  27  28
ENDBRANCH  26  27
ENDBRANCH  25  26
ENDBRANCH  24  25
ENDBRANCH  23  24
ENDBRANCH   1  23
TORSDOF 19
ENDMDL
