MODEL 1
REMARK VINA RESULT:     -10.0      0.000      0.000
REMARK SMILES O=C(OCCOCCOC(=O)C1CN(c2cnccn2)C1)c1ccc(-c2c3nc(c(-c4ccccc4)c4ccc([nH]4)c(-c4ccccc4)c4nc(c(-c5ccccc5)c5ccc2[nH]5)C=C4)C=C3)cc1
REMARK SMILES IDX 5 1 4 2 3 3 2 4 1 5 22 6 23 7 69 8 24 9 68 10 25 11 26 12
REMARK SMILES IDX 27 13 62 14 28 15 67 16 61 17 63 18 29 19 66 20 60 21 59 22
REMARK SMILES IDX 30 24 52 25 37 26 51 27 38 28 41 29 50 30 64 31 39 32 40 33
REMARK SMILES IDX 49 35 65 36 42 37 31 38 32 39 36 40 33 41 35 42 34 43 53 44
REMARK SMILES IDX 54 45 58 46 55 47 57 48 56 49 43 50 44 51 48 52 45 53 47 54
REMARK SMILES IDX 46 55 6 56 7 57 8 58 9 59 10 60 11 61 12 62 13 63 21 64
REMARK SMILES IDX 14 65 15 66 16 67 20 68 17 69 19 70 18 71
REMARK H PARENT 63 23 41 34
REMARK Flexibility Score: inf
ROOT
ATOM      1  C   UNL A   1      32.267  30.735  26.598  1.00  0.00     0.202 C 
ENDROOT
BRANCH   1   2
ATOM      2  C   UNL A   1      31.455  31.998  26.909  1.00  0.00     0.261 C 
BRANCH   2   3
ATOM      3  O   UNL A   1      32.295  33.165  26.901  1.00  0.00    -0.460 OA
BRANCH   3   4
ATOM      4  C   UNL A   1      32.977  33.716  27.934  1.00  0.00     0.338 C 
ATOM      5  O   UNL A   1      32.563  34.763  28.426  1.00  0.00    -0.246 OA
BRANCH   4   6
ATOM      6  C   UNL A   1      34.229  33.124  28.496  1.00  0.00     0.060 A 
ATOM      7  C   UNL A   1      34.300  31.878  29.114  1.00  0.00     0.016 A 
ATOM      8  C   UNL A   1      35.428  33.835  28.314  1.00  0.00     0.016 A 
ATOM      9  C   UNL A   1      35.482  31.388  29.629  1.00  0.00     0.010 A 
ATOM     10  C   UNL A   1      36.646  33.317  28.769  1.00  0.00     0.010 A 
ATOM     11  C   UNL A   1      36.665  32.096  29.449  1.00  0.00    -0.014 A 
BRANCH  11  12
ATOM     12  C   UNL A   1      37.864  31.520  30.077  1.00  0.00     0.031 A 
ATOM     13  C   UNL A   1      38.110  31.794  31.526  1.00  0.00     0.074 A 
ATOM     14  C   UNL A   1      38.558  30.588  29.399  1.00  0.00     0.049 A 
ATOM     15  N   UNL A   1      39.033  31.309  32.310  1.00  0.00    -0.248 NA
ATOM     16  C   UNL A   1      37.171  32.714  32.193  1.00  0.00     0.031 C 
ATOM     17  C   UNL A   1      38.279  30.164  28.022  1.00  0.00     0.029 A 
ATOM     18  N   UNL A   1      39.589  29.779  29.792  1.00  0.00    -0.354 N 
ATOM     19  C   UNL A   1      38.795  31.870  33.557  1.00  0.00     0.074 A 
ATOM     20  C   UNL A   1      37.651  32.743  33.426  1.00  0.00     0.031 C 
ATOM     21  C   UNL A   1      39.086  29.140  27.704  1.00  0.00     0.029 A 
ATOM     22  C   UNL A   1      39.985  28.888  28.822  1.00  0.00     0.049 A 
ATOM     23  H   UNL A   1      40.006  29.829  30.682  1.00  0.00     0.167 HD
ATOM     24  C   UNL A   1      39.478  31.669  34.705  1.00  0.00     0.031 A 
ATOM     25  C   UNL A   1      40.987  27.991  28.836  1.00  0.00     0.031 A 
ATOM     26  C   UNL A   1      40.629  30.815  34.795  1.00  0.00     0.049 A 
ATOM     27  C   UNL A   1      41.808  27.885  30.091  1.00  0.00     0.074 A 
ATOM     28  C   UNL A   1      41.476  30.610  35.868  1.00  0.00     0.029 A 
ATOM     29  N   UNL A   1      41.090  30.016  33.757  1.00  0.00    -0.354 N 
ATOM     30  N   UNL A   1      41.633  28.488  31.244  1.00  0.00    -0.248 NA
ATOM     31  C   UNL A   1      42.966  26.987  30.047  1.00  0.00     0.031 C 
ATOM     32  C   UNL A   1      42.478  29.721  35.459  1.00  0.00     0.029 A 
ATOM     33  C   UNL A   1      42.219  29.327  34.155  1.00  0.00     0.049 A 
ATOM     34  H   UNL A   1      40.672  29.951  32.868  1.00  0.00     0.167 HD
ATOM     35  C   UNL A   1      42.656  28.039  32.066  1.00  0.00     0.074 A 
ATOM     36  C   UNL A   1      43.422  27.083  31.287  1.00  0.00     0.031 C 
ATOM     37  C   UNL A   1      42.951  28.389  33.341  1.00  0.00     0.031 A 
BRANCH  24  38
ATOM     38  C   UNL A   1      39.033  32.453  35.906  1.00  0.00    -0.014 A 
ATOM     39  C   UNL A   1      39.547  33.730  36.181  1.00  0.00     0.009 A 
ATOM     40  C   UNL A   1      38.114  31.884  36.799  1.00  0.00     0.009 A 
ATOM     41  C   UNL A   1      39.174  34.407  37.345  1.00  0.00     0.001 A 
ATOM     42  C   UNL A   1      37.724  32.572  37.950  1.00  0.00     0.001 A 
ATOM     43  C   UNL A   1      38.261  33.828  38.227  1.00  0.00     0.000 A 
ENDBRANCH  24  38
BRANCH  25  44
ATOM     44  C   UNL A   1      41.320  27.205  27.617  1.00  0.00    -0.014 A 
ATOM     45  C   UNL A   1      40.790  25.924  27.401  1.00  0.00     0.009 A 
ATOM     46  C   UNL A   1      42.214  27.729  26.667  1.00  0.00     0.009 A 
ATOM     47  C   UNL A   1      41.174  25.177  26.283  1.00  0.00     0.001 A 
ATOM     48  C   UNL A   1      42.568  26.997  25.533  1.00  0.00     0.001 A 
ATOM     49  C   UNL A   1      42.059  25.713  25.349  1.00  0.00     0.000 A 
ENDBRANCH  25  44
BRANCH  37  50
ATOM     50  C   UNL A   1      44.137  27.711  33.962  1.00  0.00    -0.014 A 
ATOM     51  C   UNL A   1      43.991  26.528  34.702  1.00  0.00     0.009 A 
ATOM     52  C   UNL A   1      45.417  28.254  33.780  1.00  0.00     0.009 A 
ATOM     53  C   UNL A   1      45.105  25.923  35.285  1.00  0.00     0.001 A 
ATOM     54  C   UNL A   1      46.532  27.629  34.337  1.00  0.00     0.001 A 
ATOM     55  C   UNL A   1      46.373  26.472  35.098  1.00  0.00     0.000 A 
ENDBRANCH  37  50
ENDBRANCH  11  12
ENDBRANCH   4   6
ENDBRANCH   3   4
ENDBRANCH   2   3
ENDBRANCH   1   2
BRANCH   1  56
ATOM     56  O   UNL A   1      31.825  29.522  27.214  1.00  0.00    -0.374 OA
BRANCH  56  57
ATOM     57  C   UNL A   1      32.764  28.436  27.222  1.00  0.00     0.202 C 
BRANCH  57  58
ATOM     58  C   UNL A   1      32.162  27.217  26.511  1.00  0.00     0.261 C 
BRANCH  58  59
ATOM     59  O   UNL A   1      31.033  27.659  25.748  1.00  0.00    -0.463 OA
BRANCH  59  60
ATOM     60  C   UNL A   1      30.576  26.738  24.848  1.00  0.00     0.312 C 
ATOM     61  O   UNL A   1      30.362  25.562  25.130  1.00  0.00    -0.252 OA
BRANCH  60  62
ATOM     62  C   UNL A   1      30.262  27.434  23.528  1.00  0.00     0.138 C 
ATOM     63  C   UNL A   1      28.883  28.054  23.370  1.00  0.00     0.135 C 
ATOM     64  C   UNL A   1      30.815  28.833  23.229  1.00  0.00     0.135 C 
ATOM     65  N   UNL A   1      29.532  29.115  22.678  1.00  0.00    -0.353 N 
BRANCH  65  66
ATOM     66  C   UNL A   1      28.961  30.311  22.259  1.00  0.00     0.147 A 
ATOM     67  C   UNL A   1      28.759  31.374  23.138  1.00  0.00     0.157 A 
ATOM     68  N   UNL A   1      28.679  30.452  20.943  1.00  0.00    -0.236 NA
ATOM     69  N   UNL A   1      28.296  32.591  22.751  1.00  0.00    -0.259 NA
ATOM     70  C   UNL A   1      28.194  31.649  20.553  1.00  0.00     0.133 A 
ATOM     71  C   UNL A   1      28.021  32.700  21.433  1.00  0.00     0.131 A 
ENDBRANCH  65  66
ENDBRANCH  60  62
ENDBRANCH  59  60
ENDBRANCH  58  59
ENDBRANCH  57  58
ENDBRANCH  56  57
ENDBRANCH   1  56
TORSDOF 15
ENDMDL
MODEL 2
REMARK VINA RESULT:      -9.6      6.176     10.809
REMARK SMILES O=C(OCCOCCOC(=O)C1CN(c2cnccn2)C1)c1ccc(-c2c3nc(c(-c4ccccc4)c4ccc([nH]4)c(-c4ccccc4)c4nc(c(-c5ccccc5)c5ccc2[nH]5)C=C4)C=C3)cc1
REMARK SMILES IDX 5 1 4 2 3 3 2 4 1 5 22 6 23 7 69 8 24 9 68 10 25 11 26 12
REMARK SMILES IDX 27 13 62 14 28 15 67 16 61 17 63 18 29 19 66 20 60 21 59 22
REMARK SMILES IDX 30 24 52 25 37 26 51 27 38 28 41 29 50 30 64 31 39 32 40 33
REMARK SMILES IDX 49 35 65 36 42 37 31 38 32 39 36 40 33 41 35 42 34 43 53 44
REMARK SMILES IDX 54 45 58 46 55 47 57 48 56 49 43 50 44 51 48 52 45 53 47 54
REMARK SMILES IDX 46 55 6 56 7 57 8 58 9 59 10 60 11 61 12 62 13 63 21 64
REMARK SMILES IDX 14 65 15 66 16 67 20 68 17 69 19 70 18 71
REMARK H PARENT 63 23 41 34
REMARK Flexibility Score: inf
ROOT
ATOM      1  C   UNL A   1      38.113  19.979  24.658  1.00  0.00     0.202 C 
ENDROOT
BRANCH   1   2
ATOM      2  C   UNL A   1      38.943  19.375  25.798  1.00  0.00     0.261 C 
BRANCH   2   3
ATOM      3  O   UNL A   1      40.260  19.021  25.344  1.00  0.00    -0.460 OA
BRANCH   3   4
ATOM      4  C   UNL A   1      41.453  19.329  25.906  1.00  0.00     0.338 C 
ATOM      5  O   UNL A   1      42.303  18.447  26.013  1.00  0.00    -0.246 OA
BRANCH   4   6
ATOM      6  C   UNL A   1      41.786  20.690  26.426  1.00  0.00     0.060 A 
ATOM      7  C   UNL A   1      41.841  21.839  25.641  1.00  0.00     0.016 A 
ATOM      8  C   UNL A   1      41.972  20.833  27.812  1.00  0.00     0.016 A 
ATOM      9  C   UNL A   1      42.169  23.068  26.174  1.00  0.00     0.010 A 
ATOM     10  C   UNL A   1      42.235  22.087  28.375  1.00  0.00     0.010 A 
ATOM     11  C   UNL A   1      42.354  23.204  27.545  1.00  0.00    -0.014 A 
BRANCH  11  12
ATOM     12  C   UNL A   1      42.750  24.541  28.014  1.00  0.00     0.031 A 
ATOM     13  C   UNL A   1      44.189  24.936  27.906  1.00  0.00     0.074 A 
ATOM     14  C   UNL A   1      41.784  25.435  28.294  1.00  0.00     0.049 A 
ATOM     15  N   UNL A   1      44.746  26.089  28.154  1.00  0.00    -0.248 NA
ATOM     16  C   UNL A   1      45.124  23.902  27.427  1.00  0.00     0.031 C 
ATOM     17  C   UNL A   1      40.344  25.154  28.274  1.00  0.00     0.029 A 
ATOM     18  N   UNL A   1      41.857  26.771  28.580  1.00  0.00    -0.354 N 
ATOM     19  C   UNL A   1      46.094  25.920  27.871  1.00  0.00     0.074 A 
ATOM     20  C   UNL A   1      46.277  24.550  27.448  1.00  0.00     0.031 C 
ATOM     21  C   UNL A   1      39.670  26.294  28.487  1.00  0.00     0.029 A 
ATOM     22  C   UNL A   1      40.627  27.364  28.734  1.00  0.00     0.049 A 
ATOM     23  H   UNL A   1      42.707  27.259  28.665  1.00  0.00     0.167 HD
ATOM     24  C   UNL A   1      47.085  26.833  27.961  1.00  0.00     0.031 A 
ATOM     25  C   UNL A   1      40.318  28.631  29.066  1.00  0.00     0.031 A 
ATOM     26  C   UNL A   1      46.875  28.180  28.412  1.00  0.00     0.049 A 
ATOM     27  C   UNL A   1      41.456  29.589  29.283  1.00  0.00     0.074 A 
ATOM     28  C   UNL A   1      47.807  29.171  28.654  1.00  0.00     0.029 A 
ATOM     29  N   UNL A   1      45.626  28.723  28.686  1.00  0.00    -0.354 N 
ATOM     30  N   UNL A   1      42.742  29.397  29.101  1.00  0.00    -0.248 NA
ATOM     31  C   UNL A   1      41.105  30.932  29.758  1.00  0.00     0.031 C 
ATOM     32  C   UNL A   1      47.122  30.300  29.120  1.00  0.00     0.029 A 
ATOM     33  C   UNL A   1      45.762  30.031  29.110  1.00  0.00     0.049 A 
ATOM     34  H   UNL A   1      44.770  28.246  28.591  1.00  0.00     0.167 HD
ATOM     35  C   UNL A   1      43.355  30.595  29.434  1.00  0.00     0.074 A 
ATOM     36  C   UNL A   1      42.293  31.517  29.792  1.00  0.00     0.031 C 
ATOM     37  C   UNL A   1      44.674  30.909  29.460  1.00  0.00     0.031 A 
BRANCH  24  38
ATOM     38  C   UNL A   1      48.474  26.361  27.642  1.00  0.00    -0.014 A 
ATOM     39  C   UNL A   1      49.020  26.502  26.356  1.00  0.00     0.009 A 
ATOM     40  C   UNL A   1      49.234  25.727  28.636  1.00  0.00     0.009 A 
ATOM     41  C   UNL A   1      50.287  25.987  26.065  1.00  0.00     0.001 A 
ATOM     42  C   UNL A   1      50.508  25.234  28.350  1.00  0.00     0.001 A 
ATOM     43  C   UNL A   1      51.030  25.355  27.062  1.00  0.00     0.000 A 
ENDBRANCH  24  38
BRANCH  25  44
ATOM     44  C   UNL A   1      38.905  29.032  29.300  1.00  0.00    -0.014 A 
ATOM     45  C   UNL A   1      38.117  29.582  28.277  1.00  0.00     0.009 A 
ATOM     46  C   UNL A   1      38.340  28.897  30.581  1.00  0.00     0.009 A 
ATOM     47  C   UNL A   1      36.815  30.017  28.540  1.00  0.00     0.001 A 
ATOM     48  C   UNL A   1      37.027  29.299  30.832  1.00  0.00     0.001 A 
ATOM     49  C   UNL A   1      36.270  29.873  29.815  1.00  0.00     0.000 A 
ENDBRANCH  25  44
BRANCH  37  50
ATOM     50  C   UNL A   1      45.018  32.311  29.867  1.00  0.00    -0.014 A 
ATOM     51  C   UNL A   1      45.270  32.637  31.208  1.00  0.00     0.009 A 
ATOM     52  C   UNL A   1      45.113  33.312  28.889  1.00  0.00     0.009 A 
ATOM     53  C   UNL A   1      45.571  33.951  31.568  1.00  0.00     0.001 A 
ATOM     54  C   UNL A   1      45.446  34.617  29.247  1.00  0.00     0.001 A 
ATOM     55  C   UNL A   1      45.663  34.937  30.586  1.00  0.00     0.000 A 
ENDBRANCH  37  50
ENDBRANCH  11  12
ENDBRANCH   4   6
ENDBRANCH   3   4
ENDBRANCH   2   3
ENDBRANCH   1   2
BRANCH   1  56
ATOM     56  O   UNL A   1      36.833  20.511  25.010  1.00  0.00    -0.374 OA
BRANCH  56  57
ATOM     57  C   UNL A   1      36.806  21.891  25.406  1.00  0.00     0.202 C 
BRANCH  57  58
ATOM     58  C   UNL A   1      36.360  22.766  24.228  1.00  0.00     0.261 C 
BRANCH  58  59
ATOM     59  O   UNL A   1      35.058  22.332  23.818  1.00  0.00    -0.463 OA
BRANCH  59  60
ATOM     60  C   UNL A   1      34.048  22.762  24.633  1.00  0.00     0.312 C 
ATOM     61  O   UNL A   1      33.871  23.941  24.931  1.00  0.00    -0.252 OA
BRANCH  60  62
ATOM     62  C   UNL A   1      33.139  21.586  24.974  1.00  0.00     0.138 C 
ATOM     63  C   UNL A   1      32.977  20.496  23.927  1.00  0.00     0.135 C 
ATOM     64  C   UNL A   1      33.619  20.473  25.913  1.00  0.00     0.135 C 
ATOM     65  N   UNL A   1      32.985  19.572  25.009  1.00  0.00    -0.353 N 
BRANCH  65  66
ATOM     66  C   UNL A   1      33.025  18.185  24.923  1.00  0.00     0.147 A 
ATOM     67  C   UNL A   1      33.909  17.529  24.067  1.00  0.00     0.157 A 
ATOM     68  N   UNL A   1      32.236  17.475  25.762  1.00  0.00    -0.236 NA
ATOM     69  N   UNL A   1      34.049  16.179  24.023  1.00  0.00    -0.259 NA
ATOM     70  C   UNL A   1      32.349  16.132  25.708  1.00  0.00     0.133 A 
ATOM     71  C   UNL A   1      33.246  15.498  24.868  1.00  0.00     0.131 A 
ENDBRANCH  65  66
ENDBRANCH  60  62
ENDBRANCH  59  60
ENDBRANCH  58  59
ENDBRANCH  57  58
ENDBRANCH  56  57
ENDBRANCH   1  56
TORSDOF 15
ENDMDL
MODEL 3
REMARK VINA RESULT:      -9.6      2.692      4.137
REMARK SMILES O=C(OCCOCCOC(=O)C1CN(c2cnccn2)C1)c1ccc(-c2c3nc(c(-c4ccccc4)c4ccc([nH]4)c(-c4ccccc4)c4nc(c(-c5ccccc5)c5ccc2[nH]5)C=C4)C=C3)cc1
REMARK SMILES IDX 5 1 4 2 3 3 2 4 1 5 22 6 23 7 69 8 24 9 68 10 25 11 26 12
REMARK SMILES IDX 27 13 62 14 28 15 67 16 61 17 63 18 29 19 66 20 60 21 59 22
REMARK SMILES IDX 30 24 52 25 37 26 51 27 38 28 41 29 50 30 64 31 39 32 40 33
REMARK SMILES IDX 49 35 65 36 42 37 31 38 32 39 36 40 33 41 35 42 34 43 53 44
REMARK SMILES IDX 54 45 58 46 55 47 57 48 56 49 43 50 44 51 48 52 45 53 47 54
REMARK SMILES IDX 46 55 6 56 7 57 8 58 9 59 10 60 11 61 12 62 13 63 21 64
REMARK SMILES IDX 14 65 15 66 16 67 20 68 17 69 19 70 18 71
REMARK H PARENT 63 23 41 34
REMARK Flexibility Score: inf
ROOT
ATOM      1  C   UNL A   1      32.282  30.860  26.590  1.00  0.00     0.202 C 
ENDROOT
BRANCH   1   2
ATOM      2  C   UNL A   1      31.509  32.130  26.966  1.00  0.00     0.261 C 
BRANCH   2   3
ATOM      3  O   UNL A   1      32.380  33.274  26.991  1.00  0.00    -0.460 OA
BRANCH   3   4
ATOM      4  C   UNL A   1      33.038  33.805  28.049  1.00  0.00     0.338 C 
ATOM      5  O   UNL A   1      32.596  34.827  28.570  1.00  0.00    -0.246 OA
BRANCH   4   6
ATOM      6  C   UNL A   1      34.296  33.222  28.607  1.00  0.00     0.060 A 
ATOM      7  C   UNL A   1      34.372  31.989  29.250  1.00  0.00     0.016 A 
ATOM      8  C   UNL A   1      35.494  33.926  28.395  1.00  0.00     0.016 A 
ATOM      9  C   UNL A   1      35.560  31.507  29.760  1.00  0.00     0.010 A 
ATOM     10  C   UNL A   1      36.716  33.414  28.844  1.00  0.00     0.010 A 
ATOM     11  C   UNL A   1      36.742  32.208  29.549  1.00  0.00    -0.014 A 
BRANCH  11  12
ATOM     12  C   UNL A   1      37.948  31.642  30.173  1.00  0.00     0.031 A 
ATOM     13  C   UNL A   1      38.217  31.952  31.611  1.00  0.00     0.074 A 
ATOM     14  C   UNL A   1      38.627  30.689  29.509  1.00  0.00     0.049 A 
ATOM     15  N   UNL A   1      39.150  31.482  32.392  1.00  0.00    -0.248 NA
ATOM     16  C   UNL A   1      37.293  32.893  32.269  1.00  0.00     0.031 C 
ATOM     17  C   UNL A   1      38.324  30.232  28.147  1.00  0.00     0.029 A 
ATOM     18  N   UNL A   1      39.660  29.885  29.906  1.00  0.00    -0.354 N 
ATOM     19  C   UNL A   1      38.934  32.076  33.628  1.00  0.00     0.074 A 
ATOM     20  C   UNL A   1      37.792  32.951  33.493  1.00  0.00     0.031 C 
ATOM     21  C   UNL A   1      39.121  29.196  27.844  1.00  0.00     0.029 A 
ATOM     22  C   UNL A   1      40.037  28.969  28.954  1.00  0.00     0.049 A 
ATOM     23  H   UNL A   1      40.090  29.956  30.789  1.00  0.00     0.167 HD
ATOM     24  C   UNL A   1      39.634  31.901  34.771  1.00  0.00     0.031 A 
ATOM     25  C   UNL A   1      41.035  28.067  28.975  1.00  0.00     0.031 A 
ATOM     26  C   UNL A   1      40.782  31.043  34.865  1.00  0.00     0.049 A 
ATOM     27  C   UNL A   1      41.874  27.989  30.220  1.00  0.00     0.074 A 
ATOM     28  C   UNL A   1      41.645  30.861  35.929  1.00  0.00     0.029 A 
ATOM     29  N   UNL A   1      41.223  30.216  33.840  1.00  0.00    -0.354 N 
ATOM     30  N   UNL A   1      41.720  28.622  31.360  1.00  0.00    -0.248 NA
ATOM     31  C   UNL A   1      43.028  27.084  30.180  1.00  0.00     0.031 C 
ATOM     32  C   UNL A   1      42.636  29.957  35.529  1.00  0.00     0.029 A 
ATOM     33  C   UNL A   1      42.355  29.531  34.239  1.00  0.00     0.049 A 
ATOM     34  H   UNL A   1      40.791  30.131  32.960  1.00  0.00     0.167 HD
ATOM     35  C   UNL A   1      42.753  28.189  32.177  1.00  0.00     0.074 A 
ATOM     36  C   UNL A   1      43.503  27.210  31.411  1.00  0.00     0.031 C 
ATOM     37  C   UNL A   1      43.070  28.570  33.438  1.00  0.00     0.031 A 
BRANCH  24  38
ATOM     38  C   UNL A   1      39.211  32.717  35.958  1.00  0.00    -0.014 A 
ATOM     39  C   UNL A   1      39.768  33.979  36.217  1.00  0.00     0.009 A 
ATOM     40  C   UNL A   1      38.268  32.193  36.855  1.00  0.00     0.009 A 
ATOM     41  C   UNL A   1      39.413  34.686  37.370  1.00  0.00     0.001 A 
ATOM     42  C   UNL A   1      37.897  32.911  37.994  1.00  0.00     0.001 A 
ATOM     43  C   UNL A   1      38.477  34.152  38.255  1.00  0.00     0.000 A 
ENDBRANCH  24  38
BRANCH  25  44
ATOM     44  C   UNL A   1      41.345  27.248  27.772  1.00  0.00    -0.014 A 
ATOM     45  C   UNL A   1      42.207  27.715  26.768  1.00  0.00     0.009 A 
ATOM     46  C   UNL A   1      40.739  25.990  27.603  1.00  0.00     0.009 A 
ATOM     47  C   UNL A   1      42.426  26.958  25.612  1.00  0.00     0.001 A 
ATOM     48  C   UNL A   1      40.988  25.220  26.467  1.00  0.00     0.001 A 
ATOM     49  C   UNL A   1      41.820  25.711  25.464  1.00  0.00     0.000 A 
ENDBRANCH  25  44
BRANCH  37  50
ATOM     50  C   UNL A   1      44.262  27.902  34.057  1.00  0.00    -0.014 A 
ATOM     51  C   UNL A   1      45.545  28.459  33.949  1.00  0.00     0.009 A 
ATOM     52  C   UNL A   1      44.090  26.711  34.779  1.00  0.00     0.009 A 
ATOM     53  C   UNL A   1      46.642  27.812  34.517  1.00  0.00     0.001 A 
ATOM     54  C   UNL A   1      45.184  26.084  35.373  1.00  0.00     0.001 A 
ATOM     55  C   UNL A   1      46.459  26.628  35.232  1.00  0.00     0.000 A 
ENDBRANCH  37  50
ENDBRANCH  11  12
ENDBRANCH   4   6
ENDBRANCH   3   4
ENDBRANCH   2   3
ENDBRANCH   1   2
BRANCH   1  56
ATOM     56  O   UNL A   1      31.509  29.669  26.409  1.00  0.00    -0.374 OA
BRANCH  56  57
ATOM     57  C   UNL A   1      31.759  28.604  27.337  1.00  0.00     0.202 C 
BRANCH  57  58
ATOM     58  C   UNL A   1      32.147  27.328  26.580  1.00  0.00     0.261 C 
BRANCH  58  59
ATOM     59  O   UNL A   1      31.276  26.274  27.007  1.00  0.00    -0.463 OA
BRANCH  59  60
ATOM     60  C   UNL A   1      30.615  25.651  25.986  1.00  0.00     0.312 C 
ATOM     61  O   UNL A   1      30.142  26.246  25.020  1.00  0.00    -0.252 OA
BRANCH  60  62
ATOM     62  C   UNL A   1      30.690  24.141  26.182  1.00  0.00     0.138 C 
ATOM     63  C   UNL A   1      30.906  23.281  24.948  1.00  0.00     0.135 C 
ATOM     64  C   UNL A   1      31.959  23.485  26.737  1.00  0.00     0.135 C 
ATOM     65  N   UNL A   1      31.744  22.469  25.763  1.00  0.00    -0.353 N 
BRANCH  65  66
ATOM     66  C   UNL A   1      32.552  21.418  25.344  1.00  0.00     0.147 A 
ATOM     67  C   UNL A   1      33.936  21.552  25.248  1.00  0.00     0.157 A 
ATOM     68  N   UNL A   1      31.965  20.222  25.110  1.00  0.00    -0.236 NA
ATOM     69  N   UNL A   1      34.770  20.525  24.938  1.00  0.00    -0.259 NA
ATOM     70  C   UNL A   1      32.782  19.202  24.776  1.00  0.00     0.133 A 
ATOM     71  C   UNL A   1      34.155  19.346  24.707  1.00  0.00     0.131 A 
ENDBRANCH  65  66
ENDBRANCH  60  62
ENDBRANCH  59  60
ENDBRANCH  58  59
ENDBRANCH  57  58
ENDBRANCH  56  57
ENDBRANCH   1  56
TORSDOF 15
ENDMDL
