MODEL 1
REMARK VINA RESULT:     -11.8      0.000      0.000
REMARK SMILES COc1cc2c(CC(=O)OCCOCCOC(=O)c3ccc(-c4c5nc(c(-c6ccccc6)c6ccc([nH]6)c(-c6ccccc6)c6nc(c(-c7ccccc7)c7ccc4[nH]7)C=C6)C=C5)cc3)c(C)n(C(=O)c3ccc(Cl)cc3)c2cc1Cl
REMARK SMILES IDX 12 1 11 2 10 3 8 4 9 5 7 6 6 7 3 8 4 9 81 10 5 11 80 12
REMARK SMILES IDX 82 13 79 14 67 15 69 16 68 17 2 18 1 19 70 20 71 21 72 22
REMARK SMILES IDX 73 23 78 24 74 25 77 26 75 27 76 28 13 29 14 30 15 31 16 32
REMARK SMILES IDX 17 33 18 34 19 35 20 36 66 37 21 38 65 39 22 40 23 41 24 42
REMARK SMILES IDX 59 43 25 44 64 45 58 46 60 47 26 48 63 49 57 50 56 51 27 53
REMARK SMILES IDX 49 54 34 55 48 56 35 57 38 58 47 59 61 60 36 61 37 62 46 64
REMARK SMILES IDX 62 65 39 66 28 67 29 68 33 69 30 70 32 71 31 72 50 73 51 74
REMARK SMILES IDX 55 75 52 76 54 77 53 78 40 79 41 80 45 81 42 82 44 83 43 84
REMARK H PARENT 60 52 38 63
REMARK Flexibility Score: inf
ROOT
ATOM      1  C   UNL A   1      31.324  27.674  26.711  1.00  0.00     0.202 C 
ENDROOT
BRANCH   1   2
ATOM      2  C   UNL A   1      31.547  26.252  26.170  1.00  0.00     0.261 C 
BRANCH   2   3
ATOM      3  O   UNL A   1      30.841  25.211  26.868  1.00  0.00    -0.463 OA
BRANCH   3   4
ATOM      4  C   UNL A   1      31.359  23.968  26.688  1.00  0.00     0.310 C 
ATOM      5  O   UNL A   1      31.523  23.157  27.599  1.00  0.00    -0.252 OA
BRANCH   4   6
ATOM      6  C   UNL A   1      31.739  23.599  25.272  1.00  0.00     0.160 C 
BRANCH   6   7
ATOM      7  C   UNL A   1      33.055  22.920  24.975  1.00  0.00    -0.008 A 
ATOM      8  C   UNL A   1      32.995  19.078  25.043  1.00  0.00     0.138 A 
ATOM      9  C   UNL A   1      32.509  20.379  25.258  1.00  0.00     0.058 A 
ATOM     10  C   UNL A   1      34.340  18.907  24.756  1.00  0.00     0.085 A 
ATOM     11  C   UNL A   1      33.321  21.520  25.026  1.00  0.00     0.008 A 
ATOM     12  C   UNL A   1      35.194  20.015  24.713  1.00  0.00     0.051 A 
ATOM     13  Cl  UNL A   1      35.055  17.403  24.291  1.00  0.00    -0.080 Cl
ATOM     14  C   UNL A   1      34.681  21.329  24.766  1.00  0.00     0.058 A 
ATOM     15  C   UNL A   1      34.269  23.557  24.725  1.00  0.00     0.028 A 
ATOM     16  N   UNL A   1      35.287  22.593  24.604  1.00  0.00    -0.280 N 
ATOM     17  C   UNL A   1      34.463  25.041  24.627  1.00  0.00     0.065 C 
BRANCH   8  18
ATOM     18  O   UNL A   1      32.015  18.127  24.918  1.00  0.00    -0.495 OA
ATOM     19  C   UNL A   1      32.256  16.892  25.581  1.00  0.00     0.278 C 
ENDBRANCH   8  18
BRANCH  16  20
ATOM     20  C   UNL A   1      36.680  22.833  24.379  1.00  0.00     0.262 C 
ATOM     21  O   UNL A   1      37.082  23.053  23.239  1.00  0.00    -0.268 OA
BRANCH  20  22
ATOM     22  C   UNL A   1      37.715  22.892  25.425  1.00  0.00     0.040 A 
ATOM     23  C   UNL A   1      37.918  24.067  26.161  1.00  0.00     0.015 A 
ATOM     24  C   UNL A   1      38.526  21.769  25.630  1.00  0.00     0.015 A 
ATOM     25  C   UNL A   1      39.009  24.146  27.032  1.00  0.00     0.021 A 
ATOM     26  C   UNL A   1      39.602  21.851  26.515  1.00  0.00     0.021 A 
ATOM     27  C   UNL A   1      39.853  23.045  27.193  1.00  0.00     0.041 A 
ATOM     28  Cl  UNL A   1      41.233  23.170  28.212  1.00  0.00    -0.084 Cl
ENDBRANCH  20  22
ENDBRANCH  16  20
ENDBRANCH   6   7
ENDBRANCH   4   6
ENDBRANCH   3   4
ENDBRANCH   2   3
ENDBRANCH   1   2
BRANCH   1  29
ATOM     29  O   UNL A   1      31.743  28.811  25.973  1.00  0.00    -0.374 OA
BRANCH  29  30
ATOM     30  C   UNL A   1      33.070  29.283  26.194  1.00  0.00     0.202 C 
BRANCH  30  31
ATOM     31  C   UNL A   1      33.328  30.421  27.202  1.00  0.00     0.261 C 
BRANCH  31  32
ATOM     32  O   UNL A   1      34.706  30.779  27.293  1.00  0.00    -0.460 OA
BRANCH  32  33
ATOM     33  C   UNL A   1      35.037  31.441  28.430  1.00  0.00     0.338 C 
ATOM     34  O   UNL A   1      34.316  32.119  29.147  1.00  0.00    -0.246 OA
BRANCH  33  35
ATOM     35  C   UNL A   1      36.289  30.805  28.850  1.00  0.00     0.060 A 
ATOM     36  C   UNL A   1      37.343  31.592  29.321  1.00  0.00     0.016 A 
ATOM     37  C   UNL A   1      36.492  29.500  28.373  1.00  0.00     0.016 A 
ATOM     38  C   UNL A   1      38.632  31.091  29.226  1.00  0.00     0.010 A 
ATOM     39  C   UNL A   1      37.786  29.020  28.242  1.00  0.00     0.010 A 
ATOM     40  C   UNL A   1      38.854  29.830  28.641  1.00  0.00    -0.014 A 
BRANCH  40  41
ATOM     41  C   UNL A   1      40.191  29.254  28.776  1.00  0.00     0.031 A 
ATOM     42  C   UNL A   1      40.471  28.938  30.203  1.00  0.00     0.074 A 
ATOM     43  C   UNL A   1      41.013  28.883  27.773  1.00  0.00     0.049 A 
ATOM     44  N   UNL A   1      41.408  29.412  30.953  1.00  0.00    -0.248 NA
ATOM     45  C   UNL A   1      39.462  28.141  30.929  1.00  0.00     0.031 C 
ATOM     46  C   UNL A   1      40.715  28.864  26.339  1.00  0.00     0.029 A 
ATOM     47  N   UNL A   1      42.260  28.320  27.831  1.00  0.00    -0.354 N 
ATOM     48  C   UNL A   1      41.214  28.819  32.198  1.00  0.00     0.074 A 
ATOM     49  C   UNL A   1      39.907  28.227  32.179  1.00  0.00     0.031 C 
ATOM     50  C   UNL A   1      41.630  28.099  25.700  1.00  0.00     0.029 A 
ATOM     51  C   UNL A   1      42.649  27.690  26.652  1.00  0.00     0.049 A 
ATOM     52  H   UNL A   1      42.830  28.358  28.634  1.00  0.00     0.167 HD
ATOM     53  C   UNL A   1      42.259  28.581  33.032  1.00  0.00     0.031 A 
ATOM     54  C   UNL A   1      43.694  26.839  26.487  1.00  0.00     0.031 A 
ATOM     55  C   UNL A   1      43.401  29.377  32.679  1.00  0.00     0.049 A 
ATOM     56  C   UNL A   1      44.643  27.054  27.596  1.00  0.00     0.074 A 
ATOM     57  C   UNL A   1      43.767  30.698  32.803  1.00  0.00     0.029 A 
ATOM     58  N   UNL A   1      44.197  28.813  31.717  1.00  0.00    -0.354 N 
ATOM     59  N   UNL A   1      45.330  28.148  27.754  1.00  0.00    -0.248 NA
ATOM     60  C   UNL A   1      44.614  26.158  28.746  1.00  0.00     0.031 C 
ATOM     61  C   UNL A   1      44.682  30.952  31.741  1.00  0.00     0.029 A 
ATOM     62  C   UNL A   1      44.889  29.772  31.028  1.00  0.00     0.049 A 
ATOM     63  H   UNL A   1      44.262  27.846  31.545  1.00  0.00     0.167 HD
ATOM     64  C   UNL A   1      45.439  28.283  29.123  1.00  0.00     0.074 A 
ATOM     65  C   UNL A   1      45.154  26.961  29.667  1.00  0.00     0.031 C 
ATOM     66  C   UNL A   1      45.427  29.514  29.708  1.00  0.00     0.031 A 
BRANCH  53  67
ATOM     67  C   UNL A   1      42.405  27.281  33.793  1.00  0.00    -0.014 A 
ATOM     68  C   UNL A   1      43.596  26.526  33.833  1.00  0.00     0.009 A 
ATOM     69  C   UNL A   1      41.419  26.936  34.733  1.00  0.00     0.009 A 
ATOM     70  C   UNL A   1      43.800  25.494  34.752  1.00  0.00     0.001 A 
ATOM     71  C   UNL A   1      41.633  25.926  35.680  1.00  0.00     0.001 A 
ATOM     72  C   UNL A   1      42.824  25.206  35.691  1.00  0.00     0.000 A 
ENDBRANCH  53  67
BRANCH  54  73
ATOM     73  C   UNL A   1      43.807  25.645  25.617  1.00  0.00    -0.014 A 
ATOM     74  C   UNL A   1      42.717  24.765  25.493  1.00  0.00     0.009 A 
ATOM     75  C   UNL A   1      45.064  25.193  25.178  1.00  0.00     0.009 A 
ATOM     76  C   UNL A   1      42.886  23.464  25.007  1.00  0.00     0.001 A 
ATOM     77  C   UNL A   1      45.234  23.888  24.692  1.00  0.00     0.001 A 
ATOM     78  C   UNL A   1      44.149  23.018  24.626  1.00  0.00     0.000 A 
ENDBRANCH  54  73
BRANCH  66  79
ATOM     79  C   UNL A   1      45.801  30.705  28.869  1.00  0.00    -0.014 A 
ATOM     80  C   UNL A   1      44.787  31.287  28.092  1.00  0.00     0.009 A 
ATOM     81  C   UNL A   1      47.113  31.184  28.724  1.00  0.00     0.009 A 
ATOM     82  C   UNL A   1      45.073  32.294  27.172  1.00  0.00     0.001 A 
ATOM     83  C   UNL A   1      47.396  32.216  27.822  1.00  0.00     0.001 A 
ATOM     84  C   UNL A   1      46.378  32.759  27.037  1.00  0.00     0.000 A 
ENDBRANCH  66  79
ENDBRANCH  40  41
ENDBRANCH  33  35
ENDBRANCH  32  33
ENDBRANCH  31  32
ENDBRANCH  30  31
ENDBRANCH  29  30
ENDBRANCH   1  29
TORSDOF 18
ENDMDL
MODEL 2
REMARK VINA RESULT:     -11.7      5.920     11.196
REMARK SMILES COc1cc2c(CC(=O)OCCOCCOC(=O)c3ccc(-c4c5nc(c(-c6ccccc6)c6ccc([nH]6)c(-c6ccccc6)c6nc(c(-c7ccccc7)c7ccc4[nH]7)C=C6)C=C5)cc3)c(C)n(C(=O)c3ccc(Cl)cc3)c2cc1Cl
REMARK SMILES IDX 12 1 11 2 10 3 8 4 9 5 7 6 6 7 3 8 4 9 81 10 5 11 80 12
REMARK SMILES IDX 82 13 79 14 67 15 69 16 68 17 2 18 1 19 70 20 71 21 72 22
REMARK SMILES IDX 73 23 78 24 74 25 77 26 75 27 76 28 13 29 14 30 15 31 16 32
REMARK SMILES IDX 17 33 18 34 19 35 20 36 66 37 21 38 65 39 22 40 23 41 24 42
REMARK SMILES IDX 59 43 25 44 64 45 58 46 60 47 26 48 63 49 57 50 56 51 27 53
REMARK SMILES IDX 49 54 34 55 48 56 35 57 38 58 47 59 61 60 36 61 37 62 46 64
REMARK SMILES IDX 62 65 39 66 28 67 29 68 33 69 30 70 32 71 31 72 50 73 51 74
REMARK SMILES IDX 55 75 52 76 54 77 53 78 40 79 41 80 45 81 42 82 44 83 43 84
REMARK H PARENT 60 52 38 63
REMARK Flexibility Score: inf
ROOT
ATOM      1  C   UNL A   1      33.541  36.877  33.147  1.00  0.00     0.202 C 
ENDROOT
BRANCH   1   2
ATOM      2  C   UNL A   1      34.739  35.919  33.035  1.00  0.00     0.261 C 
BRANCH   2   3
ATOM      3  O   UNL A   1      35.027  35.157  34.221  1.00  0.00    -0.463 OA
BRANCH   3   4
ATOM      4  C   UNL A   1      34.918  33.812  34.060  1.00  0.00     0.310 C 
ATOM      5  O   UNL A   1      33.923  33.260  33.590  1.00  0.00    -0.252 OA
BRANCH   4   6
ATOM      6  C   UNL A   1      36.108  32.986  34.489  1.00  0.00     0.160 C 
BRANCH   6   7
ATOM      7  C   UNL A   1      37.294  33.630  35.167  1.00  0.00    -0.008 A 
ATOM      8  C   UNL A   1      37.480  33.169  38.978  1.00  0.00     0.138 A 
ATOM      9  C   UNL A   1      36.892  33.132  37.702  1.00  0.00     0.058 A 
ATOM     10  C   UNL A   1      38.643  33.902  39.156  1.00  0.00     0.085 A 
ATOM     11  C   UNL A   1      37.546  33.684  36.570  1.00  0.00     0.008 A 
ATOM     12  C   UNL A   1      39.196  34.612  38.083  1.00  0.00     0.051 A 
ATOM     13  Cl  UNL A   1      39.583  33.904  40.607  1.00  0.00    -0.080 Cl
ATOM     14  C   UNL A   1      38.702  34.445  36.771  1.00  0.00     0.058 A 
ATOM     15  C   UNL A   1      38.280  34.394  34.546  1.00  0.00     0.028 A 
ATOM     16  N   UNL A   1      39.152  34.914  35.520  1.00  0.00    -0.280 N 
ATOM     17  C   UNL A   1      38.379  34.643  33.070  1.00  0.00     0.065 C 
BRANCH   8  18
ATOM     18  O   UNL A   1      36.947  32.273  39.867  1.00  0.00    -0.495 OA
ATOM     19  C   UNL A   1      36.782  30.943  39.391  1.00  0.00     0.278 C 
ENDBRANCH   8  18
BRANCH  16  20
ATOM     20  C   UNL A   1      40.275  35.774  35.300  1.00  0.00     0.262 C 
ATOM     21  O   UNL A   1      40.153  36.986  35.462  1.00  0.00    -0.268 OA
BRANCH  20  22
ATOM     22  C   UNL A   1      41.629  35.331  34.928  1.00  0.00     0.040 A 
ATOM     23  C   UNL A   1      42.659  35.314  35.879  1.00  0.00     0.015 A 
ATOM     24  C   UNL A   1      41.877  34.979  33.596  1.00  0.00     0.015 A 
ATOM     25  C   UNL A   1      43.966  35.044  35.463  1.00  0.00     0.021 A 
ATOM     26  C   UNL A   1      43.183  34.692  33.193  1.00  0.00     0.021 A 
ATOM     27  C   UNL A   1      44.223  34.750  34.121  1.00  0.00     0.041 A 
ATOM     28  Cl  UNL A   1      45.842  34.486  33.601  1.00  0.00    -0.084 Cl
ENDBRANCH  20  22
ENDBRANCH  16  20
ENDBRANCH   6   7
ENDBRANCH   4   6
ENDBRANCH   3   4
ENDBRANCH   2   3
ENDBRANCH   1   2
BRANCH   1  29
ATOM     29  O   UNL A   1      32.697  37.123  32.032  1.00  0.00    -0.374 OA
BRANCH  29  30
ATOM     30  C   UNL A   1      33.319  37.524  30.814  1.00  0.00     0.202 C 
BRANCH  30  31
ATOM     31  C   UNL A   1      33.142  36.674  29.539  1.00  0.00     0.261 C 
BRANCH  31  32
ATOM     32  O   UNL A   1      32.648  35.364  29.810  1.00  0.00    -0.460 OA
BRANCH  32  33
ATOM     33  C   UNL A   1      32.987  34.437  28.878  1.00  0.00     0.338 C 
ATOM     34  O   UNL A   1      32.388  34.139  27.856  1.00  0.00    -0.246 OA
BRANCH  33  35
ATOM     35  C   UNL A   1      34.415  34.210  29.118  1.00  0.00     0.060 A 
ATOM     36  C   UNL A   1      35.300  34.158  28.037  1.00  0.00     0.016 A 
ATOM     37  C   UNL A   1      34.737  33.660  30.369  1.00  0.00     0.016 A 
ATOM     38  C   UNL A   1      36.488  33.461  28.194  1.00  0.00     0.010 A 
ATOM     39  C   UNL A   1      35.907  32.929  30.507  1.00  0.00     0.010 A 
ATOM     40  C   UNL A   1      36.765  32.808  29.409  1.00  0.00    -0.014 A 
BRANCH  40  41
ATOM     41  C   UNL A   1      38.119  32.291  29.600  1.00  0.00     0.031 A 
ATOM     42  C   UNL A   1      38.158  30.833  29.310  1.00  0.00     0.074 A 
ATOM     43  C   UNL A   1      39.232  33.017  29.831  1.00  0.00     0.049 A 
ATOM     44  N   UNL A   1      38.477  29.871  30.109  1.00  0.00    -0.248 NA
ATOM     45  C   UNL A   1      37.583  30.384  28.026  1.00  0.00     0.031 C 
ATOM     46  C   UNL A   1      39.360  34.476  29.830  1.00  0.00     0.029 A 
ATOM     47  N   UNL A   1      40.527  32.600  29.996  1.00  0.00    -0.354 N 
ATOM     48  C   UNL A   1      38.324  28.707  29.360  1.00  0.00     0.074 A 
ATOM     49  C   UNL A   1      37.585  29.064  28.182  1.00  0.00     0.031 C 
ATOM     50  C   UNL A   1      40.667  34.814  29.733  1.00  0.00     0.029 A 
ATOM     51  C   UNL A   1      41.471  33.605  29.803  1.00  0.00     0.049 A 
ATOM     52  H   UNL A   1      40.767  31.674  30.228  1.00  0.00     0.167 HD
ATOM     53  C   UNL A   1      39.088  27.611  29.603  1.00  0.00     0.031 A 
ATOM     54  C   UNL A   1      42.810  33.448  29.645  1.00  0.00     0.031 A 
ATOM     55  C   UNL A   1      39.677  27.664  30.910  1.00  0.00     0.049 A 
ATOM     56  C   UNL A   1      43.187  32.129  30.189  1.00  0.00     0.074 A 
ATOM     57  C   UNL A   1      39.241  27.490  32.204  1.00  0.00     0.029 A 
ATOM     58  N   UNL A   1      40.861  28.351  30.960  1.00  0.00    -0.354 N 
ATOM     59  N   UNL A   1      43.123  31.827  31.453  1.00  0.00    -0.248 NA
ATOM     60  C   UNL A   1      43.352  31.001  29.279  1.00  0.00     0.031 C 
ATOM     61  C   UNL A   1      40.112  28.268  33.019  1.00  0.00     0.029 A 
ATOM     62  C   UNL A   1      41.085  28.856  32.212  1.00  0.00     0.049 A 
ATOM     63  H   UNL A   1      41.471  28.466  30.196  1.00  0.00     0.167 HD
ATOM     64  C   UNL A   1      42.797  30.485  31.462  1.00  0.00     0.074 A 
ATOM     65  C   UNL A   1      43.133  29.996  30.131  1.00  0.00     0.031 C 
ATOM     66  C   UNL A   1      41.987  29.969  32.428  1.00  0.00     0.031 A 
BRANCH  53  67
ATOM     67  C   UNL A   1      39.706  26.795  28.487  1.00  0.00    -0.014 A 
ATOM     68  C   UNL A   1      40.724  27.277  27.637  1.00  0.00     0.009 A 
ATOM     69  C   UNL A   1      39.475  25.410  28.459  1.00  0.00     0.009 A 
ATOM     70  C   UNL A   1      41.471  26.434  26.810  1.00  0.00     0.001 A 
ATOM     71  C   UNL A   1      40.246  24.556  27.658  1.00  0.00     0.001 A 
ATOM     72  C   UNL A   1      41.245  25.068  26.835  1.00  0.00     0.000 A 
ENDBRANCH  53  67
BRANCH  54  73
ATOM     73  C   UNL A   1      43.754  34.212  28.795  1.00  0.00    -0.014 A 
ATOM     74  C   UNL A   1      43.471  34.397  27.430  1.00  0.00     0.009 A 
ATOM     75  C   UNL A   1      45.065  34.471  29.232  1.00  0.00     0.009 A 
ATOM     76  C   UNL A   1      44.473  34.767  26.525  1.00  0.00     0.001 A 
ATOM     77  C   UNL A   1      46.069  34.841  28.324  1.00  0.00     0.001 A 
ATOM     78  C   UNL A   1      45.777  34.968  26.969  1.00  0.00     0.000 A 
ENDBRANCH  54  73
BRANCH  66  79
ATOM     79  C   UNL A   1      41.867  30.713  33.730  1.00  0.00    -0.014 A 
ATOM     80  C   UNL A   1      42.992  30.721  34.571  1.00  0.00     0.009 A 
ATOM     81  C   UNL A   1      40.675  31.286  34.202  1.00  0.00     0.009 A 
ATOM     82  C   UNL A   1      42.925  31.253  35.857  1.00  0.00     0.001 A 
ATOM     83  C   UNL A   1      40.616  31.847  35.483  1.00  0.00     0.001 A 
ATOM     84  C   UNL A   1      41.737  31.817  36.314  1.00  0.00     0.000 A 
ENDBRANCH  66  79
ENDBRANCH  40  41
ENDBRANCH  33  35
ENDBRANCH  32  33
ENDBRANCH  31  32
ENDBRANCH  30  31
ENDBRANCH  29  30
ENDBRANCH   1  29
TORSDOF 18
ENDMDL
MODEL 3
REMARK VINA RESULT:     -11.5      1.885      3.823
REMARK SMILES COc1cc2c(CC(=O)OCCOCCOC(=O)c3ccc(-c4c5nc(c(-c6ccccc6)c6ccc([nH]6)c(-c6ccccc6)c6nc(c(-c7ccccc7)c7ccc4[nH]7)C=C6)C=C5)cc3)c(C)n(C(=O)c3ccc(Cl)cc3)c2cc1Cl
REMARK SMILES IDX 12 1 11 2 10 3 8 4 9 5 7 6 6 7 3 8 4 9 81 10 5 11 80 12
REMARK SMILES IDX 82 13 79 14 67 15 69 16 68 17 2 18 1 19 70 20 71 21 72 22
REMARK SMILES IDX 73 23 78 24 74 25 77 26 75 27 76 28 13 29 14 30 15 31 16 32
REMARK SMILES IDX 17 33 18 34 19 35 20 36 66 37 21 38 65 39 22 40 23 41 24 42
REMARK SMILES IDX 59 43 25 44 64 45 58 46 60 47 26 48 63 49 57 50 56 51 27 53
REMARK SMILES IDX 49 54 34 55 48 56 35 57 38 58 47 59 61 60 36 61 37 62 46 64
REMARK SMILES IDX 62 65 39 66 28 67 29 68 33 69 30 70 32 71 31 72 50 73 51 74
REMARK SMILES IDX 55 75 52 76 54 77 53 78 40 79 41 80 45 81 42 82 44 83 43 84
REMARK H PARENT 60 52 38 63
REMARK Flexibility Score: inf
ROOT
ATOM      1  C   UNL A   1      31.846  28.619  26.850  1.00  0.00     0.202 C 
ENDROOT
BRANCH   1   2
ATOM      2  C   UNL A   1      31.505  28.226  25.403  1.00  0.00     0.261 C 
BRANCH   2   3
ATOM      3  O   UNL A   1      31.672  26.832  25.091  1.00  0.00    -0.463 OA
BRANCH   3   4
ATOM      4  C   UNL A   1      32.967  26.418  25.063  1.00  0.00     0.310 C 
ATOM      5  O   UNL A   1      33.833  26.934  24.358  1.00  0.00    -0.252 OA
BRANCH   4   6
ATOM      6  C   UNL A   1      33.320  25.260  25.967  1.00  0.00     0.160 C 
BRANCH   6   7
ATOM      7  C   UNL A   1      33.556  23.879  25.402  1.00  0.00    -0.008 A 
ATOM      8  C   UNL A   1      37.198  22.652  25.487  1.00  0.00     0.138 A 
ATOM      9  C   UNL A   1      36.147  23.581  25.586  1.00  0.00     0.058 A 
ATOM     10  C   UNL A   1      36.953  21.429  24.883  1.00  0.00     0.085 A 
ATOM     11  C   UNL A   1      34.817  23.234  25.234  1.00  0.00     0.008 A 
ATOM     12  C   UNL A   1      35.686  21.148  24.358  1.00  0.00     0.051 A 
ATOM     13  Cl  UNL A   1      38.078  20.118  24.843  1.00  0.00    -0.080 Cl
ATOM     14  C   UNL A   1      34.593  22.009  24.599  1.00  0.00     0.058 A 
ATOM     15  C   UNL A   1      32.594  23.051  24.828  1.00  0.00     0.028 A 
ATOM     16  N   UNL A   1      33.216  21.897  24.317  1.00  0.00    -0.280 N 
ATOM     17  C   UNL A   1      31.128  23.357  24.746  1.00  0.00     0.065 C 
BRANCH   8  18
ATOM     18  O   UNL A   1      38.309  22.984  26.218  1.00  0.00    -0.495 OA
ATOM     19  C   UNL A   1      38.339  24.304  26.746  1.00  0.00     0.278 C 
ENDBRANCH   8  18
BRANCH  16  20
ATOM     20  C   UNL A   1      32.586  20.814  23.623  1.00  0.00     0.262 C 
ATOM     21  O   UNL A   1      32.004  21.029  22.562  1.00  0.00    -0.268 OA
BRANCH  20  22
ATOM     22  C   UNL A   1      32.603  19.404  24.047  1.00  0.00     0.040 A 
ATOM     23  C   UNL A   1      32.529  19.068  25.405  1.00  0.00     0.015 A 
ATOM     24  C   UNL A   1      32.750  18.412  23.070  1.00  0.00     0.015 A 
ATOM     25  C   UNL A   1      32.709  17.735  25.788  1.00  0.00     0.021 A 
ATOM     26  C   UNL A   1      32.910  17.081  23.460  1.00  0.00     0.021 A 
ATOM     27  C   UNL A   1      32.914  16.753  24.816  1.00  0.00     0.041 A 
ATOM     28  Cl  UNL A   1      33.203  15.126  25.296  1.00  0.00    -0.084 Cl
ENDBRANCH  20  22
ENDBRANCH  16  20
ENDBRANCH   6   7
ENDBRANCH   4   6
ENDBRANCH   3   4
ENDBRANCH   2   3
ENDBRANCH   1   2
BRANCH   1  29
ATOM     29  O   UNL A   1      32.001  29.981  27.219  1.00  0.00    -0.374 OA
BRANCH  29  30
ATOM     30  C   UNL A   1      33.243  30.607  26.907  1.00  0.00     0.202 C 
BRANCH  30  31
ATOM     31  C   UNL A   1      33.867  31.622  27.887  1.00  0.00     0.261 C 
BRANCH  31  32
ATOM     32  O   UNL A   1      34.975  31.087  28.607  1.00  0.00    -0.460 OA
BRANCH  32  33
ATOM     33  C   UNL A   1      36.004  31.957  28.775  1.00  0.00     0.338 C 
ATOM     34  O   UNL A   1      35.975  33.075  29.267  1.00  0.00    -0.246 OA
BRANCH  33  35
ATOM     35  C   UNL A   1      37.195  31.109  28.672  1.00  0.00     0.060 A 
ATOM     36  C   UNL A   1      37.055  29.747  28.393  1.00  0.00     0.016 A 
ATOM     37  C   UNL A   1      38.360  31.632  29.257  1.00  0.00     0.016 A 
ATOM     38  C   UNL A   1      38.066  28.887  28.792  1.00  0.00     0.010 A 
ATOM     39  C   UNL A   1      39.349  30.763  29.692  1.00  0.00     0.010 A 
ATOM     40  C   UNL A   1      39.184  29.390  29.484  1.00  0.00    -0.014 A 
BRANCH  40  41
ATOM     41  C   UNL A   1      40.318  28.486  29.673  1.00  0.00     0.031 A 
ATOM     42  C   UNL A   1      40.679  28.410  31.114  1.00  0.00     0.074 A 
ATOM     43  C   UNL A   1      40.874  27.686  28.740  1.00  0.00     0.049 A 
ATOM     44  N   UNL A   1      41.797  28.733  31.672  1.00  0.00    -0.248 NA
ATOM     45  C   UNL A   1      39.590  28.119  32.068  1.00  0.00     0.031 C 
ATOM     46  C   UNL A   1      40.404  27.454  27.372  1.00  0.00     0.029 A 
ATOM     47  N   UNL A   1      41.916  26.805  28.856  1.00  0.00    -0.354 N 
ATOM     48  C   UNL A   1      41.606  28.501  33.032  1.00  0.00     0.074 A 
ATOM     49  C   UNL A   1      40.195  28.331  33.233  1.00  0.00     0.031 C 
ATOM     50  C   UNL A   1      40.986  26.336  26.880  1.00  0.00     0.029 A 
ATOM     51  C   UNL A   1      41.965  25.854  27.840  1.00  0.00     0.049 A 
ATOM     52  H   UNL A   1      42.571  26.841  29.591  1.00  0.00     0.167 HD
ATOM     53  C   UNL A   1      42.642  28.146  33.835  1.00  0.00     0.031 A 
ATOM     54  C   UNL A   1      42.707  24.718  27.821  1.00  0.00     0.031 A 
ATOM     55  C   UNL A   1      43.904  28.475  33.235  1.00  0.00     0.049 A 
ATOM     56  C   UNL A   1      43.811  24.871  28.788  1.00  0.00     0.074 A 
ATOM     57  C   UNL A   1      44.632  29.623  33.019  1.00  0.00     0.029 A 
ATOM     58  N   UNL A   1      44.387  27.511  32.390  1.00  0.00    -0.354 N 
ATOM     59  N   UNL A   1      44.786  25.720  28.639  1.00  0.00    -0.248 NA
ATOM     60  C   UNL A   1      43.683  24.287  30.118  1.00  0.00     0.031 C 
ATOM     61  C   UNL A   1      45.440  29.365  31.874  1.00  0.00     0.029 A 
ATOM     62  C   UNL A   1      45.224  28.054  31.452  1.00  0.00     0.049 A 
ATOM     63  H   UNL A   1      44.163  26.555  32.450  1.00  0.00     0.167 HD
ATOM     64  C   UNL A   1      45.100  26.102  29.928  1.00  0.00     0.074 A 
ATOM     65  C   UNL A   1      44.534  25.070  30.787  1.00  0.00     0.031 C 
ATOM     66  C   UNL A   1      45.499  27.376  30.202  1.00  0.00     0.031 A 
BRANCH  53  67
ATOM     67  C   UNL A   1      42.521  27.052  34.874  1.00  0.00    -0.014 A 
ATOM     68  C   UNL A   1      41.845  27.211  36.103  1.00  0.00     0.009 A 
ATOM     69  C   UNL A   1      42.839  25.734  34.506  1.00  0.00     0.009 A 
ATOM     70  C   UNL A   1      41.502  26.128  36.916  1.00  0.00     0.001 A 
ATOM     71  C   UNL A   1      42.465  24.642  35.301  1.00  0.00     0.001 A 
ATOM     72  C   UNL A   1      41.795  24.839  36.504  1.00  0.00     0.000 A 
ENDBRANCH  53  67
BRANCH  54  73
ATOM     73  C   UNL A   1      42.379  23.387  27.256  1.00  0.00    -0.014 A 
ATOM     74  C   UNL A   1      41.336  22.629  27.817  1.00  0.00     0.009 A 
ATOM     75  C   UNL A   1      43.279  22.728  26.400  1.00  0.00     0.009 A 
ATOM     76  C   UNL A   1      41.231  21.253  27.583  1.00  0.00     0.001 A 
ATOM     77  C   UNL A   1      43.174  21.349  26.166  1.00  0.00     0.001 A 
ATOM     78  C   UNL A   1      42.163  20.609  26.774  1.00  0.00     0.000 A 
ENDBRANCH  54  73
BRANCH  66  79
ATOM     79  C   UNL A   1      46.077  28.198  29.082  1.00  0.00    -0.014 A 
ATOM     80  C   UNL A   1      45.178  28.719  28.138  1.00  0.00     0.009 A 
ATOM     81  C   UNL A   1      47.453  28.368  28.860  1.00  0.00     0.009 A 
ATOM     82  C   UNL A   1      45.633  29.361  26.988  1.00  0.00     0.001 A 
ATOM     83  C   UNL A   1      47.910  29.039  27.720  1.00  0.00     0.001 A 
ATOM     84  C   UNL A   1      47.000  29.522  26.779  1.00  0.00     0.000 A 
ENDBRANCH  66  79
ENDBRANCH  40  41
ENDBRANCH  33  35
ENDBRANCH  32  33
ENDBRANCH  31  32
ENDBRANCH  30  31
ENDBRANCH  29  30
ENDBRANCH   1  29
TORSDOF 18
ENDMDL
