MODEL 1
REMARK VINA RESULT:     -10.4      0.000      0.000
REMARK SMILES CCCCOc1ccc(NC(=O)[C@]2(C)CC[C@](C)(C(=O)OCCOCCOC(=O)c3ccc(-c4c5nc(c(-c6ccccc6)c6ccc([nH]6)c(-c6ccccc6)c6nc(c(-c7ccccc7)c7ccc4[nH]7)C=C6)C=C5)cc3)C2(C)C)cc1
REMARK SMILES IDX 22 1 21 2 19 3 20 4 17 5 13 6 15 7 78 8 14 9 16 10 79 11
REMARK SMILES IDX 80 12 18 13 11 14 10 15 12 17 9 18 6 19 7 20 82 21 8 22
REMARK SMILES IDX 81 23 5 24 4 25 3 26 2 27 1 28 23 29 24 30 25 31 26 32 27 33
REMARK SMILES IDX 28 34 29 35 30 36 31 37 77 38 32 39 76 40 33 41 34 42 35 43
REMARK SMILES IDX 70 44 36 45 75 46 69 47 71 48 37 49 74 50 68 51 67 52 38 54
REMARK SMILES IDX 60 55 45 56 59 57 46 58 49 59 58 60 72 61 47 62 48 63 57 65
REMARK SMILES IDX 73 66 50 67 39 68 40 69 44 70 41 71 43 72 42 73 61 74 62 75
REMARK SMILES IDX 66 76 63 77 65 78 64 79 51 80 52 81 56 82 53 83 55 84 54 85
REMARK H PARENT 10 16 71 53 49 64
REMARK Flexibility Score: inf
ROOT
ATOM      1  C   UNL A   1      33.453  29.940  26.606  1.00  0.00     0.261 C 
ENDROOT
BRANCH   1   2
ATOM      2  O   UNL A   1      33.695  29.148  25.421  1.00  0.00    -0.463 OA
BRANCH   2   3
ATOM      3  C   UNL A   1      33.690  27.805  25.615  1.00  0.00     0.312 C 
ATOM      4  O   UNL A   1      34.374  27.257  26.472  1.00  0.00    -0.252 OA
BRANCH   3   5
ATOM      5  C   UNL A   1      32.878  27.023  24.555  1.00  0.00     0.071 C 
ATOM      6  C   UNL A   1      31.996  24.629  24.877  1.00  0.00     0.053 C 
ATOM      7  C   UNL A   1      32.993  24.702  23.731  1.00  0.00     0.018 C 
ATOM      8  C   UNL A   1      31.563  26.187  24.970  1.00  0.00    -0.005 C 
ATOM      9  C   UNL A   1      30.842  23.698  24.400  1.00  0.00     0.022 C 
ATOM     10  C   UNL A   1      33.829  25.930  24.014  1.00  0.00     0.020 C 
ATOM     11  C   UNL A   1      30.403  26.486  23.965  1.00  0.00     0.013 C 
ATOM     12  C   UNL A   1      30.954  26.556  26.330  1.00  0.00     0.013 C 
ATOM     13  C   UNL A   1      32.678  28.052  23.419  1.00  0.00     0.024 C 
BRANCH   6  14
ATOM     14  C   UNL A   1      32.387  23.948  26.244  1.00  0.00     0.230 C 
ATOM     15  N   UNL A   1      33.500  23.268  26.623  1.00  0.00    -0.326 N 
ATOM     16  H   UNL A   1      33.398  22.828  27.497  1.00  0.00     0.169 HD
ATOM     17  O   UNL A   1      31.579  24.062  27.188  1.00  0.00    -0.274 OA
BRANCH  15  18
ATOM     18  C   UNL A   1      34.756  23.055  26.056  1.00  0.00     0.041 A 
ATOM     19  C   UNL A   1      37.310  22.142  25.491  1.00  0.00     0.119 A 
ATOM     20  C   UNL A   1      37.121  23.470  25.866  1.00  0.00     0.048 A 
ATOM     21  C   UNL A   1      36.217  21.318  25.270  1.00  0.00     0.048 A 
ATOM     22  C   UNL A   1      35.826  23.936  26.122  1.00  0.00     0.030 A 
ATOM     23  C   UNL A   1      34.937  21.826  25.433  1.00  0.00     0.030 A 
BRANCH  19  24
ATOM     24  O   UNL A   1      38.542  21.576  25.352  1.00  0.00    -0.494 OA
BRANCH  24  25
ATOM     25  C   UNL A   1      39.429  21.880  26.428  1.00  0.00     0.229 C 
BRANCH  25  26
ATOM     26  C   UNL A   1      40.626  20.923  26.493  1.00  0.00     0.041 C 
BRANCH  26  27
ATOM     27  C   UNL A   1      41.830  21.345  27.346  1.00  0.00     0.000 C 
ATOM     28  C   UNL A   1      41.599  22.541  28.256  1.00  0.00     0.004 C 
ENDBRANCH  26  27
ENDBRANCH  25  26
ENDBRANCH  24  25
ENDBRANCH  19  24
ENDBRANCH  15  18
ENDBRANCH   6  14
ENDBRANCH   3   5
ENDBRANCH   2   3
ENDBRANCH   1   2
BRANCH   1  29
ATOM     29  C   UNL A   1      31.968  30.237  26.798  1.00  0.00     0.202 C 
BRANCH  29  30
ATOM     30  O   UNL A   1      31.353  31.144  25.892  1.00  0.00    -0.374 OA
BRANCH  30  31
ATOM     31  C   UNL A   1      31.326  32.517  26.254  1.00  0.00     0.202 C 
BRANCH  31  32
ATOM     32  C   UNL A   1      31.922  32.923  27.609  1.00  0.00     0.261 C 
BRANCH  32  33
ATOM     33  O   UNL A   1      32.568  34.195  27.555  1.00  0.00    -0.460 OA
BRANCH  33  34
ATOM     34  C   UNL A   1      33.159  34.553  28.719  1.00  0.00     0.338 C 
ATOM     35  O   UNL A   1      32.710  35.267  29.592  1.00  0.00    -0.246 OA
BRANCH  34  36
ATOM     36  C   UNL A   1      34.378  33.745  28.895  1.00  0.00     0.060 A 
ATOM     37  C   UNL A   1      34.197  32.441  29.372  1.00  0.00     0.016 A 
ATOM     38  C   UNL A   1      35.654  34.238  28.610  1.00  0.00     0.016 A 
ATOM     39  C   UNL A   1      35.301  31.650  29.651  1.00  0.00     0.010 A 
ATOM     40  C   UNL A   1      36.763  33.444  28.900  1.00  0.00     0.010 A 
ATOM     41  C   UNL A   1      36.587  32.171  29.473  1.00  0.00    -0.014 A 
BRANCH  41  42
ATOM     42  C   UNL A   1      37.725  31.462  30.093  1.00  0.00     0.031 A 
ATOM     43  C   UNL A   1      38.029  31.732  31.541  1.00  0.00     0.074 A 
ATOM     44  C   UNL A   1      38.420  30.540  29.406  1.00  0.00     0.049 A 
ATOM     45  N   UNL A   1      38.970  31.231  32.297  1.00  0.00    -0.248 NA
ATOM     46  C   UNL A   1      37.152  32.697  32.228  1.00  0.00     0.031 C 
ATOM     47  C   UNL A   1      38.166  30.145  28.021  1.00  0.00     0.029 A 
ATOM     48  N   UNL A   1      39.479  29.761  29.792  1.00  0.00    -0.354 N 
ATOM     49  C   UNL A   1      38.805  31.827  33.542  1.00  0.00     0.074 A 
ATOM     50  C   UNL A   1      37.698  32.749  33.433  1.00  0.00     0.031 C 
ATOM     51  C   UNL A   1      39.049  29.195  27.673  1.00  0.00     0.029 A 
ATOM     52  C   UNL A   1      39.952  28.947  28.795  1.00  0.00     0.049 A 
ATOM     53  H   UNL A   1      39.864  29.784  30.698  1.00  0.00     0.167 HD
ATOM     54  C   UNL A   1      39.510  31.617  34.677  1.00  0.00     0.031 A 
ATOM     55  C   UNL A   1      41.011  28.115  28.786  1.00  0.00     0.031 A 
ATOM     56  C   UNL A   1      40.617  30.705  34.776  1.00  0.00     0.049 A 
ATOM     57  C   UNL A   1      41.839  27.971  30.035  1.00  0.00     0.074 A 
ATOM     58  C   UNL A   1      41.397  30.414  35.880  1.00  0.00     0.029 A 
ATOM     59  N   UNL A   1      41.104  29.942  33.725  1.00  0.00    -0.354 N 
ATOM     60  N   UNL A   1      41.670  28.530  31.209  1.00  0.00    -0.248 NA
ATOM     61  C   UNL A   1      43.000  27.073  29.957  1.00  0.00     0.031 C 
ATOM     62  C   UNL A   1      42.400  29.526  35.481  1.00  0.00     0.029 A 
ATOM     63  C   UNL A   1      42.196  29.203  34.148  1.00  0.00     0.049 A 
ATOM     64  H   UNL A   1      40.729  29.927  32.816  1.00  0.00     0.167 HD
ATOM     65  C   UNL A   1      42.680  28.025  32.019  1.00  0.00     0.074 A 
ATOM     66  C   UNL A   1      43.449  27.107  31.204  1.00  0.00     0.031 C 
ATOM     67  C   UNL A   1      42.944  28.290  33.322  1.00  0.00     0.031 A 
BRANCH  54  68
ATOM     68  C   UNL A   1      39.134  32.426  35.887  1.00  0.00    -0.014 A 
ATOM     69  C   UNL A   1      38.207  31.954  36.830  1.00  0.00     0.009 A 
ATOM     70  C   UNL A   1      39.742  33.673  36.101  1.00  0.00     0.009 A 
ATOM     71  C   UNL A   1      37.872  32.729  37.943  1.00  0.00     0.001 A 
ATOM     72  C   UNL A   1      39.430  34.431  37.231  1.00  0.00     0.001 A 
ATOM     73  C   UNL A   1      38.489  33.963  38.146  1.00  0.00     0.000 A 
ENDBRANCH  54  68
BRANCH  55  74
ATOM     74  C   UNL A   1      41.365  27.374  27.546  1.00  0.00    -0.014 A 
ATOM     75  C   UNL A   1      40.811  26.114  27.277  1.00  0.00     0.009 A 
ATOM     76  C   UNL A   1      42.278  27.922  26.631  1.00  0.00     0.009 A 
ATOM     77  C   UNL A   1      41.187  25.406  26.132  1.00  0.00     0.001 A 
ATOM     78  C   UNL A   1      42.628  27.227  25.472  1.00  0.00     0.001 A 
ATOM     79  C   UNL A   1      42.090  25.964  25.229  1.00  0.00     0.000 A 
ENDBRANCH  55  74
BRANCH  67  80
ATOM     80  C   UNL A   1      44.078  27.540  33.966  1.00  0.00    -0.014 A 
ATOM     81  C   UNL A   1      45.375  28.071  34.020  1.00  0.00     0.009 A 
ATOM     82  C   UNL A   1      43.822  26.302  34.579  1.00  0.00     0.009 A 
ATOM     83  C   UNL A   1      46.402  27.359  34.644  1.00  0.00     0.001 A 
ATOM     84  C   UNL A   1      44.843  25.609  35.231  1.00  0.00     0.001 A 
ATOM     85  C   UNL A   1      46.133  26.133  35.255  1.00  0.00     0.000 A 
ENDBRANCH  67  80
ENDBRANCH  41  42
ENDBRANCH  34  36
ENDBRANCH  33  34
ENDBRANCH  32  33
ENDBRANCH  31  32
ENDBRANCH  30  31
ENDBRANCH  29  30
ENDBRANCH   1  29
TORSDOF 20
ENDMDL
MODEL 2
REMARK VINA RESULT:     -10.3      1.964      5.868
REMARK SMILES CCCCOc1ccc(NC(=O)[C@]2(C)CC[C@](C)(C(=O)OCCOCCOC(=O)c3ccc(-c4c5nc(c(-c6ccccc6)c6ccc([nH]6)c(-c6ccccc6)c6nc(c(-c7ccccc7)c7ccc4[nH]7)C=C6)C=C5)cc3)C2(C)C)cc1
REMARK SMILES IDX 22 1 21 2 19 3 20 4 17 5 13 6 15 7 78 8 14 9 16 10 79 11
REMARK SMILES IDX 80 12 18 13 11 14 10 15 12 17 9 18 6 19 7 20 82 21 8 22
REMARK SMILES IDX 81 23 5 24 4 25 3 26 2 27 1 28 23 29 24 30 25 31 26 32 27 33
REMARK SMILES IDX 28 34 29 35 30 36 31 37 77 38 32 39 76 40 33 41 34 42 35 43
REMARK SMILES IDX 70 44 36 45 75 46 69 47 71 48 37 49 74 50 68 51 67 52 38 54
REMARK SMILES IDX 60 55 45 56 59 57 46 58 49 59 58 60 72 61 47 62 48 63 57 65
REMARK SMILES IDX 73 66 50 67 39 68 40 69 44 70 41 71 43 72 42 73 61 74 62 75
REMARK SMILES IDX 66 76 63 77 65 78 64 79 51 80 52 81 56 82 53 83 55 84 54 85
REMARK H PARENT 10 16 71 53 49 64
REMARK Flexibility Score: inf
ROOT
ATOM      1  C   UNL A   1      33.711  29.955  26.773  1.00  0.00     0.261 C 
ENDROOT
BRANCH   1   2
ATOM      2  O   UNL A   1      33.983  29.044  25.684  1.00  0.00    -0.463 OA
BRANCH   2   3
ATOM      3  C   UNL A   1      33.419  27.817  25.805  1.00  0.00     0.312 C 
ATOM      4  O   UNL A   1      33.281  27.255  26.886  1.00  0.00    -0.252 OA
BRANCH   3   5
ATOM      5  C   UNL A   1      33.122  27.128  24.452  1.00  0.00     0.071 C 
ATOM      6  C   UNL A   1      31.420  25.228  24.131  1.00  0.00     0.053 C 
ATOM      7  C   UNL A   1      32.831  24.768  23.798  1.00  0.00     0.018 C 
ATOM      8  C   UNL A   1      31.607  26.830  23.989  1.00  0.00    -0.005 C 
ATOM      9  C   UNL A   1      30.488  24.617  23.042  1.00  0.00     0.022 C 
ATOM     10  C   UNL A   1      33.741  25.714  24.551  1.00  0.00     0.020 C 
ATOM     11  C   UNL A   1      31.410  27.266  22.500  1.00  0.00     0.013 C 
ATOM     12  C   UNL A   1      30.526  27.625  24.733  1.00  0.00     0.013 C 
ATOM     13  C   UNL A   1      33.979  27.927  23.442  1.00  0.00     0.024 C 
BRANCH   6  14
ATOM     14  C   UNL A   1      30.703  24.740  25.448  1.00  0.00     0.230 C 
ATOM     15  N   UNL A   1      30.961  23.696  26.278  1.00  0.00    -0.326 N 
ATOM     16  H   UNL A   1      30.249  23.553  26.942  1.00  0.00     0.169 HD
ATOM     17  O   UNL A   1      29.747  25.427  25.863  1.00  0.00    -0.274 OA
BRANCH  15  18
ATOM     18  C   UNL A   1      32.006  22.782  26.404  1.00  0.00     0.041 A 
ATOM     19  C   UNL A   1      34.486  21.546  26.410  1.00  0.00     0.119 A 
ATOM     20  C   UNL A   1      33.493  21.093  25.543  1.00  0.00     0.048 A 
ATOM     21  C   UNL A   1      34.194  22.516  27.357  1.00  0.00     0.048 A 
ATOM     22  C   UNL A   1      32.232  21.701  25.564  1.00  0.00     0.030 A 
ATOM     23  C   UNL A   1      32.912  23.036  27.427  1.00  0.00     0.030 A 
BRANCH  19  24
ATOM     24  O   UNL A   1      35.772  21.100  26.364  1.00  0.00    -0.494 OA
BRANCH  24  25
ATOM     25  C   UNL A   1      36.248  20.882  25.036  1.00  0.00     0.229 C 
BRANCH  25  26
ATOM     26  C   UNL A   1      37.277  21.932  24.599  1.00  0.00     0.041 C 
BRANCH  26  27
ATOM     27  C   UNL A   1      36.747  23.247  24.011  1.00  0.00     0.000 C 
ATOM     28  C   UNL A   1      35.827  23.101  22.808  1.00  0.00     0.004 C 
ENDBRANCH  26  27
ENDBRANCH  25  26
ENDBRANCH  24  25
ENDBRANCH  19  24
ENDBRANCH  15  18
ENDBRANCH   6  14
ENDBRANCH   3   5
ENDBRANCH   2   3
ENDBRANCH   1   2
BRANCH   1  29
ATOM     29  C   UNL A   1      32.215  30.200  26.950  1.00  0.00     0.202 C 
BRANCH  29  30
ATOM     30  O   UNL A   1      31.559  31.015  25.987  1.00  0.00    -0.374 OA
BRANCH  30  31
ATOM     31  C   UNL A   1      31.297  32.365  26.339  1.00  0.00     0.202 C 
BRANCH  31  32
ATOM     32  C   UNL A   1      31.824  32.880  27.685  1.00  0.00     0.261 C 
BRANCH  32  33
ATOM     33  O   UNL A   1      32.529  34.115  27.552  1.00  0.00    -0.460 OA
BRANCH  33  34
ATOM     34  C   UNL A   1      33.142  34.515  28.691  1.00  0.00     0.338 C 
ATOM     35  O   UNL A   1      32.703  35.247  29.554  1.00  0.00    -0.246 OA
BRANCH  34  36
ATOM     36  C   UNL A   1      34.377  33.729  28.861  1.00  0.00     0.060 A 
ATOM     37  C   UNL A   1      34.430  32.887  29.978  1.00  0.00     0.016 A 
ATOM     38  C   UNL A   1      35.449  33.811  27.969  1.00  0.00     0.016 A 
ATOM     39  C   UNL A   1      35.592  32.185  30.259  1.00  0.00     0.010 A 
ATOM     40  C   UNL A   1      36.620  33.112  28.257  1.00  0.00     0.010 A 
ATOM     41  C   UNL A   1      36.710  32.343  29.432  1.00  0.00    -0.014 A 
BRANCH  41  42
ATOM     42  C   UNL A   1      38.022  31.877  29.927  1.00  0.00     0.031 A 
ATOM     43  C   UNL A   1      38.546  30.561  29.421  1.00  0.00     0.074 A 
ATOM     44  C   UNL A   1      38.764  32.644  30.742  1.00  0.00     0.049 A 
ATOM     45  N   UNL A   1      39.666  29.951  29.708  1.00  0.00    -0.248 NA
ATOM     46  C   UNL A   1      37.693  29.838  28.462  1.00  0.00     0.031 C 
ATOM     47  C   UNL A   1      38.386  33.968  31.237  1.00  0.00     0.029 A 
ATOM     48  N   UNL A   1      39.999  32.417  31.290  1.00  0.00    -0.354 N 
ATOM     49  C   UNL A   1      39.645  28.770  28.975  1.00  0.00     0.074 A 
ATOM     50  C   UNL A   1      38.392  28.733  28.257  1.00  0.00     0.031 C 
ATOM     51  C   UNL A   1      39.374  34.436  32.018  1.00  0.00     0.029 A 
ATOM     52  C   UNL A   1      40.429  33.429  32.109  1.00  0.00     0.049 A 
ATOM     53  H   UNL A   1      40.527  31.605  31.112  1.00  0.00     0.167 HD
ATOM     54  C   UNL A   1      40.592  27.806  28.902  1.00  0.00     0.031 A 
ATOM     55  C   UNL A   1      41.540  33.518  32.866  1.00  0.00     0.031 A 
ATOM     56  C   UNL A   1      41.832  27.845  29.628  1.00  0.00     0.049 A 
ATOM     57  C   UNL A   1      42.534  32.387  32.841  1.00  0.00     0.074 A 
ATOM     58  C   UNL A   1      42.863  26.923  29.622  1.00  0.00     0.029 A 
ATOM     59  N   UNL A   1      42.205  28.862  30.495  1.00  0.00    -0.354 N 
ATOM     60  N   UNL A   1      42.511  31.280  32.138  1.00  0.00    -0.248 NA
ATOM     61  C   UNL A   1      43.711  32.525  33.710  1.00  0.00     0.031 C 
ATOM     62  C   UNL A   1      43.830  27.347  30.538  1.00  0.00     0.029 A 
ATOM     63  C   UNL A   1      43.437  28.572  31.055  1.00  0.00     0.049 A 
ATOM     64  H   UNL A   1      41.674  29.667  30.683  1.00  0.00     0.167 HD
ATOM     65  C   UNL A   1      43.686  30.608  32.452  1.00  0.00     0.074 A 
ATOM     66  C   UNL A   1      44.402  31.436  33.399  1.00  0.00     0.031 C 
ATOM     67  C   UNL A   1      44.137  29.414  31.992  1.00  0.00     0.031 A 
BRANCH  54  68
ATOM     68  C   UNL A   1      40.297  26.607  28.045  1.00  0.00    -0.014 A 
ATOM     69  C   UNL A   1      40.774  26.507  26.728  1.00  0.00     0.009 A 
ATOM     70  C   UNL A   1      39.551  25.544  28.578  1.00  0.00     0.009 A 
ATOM     71  C   UNL A   1      40.480  25.383  25.953  1.00  0.00     0.001 A 
ATOM     72  C   UNL A   1      39.286  24.407  27.812  1.00  0.00     0.001 A 
ATOM     73  C   UNL A   1      39.743  24.332  26.498  1.00  0.00     0.000 A 
ENDBRANCH  54  68
BRANCH  55  74
ATOM     74  C   UNL A   1      41.758  34.707  33.730  1.00  0.00    -0.014 A 
ATOM     75  C   UNL A   1      42.539  35.785  33.289  1.00  0.00     0.009 A 
ATOM     76  C   UNL A   1      41.198  34.760  35.016  1.00  0.00     0.009 A 
ATOM     77  C   UNL A   1      42.777  36.877  34.128  1.00  0.00     0.001 A 
ATOM     78  C   UNL A   1      41.410  35.866  35.841  1.00  0.00     0.001 A 
ATOM     79  C   UNL A   1      42.209  36.919  35.400  1.00  0.00     0.000 A 
ENDBRANCH  55  74
BRANCH  67  80
ATOM     80  C   UNL A   1      45.490  28.956  32.463  1.00  0.00    -0.014 A 
ATOM     81  C   UNL A   1      46.673  29.474  31.916  1.00  0.00     0.009 A 
ATOM     82  C   UNL A   1      45.574  28.028  33.514  1.00  0.00     0.009 A 
ATOM     83  C   UNL A   1      47.915  29.043  32.389  1.00  0.00     0.001 A 
ATOM     84  C   UNL A   1      46.816  27.626  34.008  1.00  0.00     0.001 A 
ATOM     85  C   UNL A   1      47.985  28.126  33.438  1.00  0.00     0.000 A 
ENDBRANCH  67  80
ENDBRANCH  41  42
ENDBRANCH  34  36
ENDBRANCH  33  34
ENDBRANCH  32  33
ENDBRANCH  31  32
ENDBRANCH  30  31
ENDBRANCH  29  30
ENDBRANCH   1  29
TORSDOF 20
ENDMDL
MODEL 3
REMARK VINA RESULT:     -10.0      2.112      8.892
REMARK SMILES CCCCOc1ccc(NC(=O)[C@]2(C)CC[C@](C)(C(=O)OCCOCCOC(=O)c3ccc(-c4c5nc(c(-c6ccccc6)c6ccc([nH]6)c(-c6ccccc6)c6nc(c(-c7ccccc7)c7ccc4[nH]7)C=C6)C=C5)cc3)C2(C)C)cc1
REMARK SMILES IDX 22 1 21 2 19 3 20 4 17 5 13 6 15 7 78 8 14 9 16 10 79 11
REMARK SMILES IDX 80 12 18 13 11 14 10 15 12 17 9 18 6 19 7 20 82 21 8 22
REMARK SMILES IDX 81 23 5 24 4 25 3 26 2 27 1 28 23 29 24 30 25 31 26 32 27 33
REMARK SMILES IDX 28 34 29 35 30 36 31 37 77 38 32 39 76 40 33 41 34 42 35 43
REMARK SMILES IDX 70 44 36 45 75 46 69 47 71 48 37 49 74 50 68 51 67 52 38 54
REMARK SMILES IDX 60 55 45 56 59 57 46 58 49 59 58 60 72 61 47 62 48 63 57 65
REMARK SMILES IDX 73 66 50 67 39 68 40 69 44 70 41 71 43 72 42 73 61 74 62 75
REMARK SMILES IDX 66 76 63 77 65 78 64 79 51 80 52 81 56 82 53 83 55 84 54 85
REMARK H PARENT 10 16 71 53 49 64
REMARK Flexibility Score: inf
ROOT
ATOM      1  C   UNL A   1      37.941  21.902  25.687  1.00  0.00     0.261 C 
ENDROOT
BRANCH   1   2
ATOM      2  O   UNL A   1      36.530  21.845  25.998  1.00  0.00    -0.463 OA
BRANCH   2   3
ATOM      3  C   UNL A   1      35.834  22.975  25.719  1.00  0.00     0.312 C 
ATOM      4  O   UNL A   1      36.379  24.033  25.423  1.00  0.00    -0.252 OA
BRANCH   3   5
ATOM      5  C   UNL A   1      34.312  22.852  25.972  1.00  0.00     0.071 C 
ATOM      6  C   UNL A   1      32.501  23.889  24.471  1.00  0.00     0.053 C 
ATOM      7  C   UNL A   1      32.458  24.474  25.875  1.00  0.00     0.018 C 
ATOM      8  C   UNL A   1      33.297  22.510  24.767  1.00  0.00    -0.005 C 
ATOM      9  C   UNL A   1      31.020  23.664  24.041  1.00  0.00     0.022 C 
ATOM     10  C   UNL A   1      33.844  24.251  26.436  1.00  0.00     0.020 C 
ATOM     11  C   UNL A   1      32.297  21.394  25.214  1.00  0.00     0.013 C 
ATOM     12  C   UNL A   1      33.948  21.916  23.511  1.00  0.00     0.013 C 
ATOM     13  C   UNL A   1      34.224  21.915  27.200  1.00  0.00     0.024 C 
BRANCH   6  14
ATOM     14  C   UNL A   1      33.040  24.740  23.259  1.00  0.00     0.230 C 
ATOM     15  N   UNL A   1      32.677  25.961  22.786  1.00  0.00    -0.326 N 
ATOM     16  H   UNL A   1      33.093  26.172  21.920  1.00  0.00     0.169 HD
ATOM     17  O   UNL A   1      33.999  24.269  22.614  1.00  0.00    -0.274 OA
BRANCH  15  18
ATOM     18  C   UNL A   1      31.850  26.983  23.250  1.00  0.00     0.041 A 
ATOM     19  C   UNL A   1      30.322  29.283  23.485  1.00  0.00     0.119 A 
ATOM     20  C   UNL A   1      31.460  29.129  24.273  1.00  0.00     0.048 A 
ATOM     21  C   UNL A   1      29.880  28.237  22.689  1.00  0.00     0.048 A 
ATOM     22  C   UNL A   1      32.213  27.952  24.173  1.00  0.00     0.030 A 
ATOM     23  C   UNL A   1      30.584  27.043  22.678  1.00  0.00     0.030 A 
BRANCH  19  24
ATOM     24  O   UNL A   1      29.611  30.443  23.424  1.00  0.00    -0.494 OA
BRANCH  24  25
ATOM     25  C   UNL A   1      28.198  30.242  23.453  1.00  0.00     0.229 C 
BRANCH  25  26
ATOM     26  C   UNL A   1      27.466  31.047  22.371  1.00  0.00     0.041 C 
BRANCH  26  27
ATOM     27  C   UNL A   1      28.155  31.197  21.007  1.00  0.00     0.000 C 
ATOM     28  C   UNL A   1      27.961  32.540  20.322  1.00  0.00     0.004 C 
ENDBRANCH  26  27
ENDBRANCH  25  26
ENDBRANCH  24  25
ENDBRANCH  19  24
ENDBRANCH  15  18
ENDBRANCH   6  14
ENDBRANCH   3   5
ENDBRANCH   2   3
ENDBRANCH   1   2
BRANCH   1  29
ATOM     29  C   UNL A   1      38.495  20.533  25.301  1.00  0.00     0.202 C 
BRANCH  29  30
ATOM     30  O   UNL A   1      39.695  20.103  25.931  1.00  0.00    -0.374 OA
BRANCH  30  31
ATOM     31  C   UNL A   1      40.500  21.092  26.555  1.00  0.00     0.202 C 
BRANCH  31  32
ATOM     32  C   UNL A   1      41.953  21.247  26.087  1.00  0.00     0.261 C 
BRANCH  32  33
ATOM     33  O   UNL A   1      42.615  22.336  26.732  1.00  0.00    -0.460 OA
BRANCH  33  34
ATOM     34  C   UNL A   1      42.702  23.449  25.965  1.00  0.00     0.338 C 
ATOM     35  O   UNL A   1      43.027  23.524  24.798  1.00  0.00    -0.246 OA
BRANCH  34  36
ATOM     36  C   UNL A   1      42.106  24.576  26.703  1.00  0.00     0.060 A 
ATOM     37  C   UNL A   1      42.691  25.832  26.499  1.00  0.00     0.016 A 
ATOM     38  C   UNL A   1      41.019  24.419  27.567  1.00  0.00     0.016 A 
ATOM     39  C   UNL A   1      42.248  26.926  27.227  1.00  0.00     0.010 A 
ATOM     40  C   UNL A   1      40.580  25.518  28.305  1.00  0.00     0.010 A 
ATOM     41  C   UNL A   1      41.232  26.758  28.175  1.00  0.00    -0.014 A 
BRANCH  41  42
ATOM     42  C   UNL A   1      41.016  27.828  29.170  1.00  0.00     0.031 A 
ATOM     43  C   UNL A   1      41.983  27.939  30.317  1.00  0.00     0.074 A 
ATOM     44  C   UNL A   1      40.031  28.727  29.013  1.00  0.00     0.049 A 
ATOM     45  N   UNL A   1      41.999  28.794  31.307  1.00  0.00    -0.248 NA
ATOM     46  C   UNL A   1      43.080  26.957  30.350  1.00  0.00     0.031 C 
ATOM     47  C   UNL A   1      39.080  28.758  27.902  1.00  0.00     0.029 A 
ATOM     48  N   UNL A   1      39.676  29.797  29.793  1.00  0.00    -0.354 N 
ATOM     49  C   UNL A   1      43.098  28.444  32.083  1.00  0.00     0.074 A 
ATOM     50  C   UNL A   1      43.703  27.283  31.471  1.00  0.00     0.031 C 
ATOM     51  C   UNL A   1      38.247  29.798  28.073  1.00  0.00     0.029 A 
ATOM     52  C   UNL A   1      38.582  30.477  29.323  1.00  0.00     0.049 A 
ATOM     53  H   UNL A   1      40.160  30.052  30.612  1.00  0.00     0.167 HD
ATOM     54  C   UNL A   1      43.563  29.042  33.203  1.00  0.00     0.031 A 
ATOM     55  C   UNL A   1      37.913  31.516  29.859  1.00  0.00     0.031 A 
ATOM     56  C   UNL A   1      42.949  30.191  33.812  1.00  0.00     0.049 A 
ATOM     57  C   UNL A   1      38.395  32.105  31.158  1.00  0.00     0.074 A 
ATOM     58  C   UNL A   1      43.343  30.878  34.946  1.00  0.00     0.029 A 
ATOM     59  N   UNL A   1      41.805  30.816  33.338  1.00  0.00    -0.354 N 
ATOM     60  N   UNL A   1      39.439  31.775  31.880  1.00  0.00    -0.248 NA
ATOM     61  C   UNL A   1      37.608  33.216  31.712  1.00  0.00     0.031 C 
ATOM     62  C   UNL A   1      42.398  31.877  35.197  1.00  0.00     0.029 A 
ATOM     63  C   UNL A   1      41.460  31.862  34.176  1.00  0.00     0.049 A 
ATOM     64  H   UNL A   1      41.313  30.554  32.528  1.00  0.00     0.167 HD
ATOM     65  C   UNL A   1      39.456  32.660  32.951  1.00  0.00     0.074 A 
ATOM     66  C   UNL A   1      38.324  33.546  32.778  1.00  0.00     0.031 C 
ATOM     67  C   UNL A   1      40.332  32.737  33.983  1.00  0.00     0.031 A 
BRANCH  54  68
ATOM     68  C   UNL A   1      44.767  28.433  33.866  1.00  0.00    -0.014 A 
ATOM     69  C   UNL A   1      46.046  28.998  33.735  1.00  0.00     0.009 A 
ATOM     70  C   UNL A   1      44.611  27.287  34.662  1.00  0.00     0.009 A 
ATOM     71  C   UNL A   1      47.148  28.408  34.358  1.00  0.00     0.001 A 
ATOM     72  C   UNL A   1      45.708  26.718  35.311  1.00  0.00     0.001 A 
ATOM     73  C   UNL A   1      46.976  27.273  35.151  1.00  0.00     0.000 A 
ENDBRANCH  54  68
BRANCH  55  74
ATOM     74  C   UNL A   1      36.701  32.050  29.183  1.00  0.00    -0.014 A 
ATOM     75  C   UNL A   1      36.729  33.288  28.525  1.00  0.00     0.009 A 
ATOM     76  C   UNL A   1      35.499  31.324  29.210  1.00  0.00     0.009 A 
ATOM     77  C   UNL A   1      35.571  33.801  27.935  1.00  0.00     0.001 A 
ATOM     78  C   UNL A   1      34.352  31.824  28.591  1.00  0.00     0.001 A 
ATOM     79  C   UNL A   1      34.386  33.068  27.963  1.00  0.00     0.000 A 
ENDBRANCH  55  74
BRANCH  67  80
ATOM     80  C   UNL A   1      40.138  33.850  34.976  1.00  0.00    -0.014 A 
ATOM     81  C   UNL A   1      39.421  33.657  36.166  1.00  0.00     0.009 A 
ATOM     82  C   UNL A   1      40.734  35.099  34.735  1.00  0.00     0.009 A 
ATOM     83  C   UNL A   1      39.276  34.705  37.079  1.00  0.00     0.001 A 
ATOM     84  C   UNL A   1      40.616  36.133  35.664  1.00  0.00     0.001 A 
ATOM     85  C   UNL A   1      39.878  35.938  36.830  1.00  0.00     0.000 A 
ENDBRANCH  67  80
ENDBRANCH  41  42
ENDBRANCH  34  36
ENDBRANCH  33  34
ENDBRANCH  32  33
ENDBRANCH  31  32
ENDBRANCH  30  31
ENDBRANCH  29  30
ENDBRANCH   1  29
TORSDOF 20
ENDMDL
