MODEL 1
REMARK VINA RESULT:     -10.5      0.000      0.000
REMARK SMILES O=C(OCCOCCOC(=O)c1ccn(Cc2c(Cl)cccc2Cl)c1)c1ccc(-c2c3nc(c(-c4ccccc4)c4ccc([nH]4)c(-c4ccccc4)c4nc(c(-c5ccccc5)c5ccc2[nH]5)C=C4)C=C3)cc1
REMARK SMILES IDX 6 1 5 2 4 3 3 4 2 5 1 6 26 7 27 8 73 9 28 10 72 11 29 12
REMARK SMILES IDX 30 13 31 14 66 15 32 16 71 17 65 18 67 19 33 20 70 21 64 22
REMARK SMILES IDX 63 23 34 25 56 26 41 27 55 28 42 29 45 30 54 31 68 32 43 33
REMARK SMILES IDX 44 34 53 36 69 37 46 38 35 39 36 40 40 41 37 42 39 43 38 44
REMARK SMILES IDX 57 45 58 46 62 47 59 48 61 49 60 50 47 51 48 52 52 53 49 54
REMARK SMILES IDX 51 55 50 56 7 57 8 58 9 59 10 60 11 61 12 62 13 63 25 64
REMARK SMILES IDX 14 65 15 66 16 67 17 68 18 69 23 70 19 71 20 72 22 73 24 74
REMARK SMILES IDX 21 75
REMARK H PARENT 67 24 45 35
REMARK Flexibility Score: inf
ROOT
ATOM      1  O   UNL A   1      34.182  31.362  27.991  1.00  0.00    -0.374 OA
ENDROOT
BRANCH   1   2
ATOM      2  C   UNL A   1      34.914  32.503  28.446  1.00  0.00     0.202 C 
BRANCH   2   3
ATOM      3  C   UNL A   1      35.372  32.467  29.901  1.00  0.00     0.261 C 
BRANCH   3   4
ATOM      4  O   UNL A   1      36.636  31.778  30.004  1.00  0.00    -0.460 OA
BRANCH   4   5
ATOM      5  C   UNL A   1      36.784  30.562  30.589  1.00  0.00     0.338 C 
ATOM      6  O   UNL A   1      35.993  30.138  31.422  1.00  0.00    -0.246 OA
BRANCH   5   7
ATOM      7  C   UNL A   1      37.751  29.649  29.962  1.00  0.00     0.060 A 
ATOM      8  C   UNL A   1      38.486  28.704  30.683  1.00  0.00     0.016 A 
ATOM      9  C   UNL A   1      37.951  29.809  28.587  1.00  0.00     0.016 A 
ATOM     10  C   UNL A   1      39.574  28.095  30.098  1.00  0.00     0.010 A 
ATOM     11  C   UNL A   1      38.979  29.122  27.966  1.00  0.00     0.010 A 
ATOM     12  C   UNL A   1      39.816  28.310  28.741  1.00  0.00    -0.014 A 
BRANCH  12  13
ATOM     13  C   UNL A   1      40.846  27.481  28.108  1.00  0.00     0.031 A 
ATOM     14  C   UNL A   1      42.154  28.248  27.919  1.00  0.00     0.074 A 
ATOM     15  C   UNL A   1      40.481  26.206  27.790  1.00  0.00     0.049 A 
ATOM     16  N   UNL A   1      43.191  27.947  27.203  1.00  0.00    -0.248 NA
ATOM     17  C   UNL A   1      42.324  29.569  28.593  1.00  0.00     0.031 C 
ATOM     18  C   UNL A   1      39.126  25.646  27.983  1.00  0.00     0.029 A 
ATOM     19  N   UNL A   1      41.153  25.136  27.246  1.00  0.00    -0.354 N 
ATOM     20  C   UNL A   1      44.179  28.909  27.484  1.00  0.00     0.074 A 
ATOM     21  C   UNL A   1      43.550  29.948  28.239  1.00  0.00     0.031 C 
ATOM     22  C   UNL A   1      39.063  24.378  27.529  1.00  0.00     0.029 A 
ATOM     23  C   UNL A   1      40.368  23.979  27.037  1.00  0.00     0.049 A 
ATOM     24  H   UNL A   1      42.110  25.173  27.020  1.00  0.00     0.167 HD
ATOM     25  C   UNL A   1      45.502  28.724  27.223  1.00  0.00     0.031 A 
ATOM     26  C   UNL A   1      40.736  22.779  26.502  1.00  0.00     0.031 A 
ATOM     27  C   UNL A   1      45.723  27.512  26.513  1.00  0.00     0.049 A 
ATOM     28  C   UNL A   1      42.203  22.798  26.394  1.00  0.00     0.074 A 
ATOM     29  C   UNL A   1      45.456  27.126  25.226  1.00  0.00     0.029 A 
ATOM     30  N   UNL A   1      45.970  26.391  27.270  1.00  0.00    -0.354 N 
ATOM     31  N   UNL A   1      43.016  22.758  27.406  1.00  0.00    -0.248 NA
ATOM     32  C   UNL A   1      42.832  22.911  25.074  1.00  0.00     0.031 C 
ATOM     33  C   UNL A   1      45.105  25.764  25.345  1.00  0.00     0.029 A 
ATOM     34  C   UNL A   1      45.307  25.349  26.666  1.00  0.00     0.049 A 
ATOM     35  H   UNL A   1      46.517  26.342  28.087  1.00  0.00     0.167 HD
ATOM     36  C   UNL A   1      44.180  23.253  26.873  1.00  0.00     0.074 A 
ATOM     37  C   UNL A   1      44.106  23.018  25.447  1.00  0.00     0.031 C 
ATOM     38  C   UNL A   1      44.821  24.272  27.504  1.00  0.00     0.031 A 
BRANCH  25  39
ATOM     39  C   UNL A   1      46.687  29.450  27.781  1.00  0.00    -0.014 A 
ATOM     40  C   UNL A   1      46.821  29.502  29.186  1.00  0.00     0.009 A 
ATOM     41  C   UNL A   1      47.481  30.319  27.022  1.00  0.00     0.009 A 
ATOM     42  C   UNL A   1      47.648  30.439  29.807  1.00  0.00     0.001 A 
ATOM     43  C   UNL A   1      48.337  31.236  27.644  1.00  0.00     0.001 A 
ATOM     44  C   UNL A   1      48.397  31.317  29.033  1.00  0.00     0.000 A 
ENDBRANCH  25  39
BRANCH  26  45
ATOM     45  C   UNL A   1      40.050  21.533  26.015  1.00  0.00    -0.014 A 
ATOM     46  C   UNL A   1      40.534  20.230  26.157  1.00  0.00     0.009 A 
ATOM     47  C   UNL A   1      38.744  21.649  25.469  1.00  0.00     0.009 A 
ATOM     48  C   UNL A   1      39.729  19.115  25.845  1.00  0.00     0.001 A 
ATOM     49  C   UNL A   1      37.925  20.549  25.204  1.00  0.00     0.001 A 
ATOM     50  C   UNL A   1      38.417  19.273  25.404  1.00  0.00     0.000 A 
ENDBRANCH  26  45
BRANCH  38  51
ATOM     51  C   UNL A   1      44.524  24.394  28.996  1.00  0.00    -0.014 A 
ATOM     52  C   UNL A   1      44.375  25.652  29.599  1.00  0.00     0.009 A 
ATOM     53  C   UNL A   1      44.499  23.279  29.850  1.00  0.00     0.009 A 
ATOM     54  C   UNL A   1      44.236  25.785  30.989  1.00  0.00     0.001 A 
ATOM     55  C   UNL A   1      44.357  23.402  31.239  1.00  0.00     0.001 A 
ATOM     56  C   UNL A   1      44.232  24.661  31.810  1.00  0.00     0.000 A 
ENDBRANCH  38  51
ENDBRANCH  12  13
ENDBRANCH   5   7
ENDBRANCH   4   5
ENDBRANCH   3   4
ENDBRANCH   2   3
ENDBRANCH   1   2
BRANCH   1  57
ATOM     57  C   UNL A   1      32.961  31.660  27.293  1.00  0.00     0.202 C 
BRANCH  57  58
ATOM     58  C   UNL A   1      32.143  30.438  26.846  1.00  0.00     0.261 C 
BRANCH  58  59
ATOM     59  O   UNL A   1      32.823  29.210  27.164  1.00  0.00    -0.460 OA
BRANCH  59  60
ATOM     60  C   UNL A   1      32.037  28.086  27.177  1.00  0.00     0.339 C 
ATOM     61  O   UNL A   1      31.199  27.835  28.015  1.00  0.00    -0.246 OA
BRANCH  60  62
ATOM     62  C   UNL A   1      32.171  27.341  25.921  1.00  0.00     0.077 A 
ATOM     63  C   UNL A   1      31.440  27.475  24.713  1.00  0.00     0.035 A 
ATOM     64  C   UNL A   1      33.016  26.255  25.742  1.00  0.00     0.101 A 
ATOM     65  C   UNL A   1      31.875  26.496  23.846  1.00  0.00     0.087 A 
ATOM     66  N   UNL A   1      32.832  25.745  24.477  1.00  0.00    -0.349 N 
BRANCH  66  67
ATOM     67  C   UNL A   1      33.671  24.690  23.892  1.00  0.00     0.160 C 
BRANCH  67  68
ATOM     68  C   UNL A   1      33.601  23.348  24.587  1.00  0.00     0.009 A 
ATOM     69  C   UNL A   1      32.547  22.445  24.333  1.00  0.00     0.047 A 
ATOM     70  C   UNL A   1      34.603  22.922  25.482  1.00  0.00     0.047 A 
ATOM     71  Cl  UNL A   1      31.321  22.758  23.149  1.00  0.00    -0.084 Cl
ATOM     72  C   UNL A   1      32.467  21.210  24.989  1.00  0.00     0.021 A 
ATOM     73  C   UNL A   1      34.543  21.664  26.102  1.00  0.00     0.021 A 
ATOM     74  Cl  UNL A   1      35.990  23.893  25.846  1.00  0.00    -0.084 Cl
ATOM     75  C   UNL A   1      33.466  20.816  25.871  1.00  0.00     0.003 A 
ENDBRANCH  67  68
ENDBRANCH  66  67
ENDBRANCH  60  62
ENDBRANCH  59  60
ENDBRANCH  58  59
ENDBRANCH  57  58
ENDBRANCH   1  57
TORSDOF 16
ENDMDL
MODEL 2
REMARK VINA RESULT:     -10.3      1.739      2.432
REMARK SMILES O=C(OCCOCCOC(=O)c1ccn(Cc2c(Cl)cccc2Cl)c1)c1ccc(-c2c3nc(c(-c4ccccc4)c4ccc([nH]4)c(-c4ccccc4)c4nc(c(-c5ccccc5)c5ccc2[nH]5)C=C4)C=C3)cc1
REMARK SMILES IDX 6 1 5 2 4 3 3 4 2 5 1 6 26 7 27 8 73 9 28 10 72 11 29 12
REMARK SMILES IDX 30 13 31 14 66 15 32 16 71 17 65 18 67 19 33 20 70 21 64 22
REMARK SMILES IDX 63 23 34 25 56 26 41 27 55 28 42 29 45 30 54 31 68 32 43 33
REMARK SMILES IDX 44 34 53 36 69 37 46 38 35 39 36 40 40 41 37 42 39 43 38 44
REMARK SMILES IDX 57 45 58 46 62 47 59 48 61 49 60 50 47 51 48 52 52 53 49 54
REMARK SMILES IDX 51 55 50 56 7 57 8 58 9 59 10 60 11 61 12 62 13 63 25 64
REMARK SMILES IDX 14 65 15 66 16 67 17 68 18 69 23 70 19 71 20 72 22 73 24 74
REMARK SMILES IDX 21 75
REMARK H PARENT 67 24 45 35
REMARK Flexibility Score: inf
ROOT
ATOM      1  O   UNL A   1      33.250  31.106  27.397  1.00  0.00    -0.374 OA
ENDROOT
BRANCH   1   2
ATOM      2  C   UNL A   1      34.570  30.572  27.260  1.00  0.00     0.202 C 
BRANCH   2   3
ATOM      3  C   UNL A   1      35.043  29.659  28.387  1.00  0.00     0.261 C 
BRANCH   3   4
ATOM      4  O   UNL A   1      36.286  30.150  28.931  1.00  0.00    -0.460 OA
BRANCH   4   5
ATOM      5  C   UNL A   1      37.057  29.447  29.798  1.00  0.00     0.338 C 
ATOM      6  O   UNL A   1      36.664  29.134  30.915  1.00  0.00    -0.246 OA
BRANCH   5   7
ATOM      7  C   UNL A   1      38.259  28.812  29.237  1.00  0.00     0.060 A 
ATOM      8  C   UNL A   1      39.115  28.001  29.987  1.00  0.00     0.016 A 
ATOM      9  C   UNL A   1      38.548  29.108  27.900  1.00  0.00     0.016 A 
ATOM     10  C   UNL A   1      40.362  27.685  29.495  1.00  0.00     0.010 A 
ATOM     11  C   UNL A   1      39.756  28.705  27.362  1.00  0.00     0.010 A 
ATOM     12  C   UNL A   1      40.676  28.042  28.184  1.00  0.00    -0.014 A 
BRANCH  12  13
ATOM     13  C   UNL A   1      41.921  27.503  27.627  1.00  0.00     0.031 A 
ATOM     14  C   UNL A   1      42.951  28.602  27.373  1.00  0.00     0.074 A 
ATOM     15  C   UNL A   1      41.954  26.156  27.421  1.00  0.00     0.049 A 
ATOM     16  N   UNL A   1      44.050  28.561  26.688  1.00  0.00    -0.248 NA
ATOM     17  C   UNL A   1      42.708  29.966  27.929  1.00  0.00     0.031 C 
ATOM     18  C   UNL A   1      40.818  25.240  27.661  1.00  0.00     0.029 A 
ATOM     19  N   UNL A   1      42.925  25.288  26.974  1.00  0.00    -0.354 N 
ATOM     20  C   UNL A   1      44.705  29.791  26.885  1.00  0.00     0.074 A 
ATOM     21  C   UNL A   1      43.780  30.658  27.545  1.00  0.00     0.031 C 
ATOM     22  C   UNL A   1      41.142  23.976  27.320  1.00  0.00     0.029 A 
ATOM     23  C   UNL A   1      42.519  23.939  26.866  1.00  0.00     0.049 A 
ATOM     24  H   UNL A   1      43.834  25.587  26.747  1.00  0.00     0.167 HD
ATOM     25  C   UNL A   1      46.031  29.982  26.642  1.00  0.00     0.031 A 
ATOM     26  C   UNL A   1      43.236  22.860  26.438  1.00  0.00     0.031 A 
ATOM     27  C   UNL A   1      46.616  28.834  26.042  1.00  0.00     0.049 A 
ATOM     28  C   UNL A   1      44.636  23.301  26.331  1.00  0.00     0.074 A 
ATOM     29  C   UNL A   1      46.509  28.281  24.793  1.00  0.00     0.029 A 
ATOM     30  N   UNL A   1      47.160  27.902  26.894  1.00  0.00    -0.354 N 
ATOM     31  N   UNL A   1      45.397  23.586  27.344  1.00  0.00    -0.248 NA
ATOM     32  C   UNL A   1      45.239  23.484  25.007  1.00  0.00     0.031 C 
ATOM     33  C   UNL A   1      46.569  26.890  25.031  1.00  0.00     0.029 A 
ATOM     34  C   UNL A   1      46.848  26.665  26.383  1.00  0.00     0.049 A 
ATOM     35  H   UNL A   1      47.675  28.085  27.713  1.00  0.00     0.167 HD
ATOM     36  C   UNL A   1      46.379  24.355  26.771  1.00  0.00     0.074 A 
ATOM     37  C   UNL A   1      46.416  23.990  25.371  1.00  0.00     0.031 C 
ATOM     38  C   UNL A   1      46.677  25.567  27.311  1.00  0.00     0.031 A 
BRANCH  25  39
ATOM     39  C   UNL A   1      46.935  31.068  27.137  1.00  0.00    -0.014 A 
ATOM     40  C   UNL A   1      47.623  30.848  28.350  1.00  0.00     0.009 A 
ATOM     41  C   UNL A   1      46.904  32.378  26.640  1.00  0.00     0.009 A 
ATOM     42  C   UNL A   1      48.179  31.900  29.078  1.00  0.00     0.001 A 
ATOM     43  C   UNL A   1      47.492  33.430  27.352  1.00  0.00     0.001 A 
ATOM     44  C   UNL A   1      48.101  33.196  28.583  1.00  0.00     0.000 A 
ENDBRANCH  25  39
BRANCH  26  45
ATOM     45  C   UNL A   1      42.959  21.432  26.062  1.00  0.00    -0.014 A 
ATOM     46  C   UNL A   1      43.912  20.503  25.636  1.00  0.00     0.009 A 
ATOM     47  C   UNL A   1      41.648  20.921  26.261  1.00  0.00     0.009 A 
ATOM     48  C   UNL A   1      43.589  19.138  25.495  1.00  0.00     0.001 A 
ATOM     49  C   UNL A   1      41.334  19.563  26.170  1.00  0.00     0.001 A 
ATOM     50  C   UNL A   1      42.313  18.664  25.795  1.00  0.00     0.000 A 
ENDBRANCH  26  45
BRANCH  38  51
ATOM     51  C   UNL A   1      46.316  25.719  28.786  1.00  0.00    -0.014 A 
ATOM     52  C   UNL A   1      45.031  26.127  29.174  1.00  0.00     0.009 A 
ATOM     53  C   UNL A   1      47.267  25.575  29.811  1.00  0.00     0.009 A 
ATOM     54  C   UNL A   1      44.724  26.402  30.515  1.00  0.00     0.001 A 
ATOM     55  C   UNL A   1      46.969  25.843  31.154  1.00  0.00     0.001 A 
ATOM     56  C   UNL A   1      45.694  26.265  31.505  1.00  0.00     0.000 A 
ENDBRANCH  38  51
ENDBRANCH  12  13
ENDBRANCH   5   7
ENDBRANCH   4   5
ENDBRANCH   3   4
ENDBRANCH   2   3
ENDBRANCH   1   2
BRANCH   1  57
ATOM     57  C   UNL A   1      32.339  30.760  26.340  1.00  0.00     0.202 C 
BRANCH  57  58
ATOM     58  C   UNL A   1      32.560  29.377  25.708  1.00  0.00     0.261 C 
BRANCH  58  59
ATOM     59  O   UNL A   1      31.374  28.566  25.800  1.00  0.00    -0.460 OA
BRANCH  59  60
ATOM     60  C   UNL A   1      31.137  27.741  24.730  1.00  0.00     0.339 C 
ATOM     61  O   UNL A   1      31.134  28.092  23.571  1.00  0.00    -0.246 OA
BRANCH  60  62
ATOM     62  C   UNL A   1      31.124  26.335  25.148  1.00  0.00     0.077 A 
ATOM     63  C   UNL A   1      30.307  25.690  26.111  1.00  0.00     0.035 A 
ATOM     64  C   UNL A   1      32.034  25.381  24.713  1.00  0.00     0.101 A 
ATOM     65  C   UNL A   1      30.726  24.380  26.210  1.00  0.00     0.087 A 
ATOM     66  N   UNL A   1      31.787  24.194  25.363  1.00  0.00    -0.349 N 
BRANCH  66  67
ATOM     67  C   UNL A   1      32.458  22.929  25.034  1.00  0.00     0.160 C 
BRANCH  67  68
ATOM     68  C   UNL A   1      33.955  23.024  24.834  1.00  0.00     0.009 A 
ATOM     69  C   UNL A   1      34.844  22.988  25.928  1.00  0.00     0.047 A 
ATOM     70  C   UNL A   1      34.527  23.107  23.548  1.00  0.00     0.047 A 
ATOM     71  Cl  UNL A   1      34.305  22.738  27.555  1.00  0.00    -0.084 Cl
ATOM     72  C   UNL A   1      36.230  23.095  25.748  1.00  0.00     0.021 A 
ATOM     73  C   UNL A   1      35.919  23.167  23.370  1.00  0.00     0.021 A 
ATOM     74  Cl  UNL A   1      33.568  23.097  22.107  1.00  0.00    -0.084 Cl
ATOM     75  C   UNL A   1      36.769  23.182  24.471  1.00  0.00     0.003 A 
ENDBRANCH  67  68
ENDBRANCH  66  67
ENDBRANCH  60  62
ENDBRANCH  59  60
ENDBRANCH  58  59
ENDBRANCH  57  58
ENDBRANCH   1  57
TORSDOF 16
ENDMDL
MODEL 3
REMARK VINA RESULT:     -10.3      4.443      9.287
REMARK SMILES O=C(OCCOCCOC(=O)c1ccn(Cc2c(Cl)cccc2Cl)c1)c1ccc(-c2c3nc(c(-c4ccccc4)c4ccc([nH]4)c(-c4ccccc4)c4nc(c(-c5ccccc5)c5ccc2[nH]5)C=C4)C=C3)cc1
REMARK SMILES IDX 6 1 5 2 4 3 3 4 2 5 1 6 26 7 27 8 73 9 28 10 72 11 29 12
REMARK SMILES IDX 30 13 31 14 66 15 32 16 71 17 65 18 67 19 33 20 70 21 64 22
REMARK SMILES IDX 63 23 34 25 56 26 41 27 55 28 42 29 45 30 54 31 68 32 43 33
REMARK SMILES IDX 44 34 53 36 69 37 46 38 35 39 36 40 40 41 37 42 39 43 38 44
REMARK SMILES IDX 57 45 58 46 62 47 59 48 61 49 60 50 47 51 48 52 52 53 49 54
REMARK SMILES IDX 51 55 50 56 7 57 8 58 9 59 10 60 11 61 12 62 13 63 25 64
REMARK SMILES IDX 14 65 15 66 16 67 17 68 18 69 23 70 19 71 20 72 22 73 24 74
REMARK SMILES IDX 21 75
REMARK H PARENT 67 24 45 35
REMARK Flexibility Score: inf
ROOT
ATOM      1  O   UNL A   1      41.587  21.737  26.243  1.00  0.00    -0.374 OA
ENDROOT
BRANCH   1   2
ATOM      2  C   UNL A   1      42.650  21.929  27.181  1.00  0.00     0.202 C 
BRANCH   2   3
ATOM      3  C   UNL A   1      42.447  23.041  28.205  1.00  0.00     0.261 C 
BRANCH   3   4
ATOM      4  O   UNL A   1      43.040  24.267  27.728  1.00  0.00    -0.460 OA
BRANCH   4   5
ATOM      5  C   UNL A   1      42.404  25.140  26.907  1.00  0.00     0.338 C 
ATOM      6  O   UNL A   1      42.286  24.938  25.705  1.00  0.00    -0.246 OA
BRANCH   5   7
ATOM      7  C   UNL A   1      41.598  26.182  27.560  1.00  0.00     0.060 A 
ATOM      8  C   UNL A   1      41.888  27.545  27.460  1.00  0.00     0.016 A 
ATOM      9  C   UNL A   1      40.535  25.735  28.352  1.00  0.00     0.016 A 
ATOM     10  C   UNL A   1      41.286  28.436  28.322  1.00  0.00     0.010 A 
ATOM     11  C   UNL A   1      39.854  26.640  29.146  1.00  0.00     0.010 A 
ATOM     12  C   UNL A   1      40.273  27.976  29.163  1.00  0.00    -0.014 A 
BRANCH  12  13
ATOM     13  C   UNL A   1      39.513  28.987  29.905  1.00  0.00     0.031 A 
ATOM     14  C   UNL A   1      40.114  29.247  31.286  1.00  0.00     0.074 A 
ATOM     15  C   UNL A   1      38.424  29.507  29.271  1.00  0.00     0.049 A 
ATOM     16  N   UNL A   1      39.608  29.875  32.300  1.00  0.00    -0.248 NA
ATOM     17  C   UNL A   1      41.462  28.693  31.606  1.00  0.00     0.031 C 
ATOM     18  C   UNL A   1      37.941  29.077  27.941  1.00  0.00     0.029 A 
ATOM     19  N   UNL A   1      37.509  30.481  29.601  1.00  0.00    -0.354 N 
ATOM     20  C   UNL A   1      40.618  29.958  33.277  1.00  0.00     0.074 A 
ATOM     21  C   UNL A   1      41.685  29.108  32.852  1.00  0.00     0.031 C 
ATOM     22  C   UNL A   1      36.816  29.741  27.603  1.00  0.00     0.029 A 
ATOM     23  C   UNL A   1      36.483  30.686  28.651  1.00  0.00     0.049 A 
ATOM     24  H   UNL A   1      37.567  30.996  30.437  1.00  0.00     0.167 HD
ATOM     25  C   UNL A   1      40.595  30.850  34.306  1.00  0.00     0.031 A 
ATOM     26  C   UNL A   1      35.431  31.554  28.700  1.00  0.00     0.031 A 
ATOM     27  C   UNL A   1      39.370  31.571  34.336  1.00  0.00     0.049 A 
ATOM     28  C   UNL A   1      35.680  32.453  29.838  1.00  0.00     0.074 A 
ATOM     29  C   UNL A   1      38.089  31.215  34.669  1.00  0.00     0.029 A 
ATOM     30  N   UNL A   1      39.333  32.754  33.636  1.00  0.00    -0.354 N 
ATOM     31  N   UNL A   1      36.613  33.356  29.871  1.00  0.00    -0.248 NA
ATOM     32  C   UNL A   1      34.870  32.326  31.053  1.00  0.00     0.031 C 
ATOM     33  C   UNL A   1      37.286  31.954  33.772  1.00  0.00     0.029 A 
ATOM     34  C   UNL A   1      38.098  32.823  33.036  1.00  0.00     0.049 A 
ATOM     35  H   UNL A   1      40.052  33.424  33.577  1.00  0.00     0.167 HD
ATOM     36  C   UNL A   1      36.753  33.589  31.216  1.00  0.00     0.074 A 
ATOM     37  C   UNL A   1      35.499  33.208  31.828  1.00  0.00     0.031 C 
ATOM     38  C   UNL A   1      37.991  33.531  31.777  1.00  0.00     0.031 A 
BRANCH  25  39
ATOM     39  C   UNL A   1      41.719  31.317  35.178  1.00  0.00    -0.014 A 
ATOM     40  C   UNL A   1      41.676  30.970  36.546  1.00  0.00     0.009 A 
ATOM     41  C   UNL A   1      42.627  32.312  34.791  1.00  0.00     0.009 A 
ATOM     42  C   UNL A   1      42.443  31.644  37.496  1.00  0.00     0.001 A 
ATOM     43  C   UNL A   1      43.423  32.965  35.739  1.00  0.00     0.001 A 
ATOM     44  C   UNL A   1      43.308  32.653  37.092  1.00  0.00     0.000 A 
ENDBRANCH  25  39
BRANCH  26  45
ATOM     45  C   UNL A   1      34.159  31.787  27.934  1.00  0.00    -0.014 A 
ATOM     46  C   UNL A   1      33.371  30.796  27.345  1.00  0.00     0.009 A 
ATOM     47  C   UNL A   1      33.626  33.104  27.893  1.00  0.00     0.009 A 
ATOM     48  C   UNL A   1      32.097  31.094  26.820  1.00  0.00     0.001 A 
ATOM     49  C   UNL A   1      32.345  33.396  27.418  1.00  0.00     0.001 A 
ATOM     50  C   UNL A   1      31.571  32.382  26.888  1.00  0.00     0.000 A 
ENDBRANCH  26  45
BRANCH  38  51
ATOM     51  C   UNL A   1      39.147  33.772  30.810  1.00  0.00    -0.014 A 
ATOM     52  C   UNL A   1      40.223  32.874  30.738  1.00  0.00     0.009 A 
ATOM     53  C   UNL A   1      39.250  34.942  30.039  1.00  0.00     0.009 A 
ATOM     54  C   UNL A   1      41.355  33.150  29.956  1.00  0.00     0.001 A 
ATOM     55  C   UNL A   1      40.375  35.224  29.252  1.00  0.00     0.001 A 
ATOM     56  C   UNL A   1      41.433  34.327  29.216  1.00  0.00     0.000 A 
ENDBRANCH  38  51
ENDBRANCH  12  13
ENDBRANCH   5   7
ENDBRANCH   4   5
ENDBRANCH   3   4
ENDBRANCH   2   3
ENDBRANCH   1   2
BRANCH   1  57
ATOM     57  C   UNL A   1      40.266  21.961  26.764  1.00  0.00     0.202 C 
BRANCH  57  58
ATOM     58  C   UNL A   1      39.115  21.475  25.871  1.00  0.00     0.261 C 
BRANCH  58  59
ATOM     59  O   UNL A   1      38.028  22.419  25.860  1.00  0.00    -0.460 OA
BRANCH  59  60
ATOM     60  C   UNL A   1      36.868  21.978  25.276  1.00  0.00     0.339 C 
ATOM     61  O   UNL A   1      36.583  20.815  25.092  1.00  0.00    -0.246 OA
BRANCH  60  62
ATOM     62  C   UNL A   1      35.912  23.078  25.119  1.00  0.00     0.077 A 
ATOM     63  C   UNL A   1      35.259  23.852  26.112  1.00  0.00     0.035 A 
ATOM     64  C   UNL A   1      35.386  23.491  23.902  1.00  0.00     0.101 A 
ATOM     65  C   UNL A   1      34.391  24.713  25.474  1.00  0.00     0.087 A 
ATOM     66  N   UNL A   1      34.462  24.486  24.125  1.00  0.00    -0.349 N 
BRANCH  66  67
ATOM     67  C   UNL A   1      33.824  25.261  23.053  1.00  0.00     0.160 C 
BRANCH  67  68
ATOM     68  C   UNL A   1      32.561  25.994  23.448  1.00  0.00     0.009 A 
ATOM     69  C   UNL A   1      32.562  27.387  23.675  1.00  0.00     0.047 A 
ATOM     70  C   UNL A   1      31.323  25.330  23.565  1.00  0.00     0.047 A 
ATOM     71  Cl  UNL A   1      33.969  28.367  23.426  1.00  0.00    -0.084 Cl
ATOM     72  C   UNL A   1      31.399  28.067  24.060  1.00  0.00     0.021 A 
ATOM     73  C   UNL A   1      30.150  26.024  23.906  1.00  0.00     0.021 A 
ATOM     74  Cl  UNL A   1      31.151  23.635  23.256  1.00  0.00    -0.084 Cl
ATOM     75  C   UNL A   1      30.192  27.387  24.173  1.00  0.00     0.003 A 
ENDBRANCH  67  68
ENDBRANCH  66  67
ENDBRANCH  60  62
ENDBRANCH  59  60
ENDBRANCH  58  59
ENDBRANCH  57  58
ENDBRANCH   1  57
TORSDOF 16
ENDMDL
