MODEL 1
REMARK VINA RESULT:     -11.3      0.000      0.000
REMARK SMILES Cc1ccc(S(=O)(=O)n2cc(C(=O)C(=O)NCC(=O)NCC(=O)OCCOCCOC(=O)c3ccc(-c4c5nc(c(-c6ccccc6)c6ccc([nH]6)c(-c6ccccc6)c6nc(c(-c7ccccc7)c7ccc4[nH]7)C=C6)C=C5)cc3)c3ccccc32)cc1
REMARK SMILES IDX 25 1 24 2 22 3 23 4 21 5 20 6 18 7 19 8 17 10 16 11 14 12
REMARK SMILES IDX 15 13 12 15 13 16 11 17 9 18 10 19 86 20 81 21 85 22 82 23
REMARK SMILES IDX 84 24 83 25 6 26 7 27 8 28 5 29 1 30 2 31 3 32 88 33 4 34
REMARK SMILES IDX 87 35 26 36 27 37 28 38 29 39 30 40 31 41 32 42 33 43 34 44
REMARK SMILES IDX 80 45 35 46 79 47 36 48 37 49 38 50 73 51 39 52 78 53 72 54
REMARK SMILES IDX 74 55 40 56 77 57 71 58 70 59 41 61 63 62 48 63 62 64 49 65
REMARK SMILES IDX 52 66 61 67 75 68 50 69 51 70 60 72 76 73 53 74 42 75 43 76
REMARK SMILES IDX 47 77 44 78 46 79 45 80 64 81 65 82 69 83 66 84 68 85 67 86
REMARK SMILES IDX 54 87 55 88 59 89 56 90 58 91 57 92
REMARK H PARENT 20 9 16 14 74 60 52 71
REMARK Flexibility Score: inf
ROOT
ATOM      1  C   UNL A   1      40.581  22.063  26.481  1.00  0.00     0.261 C 
ENDROOT
BRANCH   1   2
ATOM      2  O   UNL A   1      39.194  22.098  26.796  1.00  0.00    -0.462 OA
BRANCH   2   3
ATOM      3  C   UNL A   1      38.300  21.991  25.775  1.00  0.00     0.325 C 
ATOM      4  O   UNL A   1      38.189  21.053  25.001  1.00  0.00    -0.250 OA
BRANCH   3   5
ATOM      5  C   UNL A   1      37.444  23.262  25.732  1.00  0.00     0.238 C 
BRANCH   5   6
ATOM      6  N   UNL A   1      36.207  23.080  26.501  1.00  0.00    -0.344 N 
ATOM      7  C   UNL A   1      34.992  22.663  26.028  1.00  0.00     0.239 C 
ATOM      8  O   UNL A   1      33.975  23.004  26.632  1.00  0.00    -0.273 OA
ATOM      9  H   UNL A   1      36.257  23.281  27.463  1.00  0.00     0.164 HD
BRANCH   7  10
ATOM     10  C   UNL A   1      34.931  21.835  24.744  1.00  0.00     0.216 C 
BRANCH  10  11
ATOM     11  N   UNL A   1      34.064  20.690  24.943  1.00  0.00    -0.340 N 
ATOM     12  C   UNL A   1      32.802  20.447  24.465  1.00  0.00     0.292 C 
ATOM     13  O   UNL A   1      32.153  19.562  25.000  1.00  0.00    -0.265 OA
ATOM     14  H   UNL A   1      34.439  19.978  25.510  1.00  0.00     0.164 HD
BRANCH  12  15
ATOM     15  C   UNL A   1      32.156  21.268  23.330  1.00  0.00     0.252 C 
ATOM     16  O   UNL A   1      32.016  20.760  22.223  1.00  0.00    -0.283 OA
BRANCH  15  17
ATOM     17  C   UNL A   1      31.779  22.665  23.575  1.00  0.00     0.054 A 
ATOM     18  N   UNL A   1      31.021  24.528  24.551  1.00  0.00    -0.240 N 
ATOM     19  C   UNL A   1      31.147  23.168  24.697  1.00  0.00     0.117 A 
ATOM     20  C   UNL A   1      31.622  24.954  23.387  1.00  0.00     0.065 A 
ATOM     21  C   UNL A   1      32.047  23.790  22.728  1.00  0.00     0.012 A 
ATOM     22  C   UNL A   1      31.857  26.234  22.860  1.00  0.00     0.028 A 
ATOM     23  C   UNL A   1      32.686  23.918  21.478  1.00  0.00     0.011 A 
ATOM     24  C   UNL A   1      32.505  26.327  21.626  1.00  0.00     0.002 A 
ATOM     25  C   UNL A   1      32.904  25.187  20.937  1.00  0.00     0.001 A 
BRANCH  18  26
ATOM     26  S   UNL A   1      30.463  25.544  25.789  1.00  0.00     0.268 S 
ATOM     27  O   UNL A   1      30.134  24.663  26.876  1.00  0.00    -0.201 OA
ATOM     28  O   UNL A   1      29.528  26.444  25.123  1.00  0.00    -0.201 OA
BRANCH  26  29
ATOM     29  C   UNL A   1      31.700  26.629  26.377  1.00  0.00     0.088 A 
ATOM     30  C   UNL A   1      34.379  29.843  27.226  1.00  0.00     0.044 C 
ATOM     31  C   UNL A   1      33.455  28.690  26.979  1.00  0.00    -0.051 A 
ATOM     32  C   UNL A   1      32.093  28.845  27.251  1.00  0.00     0.005 A 
ATOM     33  C   UNL A   1      33.927  27.482  26.434  1.00  0.00     0.005 A 
ATOM     34  C   UNL A   1      31.214  27.816  26.952  1.00  0.00     0.022 A 
ATOM     35  C   UNL A   1      33.050  26.442  26.127  1.00  0.00     0.022 A 
ENDBRANCH  26  29
ENDBRANCH  18  26
ENDBRANCH  15  17
ENDBRANCH  12  15
ENDBRANCH  10  11
ENDBRANCH   7  10
ENDBRANCH   5   6
ENDBRANCH   3   5
ENDBRANCH   2   3
ENDBRANCH   1   2
BRANCH   1  36
ATOM     36  C   UNL A   1      41.119  20.685  26.821  1.00  0.00     0.202 C 
BRANCH  36  37
ATOM     37  O   UNL A   1      42.397  20.527  26.212  1.00  0.00    -0.374 OA
BRANCH  37  38
ATOM     38  C   UNL A   1      42.782  19.176  25.956  1.00  0.00     0.202 C 
BRANCH  38  39
ATOM     39  C   UNL A   1      43.776  18.973  24.798  1.00  0.00     0.261 C 
BRANCH  39  40
ATOM     40  O   UNL A   1      44.153  20.249  24.252  1.00  0.00    -0.460 OA
BRANCH  40  41
ATOM     41  C   UNL A   1      45.490  20.472  24.171  1.00  0.00     0.338 C 
ATOM     42  O   UNL A   1      46.316  19.698  23.717  1.00  0.00    -0.246 OA
BRANCH  41  43
ATOM     43  C   UNL A   1      45.831  21.663  24.994  1.00  0.00     0.060 A 
ATOM     44  C   UNL A   1      45.567  21.652  26.374  1.00  0.00     0.016 A 
ATOM     45  C   UNL A   1      46.102  22.864  24.339  1.00  0.00     0.016 A 
ATOM     46  C   UNL A   1      45.463  22.860  27.070  1.00  0.00     0.010 A 
ATOM     47  C   UNL A   1      45.885  24.047  25.001  1.00  0.00     0.010 A 
ATOM     48  C   UNL A   1      45.568  24.055  26.362  1.00  0.00    -0.014 A 
BRANCH  48  49
ATOM     49  C   UNL A   1      45.236  25.371  26.886  1.00  0.00     0.031 A 
ATOM     50  C   UNL A   1      43.895  25.959  26.656  1.00  0.00     0.074 A 
ATOM     51  C   UNL A   1      46.080  25.945  27.765  1.00  0.00     0.049 A 
ATOM     52  N   UNL A   1      43.642  27.223  26.721  1.00  0.00    -0.248 NA
ATOM     53  C   UNL A   1      42.724  25.173  26.276  1.00  0.00     0.031 C 
ATOM     54  C   UNL A   1      45.765  26.954  28.755  1.00  0.00     0.029 A 
ATOM     55  N   UNL A   1      47.455  25.813  27.848  1.00  0.00    -0.354 N 
ATOM     56  C   UNL A   1      42.272  27.359  26.769  1.00  0.00     0.074 A 
ATOM     57  C   UNL A   1      41.747  26.078  26.368  1.00  0.00     0.031 C 
ATOM     58  C   UNL A   1      46.900  27.547  29.151  1.00  0.00     0.029 A 
ATOM     59  C   UNL A   1      47.994  26.970  28.410  1.00  0.00     0.049 A 
ATOM     60  H   UNL A   1      47.971  25.028  27.557  1.00  0.00     0.167 HD
ATOM     61  C   UNL A   1      41.724  28.469  27.341  1.00  0.00     0.031 A 
ATOM     62  C   UNL A   1      49.002  27.650  27.806  1.00  0.00     0.031 A 
ATOM     63  C   UNL A   1      42.773  29.345  27.845  1.00  0.00     0.049 A 
ATOM     64  C   UNL A   1      48.512  29.003  27.367  1.00  0.00     0.074 A 
ATOM     65  C   UNL A   1      43.336  29.358  29.104  1.00  0.00     0.029 A 
ATOM     66  N   UNL A   1      43.669  29.998  26.996  1.00  0.00    -0.354 N 
ATOM     67  N   UNL A   1      47.246  29.290  27.217  1.00  0.00    -0.248 NA
ATOM     68  C   UNL A   1      49.372  30.147  27.108  1.00  0.00     0.031 C 
ATOM     69  C   UNL A   1      44.616  29.927  28.977  1.00  0.00     0.029 A 
ATOM     70  C   UNL A   1      44.789  30.411  27.702  1.00  0.00     0.049 A 
ATOM     71  H   UNL A   1      43.528  30.143  26.033  1.00  0.00     0.167 HD
ATOM     72  C   UNL A   1      47.094  30.642  27.053  1.00  0.00     0.074 A 
ATOM     73  C   UNL A   1      48.462  31.112  26.877  1.00  0.00     0.031 C 
ATOM     74  C   UNL A   1      45.862  31.241  27.148  1.00  0.00     0.031 A 
BRANCH  61  75
ATOM     75  C   UNL A   1      40.291  28.533  27.831  1.00  0.00    -0.014 A 
ATOM     76  C   UNL A   1      39.349  29.328  27.146  1.00  0.00     0.009 A 
ATOM     77  C   UNL A   1      39.818  27.883  28.983  1.00  0.00     0.009 A 
ATOM     78  C   UNL A   1      38.046  29.529  27.627  1.00  0.00     0.001 A 
ATOM     79  C   UNL A   1      38.529  28.109  29.493  1.00  0.00     0.001 A 
ATOM     80  C   UNL A   1      37.644  28.938  28.817  1.00  0.00     0.000 A 
ENDBRANCH  61  75
BRANCH  62  81
ATOM     81  C   UNL A   1      49.978  26.727  27.165  1.00  0.00    -0.014 A 
ATOM     82  C   UNL A   1      49.901  26.633  25.753  1.00  0.00     0.009 A 
ATOM     83  C   UNL A   1      51.201  26.432  27.783  1.00  0.00     0.009 A 
ATOM     84  C   UNL A   1      51.048  26.423  24.981  1.00  0.00     0.001 A 
ATOM     85  C   UNL A   1      52.346  26.210  27.001  1.00  0.00     0.001 A 
ATOM     86  C   UNL A   1      52.277  26.250  25.607  1.00  0.00     0.000 A 
ENDBRANCH  62  81
BRANCH  74  87
ATOM     87  C   UNL A   1      45.538  32.703  26.922  1.00  0.00    -0.014 A 
ATOM     88  C   UNL A   1      46.231  33.569  26.074  1.00  0.00     0.009 A 
ATOM     89  C   UNL A   1      44.443  33.275  27.615  1.00  0.00     0.009 A 
ATOM     90  C   UNL A   1      45.777  34.870  25.818  1.00  0.00     0.001 A 
ATOM     91  C   UNL A   1      43.985  34.569  27.373  1.00  0.00     0.001 A 
ATOM     92  C   UNL A   1      44.636  35.359  26.444  1.00  0.00     0.000 A 
ENDBRANCH  74  87
ENDBRANCH  48  49
ENDBRANCH  41  43
ENDBRANCH  40  41
ENDBRANCH  39  40
ENDBRANCH  38  39
ENDBRANCH  37  38
ENDBRANCH  36  37
ENDBRANCH   1  36
TORSDOF 21
ENDMDL
MODEL 2
REMARK VINA RESULT:     -11.3      4.285     11.166
REMARK SMILES Cc1ccc(S(=O)(=O)n2cc(C(=O)C(=O)NCC(=O)NCC(=O)OCCOCCOC(=O)c3ccc(-c4c5nc(c(-c6ccccc6)c6ccc([nH]6)c(-c6ccccc6)c6nc(c(-c7ccccc7)c7ccc4[nH]7)C=C6)C=C5)cc3)c3ccccc32)cc1
REMARK SMILES IDX 25 1 24 2 22 3 23 4 21 5 20 6 18 7 19 8 17 10 16 11 14 12
REMARK SMILES IDX 15 13 12 15 13 16 11 17 9 18 10 19 86 20 81 21 85 22 82 23
REMARK SMILES IDX 84 24 83 25 6 26 7 27 8 28 5 29 1 30 2 31 3 32 88 33 4 34
REMARK SMILES IDX 87 35 26 36 27 37 28 38 29 39 30 40 31 41 32 42 33 43 34 44
REMARK SMILES IDX 80 45 35 46 79 47 36 48 37 49 38 50 73 51 39 52 78 53 72 54
REMARK SMILES IDX 74 55 40 56 77 57 71 58 70 59 41 61 63 62 48 63 62 64 49 65
REMARK SMILES IDX 52 66 61 67 75 68 50 69 51 70 60 72 76 73 53 74 42 75 43 76
REMARK SMILES IDX 47 77 44 78 46 79 45 80 64 81 65 82 69 83 66 84 68 85 67 86
REMARK SMILES IDX 54 87 55 88 59 89 56 90 58 91 57 92
REMARK H PARENT 20 9 16 14 74 60 52 71
REMARK Flexibility Score: inf
ROOT
ATOM      1  C   UNL A   1      31.446  27.615  25.750  1.00  0.00     0.261 C 
ENDROOT
BRANCH   1   2
ATOM      2  O   UNL A   1      31.560  26.440  26.544  1.00  0.00    -0.462 OA
BRANCH   2   3
ATOM      3  C   UNL A   1      31.033  25.282  26.060  1.00  0.00     0.325 C 
ATOM      4  O   UNL A   1      30.138  25.181  25.236  1.00  0.00    -0.250 OA
BRANCH   3   5
ATOM      5  C   UNL A   1      31.734  24.099  26.735  1.00  0.00     0.238 C 
BRANCH   5   6
ATOM      6  N   UNL A   1      31.930  23.000  25.781  1.00  0.00    -0.344 N 
ATOM      7  C   UNL A   1      32.969  22.842  24.903  1.00  0.00     0.239 C 
ATOM      8  O   UNL A   1      32.780  22.186  23.878  1.00  0.00    -0.273 OA
ATOM      9  H   UNL A   1      31.239  22.300  25.771  1.00  0.00     0.164 HD
BRANCH   7  10
ATOM     10  C   UNL A   1      34.307  23.522  25.193  1.00  0.00     0.216 C 
BRANCH  10  11
ATOM     11  N   UNL A   1      35.145  23.470  24.011  1.00  0.00    -0.340 N 
ATOM     12  C   UNL A   1      36.280  22.740  23.768  1.00  0.00     0.292 C 
ATOM     13  O   UNL A   1      36.980  23.077  22.825  1.00  0.00    -0.265 OA
ATOM     14  H   UNL A   1      34.855  24.049  23.269  1.00  0.00     0.164 HD
BRANCH  12  15
ATOM     15  C   UNL A   1      36.732  21.561  24.653  1.00  0.00     0.252 C 
ATOM     16  O   UNL A   1      36.011  20.575  24.759  1.00  0.00    -0.283 OA
BRANCH  15  17
ATOM     17  C   UNL A   1      37.987  21.665  25.407  1.00  0.00     0.054 A 
ATOM     18  N   UNL A   1      40.012  21.225  26.245  1.00  0.00    -0.240 N 
ATOM     19  C   UNL A   1      38.992  20.719  25.476  1.00  0.00     0.117 A 
ATOM     20  C   UNL A   1      39.740  22.519  26.630  1.00  0.00     0.065 A 
ATOM     21  C   UNL A   1      38.443  22.792  26.168  1.00  0.00     0.012 A 
ATOM     22  C   UNL A   1      40.504  23.482  27.309  1.00  0.00     0.028 A 
ATOM     23  C   UNL A   1      37.881  24.055  26.440  1.00  0.00     0.011 A 
ATOM     24  C   UNL A   1      39.923  24.729  27.552  1.00  0.00     0.002 A 
ATOM     25  C   UNL A   1      38.626  25.010  27.135  1.00  0.00     0.001 A 
BRANCH  18  26
ATOM     26  S   UNL A   1      41.509  20.448  26.425  1.00  0.00     0.268 S 
ATOM     27  O   UNL A   1      41.342  19.165  25.799  1.00  0.00    -0.201 OA
ATOM     28  O   UNL A   1      41.861  20.664  27.824  1.00  0.00    -0.201 OA
BRANCH  26  29
ATOM     29  C   UNL A   1      42.796  21.262  25.568  1.00  0.00     0.088 A 
ATOM     30  C   UNL A   1      46.412  23.074  24.201  1.00  0.00     0.044 C 
ATOM     31  C   UNL A   1      45.123  22.438  24.625  1.00  0.00    -0.051 A 
ATOM     32  C   UNL A   1      45.093  21.059  24.852  1.00  0.00     0.005 A 
ATOM     33  C   UNL A   1      43.968  23.210  24.844  1.00  0.00     0.005 A 
ATOM     34  C   UNL A   1      43.930  20.470  25.322  1.00  0.00     0.022 A 
ATOM     35  C   UNL A   1      42.795  22.626  25.321  1.00  0.00     0.022 A 
ENDBRANCH  26  29
ENDBRANCH  18  26
ENDBRANCH  15  17
ENDBRANCH  12  15
ENDBRANCH  10  11
ENDBRANCH   7  10
ENDBRANCH   5   6
ENDBRANCH   3   5
ENDBRANCH   2   3
ENDBRANCH   1   2
BRANCH   1  36
ATOM     36  C   UNL A   1      31.630  28.824  26.648  1.00  0.00     0.202 C 
BRANCH  36  37
ATOM     37  O   UNL A   1      32.221  29.875  25.889  1.00  0.00    -0.374 OA
BRANCH  37  38
ATOM     38  C   UNL A   1      31.433  31.062  25.785  1.00  0.00     0.202 C 
BRANCH  38  39
ATOM     39  C   UNL A   1      31.401  31.954  27.040  1.00  0.00     0.261 C 
BRANCH  39  40
ATOM     40  O   UNL A   1      32.317  33.050  26.881  1.00  0.00    -0.460 OA
BRANCH  40  41
ATOM     41  C   UNL A   1      33.033  33.372  27.989  1.00  0.00     0.338 C 
ATOM     42  O   UNL A   1      32.761  34.257  28.783  1.00  0.00    -0.246 OA
BRANCH  41  43
ATOM     43  C   UNL A   1      34.355  32.691  27.923  1.00  0.00     0.060 A 
ATOM     44  C   UNL A   1      34.435  31.306  28.149  1.00  0.00     0.016 A 
ATOM     45  C   UNL A   1      35.506  33.477  27.958  1.00  0.00     0.016 A 
ATOM     46  C   UNL A   1      35.654  30.734  28.521  1.00  0.00     0.010 A 
ATOM     47  C   UNL A   1      36.671  32.931  28.436  1.00  0.00     0.010 A 
ATOM     48  C   UNL A   1      36.755  31.564  28.717  1.00  0.00    -0.014 A 
BRANCH  48  49
ATOM     49  C   UNL A   1      38.006  31.163  29.341  1.00  0.00     0.031 A 
ATOM     50  C   UNL A   1      38.783  30.019  28.809  1.00  0.00     0.074 A 
ATOM     51  C   UNL A   1      38.556  31.979  30.263  1.00  0.00     0.049 A 
ATOM     52  N   UNL A   1      39.651  29.355  29.496  1.00  0.00    -0.248 NA
ATOM     53  C   UNL A   1      38.608  29.483  27.461  1.00  0.00     0.031 C 
ATOM     54  C   UNL A   1      39.952  32.060  30.643  1.00  0.00     0.029 A 
ATOM     55  N   UNL A   1      37.919  32.828  31.148  1.00  0.00    -0.354 N 
ATOM     56  C   UNL A   1      40.380  28.599  28.603  1.00  0.00     0.074 A 
ATOM     57  C   UNL A   1      39.621  28.618  27.379  1.00  0.00     0.031 C 
ATOM     58  C   UNL A   1      40.046  32.675  31.829  1.00  0.00     0.029 A 
ATOM     59  C   UNL A   1      38.713  32.990  32.283  1.00  0.00     0.049 A 
ATOM     60  H   UNL A   1      37.043  33.252  31.002  1.00  0.00     0.167 HD
ATOM     61  C   UNL A   1      41.647  28.212  28.926  1.00  0.00     0.031 A 
ATOM     62  C   UNL A   1      38.220  32.784  33.531  1.00  0.00     0.031 A 
ATOM     63  C   UNL A   1      42.014  28.731  30.237  1.00  0.00     0.049 A 
ATOM     64  C   UNL A   1      38.896  31.594  34.156  1.00  0.00     0.074 A 
ATOM     65  C   UNL A   1      42.640  29.924  30.534  1.00  0.00     0.029 A 
ATOM     66  N   UNL A   1      41.386  28.303  31.409  1.00  0.00    -0.354 N 
ATOM     67  N   UNL A   1      39.525  30.684  33.462  1.00  0.00    -0.248 NA
ATOM     68  C   UNL A   1      38.969  31.346  35.587  1.00  0.00     0.031 C 
ATOM     69  C   UNL A   1      42.292  30.254  31.855  1.00  0.00     0.029 A 
ATOM     70  C   UNL A   1      41.601  29.214  32.432  1.00  0.00     0.049 A 
ATOM     71  H   UNL A   1      40.864  27.474  31.497  1.00  0.00     0.167 HD
ATOM     72  C   UNL A   1      40.238  29.870  34.302  1.00  0.00     0.074 A 
ATOM     73  C   UNL A   1      39.761  30.257  35.623  1.00  0.00     0.031 C 
ATOM     74  C   UNL A   1      41.197  29.011  33.825  1.00  0.00     0.031 A 
BRANCH  61  75
ATOM     75  C   UNL A   1      42.671  27.772  27.898  1.00  0.00    -0.014 A 
ATOM     76  C   UNL A   1      43.131  26.439  27.892  1.00  0.00     0.009 A 
ATOM     77  C   UNL A   1      43.259  28.625  26.950  1.00  0.00     0.009 A 
ATOM     78  C   UNL A   1      44.170  26.008  27.053  1.00  0.00     0.001 A 
ATOM     79  C   UNL A   1      44.325  28.213  26.134  1.00  0.00     0.001 A 
ATOM     80  C   UNL A   1      44.785  26.904  26.190  1.00  0.00     0.000 A 
ENDBRANCH  61  75
BRANCH  62  81
ATOM     81  C   UNL A   1      36.816  33.265  33.651  1.00  0.00    -0.014 A 
ATOM     82  C   UNL A   1      36.640  34.670  33.598  1.00  0.00     0.009 A 
ATOM     83  C   UNL A   1      35.742  32.447  33.275  1.00  0.00     0.009 A 
ATOM     84  C   UNL A   1      35.494  35.231  33.025  1.00  0.00     0.001 A 
ATOM     85  C   UNL A   1      34.590  33.018  32.711  1.00  0.00     0.001 A 
ATOM     86  C   UNL A   1      34.487  34.401  32.546  1.00  0.00     0.000 A 
ENDBRANCH  62  81
BRANCH  74  87
ATOM     87  C   UNL A   1      42.007  28.012  34.625  1.00  0.00    -0.014 A 
ATOM     88  C   UNL A   1      43.334  28.175  35.027  1.00  0.00     0.009 A 
ATOM     89  C   UNL A   1      41.397  26.795  35.016  1.00  0.00     0.009 A 
ATOM     90  C   UNL A   1      43.961  27.261  35.885  1.00  0.00     0.001 A 
ATOM     91  C   UNL A   1      42.013  25.875  35.863  1.00  0.00     0.001 A 
ATOM     92  C   UNL A   1      43.291  26.128  36.328  1.00  0.00     0.000 A 
ENDBRANCH  74  87
ENDBRANCH  48  49
ENDBRANCH  41  43
ENDBRANCH  40  41
ENDBRANCH  39  40
ENDBRANCH  38  39
ENDBRANCH  37  38
ENDBRANCH  36  37
ENDBRANCH   1  36
TORSDOF 21
ENDMDL
MODEL 3
REMARK VINA RESULT:     -11.1      4.687     10.272
REMARK SMILES Cc1ccc(S(=O)(=O)n2cc(C(=O)C(=O)NCC(=O)NCC(=O)OCCOCCOC(=O)c3ccc(-c4c5nc(c(-c6ccccc6)c6ccc([nH]6)c(-c6ccccc6)c6nc(c(-c7ccccc7)c7ccc4[nH]7)C=C6)C=C5)cc3)c3ccccc32)cc1
REMARK SMILES IDX 25 1 24 2 22 3 23 4 21 5 20 6 18 7 19 8 17 10 16 11 14 12
REMARK SMILES IDX 15 13 12 15 13 16 11 17 9 18 10 19 86 20 81 21 85 22 82 23
REMARK SMILES IDX 84 24 83 25 6 26 7 27 8 28 5 29 1 30 2 31 3 32 88 33 4 34
REMARK SMILES IDX 87 35 26 36 27 37 28 38 29 39 30 40 31 41 32 42 33 43 34 44
REMARK SMILES IDX 80 45 35 46 79 47 36 48 37 49 38 50 73 51 39 52 78 53 72 54
REMARK SMILES IDX 74 55 40 56 77 57 71 58 70 59 41 61 63 62 48 63 62 64 49 65
REMARK SMILES IDX 52 66 61 67 75 68 50 69 51 70 60 72 76 73 53 74 42 75 43 76
REMARK SMILES IDX 47 77 44 78 46 79 45 80 64 81 65 82 69 83 66 84 68 85 67 86
REMARK SMILES IDX 54 87 55 88 59 89 56 90 58 91 57 92
REMARK H PARENT 20 9 16 14 74 60 52 71
REMARK Flexibility Score: inf
ROOT
ATOM      1  C   UNL A   1      33.679  29.467  25.429  1.00  0.00     0.261 C 
ENDROOT
BRANCH   1   2
ATOM      2  O   UNL A   1      33.445  28.334  24.600  1.00  0.00    -0.462 OA
BRANCH   2   3
ATOM      3  C   UNL A   1      33.764  28.425  23.280  1.00  0.00     0.325 C 
ATOM      4  O   UNL A   1      34.760  28.952  22.808  1.00  0.00    -0.250 OA
BRANCH   3   5
ATOM      5  C   UNL A   1      32.652  27.768  22.456  1.00  0.00     0.238 C 
BRANCH   5   6
ATOM      6  N   UNL A   1      31.479  28.647  22.375  1.00  0.00    -0.344 N 
ATOM      7  C   UNL A   1      30.190  28.340  22.720  1.00  0.00     0.239 C 
ATOM      8  O   UNL A   1      29.272  28.955  22.177  1.00  0.00    -0.273 OA
ATOM      9  H   UNL A   1      31.636  29.557  22.036  1.00  0.00     0.164 HD
BRANCH   7  10
ATOM     10  C   UNL A   1      29.929  27.216  23.723  1.00  0.00     0.216 C 
BRANCH  10  11
ATOM     11  N   UNL A   1      30.559  27.537  24.990  1.00  0.00    -0.340 N 
ATOM     12  C   UNL A   1      30.745  26.759  26.103  1.00  0.00     0.292 C 
ATOM     13  O   UNL A   1      31.028  27.323  27.148  1.00  0.00    -0.265 OA
ATOM     14  H   UNL A   1      30.906  28.456  25.060  1.00  0.00     0.164 HD
BRANCH  12  15
ATOM     15  C   UNL A   1      30.562  25.227  26.103  1.00  0.00     0.252 C 
ATOM     16  O   UNL A   1      29.500  24.747  26.483  1.00  0.00    -0.283 OA
BRANCH  15  17
ATOM     17  C   UNL A   1      31.685  24.367  25.711  1.00  0.00     0.054 A 
ATOM     18  N   UNL A   1      33.380  22.913  25.781  1.00  0.00    -0.240 N 
ATOM     19  C   UNL A   1      32.477  23.605  26.550  1.00  0.00     0.117 A 
ATOM     20  C   UNL A   1      33.161  23.140  24.441  1.00  0.00     0.065 A 
ATOM     21  C   UNL A   1      32.141  24.102  24.378  1.00  0.00     0.012 A 
ATOM     22  C   UNL A   1      33.730  22.584  23.283  1.00  0.00     0.028 A 
ATOM     23  C   UNL A   1      31.716  24.553  23.112  1.00  0.00     0.011 A 
ATOM     24  C   UNL A   1      33.277  23.042  22.044  1.00  0.00     0.002 A 
ATOM     25  C   UNL A   1      32.294  24.021  21.956  1.00  0.00     0.001 A 
BRANCH  18  26
ATOM     26  S   UNL A   1      34.413  21.724  26.413  1.00  0.00     0.268 S 
ATOM     27  O   UNL A   1      34.044  21.606  27.797  1.00  0.00    -0.201 OA
ATOM     28  O   UNL A   1      35.735  22.097  25.922  1.00  0.00    -0.201 OA
BRANCH  26  29
ATOM     29  C   UNL A   1      34.155  20.155  25.688  1.00  0.00     0.088 A 
ATOM     30  C   UNL A   1      33.736  16.736  23.166  1.00  0.00     0.044 C 
ATOM     31  C   UNL A   1      33.885  17.900  24.098  1.00  0.00    -0.051 A 
ATOM     32  C   UNL A   1      35.144  18.487  24.251  1.00  0.00     0.005 A 
ATOM     33  C   UNL A   1      32.775  18.436  24.775  1.00  0.00     0.005 A 
ATOM     34  C   UNL A   1      35.281  19.613  25.046  1.00  0.00     0.022 A 
ATOM     35  C   UNL A   1      32.903  19.572  25.574  1.00  0.00     0.022 A 
ENDBRANCH  26  29
ENDBRANCH  18  26
ENDBRANCH  15  17
ENDBRANCH  12  15
ENDBRANCH  10  11
ENDBRANCH   7  10
ENDBRANCH   5   6
ENDBRANCH   3   5
ENDBRANCH   2   3
ENDBRANCH   1   2
BRANCH   1  36
ATOM     36  C   UNL A   1      33.732  29.005  26.874  1.00  0.00     0.202 C 
BRANCH  36  37
ATOM     37  O   UNL A   1      34.714  29.772  27.565  1.00  0.00    -0.374 OA
BRANCH  37  38
ATOM     38  C   UNL A   1      34.658  31.179  27.329  1.00  0.00     0.202 C 
BRANCH  38  39
ATOM     39  C   UNL A   1      33.483  31.921  27.993  1.00  0.00     0.261 C 
BRANCH  39  40
ATOM     40  O   UNL A   1      33.764  33.330  28.043  1.00  0.00    -0.460 OA
BRANCH  40  41
ATOM     41  C   UNL A   1      33.825  33.864  29.290  1.00  0.00     0.338 C 
ATOM     42  O   UNL A   1      33.012  34.629  29.780  1.00  0.00    -0.246 OA
BRANCH  41  43
ATOM     43  C   UNL A   1      35.181  33.622  29.851  1.00  0.00     0.060 A 
ATOM     44  C   UNL A   1      36.312  34.096  29.164  1.00  0.00     0.016 A 
ATOM     45  C   UNL A   1      35.319  32.670  30.861  1.00  0.00     0.016 A 
ATOM     46  C   UNL A   1      37.564  33.527  29.415  1.00  0.00     0.010 A 
ATOM     47  C   UNL A   1      36.527  32.037  31.019  1.00  0.00     0.010 A 
ATOM     48  C   UNL A   1      37.652  32.459  30.304  1.00  0.00    -0.014 A 
BRANCH  48  49
ATOM     49  C   UNL A   1      38.818  31.607  30.477  1.00  0.00     0.031 A 
ATOM     50  C   UNL A   1      38.997  30.392  29.649  1.00  0.00     0.074 A 
ATOM     51  C   UNL A   1      39.835  32.056  31.240  1.00  0.00     0.049 A 
ATOM     52  N   UNL A   1      39.747  29.396  29.982  1.00  0.00    -0.248 NA
ATOM     53  C   UNL A   1      38.296  30.167  28.386  1.00  0.00     0.031 C 
ATOM     54  C   UNL A   1      41.226  31.657  31.173  1.00  0.00     0.029 A 
ATOM     55  N   UNL A   1      39.780  32.894  32.339  1.00  0.00    -0.354 N 
ATOM     56  C   UNL A   1      39.914  28.621  28.855  1.00  0.00     0.074 A 
ATOM     57  C   UNL A   1      38.903  29.068  27.931  1.00  0.00     0.031 C 
ATOM     58  C   UNL A   1      41.836  32.007  32.314  1.00  0.00     0.029 A 
ATOM     59  C   UNL A   1      40.858  32.619  33.180  1.00  0.00     0.049 A 
ATOM     60  H   UNL A   1      39.089  33.575  32.503  1.00  0.00     0.167 HD
ATOM     61  C   UNL A   1      41.017  27.828  28.739  1.00  0.00     0.031 A 
ATOM     62  C   UNL A   1      40.682  32.361  34.501  1.00  0.00     0.031 A 
ATOM     63  C   UNL A   1      41.876  27.986  29.906  1.00  0.00     0.049 A 
ATOM     64  C   UNL A   1      41.066  30.937  34.797  1.00  0.00     0.074 A 
ATOM     65  C   UNL A   1      42.917  28.874  30.080  1.00  0.00     0.029 A 
ATOM     66  N   UNL A   1      41.483  27.572  31.180  1.00  0.00    -0.354 N 
ATOM     67  N   UNL A   1      41.145  30.012  33.877  1.00  0.00    -0.248 NA
ATOM     68  C   UNL A   1      41.437  30.440  36.112  1.00  0.00     0.031 C 
ATOM     69  C   UNL A   1      43.070  29.064  31.465  1.00  0.00     0.029 A 
ATOM     70  C   UNL A   1      42.256  28.192  32.150  1.00  0.00     0.049 A 
ATOM     71  H   UNL A   1      40.760  26.931  31.365  1.00  0.00     0.167 HD
ATOM     72  C   UNL A   1      41.747  28.895  34.393  1.00  0.00     0.074 A 
ATOM     73  C   UNL A   1      41.802  29.177  35.822  1.00  0.00     0.031 C 
ATOM     74  C   UNL A   1      42.200  27.885  33.581  1.00  0.00     0.031 A 
BRANCH  61  75
ATOM     75  C   UNL A   1      41.519  27.286  27.415  1.00  0.00    -0.014 A 
ATOM     76  C   UNL A   1      41.245  25.951  27.055  1.00  0.00     0.009 A 
ATOM     77  C   UNL A   1      42.307  28.015  26.508  1.00  0.00     0.009 A 
ATOM     78  C   UNL A   1      41.792  25.357  25.907  1.00  0.00     0.001 A 
ATOM     79  C   UNL A   1      42.890  27.418  25.379  1.00  0.00     0.001 A 
ATOM     80  C   UNL A   1      42.638  26.085  25.081  1.00  0.00     0.000 A 
ENDBRANCH  61  75
BRANCH  62  81
ATOM     81  C   UNL A   1      39.605  33.207  35.085  1.00  0.00    -0.014 A 
ATOM     82  C   UNL A   1      38.486  32.508  35.603  1.00  0.00     0.009 A 
ATOM     83  C   UNL A   1      39.890  34.478  35.603  1.00  0.00     0.009 A 
ATOM     84  C   UNL A   1      37.787  32.989  36.715  1.00  0.00     0.001 A 
ATOM     85  C   UNL A   1      39.177  34.959  36.712  1.00  0.00     0.001 A 
ATOM     86  C   UNL A   1      38.160  34.198  37.292  1.00  0.00     0.000 A 
ENDBRANCH  62  81
BRANCH  74  87
ATOM     87  C   UNL A   1      42.816  26.571  34.015  1.00  0.00    -0.014 A 
ATOM     88  C   UNL A   1      42.411  25.804  35.109  1.00  0.00     0.009 A 
ATOM     89  C   UNL A   1      43.899  26.046  33.269  1.00  0.00     0.009 A 
ATOM     90  C   UNL A   1      42.946  24.532  35.355  1.00  0.00     0.001 A 
ATOM     91  C   UNL A   1      44.443  24.784  33.507  1.00  0.00     0.001 A 
ATOM     92  C   UNL A   1      43.939  24.009  34.536  1.00  0.00     0.000 A 
ENDBRANCH  74  87
ENDBRANCH  48  49
ENDBRANCH  41  43
ENDBRANCH  40  41
ENDBRANCH  39  40
ENDBRANCH  38  39
ENDBRANCH  37  38
ENDBRANCH  36  37
ENDBRANCH   1  36
TORSDOF 21
ENDMDL
