MODEL 1
REMARK VINA RESULT:     -11.4      0.000      0.000
REMARK SMILES NC(=O)c1c(-c2ccc(Cl)cc2)csc1NC(=O)[C@H]1[C@@H](C(=O)OCCOCCOC(=O)c2ccc(-c3c4nc(c(-c5ccccc5)c5ccc([nH]5)c(-c5ccccc5)c5nc(c(-c6ccccc6)c6ccc3[nH]6)C=C5)C=C4)cc2)[C@@H]2CC[C@H]1O2
REMARK SMILES IDX 25 1 24 2 23 3 21 4 22 5 20 6 19 7 83 8 80 9 82 10 84 11
REMARK SMILES IDX 81 12 17 13 16 14 18 16 15 17 4 18 5 19 13 20 14 21 2 22
REMARK SMILES IDX 1 23 3 26 6 27 7 28 12 29 8 30 11 31 9 32 10 33 26 34 27 35
REMARK SMILES IDX 28 36 29 37 30 38 31 39 32 40 33 41 79 42 34 43 78 44 35 45
REMARK SMILES IDX 36 46 37 47 72 48 38 49 77 50 71 51 73 52 39 53 76 54 70 55
REMARK SMILES IDX 69 56 40 58 62 59 47 60 61 61 48 62 51 63 60 64 74 65 49 66
REMARK SMILES IDX 50 67 59 69 75 70 52 71 41 72 42 73 46 74 43 75 45 76 44 77
REMARK SMILES IDX 63 78 64 79 68 80 65 81 67 82 66 83 53 84 54 85 58 86 55 87
REMARK SMILES IDX 57 88 56 89
REMARK H PARENT 16 15 1 24 1 25 73 57 51 68
REMARK Flexibility Score: inf
ROOT
ATOM      1  C   UNL A   1      33.740  31.218  27.784  1.00  0.00     0.202 C 
ENDROOT
BRANCH   1   2
ATOM      2  C   UNL A   1      33.795  30.152  26.714  1.00  0.00     0.261 C 
BRANCH   2   3
ATOM      3  O   UNL A   1      32.812  30.170  25.676  1.00  0.00    -0.463 OA
BRANCH   3   4
ATOM      4  C   UNL A   1      32.945  29.105  24.854  1.00  0.00     0.312 C 
ATOM      5  O   UNL A   1      34.020  28.569  24.604  1.00  0.00    -0.252 OA
BRANCH   4   6
ATOM      6  C   UNL A   1      31.658  28.541  24.351  1.00  0.00     0.143 C 
ATOM      7  C   UNL A   1      31.033  27.593  25.378  1.00  0.00     0.124 C 
ATOM      8  C   UNL A   1      30.304  26.606  24.485  1.00  0.00     0.132 C 
ATOM      9  C   UNL A   1      31.545  27.710  23.061  1.00  0.00     0.133 C 
ATOM     10  C   UNL A   1      29.269  27.310  23.584  1.00  0.00     0.035 C 
ATOM     11  O   UNL A   1      31.334  26.350  23.517  1.00  0.00    -0.373 OA
ATOM     12  C   UNL A   1      30.151  27.885  22.457  1.00  0.00     0.036 C 
BRANCH   7  13
ATOM     13  C   UNL A   1      31.844  26.934  26.525  1.00  0.00     0.231 C 
ATOM     14  N   UNL A   1      32.801  25.963  26.482  1.00  0.00    -0.317 N 
ATOM     15  H   UNL A   1      33.367  25.974  27.289  1.00  0.00     0.170 HD
ATOM     16  O   UNL A   1      31.657  27.428  27.654  1.00  0.00    -0.274 OA
BRANCH  14  17
ATOM     17  C   UNL A   1      33.188  24.964  25.602  1.00  0.00     0.108 A 
ATOM     18  C   UNL A   1      32.617  23.693  25.449  1.00  0.00     0.082 A 
ATOM     19  C   UNL A   1      33.426  22.881  24.539  1.00  0.00     0.007 A 
ATOM     20  C   UNL A   1      34.387  23.651  23.915  1.00  0.00     0.076 A 
ATOM     21  S   UNL A   1      34.304  25.280  24.382  1.00  0.00    -0.125 S 
BRANCH  18  22
ATOM     22  C   UNL A   1      31.468  23.291  26.267  1.00  0.00     0.252 C 
ATOM     23  N   UNL A   1      30.301  23.005  25.619  1.00  0.00    -0.365 N 
ATOM     24  H   UNL A   1      29.507  22.731  26.132  1.00  0.00     0.159 HD
ATOM     25  H   UNL A   1      30.253  23.074  24.638  1.00  0.00     0.159 HD
ATOM     26  O   UNL A   1      31.543  23.150  27.484  1.00  0.00    -0.269 OA
ENDBRANCH  18  22
BRANCH  19  27
ATOM     27  C   UNL A   1      33.395  21.438  24.281  1.00  0.00    -0.017 A 
ATOM     28  C   UNL A   1      34.346  20.599  24.888  1.00  0.00     0.010 A 
ATOM     29  C   UNL A   1      32.397  20.860  23.491  1.00  0.00     0.010 A 
ATOM     30  C   UNL A   1      34.248  19.212  24.771  1.00  0.00     0.021 A 
ATOM     31  C   UNL A   1      32.332  19.468  23.338  1.00  0.00     0.021 A 
ATOM     32  C   UNL A   1      33.251  18.649  23.989  1.00  0.00     0.041 A 
ATOM     33  Cl  UNL A   1      33.159  16.940  23.838  1.00  0.00    -0.084 Cl
ENDBRANCH  19  27
ENDBRANCH  14  17
ENDBRANCH   7  13
ENDBRANCH   4   6
ENDBRANCH   3   4
ENDBRANCH   2   3
ENDBRANCH   1   2
BRANCH   1  34
ATOM     34  O   UNL A   1      34.447  32.427  27.566  1.00  0.00    -0.374 OA
BRANCH  34  35
ATOM     35  C   UNL A   1      34.104  33.530  28.398  1.00  0.00     0.202 C 
BRANCH  35  36
ATOM     36  C   UNL A   1      34.828  33.621  29.751  1.00  0.00     0.261 C 
BRANCH  36  37
ATOM     37  O   UNL A   1      36.120  32.993  29.750  1.00  0.00    -0.460 OA
BRANCH  37  38
ATOM     38  C   UNL A   1      36.215  31.910  30.574  1.00  0.00     0.338 C 
ATOM     39  O   UNL A   1      35.417  31.560  31.416  1.00  0.00    -0.246 OA
BRANCH  38  40
ATOM     40  C   UNL A   1      37.358  31.059  30.143  1.00  0.00     0.060 A 
ATOM     41  C   UNL A   1      38.122  30.451  31.151  1.00  0.00     0.016 A 
ATOM     42  C   UNL A   1      37.662  30.822  28.799  1.00  0.00     0.016 A 
ATOM     43  C   UNL A   1      39.233  29.675  30.818  1.00  0.00     0.010 A 
ATOM     44  C   UNL A   1      38.796  30.070  28.463  1.00  0.00     0.010 A 
ATOM     45  C   UNL A   1      39.615  29.538  29.473  1.00  0.00    -0.014 A 
BRANCH  45  46
ATOM     46  C   UNL A   1      41.014  29.131  29.179  1.00  0.00     0.031 A 
ATOM     47  C   UNL A   1      41.230  27.710  28.722  1.00  0.00     0.074 A 
ATOM     48  C   UNL A   1      42.059  29.973  29.258  1.00  0.00     0.049 A 
ATOM     49  N   UNL A   1      42.327  27.120  28.325  1.00  0.00    -0.248 NA
ATOM     50  C   UNL A   1      40.043  26.835  28.729  1.00  0.00     0.031 C 
ATOM     51  C   UNL A   1      42.003  31.358  29.711  1.00  0.00     0.029 A 
ATOM     52  N   UNL A   1      43.378  29.789  28.915  1.00  0.00    -0.354 N 
ATOM     53  C   UNL A   1      41.965  25.809  28.044  1.00  0.00     0.074 A 
ATOM     54  C   UNL A   1      40.549  25.686  28.312  1.00  0.00     0.031 C 
ATOM     55  C   UNL A   1      43.205  31.931  29.522  1.00  0.00     0.029 A 
ATOM     56  C   UNL A   1      44.142  30.930  29.014  1.00  0.00     0.049 A 
ATOM     57  H   UNL A   1      43.742  28.921  28.627  1.00  0.00     0.167 HD
ATOM     58  C   UNL A   1      42.740  24.783  27.626  1.00  0.00     0.031 A 
ATOM     59  C   UNL A   1      45.446  31.132  28.737  1.00  0.00     0.031 A 
ATOM     60  C   UNL A   1      44.158  24.872  27.425  1.00  0.00     0.049 A 
ATOM     61  C   UNL A   1      46.293  29.960  28.300  1.00  0.00     0.074 A 
ATOM     62  C   UNL A   1      45.042  23.870  27.066  1.00  0.00     0.029 A 
ATOM     63  N   UNL A   1      44.900  26.031  27.581  1.00  0.00    -0.354 N 
ATOM     64  N   UNL A   1      45.935  28.727  28.035  1.00  0.00    -0.248 NA
ATOM     65  C   UNL A   1      47.737  30.208  28.154  1.00  0.00     0.031 C 
ATOM     66  C   UNL A   1      46.330  24.413  27.052  1.00  0.00     0.029 A 
ATOM     67  C   UNL A   1      46.237  25.765  27.341  1.00  0.00     0.049 A 
ATOM     68  H   UNL A   1      44.533  26.910  27.825  1.00  0.00     0.167 HD
ATOM     69  C   UNL A   1      47.106  28.057  27.695  1.00  0.00     0.074 A 
ATOM     70  C   UNL A   1      48.176  29.029  27.739  1.00  0.00     0.031 C 
ATOM     71  C   UNL A   1      47.287  26.746  27.397  1.00  0.00     0.031 A 
BRANCH  58  72
ATOM     72  C   UNL A   1      42.065  23.458  27.431  1.00  0.00    -0.014 A 
ATOM     73  C   UNL A   1      41.890  22.568  28.502  1.00  0.00     0.009 A 
ATOM     74  C   UNL A   1      41.599  23.097  26.159  1.00  0.00     0.009 A 
ATOM     75  C   UNL A   1      41.280  21.329  28.295  1.00  0.00     0.001 A 
ATOM     76  C   UNL A   1      40.967  21.869  25.960  1.00  0.00     0.001 A 
ATOM     77  C   UNL A   1      40.815  20.984  27.026  1.00  0.00     0.000 A 
ENDBRANCH  58  72
BRANCH  59  78
ATOM     78  C   UNL A   1      46.076  32.473  28.907  1.00  0.00    -0.014 A 
ATOM     79  C   UNL A   1      46.613  32.859  30.146  1.00  0.00     0.009 A 
ATOM     80  C   UNL A   1      46.066  33.408  27.859  1.00  0.00     0.009 A 
ATOM     81  C   UNL A   1      47.085  34.161  30.345  1.00  0.00     0.001 A 
ATOM     82  C   UNL A   1      46.574  34.696  28.048  1.00  0.00     0.001 A 
ATOM     83  C   UNL A   1      47.068  35.076  29.294  1.00  0.00     0.000 A 
ENDBRANCH  59  78
BRANCH  71  84
ATOM     84  C   UNL A   1      48.687  26.297  27.085  1.00  0.00    -0.014 A 
ATOM     85  C   UNL A   1      49.524  25.777  28.087  1.00  0.00     0.009 A 
ATOM     86  C   UNL A   1      49.161  26.355  25.766  1.00  0.00     0.009 A 
ATOM     87  C   UNL A   1      50.821  25.364  27.778  1.00  0.00     0.001 A 
ATOM     88  C   UNL A   1      50.447  25.912  25.455  1.00  0.00     0.001 A 
ATOM     89  C   UNL A   1      51.280  25.427  26.463  1.00  0.00     0.000 A 
ENDBRANCH  71  84
ENDBRANCH  45  46
ENDBRANCH  38  40
ENDBRANCH  37  38
ENDBRANCH  36  37
ENDBRANCH  35  36
ENDBRANCH  34  35
ENDBRANCH   1  34
TORSDOF 18
ENDMDL
MODEL 2
REMARK VINA RESULT:     -11.4      4.449      7.839
REMARK SMILES NC(=O)c1c(-c2ccc(Cl)cc2)csc1NC(=O)[C@H]1[C@@H](C(=O)OCCOCCOC(=O)c2ccc(-c3c4nc(c(-c5ccccc5)c5ccc([nH]5)c(-c5ccccc5)c5nc(c(-c6ccccc6)c6ccc3[nH]6)C=C5)C=C4)cc2)[C@@H]2CC[C@H]1O2
REMARK SMILES IDX 25 1 24 2 23 3 21 4 22 5 20 6 19 7 83 8 80 9 82 10 84 11
REMARK SMILES IDX 81 12 17 13 16 14 18 16 15 17 4 18 5 19 13 20 14 21 2 22
REMARK SMILES IDX 1 23 3 26 6 27 7 28 12 29 8 30 11 31 9 32 10 33 26 34 27 35
REMARK SMILES IDX 28 36 29 37 30 38 31 39 32 40 33 41 79 42 34 43 78 44 35 45
REMARK SMILES IDX 36 46 37 47 72 48 38 49 77 50 71 51 73 52 39 53 76 54 70 55
REMARK SMILES IDX 69 56 40 58 62 59 47 60 61 61 48 62 51 63 60 64 74 65 49 66
REMARK SMILES IDX 50 67 59 69 75 70 52 71 41 72 42 73 46 74 43 75 45 76 44 77
REMARK SMILES IDX 63 78 64 79 68 80 65 81 67 82 66 83 53 84 54 85 58 86 55 87
REMARK SMILES IDX 57 88 56 89
REMARK H PARENT 16 15 1 24 1 25 73 57 51 68
REMARK Flexibility Score: inf
ROOT
ATOM      1  C   UNL A   1      33.901  31.657  27.669  1.00  0.00     0.202 C 
ENDROOT
BRANCH   1   2
ATOM      2  C   UNL A   1      33.059  30.508  27.163  1.00  0.00     0.261 C 
BRANCH   2   3
ATOM      3  O   UNL A   1      32.623  30.524  25.802  1.00  0.00    -0.463 OA
BRANCH   3   4
ATOM      4  C   UNL A   1      32.853  29.337  25.197  1.00  0.00     0.312 C 
ATOM      5  O   UNL A   1      33.919  28.735  25.266  1.00  0.00    -0.252 OA
BRANCH   4   6
ATOM      6  C   UNL A   1      31.663  28.740  24.522  1.00  0.00     0.143 C 
ATOM      7  C   UNL A   1      30.999  27.684  25.410  1.00  0.00     0.124 C 
ATOM      8  C   UNL A   1      30.431  26.726  24.379  1.00  0.00     0.132 C 
ATOM      9  C   UNL A   1      31.737  28.002  23.174  1.00  0.00     0.133 C 
ATOM     10  C   UNL A   1      29.450  27.435  23.422  1.00  0.00     0.035 C 
ATOM     11  O   UNL A   1      31.569  26.602  23.511  1.00  0.00    -0.373 OA
ATOM     12  C   UNL A   1      30.404  28.142  22.438  1.00  0.00     0.036 C 
BRANCH   7  13
ATOM     13  C   UNL A   1      31.729  26.988  26.589  1.00  0.00     0.231 C 
ATOM     14  N   UNL A   1      32.649  25.980  26.585  1.00  0.00    -0.317 N 
ATOM     15  H   UNL A   1      33.176  25.966  27.416  1.00  0.00     0.170 HD
ATOM     16  O   UNL A   1      31.509  27.484  27.712  1.00  0.00    -0.274 OA
BRANCH  14  17
ATOM     17  C   UNL A   1      33.037  24.971  25.717  1.00  0.00     0.108 A 
ATOM     18  C   UNL A   1      32.477  23.693  25.588  1.00  0.00     0.082 A 
ATOM     19  C   UNL A   1      33.285  22.874  24.684  1.00  0.00     0.007 A 
ATOM     20  C   UNL A   1      34.235  23.642  24.041  1.00  0.00     0.076 A 
ATOM     21  S   UNL A   1      34.142  25.278  24.484  1.00  0.00    -0.125 S 
BRANCH  18  22
ATOM     22  C   UNL A   1      31.337  23.294  26.420  1.00  0.00     0.252 C 
ATOM     23  N   UNL A   1      30.231  22.805  25.786  1.00  0.00    -0.365 N 
ATOM     24  H   UNL A   1      29.446  22.526  26.310  1.00  0.00     0.159 HD
ATOM     25  H   UNL A   1      30.220  22.731  24.805  1.00  0.00     0.159 HD
ATOM     26  O   UNL A   1      31.372  23.332  27.647  1.00  0.00    -0.269 OA
ENDBRANCH  18  22
BRANCH  19  27
ATOM     27  C   UNL A   1      33.264  21.427  24.449  1.00  0.00    -0.017 A 
ATOM     28  C   UNL A   1      32.304  20.873  23.585  1.00  0.00     0.010 A 
ATOM     29  C   UNL A   1      34.222  20.583  25.019  1.00  0.00     0.010 A 
ATOM     30  C   UNL A   1      32.355  19.523  23.237  1.00  0.00     0.021 A 
ATOM     31  C   UNL A   1      34.239  19.217  24.702  1.00  0.00     0.021 A 
ATOM     32  C   UNL A   1      33.313  18.695  23.803  1.00  0.00     0.041 A 
ATOM     33  Cl  UNL A   1      33.347  17.030  23.380  1.00  0.00    -0.084 Cl
ENDBRANCH  19  27
ENDBRANCH  14  17
ENDBRANCH   7  13
ENDBRANCH   4   6
ENDBRANCH   3   4
ENDBRANCH   2   3
ENDBRANCH   1   2
BRANCH   1  34
ATOM     34  O   UNL A   1      33.245  32.860  28.035  1.00  0.00    -0.374 OA
BRANCH  34  35
ATOM     35  C   UNL A   1      34.050  33.875  28.624  1.00  0.00     0.202 C 
BRANCH  35  36
ATOM     36  C   UNL A   1      33.314  35.124  29.136  1.00  0.00     0.261 C 
BRANCH  36  37
ATOM     37  O   UNL A   1      32.505  34.874  30.298  1.00  0.00    -0.460 OA
BRANCH  37  38
ATOM     38  C   UNL A   1      32.880  35.581  31.402  1.00  0.00     0.338 C 
ATOM     39  O   UNL A   1      32.305  36.526  31.895  1.00  0.00    -0.246 OA
BRANCH  38  40
ATOM     40  C   UNL A   1      34.009  34.882  32.076  1.00  0.00     0.060 A 
ATOM     41  C   UNL A   1      35.224  35.576  32.176  1.00  0.00     0.016 A 
ATOM     42  C   UNL A   1      33.887  33.604  32.630  1.00  0.00     0.016 A 
ATOM     43  C   UNL A   1      36.336  34.964  32.758  1.00  0.00     0.010 A 
ATOM     44  C   UNL A   1      35.010  32.976  33.186  1.00  0.00     0.010 A 
ATOM     45  C   UNL A   1      36.251  33.634  33.203  1.00  0.00    -0.014 A 
BRANCH  45  46
ATOM     46  C   UNL A   1      37.514  32.867  33.369  1.00  0.00     0.031 A 
ATOM     47  C   UNL A   1      38.244  33.029  34.678  1.00  0.00     0.074 A 
ATOM     48  C   UNL A   1      37.991  32.022  32.437  1.00  0.00     0.049 A 
ATOM     49  N   UNL A   1      39.317  32.421  35.114  1.00  0.00    -0.248 NA
ATOM     50  C   UNL A   1      37.693  34.025  35.615  1.00  0.00     0.031 C 
ATOM     51  C   UNL A   1      37.408  31.791  31.120  1.00  0.00     0.029 A 
ATOM     52  N   UNL A   1      39.065  31.166  32.480  1.00  0.00    -0.354 N 
ATOM     53  C   UNL A   1      39.570  32.964  36.367  1.00  0.00     0.074 A 
ATOM     54  C   UNL A   1      38.542  33.948  36.625  1.00  0.00     0.031 C 
ATOM     55  C   UNL A   1      38.065  30.782  30.521  1.00  0.00     0.029 A 
ATOM     56  C   UNL A   1      39.171  30.353  31.375  1.00  0.00     0.049 A 
ATOM     57  H   UNL A   1      39.700  31.137  33.232  1.00  0.00     0.167 HD
ATOM     58  C   UNL A   1      40.582  32.695  37.222  1.00  0.00     0.031 A 
ATOM     59  C   UNL A   1      40.066  29.386  31.087  1.00  0.00     0.031 A 
ATOM     60  C   UNL A   1      41.647  31.775  36.949  1.00  0.00     0.049 A 
ATOM     61  C   UNL A   1      41.202  29.128  32.048  1.00  0.00     0.074 A 
ATOM     62  C   UNL A   1      42.754  31.482  37.725  1.00  0.00     0.029 A 
ATOM     63  N   UNL A   1      41.744  31.007  35.800  1.00  0.00    -0.354 N 
ATOM     64  N   UNL A   1      41.426  29.647  33.232  1.00  0.00    -0.248 NA
ATOM     65  C   UNL A   1      42.229  28.166  31.614  1.00  0.00     0.031 C 
ATOM     66  C   UNL A   1      43.549  30.571  37.022  1.00  0.00     0.029 A 
ATOM     67  C   UNL A   1      42.903  30.252  35.838  1.00  0.00     0.049 A 
ATOM     68  H   UNL A   1      41.088  30.999  35.067  1.00  0.00     0.167 HD
ATOM     69  C   UNL A   1      42.614  29.078  33.678  1.00  0.00     0.074 A 
ATOM     70  C   UNL A   1      43.038  28.138  32.662  1.00  0.00     0.031 C 
ATOM     71  C   UNL A   1      43.310  29.327  34.815  1.00  0.00     0.031 A 
BRANCH  58  72
ATOM     72  C   UNL A   1      40.610  33.470  38.506  1.00  0.00    -0.014 A 
ATOM     73  C   UNL A   1      41.254  34.714  38.589  1.00  0.00     0.009 A 
ATOM     74  C   UNL A   1      39.982  32.948  39.646  1.00  0.00     0.009 A 
ATOM     75  C   UNL A   1      41.289  35.409  39.800  1.00  0.00     0.001 A 
ATOM     76  C   UNL A   1      39.997  33.656  40.848  1.00  0.00     0.001 A 
ATOM     77  C   UNL A   1      40.656  34.882  40.926  1.00  0.00     0.000 A 
ENDBRANCH  58  72
BRANCH  59  78
ATOM     78  C   UNL A   1      39.985  28.608  29.817  1.00  0.00    -0.014 A 
ATOM     79  C   UNL A   1      39.376  27.342  29.791  1.00  0.00     0.009 A 
ATOM     80  C   UNL A   1      40.593  29.085  28.644  1.00  0.00     0.009 A 
ATOM     81  C   UNL A   1      39.414  26.556  28.635  1.00  0.00     0.001 A 
ATOM     82  C   UNL A   1      40.595  28.314  27.479  1.00  0.00     0.001 A 
ATOM     83  C   UNL A   1      40.021  27.045  27.479  1.00  0.00     0.000 A 
ENDBRANCH  59  78
BRANCH  71  84
ATOM     84  C   UNL A   1      44.588  28.565  35.022  1.00  0.00    -0.014 A 
ATOM     85  C   UNL A   1      45.820  29.079  34.585  1.00  0.00     0.009 A 
ATOM     86  C   UNL A   1      44.566  27.337  35.700  1.00  0.00     0.009 A 
ATOM     87  C   UNL A   1      46.998  28.358  34.787  1.00  0.00     0.001 A 
ATOM     88  C   UNL A   1      45.749  26.633  35.929  1.00  0.00     0.001 A 
ATOM     89  C   UNL A   1      46.962  27.138  35.463  1.00  0.00     0.000 A 
ENDBRANCH  71  84
ENDBRANCH  45  46
ENDBRANCH  38  40
ENDBRANCH  37  38
ENDBRANCH  36  37
ENDBRANCH  35  36
ENDBRANCH  34  35
ENDBRANCH   1  34
TORSDOF 18
ENDMDL
MODEL 3
REMARK VINA RESULT:     -11.2      2.374      7.377
REMARK SMILES NC(=O)c1c(-c2ccc(Cl)cc2)csc1NC(=O)[C@H]1[C@@H](C(=O)OCCOCCOC(=O)c2ccc(-c3c4nc(c(-c5ccccc5)c5ccc([nH]5)c(-c5ccccc5)c5nc(c(-c6ccccc6)c6ccc3[nH]6)C=C5)C=C4)cc2)[C@@H]2CC[C@H]1O2
REMARK SMILES IDX 25 1 24 2 23 3 21 4 22 5 20 6 19 7 83 8 80 9 82 10 84 11
REMARK SMILES IDX 81 12 17 13 16 14 18 16 15 17 4 18 5 19 13 20 14 21 2 22
REMARK SMILES IDX 1 23 3 26 6 27 7 28 12 29 8 30 11 31 9 32 10 33 26 34 27 35
REMARK SMILES IDX 28 36 29 37 30 38 31 39 32 40 33 41 79 42 34 43 78 44 35 45
REMARK SMILES IDX 36 46 37 47 72 48 38 49 77 50 71 51 73 52 39 53 76 54 70 55
REMARK SMILES IDX 69 56 40 58 62 59 47 60 61 61 48 62 51 63 60 64 74 65 49 66
REMARK SMILES IDX 50 67 59 69 75 70 52 71 41 72 42 73 46 74 43 75 45 76 44 77
REMARK SMILES IDX 63 78 64 79 68 80 65 81 67 82 66 83 53 84 54 85 58 86 55 87
REMARK SMILES IDX 57 88 56 89
REMARK H PARENT 16 15 1 24 1 25 73 57 51 68
REMARK Flexibility Score: inf
ROOT
ATOM      1  C   UNL A   1      36.167  22.821  25.883  1.00  0.00     0.202 C 
ENDROOT
BRANCH   1   2
ATOM      2  C   UNL A   1      35.787  24.257  25.602  1.00  0.00     0.261 C 
BRANCH   2   3
ATOM      3  O   UNL A   1      34.463  24.692  25.921  1.00  0.00    -0.463 OA
BRANCH   3   4
ATOM      4  C   UNL A   1      34.124  25.795  25.216  1.00  0.00     0.312 C 
ATOM      5  O   UNL A   1      34.303  25.910  24.008  1.00  0.00    -0.252 OA
BRANCH   4   6
ATOM      6  C   UNL A   1      33.400  26.838  25.999  1.00  0.00     0.143 C 
ATOM      7  C   UNL A   1      31.921  26.894  25.606  1.00  0.00     0.124 C 
ATOM      8  C   UNL A   1      31.596  28.358  25.836  1.00  0.00     0.132 C 
ATOM      9  C   UNL A   1      33.778  28.329  25.976  1.00  0.00     0.133 C 
ATOM     10  C   UNL A   1      31.863  28.779  27.296  1.00  0.00     0.035 C 
ATOM     11  O   UNL A   1      32.732  28.962  25.198  1.00  0.00    -0.373 OA
ATOM     12  C   UNL A   1      33.392  28.978  27.306  1.00  0.00     0.036 C 
BRANCH   7  13
ATOM     13  C   UNL A   1      31.379  26.325  24.268  1.00  0.00     0.231 C 
ATOM     14  N   UNL A   1      31.054  25.045  23.922  1.00  0.00    -0.317 N 
ATOM     15  H   UNL A   1      30.441  25.022  23.152  1.00  0.00     0.170 HD
ATOM     16  O   UNL A   1      31.117  27.179  23.399  1.00  0.00    -0.274 OA
BRANCH  14  17
ATOM     17  C   UNL A   1      31.359  23.770  24.370  1.00  0.00     0.108 A 
ATOM     18  C   UNL A   1      32.289  22.873  23.827  1.00  0.00     0.082 A 
ATOM     19  C   UNL A   1      32.184  21.571  24.487  1.00  0.00     0.007 A 
ATOM     20  C   UNL A   1      31.367  21.647  25.598  1.00  0.00     0.076 A 
ATOM     21  S   UNL A   1      30.776  23.218  25.851  1.00  0.00    -0.125 S 
BRANCH  18  22
ATOM     22  C   UNL A   1      33.085  23.248  22.653  1.00  0.00     0.252 C 
ATOM     23  N   UNL A   1      34.431  23.025  22.705  1.00  0.00    -0.365 N 
ATOM     24  H   UNL A   1      34.999  23.263  21.937  1.00  0.00     0.159 HD
ATOM     25  H   UNL A   1      34.833  22.627  23.510  1.00  0.00     0.159 HD
ATOM     26  O   UNL A   1      32.577  23.692  21.628  1.00  0.00    -0.269 OA
ENDBRANCH  18  22
BRANCH  19  27
ATOM     27  C   UNL A   1      32.737  20.270  24.100  1.00  0.00    -0.017 A 
ATOM     28  C   UNL A   1      33.842  19.746  24.793  1.00  0.00     0.010 A 
ATOM     29  C   UNL A   1      32.150  19.499  23.092  1.00  0.00     0.010 A 
ATOM     30  C   UNL A   1      34.293  18.451  24.537  1.00  0.00     0.021 A 
ATOM     31  C   UNL A   1      32.639  18.217  22.806  1.00  0.00     0.021 A 
ATOM     32  C   UNL A   1      33.700  17.693  23.539  1.00  0.00     0.041 A 
ATOM     33  Cl  UNL A   1      34.284  16.108  23.221  1.00  0.00    -0.084 Cl
ENDBRANCH  19  27
ENDBRANCH  14  17
ENDBRANCH   7  13
ENDBRANCH   4   6
ENDBRANCH   3   4
ENDBRANCH   2   3
ENDBRANCH   1   2
BRANCH   1  34
ATOM     34  O   UNL A   1      36.222  21.916  24.794  1.00  0.00    -0.374 OA
BRANCH  34  35
ATOM     35  C   UNL A   1      37.408  21.140  24.665  1.00  0.00     0.202 C 
BRANCH  35  36
ATOM     36  C   UNL A   1      38.543  21.450  25.654  1.00  0.00     0.261 C 
BRANCH  36  37
ATOM     37  O   UNL A   1      39.057  20.284  26.318  1.00  0.00    -0.460 OA
BRANCH  37  38
ATOM     38  C   UNL A   1      40.395  20.085  26.143  1.00  0.00     0.338 C 
ATOM     39  O   UNL A   1      40.926  19.192  25.522  1.00  0.00    -0.246 OA
BRANCH  38  40
ATOM     40  C   UNL A   1      41.141  21.272  26.648  1.00  0.00     0.060 A 
ATOM     41  C   UNL A   1      41.165  21.471  28.036  1.00  0.00     0.016 A 
ATOM     42  C   UNL A   1      41.830  22.148  25.804  1.00  0.00     0.016 A 
ATOM     43  C   UNL A   1      41.811  22.586  28.573  1.00  0.00     0.010 A 
ATOM     44  C   UNL A   1      42.450  23.286  26.339  1.00  0.00     0.010 A 
ATOM     45  C   UNL A   1      42.397  23.536  27.720  1.00  0.00    -0.014 A 
BRANCH  45  46
ATOM     46  C   UNL A   1      42.645  24.901  28.253  1.00  0.00     0.031 A 
ATOM     47  C   UNL A   1      44.083  25.303  28.458  1.00  0.00     0.074 A 
ATOM     48  C   UNL A   1      41.661  25.782  28.509  1.00  0.00     0.049 A 
ATOM     49  N   UNL A   1      44.582  26.453  28.832  1.00  0.00    -0.248 NA
ATOM     50  C   UNL A   1      45.094  24.256  28.221  1.00  0.00     0.031 C 
ATOM     51  C   UNL A   1      40.232  25.521  28.386  1.00  0.00     0.029 A 
ATOM     52  N   UNL A   1      41.726  27.101  28.890  1.00  0.00    -0.354 N 
ATOM     53  C   UNL A   1      45.957  26.265  28.881  1.00  0.00     0.074 A 
ATOM     54  C   UNL A   1      46.218  24.895  28.498  1.00  0.00     0.031 C 
ATOM     55  C   UNL A   1      39.558  26.668  28.583  1.00  0.00     0.029 A 
ATOM     56  C   UNL A   1      40.502  27.728  28.932  1.00  0.00     0.049 A 
ATOM     57  H   UNL A   1      42.571  27.556  29.113  1.00  0.00     0.167 HD
ATOM     58  C   UNL A   1      46.923  27.141  29.239  1.00  0.00     0.031 A 
ATOM     59  C   UNL A   1      40.187  29.005  29.229  1.00  0.00     0.031 A 
ATOM     60  C   UNL A   1      46.673  28.479  29.689  1.00  0.00     0.049 A 
ATOM     61  C   UNL A   1      41.284  29.953  29.653  1.00  0.00     0.074 A 
ATOM     62  C   UNL A   1      47.581  29.422  30.136  1.00  0.00     0.029 A 
ATOM     63  N   UNL A   1      45.418  29.060  29.762  1.00  0.00    -0.354 N 
ATOM     64  N   UNL A   1      42.580  29.761  29.691  1.00  0.00    -0.248 NA
ATOM     65  C   UNL A   1      40.864  31.288  30.107  1.00  0.00     0.031 C 
ATOM     66  C   UNL A   1      46.869  30.560  30.528  1.00  0.00     0.029 A 
ATOM     67  C   UNL A   1      45.525  30.345  30.264  1.00  0.00     0.049 A 
ATOM     68  H   UNL A   1      44.576  28.625  29.497  1.00  0.00     0.167 HD
ATOM     69  C   UNL A   1      43.125  30.947  30.172  1.00  0.00     0.074 A 
ATOM     70  C   UNL A   1      42.026  31.867  30.365  1.00  0.00     0.031 C 
ATOM     71  C   UNL A   1      44.418  31.243  30.454  1.00  0.00     0.031 A 
BRANCH  58  72
ATOM     72  C   UNL A   1      48.336  26.637  29.221  1.00  0.00    -0.014 A 
ATOM     73  C   UNL A   1      49.159  26.824  28.100  1.00  0.00     0.009 A 
ATOM     74  C   UNL A   1      48.849  25.969  30.343  1.00  0.00     0.009 A 
ATOM     75  C   UNL A   1      50.464  26.327  28.095  1.00  0.00     0.001 A 
ATOM     76  C   UNL A   1      50.161  25.496  30.344  1.00  0.00     0.001 A 
ATOM     77  C   UNL A   1      50.965  25.669  29.218  1.00  0.00     0.000 A 
ENDBRANCH  58  72
BRANCH  59  78
ATOM     78  C   UNL A   1      38.773  29.482  29.200  1.00  0.00    -0.014 A 
ATOM     79  C   UNL A   1      37.976  29.427  30.356  1.00  0.00     0.009 A 
ATOM     80  C   UNL A   1      38.186  29.911  27.999  1.00  0.00     0.009 A 
ATOM     81  C   UNL A   1      36.616  29.748  30.300  1.00  0.00     0.001 A 
ATOM     82  C   UNL A   1      36.836  30.270  27.955  1.00  0.00     0.001 A 
ATOM     83  C   UNL A   1      36.049  30.173  29.100  1.00  0.00     0.000 A 
ENDBRANCH  59  78
BRANCH  71  84
ATOM     84  C   UNL A   1      44.711  32.617  30.988  1.00  0.00    -0.014 A 
ATOM     85  C   UNL A   1      45.019  33.682  30.125  1.00  0.00     0.009 A 
ATOM     86  C   UNL A   1      44.636  32.860  32.368  1.00  0.00     0.009 A 
ATOM     87  C   UNL A   1      45.287  34.952  30.639  1.00  0.00     0.001 A 
ATOM     88  C   UNL A   1      44.873  34.138  32.876  1.00  0.00     0.001 A 
ATOM     89  C   UNL A   1      45.210  35.180  32.013  1.00  0.00     0.000 A 
ENDBRANCH  71  84
ENDBRANCH  45  46
ENDBRANCH  38  40
ENDBRANCH  37  38
ENDBRANCH  36  37
ENDBRANCH  35  36
ENDBRANCH  34  35
ENDBRANCH   1  34
TORSDOF 18
ENDMDL
