MODEL 1
REMARK VINA RESULT:     -10.8      0.000      0.000
REMARK SMILES CC(C)N(c1cc2c(cc1Cl)C=C(C(=O)OCCOCCOC(=O)c1ccc(-c3c4nc(c(-c5ccccc5)c5ccc([nH]5)c(-c5ccccc5)c5nc(c(-c6ccccc6)c6ccc3[nH]6)C=C5)C=C4)cc1)[C@@H](C(F)(F)F)O2)C(C)C
REMARK SMILES IDX 19 1 18 2 17 3 16 4 14 5 15 6 13 7 5 8 6 9 10 10 7 11 9 12
REMARK SMILES IDX 11 13 8 14 78 15 12 16 73 17 4 18 2 19 1 20 3 21 79 22 80 23
REMARK SMILES IDX 81 24 74 25 75 26 76 27 77 28 20 29 21 30 22 31 23 32 24 33
REMARK SMILES IDX 25 34 26 35 72 36 27 37 71 38 28 39 29 40 30 41 65 42 31 43
REMARK SMILES IDX 70 44 64 45 66 46 32 47 69 48 63 49 62 50 33 52 55 53 40 54
REMARK SMILES IDX 54 55 41 56 44 57 53 58 67 59 42 60 43 61 52 63 68 64 45 65
REMARK SMILES IDX 34 66 35 67 39 68 36 69 38 70 37 71 56 72 57 73 61 74 58 75
REMARK SMILES IDX 60 76 59 77 46 78 47 79 51 80 48 81 50 82 49 83
REMARK H PARENT 66 51 44 62
REMARK Flexibility Score: inf
ROOT
ATOM      1  O   UNL A   1      39.705  21.003  26.647  1.00  0.00    -0.374 OA
ENDROOT
BRANCH   1   2
ATOM      2  C   UNL A   1      38.826  21.738  25.801  1.00  0.00     0.202 C 
BRANCH   2   3
ATOM      3  C   UNL A   1      37.662  20.990  25.143  1.00  0.00     0.261 C 
BRANCH   3   4
ATOM      4  O   UNL A   1      36.621  21.876  24.708  1.00  0.00    -0.460 OA
BRANCH   4   5
ATOM      5  C   UNL A   1      35.384  21.324  24.732  1.00  0.00     0.338 C 
ATOM      6  O   UNL A   1      35.115  20.140  24.856  1.00  0.00    -0.246 OA
BRANCH   5   7
ATOM      7  C   UNL A   1      34.358  22.382  24.714  1.00  0.00     0.087 C 
ATOM      8  C   UNL A   1      32.294  26.963  24.326  1.00  0.00     0.060 A 
ATOM      9  C   UNL A   1      31.944  25.755  24.984  1.00  0.00     0.074 A 
ATOM     10  C   UNL A   1      33.350  26.874  23.387  1.00  0.00     0.065 A 
ATOM     11  C   UNL A   1      32.666  24.569  24.813  1.00  0.00     0.130 A 
ATOM     12  C   UNL A   1      34.034  25.669  23.173  1.00  0.00     0.034 A 
ATOM     13  Cl  UNL A   1      34.011  28.219  22.516  1.00  0.00    -0.082 Cl
ATOM     14  C   UNL A   1      33.726  24.535  23.919  1.00  0.00     0.019 A 
ATOM     15  O   UNL A   1      32.290  23.494  25.572  1.00  0.00    -0.475 OA
ATOM     16  C   UNL A   1      34.581  23.370  23.840  1.00  0.00     0.027 C 
ATOM     17  C   UNL A   1      33.198  22.354  25.671  1.00  0.00     0.316 C 
BRANCH   8  18
ATOM     18  N   UNL A   1      31.622  28.154  24.686  1.00  0.00    -0.365 N 
BRANCH  18  19
ATOM     19  C   UNL A   1      32.121  28.932  25.846  1.00  0.00     0.076 C 
ATOM     20  C   UNL A   1      31.783  30.419  25.760  1.00  0.00     0.030 C 
ATOM     21  C   UNL A   1      31.681  28.367  27.198  1.00  0.00     0.030 C 
ENDBRANCH  18  19
BRANCH  18  22
ATOM     22  C   UNL A   1      30.422  28.496  23.879  1.00  0.00     0.076 C 
ATOM     23  C   UNL A   1      30.756  29.193  22.563  1.00  0.00     0.030 C 
ATOM     24  C   UNL A   1      29.482  27.315  23.664  1.00  0.00     0.030 C 
ENDBRANCH  18  22
ENDBRANCH   8  18
BRANCH  17  25
ATOM     25  C   UNL A   1      33.648  22.201  27.133  1.00  0.00     0.430 C 
ATOM     26  F   UNL A   1      34.774  22.914  27.379  1.00  0.00    -0.167 F 
ATOM     27  F   UNL A   1      32.709  22.658  27.996  1.00  0.00    -0.167 F 
ATOM     28  F   UNL A   1      33.902  20.913  27.455  1.00  0.00    -0.167 F 
ENDBRANCH  17  25
ENDBRANCH   5   7
ENDBRANCH   4   5
ENDBRANCH   3   4
ENDBRANCH   2   3
ENDBRANCH   1   2
BRANCH   1  29
ATOM     29  C   UNL A   1      40.974  20.599  26.136  1.00  0.00     0.202 C 
BRANCH  29  30
ATOM     30  C   UNL A   1      42.155  21.573  26.240  1.00  0.00     0.261 C 
BRANCH  30  31
ATOM     31  O   UNL A   1      41.899  22.840  25.614  1.00  0.00    -0.460 OA
BRANCH  31  32
ATOM     32  C   UNL A   1      42.863  23.775  25.803  1.00  0.00     0.338 C 
ATOM     33  O   UNL A   1      43.928  23.875  25.213  1.00  0.00    -0.246 OA
BRANCH  32  34
ATOM     34  C   UNL A   1      42.353  24.816  26.713  1.00  0.00     0.060 A 
ATOM     35  C   UNL A   1      41.237  24.584  27.516  1.00  0.00     0.016 A 
ATOM     36  C   UNL A   1      43.041  26.034  26.779  1.00  0.00     0.016 A 
ATOM     37  C   UNL A   1      40.819  25.578  28.404  1.00  0.00     0.010 A 
ATOM     38  C   UNL A   1      42.622  27.025  27.666  1.00  0.00     0.010 A 
ATOM     39  C   UNL A   1      41.517  26.796  28.498  1.00  0.00    -0.014 A 
BRANCH  39  40
ATOM     40  C   UNL A   1      41.169  27.772  29.559  1.00  0.00     0.031 A 
ATOM     41  C   UNL A   1      40.031  28.733  29.402  1.00  0.00     0.074 A 
ATOM     42  C   UNL A   1      41.921  27.796  30.676  1.00  0.00     0.049 A 
ATOM     43  N   UNL A   1      39.549  29.577  30.279  1.00  0.00    -0.248 NA
ATOM     44  C   UNL A   1      39.352  28.759  28.099  1.00  0.00     0.031 C 
ATOM     45  C   UNL A   1      43.079  26.935  30.919  1.00  0.00     0.029 A 
ATOM     46  N   UNL A   1      41.820  28.556  31.813  1.00  0.00    -0.354 N 
ATOM     47  C   UNL A   1      38.502  30.229  29.641  1.00  0.00     0.074 A 
ATOM     48  C   UNL A   1      38.451  29.716  28.287  1.00  0.00     0.031 C 
ATOM     49  C   UNL A   1      43.554  27.183  32.147  1.00  0.00     0.029 A 
ATOM     50  C   UNL A   1      42.762  28.246  32.763  1.00  0.00     0.049 A 
ATOM     51  H   UNL A   1      41.138  29.256  31.937  1.00  0.00     0.167 HD
ATOM     52  C   UNL A   1      37.657  31.157  30.148  1.00  0.00     0.031 A 
ATOM     53  C   UNL A   1      42.968  28.748  33.996  1.00  0.00     0.031 A 
ATOM     54  C   UNL A   1      37.734  31.675  31.492  1.00  0.00     0.049 A 
ATOM     55  C   UNL A   1      42.039  29.802  34.527  1.00  0.00     0.074 A 
ATOM     56  C   UNL A   1      36.881  32.570  32.114  1.00  0.00     0.029 A 
ATOM     57  N   UNL A   1      38.728  31.369  32.410  1.00  0.00    -0.354 N 
ATOM     58  N   UNL A   1      40.989  30.335  33.951  1.00  0.00    -0.248 NA
ATOM     59  C   UNL A   1      42.308  30.312  35.878  1.00  0.00     0.031 C 
ATOM     60  C   UNL A   1      37.408  32.876  33.369  1.00  0.00     0.029 A 
ATOM     61  C   UNL A   1      38.536  32.096  33.574  1.00  0.00     0.049 A 
ATOM     62  H   UNL A   1      39.459  30.727  32.258  1.00  0.00     0.167 HD
ATOM     63  C   UNL A   1      40.458  31.227  34.874  1.00  0.00     0.074 A 
ATOM     64  C   UNL A   1      41.295  31.151  36.055  1.00  0.00     0.031 C 
ATOM     65  C   UNL A   1      39.376  32.032  34.746  1.00  0.00     0.031 A 
BRANCH  52  66
ATOM     66  C   UNL A   1      36.568  31.691  29.254  1.00  0.00    -0.014 A 
ATOM     67  C   UNL A   1      36.683  32.980  28.704  1.00  0.00     0.009 A 
ATOM     68  C   UNL A   1      35.381  30.972  29.039  1.00  0.00     0.009 A 
ATOM     69  C   UNL A   1      35.634  33.540  27.973  1.00  0.00     0.001 A 
ATOM     70  C   UNL A   1      34.347  31.520  28.276  1.00  0.00     0.001 A 
ATOM     71  C   UNL A   1      34.470  32.807  27.755  1.00  0.00     0.000 A 
ENDBRANCH  52  66
BRANCH  53  72
ATOM     72  C   UNL A   1      44.082  28.196  34.812  1.00  0.00    -0.014 A 
ATOM     73  C   UNL A   1      45.346  28.810  34.803  1.00  0.00     0.009 A 
ATOM     74  C   UNL A   1      43.919  26.992  35.514  1.00  0.00     0.009 A 
ATOM     75  C   UNL A   1      46.433  28.207  35.437  1.00  0.00     0.001 A 
ATOM     76  C   UNL A   1      45.003  26.408  36.175  1.00  0.00     0.001 A 
ATOM     77  C   UNL A   1      46.261  27.007  36.123  1.00  0.00     0.000 A 
ENDBRANCH  53  72
BRANCH  65  78
ATOM     78  C   UNL A   1      39.003  32.916  35.909  1.00  0.00    -0.014 A 
ATOM     79  C   UNL A   1      39.591  34.186  36.036  1.00  0.00     0.009 A 
ATOM     80  C   UNL A   1      38.177  32.448  36.944  1.00  0.00     0.009 A 
ATOM     81  C   UNL A   1      39.386  34.954  37.184  1.00  0.00     0.001 A 
ATOM     82  C   UNL A   1      37.945  33.235  38.074  1.00  0.00     0.001 A 
ATOM     83  C   UNL A   1      38.561  34.479  38.201  1.00  0.00     0.000 A 
ENDBRANCH  65  78
ENDBRANCH  39  40
ENDBRANCH  32  34
ENDBRANCH  31  32
ENDBRANCH  30  31
ENDBRANCH  29  30
ENDBRANCH   1  29
TORSDOF 18
ENDMDL
MODEL 2
REMARK VINA RESULT:     -10.4      3.543      4.791
REMARK SMILES CC(C)N(c1cc2c(cc1Cl)C=C(C(=O)OCCOCCOC(=O)c1ccc(-c3c4nc(c(-c5ccccc5)c5ccc([nH]5)c(-c5ccccc5)c5nc(c(-c6ccccc6)c6ccc3[nH]6)C=C5)C=C4)cc1)[C@@H](C(F)(F)F)O2)C(C)C
REMARK SMILES IDX 19 1 18 2 17 3 16 4 14 5 15 6 13 7 5 8 6 9 10 10 7 11 9 12
REMARK SMILES IDX 11 13 8 14 78 15 12 16 73 17 4 18 2 19 1 20 3 21 79 22 80 23
REMARK SMILES IDX 81 24 74 25 75 26 76 27 77 28 20 29 21 30 22 31 23 32 24 33
REMARK SMILES IDX 25 34 26 35 72 36 27 37 71 38 28 39 29 40 30 41 65 42 31 43
REMARK SMILES IDX 70 44 64 45 66 46 32 47 69 48 63 49 62 50 33 52 55 53 40 54
REMARK SMILES IDX 54 55 41 56 44 57 53 58 67 59 42 60 43 61 52 63 68 64 45 65
REMARK SMILES IDX 34 66 35 67 39 68 36 69 38 70 37 71 56 72 57 73 61 74 58 75
REMARK SMILES IDX 60 76 59 77 46 78 47 79 51 80 48 81 50 82 49 83
REMARK H PARENT 66 51 44 62
REMARK Flexibility Score: inf
ROOT
ATOM      1  O   UNL A   1      39.201  21.507  25.750  1.00  0.00    -0.374 OA
ENDROOT
BRANCH   1   2
ATOM      2  C   UNL A   1      38.054  22.348  25.669  1.00  0.00     0.202 C 
BRANCH   2   3
ATOM      3  C   UNL A   1      36.671  21.695  25.769  1.00  0.00     0.261 C 
BRANCH   3   4
ATOM      4  O   UNL A   1      36.034  21.568  24.490  1.00  0.00    -0.460 OA
BRANCH   4   5
ATOM      5  C   UNL A   1      34.743  21.163  24.557  1.00  0.00     0.338 C 
ATOM      6  O   UNL A   1      34.343  20.018  24.696  1.00  0.00    -0.246 OA
BRANCH   5   7
ATOM      7  C   UNL A   1      33.846  22.331  24.567  1.00  0.00     0.087 C 
ATOM      8  C   UNL A   1      32.279  27.096  24.067  1.00  0.00     0.060 A 
ATOM      9  C   UNL A   1      31.867  25.977  24.838  1.00  0.00     0.074 A 
ATOM     10  C   UNL A   1      33.215  26.828  23.038  1.00  0.00     0.065 A 
ATOM     11  C   UNL A   1      32.430  24.706  24.680  1.00  0.00     0.130 A 
ATOM     12  C   UNL A   1      33.733  25.540  22.842  1.00  0.00     0.034 A 
ATOM     13  Cl  UNL A   1      33.927  28.033  22.015  1.00  0.00    -0.082 Cl
ATOM     14  C   UNL A   1      33.380  24.496  23.691  1.00  0.00     0.019 A 
ATOM     15  O   UNL A   1      32.017  23.729  25.543  1.00  0.00    -0.475 OA
ATOM     16  C   UNL A   1      34.085  23.235  23.610  1.00  0.00     0.027 C 
ATOM     17  C   UNL A   1      32.798  22.497  25.632  1.00  0.00     0.316 C 
BRANCH   8  18
ATOM     18  N   UNL A   1      31.787  28.376  24.408  1.00  0.00    -0.365 N 
BRANCH  18  19
ATOM     19  C   UNL A   1      30.702  28.966  23.588  1.00  0.00     0.076 C 
ATOM     20  C   UNL A   1      29.538  28.006  23.354  1.00  0.00     0.030 C 
ATOM     21  C   UNL A   1      30.185  30.302  24.125  1.00  0.00     0.030 C 
ENDBRANCH  18  19
BRANCH  18  22
ATOM     22  C   UNL A   1      32.452  29.046  25.556  1.00  0.00     0.076 C 
ATOM     23  C   UNL A   1      31.668  28.933  26.860  1.00  0.00     0.030 C 
ATOM     24  C   UNL A   1      33.907  28.627  25.740  1.00  0.00     0.030 C 
ENDBRANCH  18  22
ENDBRANCH   8  18
BRANCH  17  25
ATOM     25  C   UNL A   1      33.378  22.375  27.050  1.00  0.00     0.430 C 
ATOM     26  F   UNL A   1      33.669  21.087  27.354  1.00  0.00    -0.167 F 
ATOM     27  F   UNL A   1      34.534  23.069  27.179  1.00  0.00    -0.167 F 
ATOM     28  F   UNL A   1      32.523  22.832  27.992  1.00  0.00    -0.167 F 
ENDBRANCH  17  25
ENDBRANCH   5   7
ENDBRANCH   4   5
ENDBRANCH   3   4
ENDBRANCH   2   3
ENDBRANCH   1   2
BRANCH   1  29
ATOM     29  C   UNL A   1      39.013  20.094  25.827  1.00  0.00     0.202 C 
BRANCH  29  30
ATOM     30  C   UNL A   1      40.180  19.174  25.443  1.00  0.00     0.261 C 
BRANCH  30  31
ATOM     31  O   UNL A   1      41.256  19.199  26.393  1.00  0.00    -0.460 OA
BRANCH  31  32
ATOM     32  C   UNL A   1      42.396  19.785  25.948  1.00  0.00     0.338 C 
ATOM     33  O   UNL A   1      43.207  19.327  25.158  1.00  0.00    -0.246 OA
BRANCH  32  34
ATOM     34  C   UNL A   1      42.430  21.185  26.406  1.00  0.00     0.060 A 
ATOM     35  C   UNL A   1      42.248  21.504  27.752  1.00  0.00     0.016 A 
ATOM     36  C   UNL A   1      42.688  22.186  25.462  1.00  0.00     0.016 A 
ATOM     37  C   UNL A   1      42.343  22.839  28.153  1.00  0.00     0.010 A 
ATOM     38  C   UNL A   1      42.781  23.518  25.864  1.00  0.00     0.010 A 
ATOM     39  C   UNL A   1      42.626  23.851  27.217  1.00  0.00    -0.014 A 
BRANCH  39  40
ATOM     40  C   UNL A   1      42.890  25.235  27.678  1.00  0.00     0.031 A 
ATOM     41  C   UNL A   1      41.778  26.203  27.943  1.00  0.00     0.074 A 
ATOM     42  C   UNL A   1      44.171  25.623  27.834  1.00  0.00     0.049 A 
ATOM     43  N   UNL A   1      41.850  27.412  28.439  1.00  0.00    -0.248 NA
ATOM     44  C   UNL A   1      40.417  25.767  27.604  1.00  0.00     0.031 C 
ATOM     45  C   UNL A   1      45.335  24.778  27.566  1.00  0.00     0.029 A 
ATOM     46  N   UNL A   1      44.706  26.809  28.266  1.00  0.00    -0.354 N 
ATOM     47  C   UNL A   1      40.544  27.881  28.484  1.00  0.00     0.074 A 
ATOM     48  C   UNL A   1      39.706  26.843  27.919  1.00  0.00     0.031 C 
ATOM     49  C   UNL A   1      46.446  25.458  27.881  1.00  0.00     0.029 A 
ATOM     50  C   UNL A   1      46.078  26.796  28.335  1.00  0.00     0.049 A 
ATOM     51  H   UNL A   1      44.161  27.594  28.504  1.00  0.00     0.167 HD
ATOM     52  C   UNL A   1      40.091  29.062  28.966  1.00  0.00     0.031 A 
ATOM     53  C   UNL A   1      46.949  27.747  28.727  1.00  0.00     0.031 A 
ATOM     54  C   UNL A   1      40.940  30.096  29.504  1.00  0.00     0.049 A 
ATOM     55  C   UNL A   1      46.427  29.063  29.227  1.00  0.00     0.074 A 
ATOM     56  C   UNL A   1      40.564  31.300  30.076  1.00  0.00     0.029 A 
ATOM     57  N   UNL A   1      42.327  30.064  29.519  1.00  0.00    -0.354 N 
ATOM     58  N   UNL A   1      45.183  29.454  29.362  1.00  0.00    -0.248 NA
ATOM     59  C   UNL A   1      47.420  30.061  29.644  1.00  0.00     0.031 C 
ATOM     60  C   UNL A   1      41.720  32.034  30.347  1.00  0.00     0.029 A 
ATOM     61  C   UNL A   1      42.821  31.249  30.041  1.00  0.00     0.049 A 
ATOM     62  H   UNL A   1      42.878  29.311  29.205  1.00  0.00     0.167 HD
ATOM     63  C   UNL A   1      45.241  30.735  29.897  1.00  0.00     0.074 A 
ATOM     64  C   UNL A   1      46.645  31.048  30.078  1.00  0.00     0.031 C 
ATOM     65  C   UNL A   1      44.219  31.568  30.209  1.00  0.00     0.031 A 
BRANCH  52  66
ATOM     66  C   UNL A   1      38.607  29.322  28.934  1.00  0.00    -0.014 A 
ATOM     67  C   UNL A   1      38.022  29.901  27.795  1.00  0.00     0.009 A 
ATOM     68  C   UNL A   1      37.802  29.097  30.063  1.00  0.00     0.009 A 
ATOM     69  C   UNL A   1      36.673  30.259  27.790  1.00  0.00     0.001 A 
ATOM     70  C   UNL A   1      36.444  29.423  30.043  1.00  0.00     0.001 A 
ATOM     71  C   UNL A   1      35.884  30.015  28.911  1.00  0.00     0.000 A 
ENDBRANCH  52  66
BRANCH  53  72
ATOM     72  C   UNL A   1      48.402  27.434  28.703  1.00  0.00    -0.014 A 
ATOM     73  C   UNL A   1      49.147  27.596  27.522  1.00  0.00     0.009 A 
ATOM     74  C   UNL A   1      49.026  26.866  29.824  1.00  0.00     0.009 A 
ATOM     75  C   UNL A   1      50.469  27.153  27.450  1.00  0.00     0.001 A 
ATOM     76  C   UNL A   1      50.360  26.454  29.758  1.00  0.00     0.001 A 
ATOM     77  C   UNL A   1      51.074  26.582  28.568  1.00  0.00     0.000 A 
ENDBRANCH  53  72
BRANCH  65  78
ATOM     78  C   UNL A   1      44.551  32.920  30.787  1.00  0.00    -0.014 A 
ATOM     79  C   UNL A   1      44.783  34.008  29.928  1.00  0.00     0.009 A 
ATOM     80  C   UNL A   1      44.764  33.091  32.164  1.00  0.00     0.009 A 
ATOM     81  C   UNL A   1      45.250  35.225  30.429  1.00  0.00     0.001 A 
ATOM     82  C   UNL A   1      45.196  34.320  32.666  1.00  0.00     0.001 A 
ATOM     83  C   UNL A   1      45.452  35.381  31.798  1.00  0.00     0.000 A 
ENDBRANCH  65  78
ENDBRANCH  39  40
ENDBRANCH  32  34
ENDBRANCH  31  32
ENDBRANCH  30  31
ENDBRANCH  29  30
ENDBRANCH   1  29
TORSDOF 18
ENDMDL
MODEL 3
REMARK VINA RESULT:     -10.2      4.749      9.613
REMARK SMILES CC(C)N(c1cc2c(cc1Cl)C=C(C(=O)OCCOCCOC(=O)c1ccc(-c3c4nc(c(-c5ccccc5)c5ccc([nH]5)c(-c5ccccc5)c5nc(c(-c6ccccc6)c6ccc3[nH]6)C=C5)C=C4)cc1)[C@@H](C(F)(F)F)O2)C(C)C
REMARK SMILES IDX 19 1 18 2 17 3 16 4 14 5 15 6 13 7 5 8 6 9 10 10 7 11 9 12
REMARK SMILES IDX 11 13 8 14 78 15 12 16 73 17 4 18 2 19 1 20 3 21 79 22 80 23
REMARK SMILES IDX 81 24 74 25 75 26 76 27 77 28 20 29 21 30 22 31 23 32 24 33
REMARK SMILES IDX 25 34 26 35 72 36 27 37 71 38 28 39 29 40 30 41 65 42 31 43
REMARK SMILES IDX 70 44 64 45 66 46 32 47 69 48 63 49 62 50 33 52 55 53 40 54
REMARK SMILES IDX 54 55 41 56 44 57 53 58 67 59 42 60 43 61 52 63 68 64 45 65
REMARK SMILES IDX 34 66 35 67 39 68 36 69 38 70 37 71 56 72 57 73 61 74 58 75
REMARK SMILES IDX 60 76 59 77 46 78 47 79 51 80 48 81 50 82 49 83
REMARK H PARENT 66 51 44 62
REMARK Flexibility Score: inf
ROOT
ATOM      1  O   UNL A   1      34.636  34.456  30.294  1.00  0.00    -0.374 OA
ENDROOT
BRANCH   1   2
ATOM      2  C   UNL A   1      34.016  34.876  29.082  1.00  0.00     0.202 C 
BRANCH   2   3
ATOM      3  C   UNL A   1      33.320  33.816  28.223  1.00  0.00     0.261 C 
BRANCH   3   4
ATOM      4  O   UNL A   1      34.236  32.832  27.721  1.00  0.00    -0.460 OA
BRANCH   4   5
ATOM      5  C   UNL A   1      34.194  31.653  28.385  1.00  0.00     0.338 C 
ATOM      6  O   UNL A   1      34.136  31.498  29.595  1.00  0.00    -0.246 OA
BRANCH   5   7
ATOM      7  C   UNL A   1      34.100  30.536  27.429  1.00  0.00     0.087 C 
ATOM      8  C   UNL A   1      32.584  26.197  25.361  1.00  0.00     0.060 A 
ATOM      9  C   UNL A   1      33.765  26.982  25.299  1.00  0.00     0.074 A 
ATOM     10  C   UNL A   1      31.463  26.812  25.969  1.00  0.00     0.065 A 
ATOM     11  C   UNL A   1      33.864  28.241  25.902  1.00  0.00     0.130 A 
ATOM     12  C   UNL A   1      31.548  28.098  26.520  1.00  0.00     0.034 A 
ATOM     13  Cl  UNL A   1      29.936  26.035  26.234  1.00  0.00    -0.082 Cl
ATOM     14  C   UNL A   1      32.755  28.788  26.531  1.00  0.00     0.019 A 
ATOM     15  O   UNL A   1      35.082  28.861  25.854  1.00  0.00    -0.475 OA
ATOM     16  C   UNL A   1      32.876  30.013  27.291  1.00  0.00     0.027 C 
ATOM     17  C   UNL A   1      35.322  30.003  26.734  1.00  0.00     0.316 C 
BRANCH   8  18
ATOM     18  N   UNL A   1      32.624  24.869  24.878  1.00  0.00    -0.365 N 
BRANCH  18  19
ATOM     19  C   UNL A   1      33.270  23.826  25.710  1.00  0.00     0.076 C 
ATOM     20  C   UNL A   1      34.718  24.154  26.066  1.00  0.00     0.030 C 
ATOM     21  C   UNL A   1      32.481  23.474  26.974  1.00  0.00     0.030 C 
ENDBRANCH  18  19
BRANCH  18  22
ATOM     22  C   UNL A   1      32.041  24.647  23.529  1.00  0.00     0.076 C 
ATOM     23  C   UNL A   1      33.091  24.519  22.430  1.00  0.00     0.030 C 
ATOM     24  C   UNL A   1      31.041  23.496  23.485  1.00  0.00     0.030 C 
ENDBRANCH  18  22
ENDBRANCH   8  18
BRANCH  17  25
ATOM     25  C   UNL A   1      36.449  29.647  27.717  1.00  0.00     0.430 C 
ATOM     26  F   UNL A   1      37.288  30.695  27.903  1.00  0.00    -0.167 F 
ATOM     27  F   UNL A   1      35.962  29.324  28.939  1.00  0.00    -0.167 F 
ATOM     28  F   UNL A   1      37.190  28.602  27.286  1.00  0.00    -0.167 F 
ENDBRANCH  17  25
ENDBRANCH   5   7
ENDBRANCH   4   5
ENDBRANCH   3   4
ENDBRANCH   2   3
ENDBRANCH   1   2
BRANCH   1  29
ATOM     29  C   UNL A   1      34.095  34.906  31.535  1.00  0.00     0.202 C 
BRANCH  29  30
ATOM     30  C   UNL A   1      34.075  33.937  32.725  1.00  0.00     0.261 C 
BRANCH  30  31
ATOM     31  O   UNL A   1      34.792  32.718  32.473  1.00  0.00    -0.460 OA
BRANCH  31  32
ATOM     32  C   UNL A   1      35.926  32.564  33.201  1.00  0.00     0.338 C 
ATOM     33  O   UNL A   1      36.072  32.750  34.399  1.00  0.00    -0.246 OA
BRANCH  32  34
ATOM     34  C   UNL A   1      36.954  31.925  32.360  1.00  0.00     0.060 A 
ATOM     35  C   UNL A   1      37.119  32.291  31.025  1.00  0.00     0.016 A 
ATOM     36  C   UNL A   1      37.789  30.966  32.947  1.00  0.00     0.016 A 
ATOM     37  C   UNL A   1      38.142  31.701  30.278  1.00  0.00     0.010 A 
ATOM     38  C   UNL A   1      38.809  30.377  32.200  1.00  0.00     0.010 A 
ATOM     39  C   UNL A   1      39.003  30.753  30.864  1.00  0.00    -0.014 A 
BRANCH  39  40
ATOM     40  C   UNL A   1      40.184  30.261  30.115  1.00  0.00     0.031 A 
ATOM     41  C   UNL A   1      40.204  28.905  29.480  1.00  0.00     0.074 A 
ATOM     42  C   UNL A   1      41.267  31.058  30.035  1.00  0.00     0.049 A 
ATOM     43  N   UNL A   1      41.126  28.375  28.716  1.00  0.00    -0.248 NA
ATOM     44  C   UNL A   1      39.054  28.028  29.738  1.00  0.00     0.031 C 
ATOM     45  C   UNL A   1      41.375  32.381  30.651  1.00  0.00     0.029 A 
ATOM     46  N   UNL A   1      42.468  30.883  29.398  1.00  0.00    -0.354 N 
ATOM     47  C   UNL A   1      40.664  27.107  28.389  1.00  0.00     0.074 A 
ATOM     48  C   UNL A   1      39.403  26.929  29.079  1.00  0.00     0.031 C 
ATOM     49  C   UNL A   1      42.559  32.917  30.324  1.00  0.00     0.029 A 
ATOM     50  C   UNL A   1      43.309  31.963  29.511  1.00  0.00     0.049 A 
ATOM     51  H   UNL A   1      42.706  30.063  28.907  1.00  0.00     0.167 HD
ATOM     52  C   UNL A   1      41.238  26.188  27.578  1.00  0.00     0.031 A 
ATOM     53  C   UNL A   1      44.544  32.174  29.013  1.00  0.00     0.031 A 
ATOM     54  C   UNL A   1      42.506  26.370  26.916  1.00  0.00     0.049 A 
ATOM     55  C   UNL A   1      45.176  31.126  28.143  1.00  0.00     0.074 A 
ATOM     56  C   UNL A   1      43.135  25.520  26.023  1.00  0.00     0.029 A 
ATOM     57  N   UNL A   1      43.349  27.459  27.089  1.00  0.00    -0.354 N 
ATOM     58  N   UNL A   1      44.684  29.974  27.757  1.00  0.00    -0.248 NA
ATOM     59  C   UNL A   1      46.521  31.410  27.625  1.00  0.00     0.031 C 
ATOM     60  C   UNL A   1      44.394  26.046  25.731  1.00  0.00     0.029 A 
ATOM     61  C   UNL A   1      44.512  27.276  26.359  1.00  0.00     0.049 A 
ATOM     62  H   UNL A   1      43.148  28.246  27.646  1.00  0.00     0.167 HD
ATOM     63  C   UNL A   1      45.647  29.403  26.936  1.00  0.00     0.074 A 
ATOM     64  C   UNL A   1      46.747  30.344  26.866  1.00  0.00     0.031 C 
ATOM     65  C   UNL A   1      45.615  28.206  26.300  1.00  0.00     0.031 A 
BRANCH  52  66
ATOM     66  C   UNL A   1      40.513  24.886  27.353  1.00  0.00    -0.014 A 
ATOM     67  C   UNL A   1      41.035  23.694  27.883  1.00  0.00     0.009 A 
ATOM     68  C   UNL A   1      39.376  24.816  26.532  1.00  0.00     0.009 A 
ATOM     69  C   UNL A   1      40.446  22.464  27.587  1.00  0.00     0.001 A 
ATOM     70  C   UNL A   1      38.766  23.587  26.266  1.00  0.00     0.001 A 
ATOM     71  C   UNL A   1      39.309  22.412  26.784  1.00  0.00     0.000 A 
ENDBRANCH  52  66
BRANCH  53  72
ATOM     72  C   UNL A   1      45.215  33.469  29.301  1.00  0.00    -0.014 A 
ATOM     73  C   UNL A   1      45.982  33.632  30.467  1.00  0.00     0.009 A 
ATOM     74  C   UNL A   1      45.000  34.580  28.472  1.00  0.00     0.009 A 
ATOM     75  C   UNL A   1      46.478  34.887  30.822  1.00  0.00     0.001 A 
ATOM     76  C   UNL A   1      45.527  35.829  28.813  1.00  0.00     0.001 A 
ATOM     77  C   UNL A   1      46.251  35.985  29.994  1.00  0.00     0.000 A 
ENDBRANCH  53  72
BRANCH  65  78
ATOM     78  C   UNL A   1      46.800  27.815  25.455  1.00  0.00    -0.014 A 
ATOM     79  C   UNL A   1      46.783  28.061  24.071  1.00  0.00     0.009 A 
ATOM     80  C   UNL A   1      47.873  27.089  25.997  1.00  0.00     0.009 A 
ATOM     81  C   UNL A   1      47.794  27.564  23.246  1.00  0.00     0.001 A 
ATOM     82  C   UNL A   1      48.901  26.625  25.174  1.00  0.00     0.001 A 
ATOM     83  C   UNL A   1      48.853  26.849  23.799  1.00  0.00     0.000 A 
ENDBRANCH  65  78
ENDBRANCH  39  40
ENDBRANCH  32  34
ENDBRANCH  31  32
ENDBRANCH  30  31
ENDBRANCH  29  30
ENDBRANCH   1  29
TORSDOF 18
ENDMDL
