MODEL 1
REMARK VINA RESULT:     -10.4      0.000      0.000
REMARK SMILES COC(=O)C[C@H](c1ccc(C(=O)OCCOCCOC(=O)c2ccc(-c3c4nc(c(-c5ccccc5)c5ccc([nH]5)c(-c5ccccc5)c5nc(c(-c6ccccc6)c6ccc3[nH]6)C=C5)C=C4)cc2)cc1)c1c(O)n[nH]c1C
REMARK SMILES IDX 15 1 14 2 13 3 11 4 12 5 10 6 7 7 8 8 71 9 9 10 70 11 6 12
REMARK SMILES IDX 5 13 3 14 4 15 2 16 1 17 72 18 73 19 77 20 75 21 76 22 78 23
REMARK SMILES IDX 74 25 16 27 17 28 18 29 19 30 20 31 21 32 22 33 23 34 69 35
REMARK SMILES IDX 24 36 68 37 25 38 26 39 27 40 62 41 28 42 67 43 61 44 63 45
REMARK SMILES IDX 29 46 66 47 60 48 59 49 30 51 52 52 37 53 51 54 38 55 41 56
REMARK SMILES IDX 50 57 64 58 39 59 40 60 49 62 65 63 42 64 31 65 32 66 36 67
REMARK SMILES IDX 33 68 35 69 34 70 53 71 54 72 58 73 55 74 57 75 56 76 43 77
REMARK SMILES IDX 44 78 48 79 45 80 47 81 46 82
REMARK H PARENT 76 24 74 26 63 50 41 61
REMARK Flexibility Score: inf
ROOT
ATOM      1  C   UNL A   1      34.573  32.626  29.256  1.00  0.00     0.202 C 
ENDROOT
BRANCH   1   2
ATOM      2  C   UNL A   1      34.720  31.952  27.887  1.00  0.00     0.261 C 
BRANCH   2   3
ATOM      3  O   UNL A   1      34.138  30.640  27.877  1.00  0.00    -0.460 OA
BRANCH   3   4
ATOM      4  C   UNL A   1      32.933  30.572  27.258  1.00  0.00     0.338 C 
ATOM      5  O   UNL A   1      32.169  31.500  27.045  1.00  0.00    -0.246 OA
BRANCH   4   6
ATOM      6  C   UNL A   1      32.725  29.224  26.688  1.00  0.00     0.060 A 
ATOM      7  C   UNL A   1      32.480  26.678  25.511  1.00  0.00    -0.040 A 
ATOM      8  C   UNL A   1      33.691  27.388  25.445  1.00  0.00     0.005 A 
ATOM      9  C   UNL A   1      31.398  27.260  26.202  1.00  0.00     0.005 A 
ATOM     10  C   UNL A   1      33.810  28.651  26.020  1.00  0.00     0.016 A 
ATOM     11  C   UNL A   1      31.522  28.522  26.801  1.00  0.00     0.016 A 
BRANCH   7  12
ATOM     12  C   UNL A   1      32.310  25.342  24.785  1.00  0.00     0.068 C 
BRANCH  12  13
ATOM     13  C   UNL A   1      31.016  24.656  25.257  1.00  0.00     0.136 C 
BRANCH  13  14
ATOM     14  C   UNL A   1      31.310  23.547  26.228  1.00  0.00     0.306 C 
ATOM     15  O   UNL A   1      31.135  23.612  27.436  1.00  0.00    -0.252 OA
BRANCH  14  16
ATOM     16  O   UNL A   1      31.763  22.450  25.558  1.00  0.00    -0.469 OA
ATOM     17  C   UNL A   1      32.915  21.842  26.141  1.00  0.00     0.282 C 
ENDBRANCH  14  16
ENDBRANCH  13  14
ENDBRANCH  12  13
BRANCH  12  18
ATOM     18  C   UNL A   1      32.374  25.602  23.287  1.00  0.00     0.044 A 
ATOM     19  C   UNL A   1      33.376  25.139  22.404  1.00  0.00     0.234 A 
ATOM     20  C   UNL A   1      31.612  26.408  22.437  1.00  0.00     0.040 A 
ATOM     21  N   UNL A   1      33.248  25.510  21.142  1.00  0.00    -0.137 NA
ATOM     22  N   UNL A   1      32.147  26.269  21.179  1.00  0.00    -0.279 N 
ATOM     23  C   UNL A   1      30.446  27.305  22.644  1.00  0.00     0.066 C 
ATOM     24  H   UNL A   1      31.758  26.690  20.379  1.00  0.00     0.190 HD
BRANCH  19  25
ATOM     25  O   UNL A   1      34.458  24.405  22.639  1.00  0.00    -0.492 OA
ATOM     26  H   UNL A   1      34.447  23.759  23.317  1.00  0.00     0.295 HD
ENDBRANCH  19  25
ENDBRANCH  12  18
ENDBRANCH   7  12
ENDBRANCH   4   6
ENDBRANCH   3   4
ENDBRANCH   2   3
ENDBRANCH   1   2
BRANCH   1  27
ATOM     27  O   UNL A   1      34.656  34.049  29.273  1.00  0.00    -0.374 OA
BRANCH  27  28
ATOM     28  C   UNL A   1      33.516  34.770  28.794  1.00  0.00     0.202 C 
BRANCH  28  29
ATOM     29  C   UNL A   1      32.929  35.811  29.755  1.00  0.00     0.261 C 
BRANCH  29  30
ATOM     30  O   UNL A   1      32.402  35.189  30.943  1.00  0.00    -0.460 OA
BRANCH  30  31
ATOM     31  C   UNL A   1      32.789  35.754  32.110  1.00  0.00     0.338 C 
ATOM     32  O   UNL A   1      32.207  36.624  32.743  1.00  0.00    -0.246 OA
BRANCH  31  33
ATOM     33  C   UNL A   1      33.956  35.031  32.650  1.00  0.00     0.060 A 
ATOM     34  C   UNL A   1      35.205  35.660  32.565  1.00  0.00     0.016 A 
ATOM     35  C   UNL A   1      33.845  33.741  33.174  1.00  0.00     0.016 A 
ATOM     36  C   UNL A   1      36.356  34.984  32.963  1.00  0.00     0.010 A 
ATOM     37  C   UNL A   1      35.004  33.059  33.562  1.00  0.00     0.010 A 
ATOM     38  C   UNL A   1      36.266  33.665  33.427  1.00  0.00    -0.014 A 
BRANCH  38  39
ATOM     39  C   UNL A   1      37.504  32.876  33.632  1.00  0.00     0.031 A 
ATOM     40  C   UNL A   1      38.295  33.075  34.896  1.00  0.00     0.074 A 
ATOM     41  C   UNL A   1      37.906  31.972  32.722  1.00  0.00     0.049 A 
ATOM     42  N   UNL A   1      39.410  32.504  35.276  1.00  0.00    -0.248 NA
ATOM     43  C   UNL A   1      37.756  34.049  35.861  1.00  0.00     0.031 C 
ATOM     44  C   UNL A   1      37.207  31.654  31.478  1.00  0.00     0.029 A 
ATOM     45  N   UNL A   1      39.009  31.155  32.708  1.00  0.00    -0.354 N 
ATOM     46  C   UNL A   1      39.708  33.051  36.517  1.00  0.00     0.074 A 
ATOM     47  C   UNL A   1      38.675  34.019  36.815  1.00  0.00     0.031 C 
ATOM     48  C   UNL A   1      37.901  30.712  30.818  1.00  0.00     0.029 A 
ATOM     49  C   UNL A   1      39.106  30.382  31.579  1.00  0.00     0.049 A 
ATOM     50  H   UNL A   1      39.667  31.126  33.440  1.00  0.00     0.167 HD
ATOM     51  C   UNL A   1      40.746  32.768  37.341  1.00  0.00     0.031 A 
ATOM     52  C   UNL A   1      40.065  29.520  31.193  1.00  0.00     0.031 A 
ATOM     53  C   UNL A   1      41.781  31.817  37.042  1.00  0.00     0.049 A 
ATOM     54  C   UNL A   1      41.250  29.281  32.090  1.00  0.00     0.074 A 
ATOM     55  C   UNL A   1      42.866  31.450  37.821  1.00  0.00     0.029 A 
ATOM     56  N   UNL A   1      41.866  31.086  35.868  1.00  0.00    -0.354 N 
ATOM     57  N   UNL A   1      41.507  29.784  33.273  1.00  0.00    -0.248 NA
ATOM     58  C   UNL A   1      42.275  28.348  31.599  1.00  0.00     0.031 C 
ATOM     59  C   UNL A   1      43.637  30.536  37.094  1.00  0.00     0.029 A 
ATOM     60  C   UNL A   1      43.001  30.292  35.888  1.00  0.00     0.049 A 
ATOM     61  H   UNL A   1      41.217  31.126  35.130  1.00  0.00     0.167 HD
ATOM     62  C   UNL A   1      42.705  29.208  33.679  1.00  0.00     0.074 A 
ATOM     63  C   UNL A   1      43.118  28.309  32.621  1.00  0.00     0.031 C 
ATOM     64  C   UNL A   1      43.400  29.405  34.826  1.00  0.00     0.031 A 
BRANCH  51  65
ATOM     65  C   UNL A   1      40.826  33.530  38.634  1.00  0.00    -0.014 A 
ATOM     66  C   UNL A   1      40.257  33.026  39.814  1.00  0.00     0.009 A 
ATOM     67  C   UNL A   1      41.509  34.756  38.677  1.00  0.00     0.009 A 
ATOM     68  C   UNL A   1      40.340  33.752  41.004  1.00  0.00     0.001 A 
ATOM     69  C   UNL A   1      41.613  35.466  39.874  1.00  0.00     0.001 A 
ATOM     70  C   UNL A   1      41.022  34.968  41.034  1.00  0.00     0.000 A 
ENDBRANCH  51  65
BRANCH  52  71
ATOM     71  C   UNL A   1      39.961  28.827  29.883  1.00  0.00    -0.014 A 
ATOM     72  C   UNL A   1      39.393  27.548  29.792  1.00  0.00     0.009 A 
ATOM     73  C   UNL A   1      40.451  29.436  28.717  1.00  0.00     0.009 A 
ATOM     74  C   UNL A   1      39.338  26.883  28.564  1.00  0.00     0.001 A 
ATOM     75  C   UNL A   1      40.370  28.781  27.486  1.00  0.00     0.001 A 
ATOM     76  C   UNL A   1      39.822  27.501  27.413  1.00  0.00     0.000 A 
ENDBRANCH  52  71
BRANCH  64  77
ATOM     77  C   UNL A   1      44.661  28.609  35.013  1.00  0.00    -0.014 A 
ATOM     78  C   UNL A   1      45.906  29.106  34.596  1.00  0.00     0.009 A 
ATOM     79  C   UNL A   1      44.607  27.362  35.653  1.00  0.00     0.009 A 
ATOM     80  C   UNL A   1      47.066  28.353  34.789  1.00  0.00     0.001 A 
ATOM     81  C   UNL A   1      45.771  26.623  35.870  1.00  0.00     0.001 A 
ATOM     82  C   UNL A   1      46.999  27.116  35.430  1.00  0.00     0.000 A 
ENDBRANCH  64  77
ENDBRANCH  38  39
ENDBRANCH  31  33
ENDBRANCH  30  31
ENDBRANCH  29  30
ENDBRANCH  28  29
ENDBRANCH  27  28
ENDBRANCH   1  27
TORSDOF 20
ENDMDL
MODEL 2
REMARK VINA RESULT:     -10.3      6.580     11.931
REMARK SMILES COC(=O)C[C@H](c1ccc(C(=O)OCCOCCOC(=O)c2ccc(-c3c4nc(c(-c5ccccc5)c5ccc([nH]5)c(-c5ccccc5)c5nc(c(-c6ccccc6)c6ccc3[nH]6)C=C5)C=C4)cc2)cc1)c1c(O)n[nH]c1C
REMARK SMILES IDX 15 1 14 2 13 3 11 4 12 5 10 6 7 7 8 8 71 9 9 10 70 11 6 12
REMARK SMILES IDX 5 13 3 14 4 15 2 16 1 17 72 18 73 19 77 20 75 21 76 22 78 23
REMARK SMILES IDX 74 25 16 27 17 28 18 29 19 30 20 31 21 32 22 33 23 34 69 35
REMARK SMILES IDX 24 36 68 37 25 38 26 39 27 40 62 41 28 42 67 43 61 44 63 45
REMARK SMILES IDX 29 46 66 47 60 48 59 49 30 51 52 52 37 53 51 54 38 55 41 56
REMARK SMILES IDX 50 57 64 58 39 59 40 60 49 62 65 63 42 64 31 65 32 66 36 67
REMARK SMILES IDX 33 68 35 69 34 70 53 71 54 72 58 73 55 74 57 75 56 76 43 77
REMARK SMILES IDX 44 78 48 79 45 80 47 81 46 82
REMARK H PARENT 76 24 74 26 63 50 41 61
REMARK Flexibility Score: inf
ROOT
ATOM      1  C   UNL A   1      41.361  21.956  26.183  1.00  0.00     0.202 C 
ENDROOT
BRANCH   1   2
ATOM      2  C   UNL A   1      39.984  21.788  26.835  1.00  0.00     0.261 C 
BRANCH   2   3
ATOM      3  O   UNL A   1      38.963  22.485  26.103  1.00  0.00    -0.460 OA
BRANCH   3   4
ATOM      4  C   UNL A   1      38.145  21.676  25.385  1.00  0.00     0.338 C 
ATOM      5  O   UNL A   1      38.302  20.484  25.171  1.00  0.00    -0.246 OA
BRANCH   4   6
ATOM      6  C   UNL A   1      36.901  22.390  25.030  1.00  0.00     0.060 A 
ATOM      7  C   UNL A   1      34.495  23.766  24.527  1.00  0.00    -0.040 A 
ATOM      8  C   UNL A   1      35.055  23.741  25.817  1.00  0.00     0.005 A 
ATOM      9  C   UNL A   1      35.180  23.107  23.487  1.00  0.00     0.005 A 
ATOM     10  C   UNL A   1      36.239  23.053  26.067  1.00  0.00     0.016 A 
ATOM     11  C   UNL A   1      36.386  22.433  23.731  1.00  0.00     0.016 A 
BRANCH   7  12
ATOM     12  C   UNL A   1      33.138  24.422  24.270  1.00  0.00     0.068 C 
BRANCH  12  13
ATOM     13  C   UNL A   1      32.750  24.249  22.791  1.00  0.00     0.136 C 
BRANCH  13  14
ATOM     14  C   UNL A   1      32.486  25.578  22.138  1.00  0.00     0.306 C 
ATOM     15  O   UNL A   1      31.378  26.060  21.959  1.00  0.00    -0.252 OA
BRANCH  14  16
ATOM     16  O   UNL A   1      33.666  26.177  21.811  1.00  0.00    -0.469 OA
ATOM     17  C   UNL A   1      33.802  27.511  22.300  1.00  0.00     0.282 C 
ENDBRANCH  14  16
ENDBRANCH  13  14
ENDBRANCH  12  13
BRANCH  12  18
ATOM     18  C   UNL A   1      32.134  23.842  25.256  1.00  0.00     0.044 A 
ATOM     19  C   UNL A   1      31.458  24.555  26.273  1.00  0.00     0.234 A 
ATOM     20  C   UNL A   1      31.716  22.534  25.516  1.00  0.00     0.040 A 
ATOM     21  N   UNL A   1      30.649  23.842  27.035  1.00  0.00    -0.137 NA
ATOM     22  N   UNL A   1      30.804  22.609  26.540  1.00  0.00    -0.279 N 
ATOM     23  C   UNL A   1      32.064  21.210  24.939  1.00  0.00     0.066 C 
ATOM     24  H   UNL A   1      30.311  21.827  26.880  1.00  0.00     0.190 HD
BRANCH  19  25
ATOM     25  O   UNL A   1      31.524  25.837  26.614  1.00  0.00    -0.492 OA
ATOM     26  H   UNL A   1      30.759  26.376  26.561  1.00  0.00     0.295 HD
ENDBRANCH  19  25
ENDBRANCH  12  18
ENDBRANCH   7  12
ENDBRANCH   4   6
ENDBRANCH   3   4
ENDBRANCH   2   3
ENDBRANCH   1   2
BRANCH   1  27
ATOM     27  O   UNL A   1      42.379  21.058  26.617  1.00  0.00    -0.374 OA
BRANCH  27  28
ATOM     28  C   UNL A   1      42.086  19.660  26.537  1.00  0.00     0.202 C 
BRANCH  28  29
ATOM     29  C   UNL A   1      43.097  18.806  25.760  1.00  0.00     0.261 C 
BRANCH  29  30
ATOM     30  O   UNL A   1      43.393  19.386  24.475  1.00  0.00    -0.460 OA
BRANCH  30  31
ATOM     31  C   UNL A   1      44.705  19.614  24.233  1.00  0.00     0.338 C 
ATOM     32  O   UNL A   1      45.501  18.864  23.688  1.00  0.00    -0.246 OA
BRANCH  31  33
ATOM     33  C   UNL A   1      45.032  21.016  24.553  1.00  0.00     0.060 A 
ATOM     34  C   UNL A   1      45.736  21.264  25.739  1.00  0.00     0.016 A 
ATOM     35  C   UNL A   1      44.609  22.074  23.744  1.00  0.00     0.016 A 
ATOM     36  C   UNL A   1      45.982  22.573  26.145  1.00  0.00     0.010 A 
ATOM     37  C   UNL A   1      44.847  23.389  24.160  1.00  0.00     0.010 A 
ATOM     38  C   UNL A   1      45.504  23.643  25.377  1.00  0.00    -0.014 A 
BRANCH  38  39
ATOM     39  C   UNL A   1      45.568  25.021  25.923  1.00  0.00     0.031 A 
ATOM     40  C   UNL A   1      46.883  25.752  25.906  1.00  0.00     0.074 A 
ATOM     41  C   UNL A   1      44.467  25.626  26.400  1.00  0.00     0.049 A 
ATOM     42  N   UNL A   1      47.170  26.952  26.342  1.00  0.00    -0.248 NA
ATOM     43  C   UNL A   1      48.027  25.032  25.321  1.00  0.00     0.031 C 
ATOM     44  C   UNL A   1      43.126  25.043  26.432  1.00  0.00     0.029 A 
ATOM     45  N   UNL A   1      44.307  26.873  26.952  1.00  0.00    -0.354 N 
ATOM     46  C   UNL A   1      48.523  27.130  26.089  1.00  0.00     0.074 A 
ATOM     47  C   UNL A   1      49.008  25.907  25.489  1.00  0.00     0.031 C 
ATOM     48  C   UNL A   1      42.280  25.931  26.981  1.00  0.00     0.029 A 
ATOM     49  C   UNL A   1      43.023  27.130  27.364  1.00  0.00     0.049 A 
ATOM     50  H   UNL A   1      45.043  27.520  27.043  1.00  0.00     0.167 HD
ATOM     51  C   UNL A   1      49.295  28.218  26.327  1.00  0.00     0.031 A 
ATOM     52  C   UNL A   1      42.510  28.204  27.994  1.00  0.00     0.031 A 
ATOM     53  C   UNL A   1      48.820  29.431  26.935  1.00  0.00     0.049 A 
ATOM     54  C   UNL A   1      43.405  29.370  28.319  1.00  0.00     0.074 A 
ATOM     55  C   UNL A   1      49.522  30.594  27.203  1.00  0.00     0.029 A 
ATOM     56  N   UNL A   1      47.522  29.635  27.377  1.00  0.00    -0.354 N 
ATOM     57  N   UNL A   1      44.677  29.536  28.050  1.00  0.00    -0.248 NA
ATOM     58  C   UNL A   1      42.789  30.499  29.031  1.00  0.00     0.031 C 
ATOM     59  C   UNL A   1      48.661  31.483  27.857  1.00  0.00     0.029 A 
ATOM     60  C   UNL A   1      47.410  30.895  27.943  1.00  0.00     0.049 A 
ATOM     61  H   UNL A   1      46.790  28.983  27.300  1.00  0.00     0.167 HD
ATOM     62  C   UNL A   1      45.005  30.798  28.533  1.00  0.00     0.074 A 
ATOM     63  C   UNL A   1      43.796  31.358  29.100  1.00  0.00     0.031 C 
ATOM     64  C   UNL A   1      46.201  31.436  28.507  1.00  0.00     0.031 A 
BRANCH  51  65
ATOM     65  C   UNL A   1      50.748  28.126  25.957  1.00  0.00    -0.014 A 
ATOM     66  C   UNL A   1      51.204  28.519  24.689  1.00  0.00     0.009 A 
ATOM     67  C   UNL A   1      51.678  27.669  26.903  1.00  0.00     0.009 A 
ATOM     68  C   UNL A   1      52.559  28.421  24.364  1.00  0.00     0.001 A 
ATOM     69  C   UNL A   1      53.036  27.598  26.584  1.00  0.00     0.001 A 
ATOM     70  C   UNL A   1      53.474  27.966  25.313  1.00  0.00     0.000 A 
ENDBRANCH  51  65
BRANCH  52  71
ATOM     71  C   UNL A   1      41.076  28.225  28.379  1.00  0.00    -0.014 A 
ATOM     72  C   UNL A   1      40.122  28.845  27.558  1.00  0.00     0.009 A 
ATOM     73  C   UNL A   1      40.656  27.643  29.586  1.00  0.00     0.009 A 
ATOM     74  C   UNL A   1      38.782  28.901  27.948  1.00  0.00     0.001 A 
ATOM     75  C   UNL A   1      39.311  27.676  29.960  1.00  0.00     0.001 A 
ATOM     76  C   UNL A   1      38.377  28.312  29.145  1.00  0.00     0.000 A 
ENDBRANCH  52  71
BRANCH  64  77
ATOM     77  C   UNL A   1      46.253  32.825  29.077  1.00  0.00    -0.014 A 
ATOM     78  C   UNL A   1      45.971  33.950  28.286  1.00  0.00     0.009 A 
ATOM     79  C   UNL A   1      46.547  33.008  30.437  1.00  0.00     0.009 A 
ATOM     80  C   UNL A   1      46.015  35.231  28.840  1.00  0.00     0.001 A 
ATOM     81  C   UNL A   1      46.563  34.287  30.995  1.00  0.00     0.001 A 
ATOM     82  C   UNL A   1      46.306  35.399  30.193  1.00  0.00     0.000 A 
ENDBRANCH  64  77
ENDBRANCH  38  39
ENDBRANCH  31  33
ENDBRANCH  30  31
ENDBRANCH  29  30
ENDBRANCH  28  29
ENDBRANCH  27  28
ENDBRANCH   1  27
TORSDOF 20
ENDMDL
MODEL 3
REMARK VINA RESULT:     -10.1      1.432      2.382
REMARK SMILES COC(=O)C[C@H](c1ccc(C(=O)OCCOCCOC(=O)c2ccc(-c3c4nc(c(-c5ccccc5)c5ccc([nH]5)c(-c5ccccc5)c5nc(c(-c6ccccc6)c6ccc3[nH]6)C=C5)C=C4)cc2)cc1)c1c(O)n[nH]c1C
REMARK SMILES IDX 15 1 14 2 13 3 11 4 12 5 10 6 7 7 8 8 71 9 9 10 70 11 6 12
REMARK SMILES IDX 5 13 3 14 4 15 2 16 1 17 72 18 73 19 77 20 75 21 76 22 78 23
REMARK SMILES IDX 74 25 16 27 17 28 18 29 19 30 20 31 21 32 22 33 23 34 69 35
REMARK SMILES IDX 24 36 68 37 25 38 26 39 27 40 62 41 28 42 67 43 61 44 63 45
REMARK SMILES IDX 29 46 66 47 60 48 59 49 30 51 52 52 37 53 51 54 38 55 41 56
REMARK SMILES IDX 50 57 64 58 39 59 40 60 49 62 65 63 42 64 31 65 32 66 36 67
REMARK SMILES IDX 33 68 35 69 34 70 53 71 54 72 58 73 55 74 57 75 56 76 43 77
REMARK SMILES IDX 44 78 48 79 45 80 47 81 46 82
REMARK H PARENT 76 24 74 26 63 50 41 61
REMARK Flexibility Score: inf
ROOT
ATOM      1  C   UNL A   1      34.428  32.586  29.303  1.00  0.00     0.202 C 
ENDROOT
BRANCH   1   2
ATOM      2  C   UNL A   1      34.496  31.942  27.914  1.00  0.00     0.261 C 
BRANCH   2   3
ATOM      3  O   UNL A   1      34.050  30.577  27.941  1.00  0.00    -0.460 OA
BRANCH   3   4
ATOM      4  C   UNL A   1      32.912  30.351  27.239  1.00  0.00     0.338 C 
ATOM      5  O   UNL A   1      32.097  31.187  26.881  1.00  0.00    -0.246 OA
BRANCH   4   6
ATOM      6  C   UNL A   1      32.862  28.946  26.783  1.00  0.00     0.060 A 
ATOM      7  C   UNL A   1      32.899  26.306  25.802  1.00  0.00    -0.040 A 
ATOM      8  C   UNL A   1      33.957  27.191  25.529  1.00  0.00     0.005 A 
ATOM      9  C   UNL A   1      31.832  26.764  26.600  1.00  0.00     0.005 A 
ATOM     10  C   UNL A   1      33.934  28.499  26.007  1.00  0.00     0.016 A 
ATOM     11  C   UNL A   1      31.817  28.073  27.102  1.00  0.00     0.016 A 
BRANCH   7  12
ATOM     12  C   UNL A   1      32.865  24.906  25.186  1.00  0.00     0.068 C 
BRANCH  12  13
ATOM     13  C   UNL A   1      33.759  24.868  23.935  1.00  0.00     0.136 C 
BRANCH  13  14
ATOM     14  C   UNL A   1      33.004  24.352  22.741  1.00  0.00     0.306 C 
ATOM     15  O   UNL A   1      33.179  24.724  21.590  1.00  0.00    -0.252 OA
BRANCH  14  16
ATOM     16  O   UNL A   1      32.126  23.385  23.129  1.00  0.00    -0.469 OA
ATOM     17  C   UNL A   1      32.407  22.090  22.598  1.00  0.00     0.282 C 
ENDBRANCH  14  16
ENDBRANCH  13  14
ENDBRANCH  12  13
BRANCH  12  18
ATOM     18  C   UNL A   1      33.247  23.902  26.263  1.00  0.00     0.044 A 
ATOM     19  C   UNL A   1      32.375  23.334  27.220  1.00  0.00     0.234 A 
ATOM     20  C   UNL A   1      34.479  23.389  26.679  1.00  0.00     0.040 A 
ATOM     21  N   UNL A   1      32.929  22.502  28.083  1.00  0.00    -0.137 NA
ATOM     22  N   UNL A   1      34.217  22.532  27.720  1.00  0.00    -0.279 N 
ATOM     23  C   UNL A   1      35.882  23.600  26.238  1.00  0.00     0.066 C 
ATOM     24  H   UNL A   1      34.912  21.991  28.161  1.00  0.00     0.190 HD
BRANCH  19  25
ATOM     25  O   UNL A   1      31.074  23.521  27.416  1.00  0.00    -0.492 OA
ATOM     26  H   UNL A   1      30.679  23.251  28.222  1.00  0.00     0.295 HD
ENDBRANCH  19  25
ENDBRANCH  12  18
ENDBRANCH   7  12
ENDBRANCH   4   6
ENDBRANCH   3   4
ENDBRANCH   2   3
ENDBRANCH   1   2
BRANCH   1  27
ATOM     27  O   UNL A   1      34.665  33.991  29.361  1.00  0.00    -0.374 OA
BRANCH  27  28
ATOM     28  C   UNL A   1      33.683  34.838  28.756  1.00  0.00     0.202 C 
BRANCH  28  29
ATOM     29  C   UNL A   1      32.954  35.802  29.702  1.00  0.00     0.261 C 
BRANCH  29  30
ATOM     30  O   UNL A   1      32.456  35.116  30.867  1.00  0.00    -0.460 OA
BRANCH  30  31
ATOM     31  C   UNL A   1      32.801  35.667  32.053  1.00  0.00     0.338 C 
ATOM     32  O   UNL A   1      32.185  36.512  32.687  1.00  0.00    -0.246 OA
BRANCH  31  33
ATOM     33  C   UNL A   1      33.970  34.960  32.608  1.00  0.00     0.060 A 
ATOM     34  C   UNL A   1      35.212  35.604  32.538  1.00  0.00     0.016 A 
ATOM     35  C   UNL A   1      33.868  33.670  33.134  1.00  0.00     0.016 A 
ATOM     36  C   UNL A   1      36.367  34.944  32.951  1.00  0.00     0.010 A 
ATOM     37  C   UNL A   1      35.031  33.003  33.538  1.00  0.00     0.010 A 
ATOM     38  C   UNL A   1      36.287  33.624  33.417  1.00  0.00    -0.014 A 
BRANCH  38  39
ATOM     39  C   UNL A   1      37.532  32.851  33.640  1.00  0.00     0.031 A 
ATOM     40  C   UNL A   1      38.309  33.070  34.909  1.00  0.00     0.074 A 
ATOM     41  C   UNL A   1      37.952  31.945  32.740  1.00  0.00     0.049 A 
ATOM     42  N   UNL A   1      39.428  32.514  35.303  1.00  0.00    -0.248 NA
ATOM     43  C   UNL A   1      37.751  34.045  35.861  1.00  0.00     0.031 C 
ATOM     44  C   UNL A   1      37.267  31.608  31.493  1.00  0.00     0.029 A 
ATOM     45  N   UNL A   1      39.064  31.140  32.743  1.00  0.00    -0.354 N 
ATOM     46  C   UNL A   1      39.709  33.074  36.542  1.00  0.00     0.074 A 
ATOM     47  C   UNL A   1      38.662  34.033  36.823  1.00  0.00     0.031 C 
ATOM     48  C   UNL A   1      37.978  30.668  30.847  1.00  0.00     0.029 A 
ATOM     49  C   UNL A   1      39.179  30.359  31.621  1.00  0.00     0.049 A 
ATOM     50  H   UNL A   1      39.716  31.124  33.481  1.00  0.00     0.167 HD
ATOM     51  C   UNL A   1      40.742  32.810  37.377  1.00  0.00     0.031 A 
ATOM     52  C   UNL A   1      40.152  29.505  31.250  1.00  0.00     0.031 A 
ATOM     53  C   UNL A   1      41.791  31.868  37.095  1.00  0.00     0.049 A 
ATOM     54  C   UNL A   1      41.332  29.286  32.160  1.00  0.00     0.074 A 
ATOM     55  C   UNL A   1      42.873  31.520  37.886  1.00  0.00     0.029 A 
ATOM     56  N   UNL A   1      41.894  31.129  35.928  1.00  0.00    -0.354 N 
ATOM     57  N   UNL A   1      41.572  29.802  33.341  1.00  0.00    -0.248 NA
ATOM     58  C   UNL A   1      42.372  28.361  31.685  1.00  0.00     0.031 C 
ATOM     59  C   UNL A   1      43.660  30.609  37.173  1.00  0.00     0.029 A 
ATOM     60  C   UNL A   1      43.037  30.348  35.964  1.00  0.00     0.049 A 
ATOM     61  H   UNL A   1      41.251  31.156  35.184  1.00  0.00     0.167 HD
ATOM     62  C   UNL A   1      42.773  29.243  33.761  1.00  0.00     0.074 A 
ATOM     63  C   UNL A   1      43.206  28.340  32.715  1.00  0.00     0.031 C 
ATOM     64  C   UNL A   1      43.456  29.457  34.913  1.00  0.00     0.031 A 
BRANCH  51  65
ATOM     65  C   UNL A   1      40.803  33.583  38.664  1.00  0.00    -0.014 A 
ATOM     66  C   UNL A   1      41.454  34.825  38.738  1.00  0.00     0.009 A 
ATOM     67  C   UNL A   1      40.173  33.075  39.810  1.00  0.00     0.009 A 
ATOM     68  C   UNL A   1      41.502  35.526  39.946  1.00  0.00     0.001 A 
ATOM     69  C   UNL A   1      40.200  33.792  41.009  1.00  0.00     0.001 A 
ATOM     70  C   UNL A   1      40.871  35.011  41.077  1.00  0.00     0.000 A 
ENDBRANCH  51  65
BRANCH  52  71
ATOM     71  C   UNL A   1      40.067  28.800  29.945  1.00  0.00    -0.014 A 
ATOM     72  C   UNL A   1      40.511  29.418  28.766  1.00  0.00     0.009 A 
ATOM     73  C   UNL A   1      39.519  27.510  29.870  1.00  0.00     0.009 A 
ATOM     74  C   UNL A   1      40.387  28.767  27.537  1.00  0.00     0.001 A 
ATOM     75  C   UNL A   1      39.422  26.850  28.643  1.00  0.00     0.001 A 
ATOM     76  C   UNL A   1      39.848  27.483  27.476  1.00  0.00     0.000 A 
ENDBRANCH  52  71
BRANCH  64  77
ATOM     77  C   UNL A   1      44.724  28.677  35.117  1.00  0.00    -0.014 A 
ATOM     78  C   UNL A   1      44.722  27.444  35.787  1.00  0.00     0.009 A 
ATOM     79  C   UNL A   1      45.932  29.165  34.594  1.00  0.00     0.009 A 
ATOM     80  C   UNL A   1      45.911  26.731  35.956  1.00  0.00     0.001 A 
ATOM     81  C   UNL A   1      47.114  28.437  34.740  1.00  0.00     0.001 A 
ATOM     82  C   UNL A   1      47.104  27.224  35.429  1.00  0.00     0.000 A 
ENDBRANCH  64  77
ENDBRANCH  38  39
ENDBRANCH  31  33
ENDBRANCH  30  31
ENDBRANCH  29  30
ENDBRANCH  28  29
ENDBRANCH  27  28
ENDBRANCH   1  27
TORSDOF 20
ENDMDL
