MODEL 1
REMARK VINA RESULT:      -8.9      0.000      0.000
REMARK SMILES CC[C@H](C)[C@@H](NC(=O)[C@@H]1CCCN1C(=O)C1CC1)C(=O)OCCOCCOC(=O)c1ccc(-c2c3nc(c(-c4ccccc4)c4ccc([nH]4)c(-c4ccccc4)c4nc(c(-c5ccccc5)c5ccc2[nH]5)C=C4)C=C3)cc1
REMARK SMILES IDX 23 1 22 2 21 3 19 4 20 5 5 6 3 7 4 8 2 9 1 10 6 11 7 12 8 14
REMARK SMILES IDX 9 15 10 16 13 17 11 18 12 19 14 20 15 21 16 22 17 23 18 24
REMARK SMILES IDX 24 25 25 26 26 27 27 28 28 29 29 30 30 31 31 32 77 33 32 34
REMARK SMILES IDX 76 35 33 36 34 37 35 38 70 39 36 40 75 41 69 42 71 43 37 44
REMARK SMILES IDX 74 45 68 46 67 47 38 49 60 50 45 51 59 52 46 53 49 54 58 55
REMARK SMILES IDX 72 56 47 57 48 58 57 60 73 61 50 62 39 63 40 64 44 65 41 66
REMARK SMILES IDX 43 67 42 68 61 69 62 70 66 71 63 72 65 73 64 74 51 75 52 76
REMARK SMILES IDX 56 77 53 78 55 79 54 80
REMARK H PARENT 6 13 71 48 49 59
REMARK Flexibility Score: inf
ROOT
ATOM      1  C   UNL A   1      33.223  29.415  26.263  1.00  0.00     0.202 C 
ENDROOT
BRANCH   1   2
ATOM      2  C   UNL A   1      32.536  29.372  24.895  1.00  0.00     0.261 C 
BRANCH   2   3
ATOM      3  O   UNL A   1      32.211  28.129  24.269  1.00  0.00    -0.462 OA
BRANCH   3   4
ATOM      4  C   UNL A   1      33.129  27.285  23.759  1.00  0.00     0.328 C 
ATOM      5  O   UNL A   1      33.955  27.562  22.902  1.00  0.00    -0.250 OA
BRANCH   4   6
ATOM      6  C   UNL A   1      32.953  25.885  24.378  1.00  0.00     0.195 C 
BRANCH   6   7
ATOM      7  C   UNL A   1      31.589  25.567  25.104  1.00  0.00     0.019 C 
ATOM      8  C   UNL A   1      30.656  24.712  24.228  1.00  0.00     0.010 C 
BRANCH   7   9
ATOM      9  C   UNL A   1      31.789  24.825  26.455  1.00  0.00     0.002 C 
ATOM     10  C   UNL A   1      31.237  23.408  26.520  1.00  0.00     0.004 C 
ENDBRANCH   7   9
ENDBRANCH   6   7
BRANCH   6  11
ATOM     11  N   UNL A   1      33.428  24.804  23.491  1.00  0.00    -0.341 N 
ATOM     12  C   UNL A   1      34.431  23.897  23.490  1.00  0.00     0.243 C 
ATOM     13  H   UNL A   1      32.866  24.724  22.687  1.00  0.00     0.164 HD
ATOM     14  O   UNL A   1      34.655  23.393  22.376  1.00  0.00    -0.273 OA
BRANCH  12  15
ATOM     15  C   UNL A   1      35.108  23.241  24.716  1.00  0.00     0.174 C 
ATOM     16  C   UNL A   1      36.599  23.647  24.682  1.00  0.00     0.037 C 
ATOM     17  N   UNL A   1      35.135  21.821  25.048  1.00  0.00    -0.330 N 
ATOM     18  C   UNL A   1      37.294  22.661  25.603  1.00  0.00     0.024 C 
ATOM     19  C   UNL A   1      36.492  21.399  25.406  1.00  0.00     0.120 C 
BRANCH  17  20
ATOM     20  C   UNL A   1      34.059  21.081  25.518  1.00  0.00     0.226 C 
ATOM     21  O   UNL A   1      33.736  21.076  26.704  1.00  0.00    -0.275 OA
BRANCH  20  22
ATOM     22  C   UNL A   1      33.382  20.087  24.643  1.00  0.00     0.079 C 
ATOM     23  C   UNL A   1      33.973  18.694  24.564  1.00  0.00     0.014 C 
ATOM     24  C   UNL A   1      32.556  18.881  24.992  1.00  0.00     0.014 C 
ENDBRANCH  20  22
ENDBRANCH  17  20
ENDBRANCH  12  15
ENDBRANCH   6  11
ENDBRANCH   4   6
ENDBRANCH   3   4
ENDBRANCH   2   3
ENDBRANCH   1   2
BRANCH   1  25
ATOM     25  O   UNL A   1      32.976  30.422  27.232  1.00  0.00    -0.374 OA
BRANCH  25  26
ATOM     26  C   UNL A   1      34.028  31.207  27.753  1.00  0.00     0.202 C 
BRANCH  26  27
ATOM     27  C   UNL A   1      33.871  32.727  27.626  1.00  0.00     0.261 C 
BRANCH  27  28
ATOM     28  O   UNL A   1      33.073  33.322  28.668  1.00  0.00    -0.460 OA
BRANCH  28  29
ATOM     29  C   UNL A   1      33.673  34.331  29.352  1.00  0.00     0.338 C 
ATOM     30  O   UNL A   1      33.258  35.466  29.481  1.00  0.00    -0.246 OA
BRANCH  29  31
ATOM     31  C   UNL A   1      34.867  33.852  30.097  1.00  0.00     0.060 A 
ATOM     32  C   UNL A   1      36.118  34.288  29.636  1.00  0.00     0.016 A 
ATOM     33  C   UNL A   1      34.795  32.944  31.156  1.00  0.00     0.016 A 
ATOM     34  C   UNL A   1      37.294  33.748  30.159  1.00  0.00     0.010 A 
ATOM     35  C   UNL A   1      35.981  32.391  31.673  1.00  0.00     0.010 A 
ATOM     36  C   UNL A   1      37.234  32.744  31.133  1.00  0.00    -0.014 A 
BRANCH  36  37
ATOM     37  C   UNL A   1      38.442  31.904  31.376  1.00  0.00     0.031 A 
ATOM     38  C   UNL A   1      39.324  32.245  32.554  1.00  0.00     0.074 A 
ATOM     39  C   UNL A   1      38.723  30.813  30.639  1.00  0.00     0.049 A 
ATOM     40  N   UNL A   1      40.415  31.657  32.981  1.00  0.00    -0.248 NA
ATOM     41  C   UNL A   1      38.916  33.406  33.361  1.00  0.00     0.031 C 
ATOM     42  C   UNL A   1      37.929  30.313  29.520  1.00  0.00     0.029 A 
ATOM     43  N   UNL A   1      39.764  29.920  30.740  1.00  0.00    -0.354 N 
ATOM     44  C   UNL A   1      40.824  32.383  34.095  1.00  0.00     0.074 A 
ATOM     45  C   UNL A   1      39.886  33.470  34.259  1.00  0.00     0.031 C 
ATOM     46  C   UNL A   1      38.512  29.200  29.038  1.00  0.00     0.029 A 
ATOM     47  C   UNL A   1      39.737  28.928  29.790  1.00  0.00     0.049 A 
ATOM     48  H   UNL A   1      40.466  29.985  31.429  1.00  0.00     0.167 HD
ATOM     49  C   UNL A   1      41.881  32.167  34.914  1.00  0.00     0.031 A 
ATOM     50  C   UNL A   1      40.608  27.927  29.543  1.00  0.00     0.031 A 
ATOM     51  C   UNL A   1      42.828  31.095  34.759  1.00  0.00     0.049 A 
ATOM     52  C   UNL A   1      41.834  27.767  30.408  1.00  0.00     0.074 A 
ATOM     53  C   UNL A   1      43.923  30.793  35.550  1.00  0.00     0.029 A 
ATOM     54  N   UNL A   1      42.798  30.157  33.740  1.00  0.00    -0.354 N 
ATOM     55  N   UNL A   1      42.199  28.447  31.467  1.00  0.00    -0.248 NA
ATOM     56  C   UNL A   1      42.769  26.689  30.041  1.00  0.00     0.031 C 
ATOM     57  C   UNL A   1      44.596  29.713  34.971  1.00  0.00     0.029 A 
ATOM     58  C   UNL A   1      43.878  29.298  33.860  1.00  0.00     0.049 A 
ATOM     59  H   UNL A   1      42.113  30.108  33.036  1.00  0.00     0.167 HD
ATOM     60  C   UNL A   1      43.381  27.861  31.911  1.00  0.00     0.074 A 
ATOM     61  C   UNL A   1      43.666  26.761  31.015  1.00  0.00     0.031 C 
ATOM     62  C   UNL A   1      44.157  28.203  32.968  1.00  0.00     0.031 A 
BRANCH  49  63
ATOM     63  C   UNL A   1      42.098  33.147  36.034  1.00  0.00    -0.014 A 
ATOM     64  C   UNL A   1      42.955  34.251  35.893  1.00  0.00     0.009 A 
ATOM     65  C   UNL A   1      41.406  32.976  37.245  1.00  0.00     0.009 A 
ATOM     66  C   UNL A   1      43.143  35.139  36.954  1.00  0.00     0.001 A 
ATOM     67  C   UNL A   1      41.573  33.884  38.292  1.00  0.00     0.001 A 
ATOM     68  C   UNL A   1      42.449  34.958  38.150  1.00  0.00     0.000 A 
ENDBRANCH  49  63
BRANCH  50  69
ATOM     69  C   UNL A   1      40.377  26.997  28.403  1.00  0.00    -0.014 A 
ATOM     70  C   UNL A   1      39.619  25.827  28.570  1.00  0.00     0.009 A 
ATOM     71  C   UNL A   1      40.956  27.253  27.150  1.00  0.00     0.009 A 
ATOM     72  C   UNL A   1      39.468  24.923  27.515  1.00  0.00     0.001 A 
ATOM     73  C   UNL A   1      40.777  26.363  26.089  1.00  0.00     0.001 A 
ATOM     74  C   UNL A   1      40.043  25.193  26.274  1.00  0.00     0.000 A 
ENDBRANCH  50  69
BRANCH  62  75
ATOM     75  C   UNL A   1      45.369  27.355  33.250  1.00  0.00    -0.014 A 
ATOM     76  C   UNL A   1      45.309  26.249  34.113  1.00  0.00     0.009 A 
ATOM     77  C   UNL A   1      46.581  27.640  32.599  1.00  0.00     0.009 A 
ATOM     78  C   UNL A   1      46.445  25.469  34.344  1.00  0.00     0.001 A 
ATOM     79  C   UNL A   1      47.706  26.839  32.806  1.00  0.00     0.001 A 
ATOM     80  C   UNL A   1      47.639  25.761  33.686  1.00  0.00     0.000 A 
ENDBRANCH  62  75
ENDBRANCH  36  37
ENDBRANCH  29  31
ENDBRANCH  28  29
ENDBRANCH  27  28
ENDBRANCH  26  27
ENDBRANCH  25  26
ENDBRANCH   1  25
TORSDOF 20
ENDMDL
MODEL 2
REMARK VINA RESULT:      -8.9      3.837      7.350
REMARK SMILES CC[C@H](C)[C@@H](NC(=O)[C@@H]1CCCN1C(=O)C1CC1)C(=O)OCCOCCOC(=O)c1ccc(-c2c3nc(c(-c4ccccc4)c4ccc([nH]4)c(-c4ccccc4)c4nc(c(-c5ccccc5)c5ccc2[nH]5)C=C4)C=C3)cc1
REMARK SMILES IDX 23 1 22 2 21 3 19 4 20 5 5 6 3 7 4 8 2 9 1 10 6 11 7 12 8 14
REMARK SMILES IDX 9 15 10 16 13 17 11 18 12 19 14 20 15 21 16 22 17 23 18 24
REMARK SMILES IDX 24 25 25 26 26 27 27 28 28 29 29 30 30 31 31 32 77 33 32 34
REMARK SMILES IDX 76 35 33 36 34 37 35 38 70 39 36 40 75 41 69 42 71 43 37 44
REMARK SMILES IDX 74 45 68 46 67 47 38 49 60 50 45 51 59 52 46 53 49 54 58 55
REMARK SMILES IDX 72 56 47 57 48 58 57 60 73 61 50 62 39 63 40 64 44 65 41 66
REMARK SMILES IDX 43 67 42 68 61 69 62 70 66 71 63 72 65 73 64 74 51 75 52 76
REMARK SMILES IDX 56 77 53 78 55 79 54 80
REMARK H PARENT 6 13 71 48 49 59
REMARK Flexibility Score: inf
ROOT
ATOM      1  C   UNL A   1      33.488  30.409  27.226  1.00  0.00     0.202 C 
ENDROOT
BRANCH   1   2
ATOM      2  C   UNL A   1      33.187  29.981  25.786  1.00  0.00     0.261 C 
BRANCH   2   3
ATOM      3  O   UNL A   1      33.711  28.763  25.252  1.00  0.00    -0.462 OA
BRANCH   3   4
ATOM      4  C   UNL A   1      33.595  28.400  23.960  1.00  0.00     0.328 C 
ATOM      5  O   UNL A   1      34.185  28.910  23.019  1.00  0.00    -0.250 OA
BRANCH   4   6
ATOM      6  C   UNL A   1      32.555  27.270  23.826  1.00  0.00     0.195 C 
BRANCH   6   7
ATOM      7  C   UNL A   1      31.104  27.535  24.385  1.00  0.00     0.019 C 
ATOM      8  C   UNL A   1      30.026  27.332  23.306  1.00  0.00     0.010 C 
BRANCH   7   9
ATOM      9  C   UNL A   1      30.752  26.620  25.590  1.00  0.00     0.002 C 
ATOM     10  C   UNL A   1      31.289  27.069  26.942  1.00  0.00     0.004 C 
ENDBRANCH   7   9
ENDBRANCH   6   7
BRANCH   6  11
ATOM     11  N   UNL A   1      32.579  26.627  22.497  1.00  0.00    -0.341 N 
ATOM     12  C   UNL A   1      32.975  25.441  21.982  1.00  0.00     0.243 C 
ATOM     13  H   UNL A   1      32.211  27.219  21.802  1.00  0.00     0.164 HD
ATOM     14  O   UNL A   1      33.117  25.448  20.747  1.00  0.00    -0.273 OA
BRANCH  12  15
ATOM     15  C   UNL A   1      32.994  24.066  22.690  1.00  0.00     0.174 C 
ATOM     16  C   UNL A   1      31.558  23.795  23.194  1.00  0.00     0.037 C 
ATOM     17  N   UNL A   1      33.843  23.668  23.808  1.00  0.00    -0.330 N 
ATOM     18  C   UNL A   1      31.708  22.699  24.232  1.00  0.00     0.024 C 
ATOM     19  C   UNL A   1      33.051  23.004  24.847  1.00  0.00     0.120 C 
BRANCH  17  20
ATOM     20  C   UNL A   1      35.204  23.406  23.736  1.00  0.00     0.226 C 
ATOM     21  O   UNL A   1      35.839  23.523  22.691  1.00  0.00    -0.275 OA
BRANCH  20  22
ATOM     22  C   UNL A   1      35.913  22.764  24.875  1.00  0.00     0.079 C 
ATOM     23  C   UNL A   1      36.899  21.657  24.559  1.00  0.00     0.014 C 
ATOM     24  C   UNL A   1      37.348  22.864  25.313  1.00  0.00     0.014 C 
ENDBRANCH  20  22
ENDBRANCH  17  20
ENDBRANCH  12  15
ENDBRANCH   6  11
ENDBRANCH   4   6
ENDBRANCH   3   4
ENDBRANCH   2   3
ENDBRANCH   1   2
BRANCH   1  25
ATOM     25  O   UNL A   1      33.676  31.760  27.617  1.00  0.00    -0.374 OA
BRANCH  25  26
ATOM     26  C   UNL A   1      34.946  32.234  28.015  1.00  0.00     0.202 C 
BRANCH  26  27
ATOM     27  C   UNL A   1      35.099  32.613  29.493  1.00  0.00     0.261 C 
BRANCH  27  28
ATOM     28  O   UNL A   1      34.971  31.498  30.398  1.00  0.00    -0.460 OA
BRANCH  28  29
ATOM     29  C   UNL A   1      35.934  31.415  31.355  1.00  0.00     0.338 C 
ATOM     30  O   UNL A   1      35.883  31.883  32.476  1.00  0.00    -0.246 OA
BRANCH  29  31
ATOM     31  C   UNL A   1      37.046  30.523  30.936  1.00  0.00     0.060 A 
ATOM     32  C   UNL A   1      38.108  30.368  31.838  1.00  0.00     0.016 A 
ATOM     33  C   UNL A   1      37.109  29.917  29.678  1.00  0.00     0.016 A 
ATOM     34  C   UNL A   1      39.272  29.698  31.455  1.00  0.00     0.010 A 
ATOM     35  C   UNL A   1      38.286  29.252  29.290  1.00  0.00     0.010 A 
ATOM     36  C   UNL A   1      39.397  29.195  30.155  1.00  0.00    -0.014 A 
BRANCH  36  37
ATOM     37  C   UNL A   1      40.757  28.861  29.642  1.00  0.00     0.031 A 
ATOM     38  C   UNL A   1      40.990  27.475  29.088  1.00  0.00     0.074 A 
ATOM     39  C   UNL A   1      41.748  29.770  29.577  1.00  0.00     0.049 A 
ATOM     40  N   UNL A   1      42.076  26.953  28.569  1.00  0.00    -0.248 NA
ATOM     41  C   UNL A   1      39.842  26.557  29.120  1.00  0.00     0.031 C 
ATOM     42  C   UNL A   1      41.655  31.164  30.002  1.00  0.00     0.029 A 
ATOM     43  N   UNL A   1      43.037  29.644  29.113  1.00  0.00    -0.354 N 
ATOM     44  C   UNL A   1      41.740  25.647  28.228  1.00  0.00     0.074 A 
ATOM     45  C   UNL A   1      40.364  25.447  28.624  1.00  0.00     0.031 C 
ATOM     46  C   UNL A   1      42.837  31.766  29.777  1.00  0.00     0.029 A 
ATOM     47  C   UNL A   1      43.781  30.793  29.226  1.00  0.00     0.049 A 
ATOM     48  H   UNL A   1      43.395  28.807  28.736  1.00  0.00     0.167 HD
ATOM     49  C   UNL A   1      42.501  24.697  27.633  1.00  0.00     0.031 A 
ATOM     50  C   UNL A   1      45.078  31.031  28.935  1.00  0.00     0.031 A 
ATOM     51  C   UNL A   1      43.873  24.878  27.240  1.00  0.00     0.049 A 
ATOM     52  C   UNL A   1      45.934  29.926  28.367  1.00  0.00     0.074 A 
ATOM     53  C   UNL A   1      44.718  23.974  26.620  1.00  0.00     0.029 A 
ATOM     54  N   UNL A   1      44.604  26.038  27.438  1.00  0.00    -0.354 N 
ATOM     55  N   UNL A   1      45.600  28.703  28.032  1.00  0.00    -0.248 NA
ATOM     56  C   UNL A   1      47.353  30.242  28.132  1.00  0.00     0.031 C 
ATOM     57  C   UNL A   1      45.980  24.563  26.505  1.00  0.00     0.029 A 
ATOM     58  C   UNL A   1      45.901  25.860  26.987  1.00  0.00     0.049 A 
ATOM     59  H   UNL A   1      44.254  26.866  27.840  1.00  0.00     0.167 HD
ATOM     60  C   UNL A   1      46.754  28.119  27.517  1.00  0.00     0.074 A 
ATOM     61  C   UNL A   1      47.793  29.124  27.571  1.00  0.00     0.031 C 
ATOM     62  C   UNL A   1      46.932  26.863  27.040  1.00  0.00     0.031 A 
BRANCH  49  63
ATOM     63  C   UNL A   1      41.873  23.347  27.413  1.00  0.00    -0.014 A 
ATOM     64  C   UNL A   1      41.084  23.078  26.283  1.00  0.00     0.009 A 
ATOM     65  C   UNL A   1      42.102  22.320  28.342  1.00  0.00     0.009 A 
ATOM     66  C   UNL A   1      40.506  21.818  26.111  1.00  0.00     0.001 A 
ATOM     67  C   UNL A   1      41.549  21.053  28.149  1.00  0.00     0.001 A 
ATOM     68  C   UNL A   1      40.743  20.806  27.040  1.00  0.00     0.000 A 
ENDBRANCH  49  63
BRANCH  50  69
ATOM     69  C   UNL A   1      45.672  32.370  29.199  1.00  0.00    -0.014 A 
ATOM     70  C   UNL A   1      46.077  32.737  30.492  1.00  0.00     0.009 A 
ATOM     71  C   UNL A   1      45.794  33.309  28.162  1.00  0.00     0.009 A 
ATOM     72  C   UNL A   1      46.566  34.022  30.745  1.00  0.00     0.001 A 
ATOM     73  C   UNL A   1      46.312  34.581  28.411  1.00  0.00     0.001 A 
ATOM     74  C   UNL A   1      46.688  34.941  29.704  1.00  0.00     0.000 A 
ENDBRANCH  50  69
BRANCH  62  75
ATOM     75  C   UNL A   1      48.289  26.508  26.491  1.00  0.00    -0.014 A 
ATOM     76  C   UNL A   1      48.641  26.786  25.161  1.00  0.00     0.009 A 
ATOM     77  C   UNL A   1      49.250  25.932  27.339  1.00  0.00     0.009 A 
ATOM     78  C   UNL A   1      49.913  26.462  24.683  1.00  0.00     0.001 A 
ATOM     79  C   UNL A   1      50.531  25.638  26.868  1.00  0.00     0.001 A 
ATOM     80  C   UNL A   1      50.858  25.894  25.538  1.00  0.00     0.000 A 
ENDBRANCH  62  75
ENDBRANCH  36  37
ENDBRANCH  29  31
ENDBRANCH  28  29
ENDBRANCH  27  28
ENDBRANCH  26  27
ENDBRANCH  25  26
ENDBRANCH   1  25
TORSDOF 20
ENDMDL
MODEL 3
REMARK VINA RESULT:      -8.6      3.571      5.125
REMARK SMILES CC[C@H](C)[C@@H](NC(=O)[C@@H]1CCCN1C(=O)C1CC1)C(=O)OCCOCCOC(=O)c1ccc(-c2c3nc(c(-c4ccccc4)c4ccc([nH]4)c(-c4ccccc4)c4nc(c(-c5ccccc5)c5ccc2[nH]5)C=C4)C=C3)cc1
REMARK SMILES IDX 23 1 22 2 21 3 19 4 20 5 5 6 3 7 4 8 2 9 1 10 6 11 7 12 8 14
REMARK SMILES IDX 9 15 10 16 13 17 11 18 12 19 14 20 15 21 16 22 17 23 18 24
REMARK SMILES IDX 24 25 25 26 26 27 27 28 28 29 29 30 30 31 31 32 77 33 32 34
REMARK SMILES IDX 76 35 33 36 34 37 35 38 70 39 36 40 75 41 69 42 71 43 37 44
REMARK SMILES IDX 74 45 68 46 67 47 38 49 60 50 45 51 59 52 46 53 49 54 58 55
REMARK SMILES IDX 72 56 47 57 48 58 57 60 73 61 50 62 39 63 40 64 44 65 41 66
REMARK SMILES IDX 43 67 42 68 61 69 62 70 66 71 63 72 65 73 64 74 51 75 52 76
REMARK SMILES IDX 56 77 53 78 55 79 54 80
REMARK H PARENT 6 13 71 48 49 59
REMARK Flexibility Score: inf
ROOT
ATOM      1  C   UNL A   1      33.937  30.803  27.164  1.00  0.00     0.202 C 
ENDROOT
BRANCH   1   2
ATOM      2  C   UNL A   1      32.856  29.778  27.521  1.00  0.00     0.261 C 
BRANCH   2   3
ATOM      3  O   UNL A   1      33.011  28.395  27.194  1.00  0.00    -0.462 OA
BRANCH   3   4
ATOM      4  C   UNL A   1      31.999  27.603  26.790  1.00  0.00     0.328 C 
ATOM      5  O   UNL A   1      30.996  27.341  27.437  1.00  0.00    -0.250 OA
BRANCH   4   6
ATOM      6  C   UNL A   1      32.313  27.023  25.397  1.00  0.00     0.195 C 
BRANCH   6   7
ATOM      7  C   UNL A   1      32.078  27.950  24.144  1.00  0.00     0.019 C 
ATOM      8  C   UNL A   1      30.753  28.727  24.242  1.00  0.00     0.010 C 
BRANCH   7   9
ATOM      9  C   UNL A   1      33.223  28.981  23.939  1.00  0.00     0.002 C 
ATOM     10  C   UNL A   1      34.084  28.778  22.700  1.00  0.00     0.004 C 
ENDBRANCH   7   9
ENDBRANCH   6   7
BRANCH   6  11
ATOM     11  N   UNL A   1      33.587  26.277  25.364  1.00  0.00    -0.341 N 
ATOM     12  C   UNL A   1      33.989  25.001  25.563  1.00  0.00     0.243 C 
ATOM     13  H   UNL A   1      34.343  26.864  25.138  1.00  0.00     0.164 HD
ATOM     14  O   UNL A   1      35.210  24.881  25.757  1.00  0.00    -0.273 OA
BRANCH  12  15
ATOM     15  C   UNL A   1      33.180  23.708  25.305  1.00  0.00     0.174 C 
ATOM     16  C   UNL A   1      33.471  22.749  26.482  1.00  0.00     0.037 C 
ATOM     17  N   UNL A   1      33.246  22.853  24.126  1.00  0.00    -0.330 N 
ATOM     18  C   UNL A   1      33.038  21.381  25.988  1.00  0.00     0.024 C 
ATOM     19  C   UNL A   1      33.353  21.444  24.515  1.00  0.00     0.120 C 
BRANCH  17  20
ATOM     20  C   UNL A   1      32.736  23.162  22.873  1.00  0.00     0.226 C 
ATOM     21  O   UNL A   1      32.665  22.330  21.971  1.00  0.00    -0.275 OA
BRANCH  20  22
ATOM     22  C   UNL A   1      32.452  24.573  22.497  1.00  0.00     0.079 C 
ATOM     23  C   UNL A   1      33.599  25.405  21.961  1.00  0.00     0.014 C 
ATOM     24  C   UNL A   1      32.363  25.224  21.144  1.00  0.00     0.014 C 
ENDBRANCH  20  22
ENDBRANCH  17  20
ENDBRANCH  12  15
ENDBRANCH   6  11
ENDBRANCH   4   6
ENDBRANCH   3   4
ENDBRANCH   2   3
ENDBRANCH   1   2
BRANCH   1  25
ATOM     25  O   UNL A   1      34.666  31.541  28.133  1.00  0.00    -0.374 OA
BRANCH  25  26
ATOM     26  C   UNL A   1      34.334  32.881  28.430  1.00  0.00     0.202 C 
BRANCH  26  27
ATOM     27  C   UNL A   1      34.412  33.290  29.906  1.00  0.00     0.261 C 
BRANCH  27  28
ATOM     28  O   UNL A   1      35.029  32.302  30.755  1.00  0.00    -0.460 OA
BRANCH  28  29
ATOM     29  C   UNL A   1      36.319  32.557  31.098  1.00  0.00     0.338 C 
ATOM     30  O   UNL A   1      36.706  33.398  31.885  1.00  0.00    -0.246 OA
BRANCH  29  31
ATOM     31  C   UNL A   1      37.248  31.557  30.510  1.00  0.00     0.060 A 
ATOM     32  C   UNL A   1      37.838  30.643  31.395  1.00  0.00     0.016 A 
ATOM     33  C   UNL A   1      37.610  31.549  29.160  1.00  0.00     0.016 A 
ATOM     34  C   UNL A   1      38.856  29.792  30.961  1.00  0.00     0.010 A 
ATOM     35  C   UNL A   1      38.643  30.699  28.727  1.00  0.00     0.010 A 
ATOM     36  C   UNL A   1      39.315  29.861  29.641  1.00  0.00    -0.014 A 
BRANCH  36  37
ATOM     37  C   UNL A   1      40.639  29.264  29.307  1.00  0.00     0.031 A 
ATOM     38  C   UNL A   1      41.870  30.126  29.458  1.00  0.00     0.074 A 
ATOM     39  C   UNL A   1      40.782  27.970  28.961  1.00  0.00     0.049 A 
ATOM     40  N   UNL A   1      43.130  29.831  29.247  1.00  0.00    -0.248 NA
ATOM     41  C   UNL A   1      41.648  31.508  29.913  1.00  0.00     0.031 C 
ATOM     42  C   UNL A   1      39.702  26.995  28.845  1.00  0.00     0.029 A 
ATOM     43  N   UNL A   1      41.917  27.256  28.651  1.00  0.00    -0.354 N 
ATOM     44  C   UNL A   1      43.843  30.992  29.533  1.00  0.00     0.074 A 
ATOM     45  C   UNL A   1      42.876  32.002  29.901  1.00  0.00     0.031 C 
ATOM     46  C   UNL A   1      40.225  25.807  28.490  1.00  0.00     0.029 A 
ATOM     47  C   UNL A   1      41.672  25.946  28.320  1.00  0.00     0.049 A 
ATOM     48  H   UNL A   1      42.821  27.648  28.663  1.00  0.00     0.167 HD
ATOM     49  C   UNL A   1      45.180  31.203  29.499  1.00  0.00     0.031 A 
ATOM     50  C   UNL A   1      42.514  24.973  27.910  1.00  0.00     0.031 A 
ATOM     51  C   UNL A   1      46.154  30.212  29.128  1.00  0.00     0.049 A 
ATOM     52  C   UNL A   1      43.990  25.261  27.783  1.00  0.00     0.074 A 
ATOM     53  C   UNL A   1      47.532  30.335  29.077  1.00  0.00     0.029 A 
ATOM     54  N   UNL A   1      45.853  28.919  28.734  1.00  0.00    -0.354 N 
ATOM     55  N   UNL A   1      44.651  26.355  28.073  1.00  0.00    -0.248 NA
ATOM     56  C   UNL A   1      44.837  24.170  27.273  1.00  0.00     0.031 C 
ATOM     57  C   UNL A   1      48.060  29.137  28.587  1.00  0.00     0.029 A 
ATOM     58  C   UNL A   1      47.016  28.245  28.402  1.00  0.00     0.049 A 
ATOM     59  H   UNL A   1      44.947  28.535  28.695  1.00  0.00     0.167 HD
ATOM     60  C   UNL A   1      45.990  26.074  27.815  1.00  0.00     0.074 A 
ATOM     61  C   UNL A   1      46.049  24.702  27.358  1.00  0.00     0.031 C 
ATOM     62  C   UNL A   1      47.071  26.879  27.949  1.00  0.00     0.031 A 
BRANCH  49  63
ATOM     63  C   UNL A   1      45.669  32.587  29.831  1.00  0.00    -0.014 A 
ATOM     64  C   UNL A   1      45.801  33.579  28.846  1.00  0.00     0.009 A 
ATOM     65  C   UNL A   1      45.975  32.910  31.164  1.00  0.00     0.009 A 
ATOM     66  C   UNL A   1      46.267  34.851  29.183  1.00  0.00     0.001 A 
ATOM     67  C   UNL A   1      46.409  34.192  31.501  1.00  0.00     0.001 A 
ATOM     68  C   UNL A   1      46.565  35.159  30.510  1.00  0.00     0.000 A 
ENDBRANCH  49  63
BRANCH  50  69
ATOM     69  C   UNL A   1      41.988  23.625  27.558  1.00  0.00    -0.014 A 
ATOM     70  C   UNL A   1      41.489  23.360  26.273  1.00  0.00     0.009 A 
ATOM     71  C   UNL A   1      41.939  22.608  28.524  1.00  0.00     0.009 A 
ATOM     72  C   UNL A   1      40.930  22.115  25.973  1.00  0.00     0.001 A 
ATOM     73  C   UNL A   1      41.409  21.355  28.212  1.00  0.00     0.001 A 
ATOM     74  C   UNL A   1      40.895  21.112  26.940  1.00  0.00     0.000 A 
ENDBRANCH  50  69
BRANCH  62  75
ATOM     75  C   UNL A   1      48.424  26.292  27.643  1.00  0.00    -0.014 A 
ATOM     76  C   UNL A   1      48.991  26.380  26.361  1.00  0.00     0.009 A 
ATOM     77  C   UNL A   1      49.166  25.687  28.671  1.00  0.00     0.009 A 
ATOM     78  C   UNL A   1      50.255  25.842  26.108  1.00  0.00     0.001 A 
ATOM     79  C   UNL A   1      50.443  25.179  28.423  1.00  0.00     0.001 A 
ATOM     80  C   UNL A   1      50.982  25.248  27.140  1.00  0.00     0.000 A 
ENDBRANCH  62  75
ENDBRANCH  36  37
ENDBRANCH  29  31
ENDBRANCH  28  29
ENDBRANCH  27  28
ENDBRANCH  26  27
ENDBRANCH  25  26
ENDBRANCH   1  25
TORSDOF 20
ENDMDL
