MODEL 1
REMARK VINA RESULT:     -11.2      0.000      0.000
REMARK SMILES O=C(OCCOCCOC(=O)[C@]12C[NH2+]C[C@H]1CN(C(=O)c1ccccc1-n1cncn1)C2)c1ccc(-c2c3nc(c(-c4ccccc4)c4ccc([nH]4)c(-c4ccccc4)c4nc(c(-c5ccccc5)c5ccc2[nH]5)C=C4)C=C3)cc1
REMARK SMILES IDX 7 1 6 2 5 3 4 4 3 5 2 6 1 7 33 8 34 9 80 10 35 11 79 12
REMARK SMILES IDX 36 13 37 14 38 15 73 16 39 17 78 18 72 19 74 20 40 21 77 22
REMARK SMILES IDX 71 23 70 24 41 26 63 27 48 28 62 29 49 30 52 31 61 32 75 33
REMARK SMILES IDX 50 34 51 35 60 37 76 38 53 39 42 40 43 41 47 42 44 43 46 44
REMARK SMILES IDX 45 45 64 46 65 47 69 48 66 49 68 50 67 51 54 52 55 53 59 54
REMARK SMILES IDX 56 55 58 56 57 57 8 58 9 59 10 60 11 61 12 62 13 63 16 64
REMARK SMILES IDX 32 65 14 66 15 67 17 68 18 69 19 72 20 73 21 74 22 75 26 76
REMARK SMILES IDX 23 77 25 78 24 79 27 80 28 81 31 82 29 83 30 84
REMARK H PARENT 74 25 52 36 14 70 14 71
REMARK Flexibility Score: inf
ROOT
ATOM      1  C   UNL A   1      32.552  28.470  27.327  1.00  0.00     0.202 C 
ENDROOT
BRANCH   1   2
ATOM      2  O   UNL A   1      33.047  29.578  26.577  1.00  0.00    -0.374 OA
BRANCH   2   3
ATOM      3  C   UNL A   1      32.769  30.893  27.028  1.00  0.00     0.202 C 
BRANCH   3   4
ATOM      4  C   UNL A   1      33.845  31.629  27.848  1.00  0.00     0.261 C 
BRANCH   4   5
ATOM      5  O   UNL A   1      35.132  31.023  27.834  1.00  0.00    -0.460 OA
BRANCH   5   6
ATOM      6  C   UNL A   1      36.270  31.588  28.298  1.00  0.00     0.338 C 
ATOM      7  O   UNL A   1      36.426  32.800  28.159  1.00  0.00    -0.246 OA
BRANCH   6   8
ATOM      8  C   UNL A   1      37.354  30.807  28.964  1.00  0.00     0.060 A 
ATOM      9  C   UNL A   1      38.588  31.307  29.382  1.00  0.00     0.016 A 
ATOM     10  C   UNL A   1      37.118  29.434  29.104  1.00  0.00     0.016 A 
ATOM     11  C   UNL A   1      39.659  30.478  29.560  1.00  0.00     0.010 A 
ATOM     12  C   UNL A   1      38.156  28.586  29.439  1.00  0.00     0.010 A 
ATOM     13  C   UNL A   1      39.440  29.117  29.529  1.00  0.00    -0.014 A 
BRANCH  13  14
ATOM     14  C   UNL A   1      40.620  28.299  29.676  1.00  0.00     0.031 A 
ATOM     15  C   UNL A   1      41.175  28.260  31.060  1.00  0.00     0.074 A 
ATOM     16  C   UNL A   1      41.072  27.624  28.606  1.00  0.00     0.049 A 
ATOM     17  N   UNL A   1      42.394  28.437  31.455  1.00  0.00    -0.248 NA
ATOM     18  C   UNL A   1      40.198  28.158  32.165  1.00  0.00     0.031 C 
ATOM     19  C   UNL A   1      40.433  27.490  27.292  1.00  0.00     0.029 A 
ATOM     20  N   UNL A   1      42.105  26.753  28.535  1.00  0.00    -0.354 N 
ATOM     21  C   UNL A   1      42.365  28.294  32.842  1.00  0.00     0.074 A 
ATOM     22  C   UNL A   1      40.981  28.286  33.232  1.00  0.00     0.031 C 
ATOM     23  C   UNL A   1      40.886  26.362  26.705  1.00  0.00     0.029 A 
ATOM     24  C   UNL A   1      41.931  25.801  27.542  1.00  0.00     0.049 A 
ATOM     25  H   UNL A   1      42.895  26.792  29.123  1.00  0.00     0.167 HD
ATOM     26  C   UNL A   1      43.463  27.927  33.556  1.00  0.00     0.031 A 
ATOM     27  C   UNL A   1      42.497  24.573  27.515  1.00  0.00     0.031 A 
ATOM     28  C   UNL A   1      44.683  28.248  32.873  1.00  0.00     0.049 A 
ATOM     29  C   UNL A   1      43.635  24.585  28.468  1.00  0.00     0.074 A 
ATOM     30  C   UNL A   1      45.281  29.422  32.463  1.00  0.00     0.029 A 
ATOM     31  N   UNL A   1      45.314  27.241  32.183  1.00  0.00    -0.354 N 
ATOM     32  N   UNL A   1      44.704  25.312  28.298  1.00  0.00    -0.248 NA
ATOM     33  C   UNL A   1      43.385  24.162  29.839  1.00  0.00     0.031 C 
ATOM     34  C   UNL A   1      45.884  29.107  31.210  1.00  0.00     0.029 A 
ATOM     35  C   UNL A   1      45.666  27.750  30.960  1.00  0.00     0.049 A 
ATOM     36  H   UNL A   1      45.482  26.326  32.506  1.00  0.00     0.167 HD
ATOM     37  C   UNL A   1      45.021  25.787  29.564  1.00  0.00     0.074 A 
ATOM     38  C   UNL A   1      44.237  24.964  30.485  1.00  0.00     0.031 C 
ATOM     39  C   UNL A   1      45.657  26.984  29.734  1.00  0.00     0.031 A 
BRANCH  26  40
ATOM     40  C   UNL A   1      43.384  26.875  34.639  1.00  0.00    -0.014 A 
ATOM     41  C   UNL A   1      43.132  25.543  34.273  1.00  0.00     0.009 A 
ATOM     42  C   UNL A   1      43.250  27.189  36.008  1.00  0.00     0.009 A 
ATOM     43  C   UNL A   1      42.675  24.607  35.210  1.00  0.00     0.001 A 
ATOM     44  C   UNL A   1      42.832  26.250  36.951  1.00  0.00     0.001 A 
ATOM     45  C   UNL A   1      42.512  24.965  36.545  1.00  0.00     0.000 A 
ENDBRANCH  26  40
BRANCH  27  46
ATOM     46  C   UNL A   1      41.858  23.337  27.018  1.00  0.00    -0.014 A 
ATOM     47  C   UNL A   1      42.624  22.214  26.688  1.00  0.00     0.009 A 
ATOM     48  C   UNL A   1      40.456  23.183  27.069  1.00  0.00     0.009 A 
ATOM     49  C   UNL A   1      42.010  20.980  26.430  1.00  0.00     0.001 A 
ATOM     50  C   UNL A   1      39.843  21.956  26.804  1.00  0.00     0.001 A 
ATOM     51  C   UNL A   1      40.624  20.850  26.493  1.00  0.00     0.000 A 
ENDBRANCH  27  46
BRANCH  39  52
ATOM     52  C   UNL A   1      46.142  27.707  28.499  1.00  0.00    -0.014 A 
ATOM     53  C   UNL A   1      47.440  27.535  27.984  1.00  0.00     0.009 A 
ATOM     54  C   UNL A   1      45.217  28.431  27.736  1.00  0.00     0.009 A 
ATOM     55  C   UNL A   1      47.809  28.096  26.757  1.00  0.00     0.001 A 
ATOM     56  C   UNL A   1      45.579  28.976  26.500  1.00  0.00     0.001 A 
ATOM     57  C   UNL A   1      46.875  28.813  26.014  1.00  0.00     0.000 A 
ENDBRANCH  39  52
ENDBRANCH  13  14
ENDBRANCH   6   8
ENDBRANCH   5   6
ENDBRANCH   4   5
ENDBRANCH   3   4
ENDBRANCH   2   3
ENDBRANCH   1   2
BRANCH   1  58
ATOM     58  C   UNL A   1      32.294  27.105  26.670  1.00  0.00     0.261 C 
BRANCH  58  59
ATOM     59  O   UNL A   1      30.934  26.815  26.270  1.00  0.00    -0.463 OA
BRANCH  59  60
ATOM     60  C   UNL A   1      30.705  26.767  24.916  1.00  0.00     0.320 C 
ATOM     61  O   UNL A   1      29.591  26.586  24.429  1.00  0.00    -0.251 OA
BRANCH  60  62
ATOM     62  C   UNL A   1      31.951  26.945  23.991  1.00  0.00     0.144 C 
ATOM     63  C   UNL A   1      31.408  28.429  23.799  1.00  0.00     0.281 C 
ATOM     64  C   UNL A   1      32.636  27.120  22.582  1.00  0.00     0.088 C 
ATOM     65  C   UNL A   1      31.709  25.418  23.590  1.00  0.00     0.145 C 
ATOM     66  N   UNL A   1      32.560  29.273  23.443  1.00  0.00    -0.345 N 
ATOM     67  C   UNL A   1      33.326  28.463  22.517  1.00  0.00     0.267 C 
ATOM     68  C   UNL A   1      33.630  25.986  22.407  1.00  0.00     0.130 C 
ATOM     69  N   UNL A   1      32.901  24.888  22.953  1.00  0.00    -0.337 N 
ATOM     70  H   UNL A   1      33.114  29.495  24.271  1.00  0.00     0.346 HD
ATOM     71  H   UNL A   1      32.279  30.165  23.039  1.00  0.00     0.346 HD
BRANCH  69  72
ATOM     72  C   UNL A   1      33.362  23.586  22.828  1.00  0.00     0.256 C 
ATOM     73  O   UNL A   1      32.907  22.793  22.018  1.00  0.00    -0.269 OA
BRANCH  72  74
ATOM     74  C   UNL A   1      34.409  23.075  23.741  1.00  0.00     0.065 A 
ATOM     75  C   UNL A   1      35.723  23.054  23.245  1.00  0.00     0.016 A 
ATOM     76  C   UNL A   1      34.148  22.567  25.026  1.00  0.00     0.079 A 
ATOM     77  C   UNL A   1      36.774  22.562  24.027  1.00  0.00     0.001 A 
ATOM     78  C   UNL A   1      35.222  22.096  25.813  1.00  0.00     0.029 A 
ATOM     79  C   UNL A   1      36.524  22.088  25.312  1.00  0.00     0.002 A 
BRANCH  76  80
ATOM     80  N   UNL A   1      32.857  22.570  25.617  1.00  0.00    -0.220 N 
ATOM     81  C   UNL A   1      31.726  21.853  25.322  1.00  0.00     0.225 A 
ATOM     82  N   UNL A   1      32.556  23.481  26.582  1.00  0.00    -0.155 NA
ATOM     83  N   UNL A   1      30.684  22.361  25.940  1.00  0.00    -0.223 NA
ATOM     84  C   UNL A   1      31.232  23.357  26.683  1.00  0.00     0.246 A 
ENDBRANCH  76  80
ENDBRANCH  72  74
ENDBRANCH  69  72
ENDBRANCH  60  62
ENDBRANCH  59  60
ENDBRANCH  58  59
ENDBRANCH   1  58
TORSDOF 17
ENDMDL
MODEL 2
REMARK VINA RESULT:     -11.0      2.429      7.288
REMARK SMILES O=C(OCCOCCOC(=O)[C@]12C[NH2+]C[C@H]1CN(C(=O)c1ccccc1-n1cncn1)C2)c1ccc(-c2c3nc(c(-c4ccccc4)c4ccc([nH]4)c(-c4ccccc4)c4nc(c(-c5ccccc5)c5ccc2[nH]5)C=C4)C=C3)cc1
REMARK SMILES IDX 7 1 6 2 5 3 4 4 3 5 2 6 1 7 33 8 34 9 80 10 35 11 79 12
REMARK SMILES IDX 36 13 37 14 38 15 73 16 39 17 78 18 72 19 74 20 40 21 77 22
REMARK SMILES IDX 71 23 70 24 41 26 63 27 48 28 62 29 49 30 52 31 61 32 75 33
REMARK SMILES IDX 50 34 51 35 60 37 76 38 53 39 42 40 43 41 47 42 44 43 46 44
REMARK SMILES IDX 45 45 64 46 65 47 69 48 66 49 68 50 67 51 54 52 55 53 59 54
REMARK SMILES IDX 56 55 58 56 57 57 8 58 9 59 10 60 11 61 12 62 13 63 16 64
REMARK SMILES IDX 32 65 14 66 15 67 17 68 18 69 19 72 20 73 21 74 22 75 26 76
REMARK SMILES IDX 23 77 25 78 24 79 27 80 28 81 31 82 29 83 30 84
REMARK H PARENT 74 25 52 36 14 70 14 71
REMARK Flexibility Score: inf
ROOT
ATOM      1  C   UNL A   1      37.622  22.493  25.758  1.00  0.00     0.202 C 
ENDROOT
BRANCH   1   2
ATOM      2  O   UNL A   1      37.517  21.565  24.679  1.00  0.00    -0.374 OA
BRANCH   2   3
ATOM      3  C   UNL A   1      37.278  20.197  24.969  1.00  0.00     0.202 C 
BRANCH   3   4
ATOM      4  C   UNL A   1      38.476  19.309  25.353  1.00  0.00     0.261 C 
BRANCH   4   5
ATOM      5  O   UNL A   1      39.755  19.877  25.090  1.00  0.00    -0.460 OA
BRANCH   5   6
ATOM      6  C   UNL A   1      40.876  19.652  25.813  1.00  0.00     0.338 C 
ATOM      7  O   UNL A   1      41.406  18.544  25.750  1.00  0.00    -0.246 OA
BRANCH   6   8
ATOM      8  C   UNL A   1      41.497  20.685  26.695  1.00  0.00     0.060 A 
ATOM      9  C   UNL A   1      41.129  20.970  28.010  1.00  0.00     0.016 A 
ATOM     10  C   UNL A   1      42.484  21.479  26.100  1.00  0.00     0.016 A 
ATOM     11  C   UNL A   1      41.419  22.179  28.576  1.00  0.00     0.010 A 
ATOM     12  C   UNL A   1      42.912  22.633  26.727  1.00  0.00     0.010 A 
ATOM     13  C   UNL A   1      42.267  23.027  27.897  1.00  0.00    -0.014 A 
BRANCH  13  14
ATOM     14  C   UNL A   1      42.493  24.307  28.526  1.00  0.00     0.031 A 
ATOM     15  C   UNL A   1      41.515  25.365  28.138  1.00  0.00     0.074 A 
ATOM     16  C   UNL A   1      43.494  24.419  29.414  1.00  0.00     0.049 A 
ATOM     17  N   UNL A   1      41.738  26.576  27.743  1.00  0.00    -0.248 NA
ATOM     18  C   UNL A   1      40.098  24.955  28.036  1.00  0.00     0.031 C 
ATOM     19  C   UNL A   1      44.339  23.350  29.957  1.00  0.00     0.029 A 
ATOM     20  N   UNL A   1      43.835  25.491  30.166  1.00  0.00    -0.354 N 
ATOM     21  C   UNL A   1      40.481  27.135  27.512  1.00  0.00     0.074 A 
ATOM     22  C   UNL A   1      39.531  26.056  27.551  1.00  0.00     0.031 C 
ATOM     23  C   UNL A   1      44.826  23.749  31.150  1.00  0.00     0.029 A 
ATOM     24  C   UNL A   1      44.439  25.132  31.361  1.00  0.00     0.049 A 
ATOM     25  H   UNL A   1      43.673  26.424  29.894  1.00  0.00     0.167 HD
ATOM     26  C   UNL A   1      40.263  28.476  27.565  1.00  0.00     0.031 A 
ATOM     27  C   UNL A   1      44.465  25.876  32.490  1.00  0.00     0.031 A 
ATOM     28  C   UNL A   1      41.461  29.227  27.320  1.00  0.00     0.049 A 
ATOM     29  C   UNL A   1      44.131  27.272  32.112  1.00  0.00     0.074 A 
ATOM     30  C   UNL A   1      42.317  29.359  26.245  1.00  0.00     0.029 A 
ATOM     31  N   UNL A   1      42.141  29.720  28.407  1.00  0.00    -0.354 N 
ATOM     32  N   UNL A   1      44.893  28.011  31.356  1.00  0.00    -0.248 NA
ATOM     33  C   UNL A   1      42.735  27.683  32.176  1.00  0.00     0.031 C 
ATOM     34  C   UNL A   1      43.616  29.460  26.823  1.00  0.00     0.029 A 
ATOM     35  C   UNL A   1      43.469  29.441  28.212  1.00  0.00     0.049 A 
ATOM     36  H   UNL A   1      41.749  30.186  29.181  1.00  0.00     0.167 HD
ATOM     37  C   UNL A   1      44.017  28.705  30.531  1.00  0.00     0.074 A 
ATOM     38  C   UNL A   1      42.703  28.541  31.150  1.00  0.00     0.031 C 
ATOM     39  C   UNL A   1      44.387  29.098  29.275  1.00  0.00     0.031 A 
BRANCH  26  40
ATOM     40  C   UNL A   1      39.070  29.053  28.291  1.00  0.00    -0.014 A 
ATOM     41  C   UNL A   1      38.890  28.748  29.650  1.00  0.00     0.009 A 
ATOM     42  C   UNL A   1      37.968  29.629  27.624  1.00  0.00     0.009 A 
ATOM     43  C   UNL A   1      37.648  28.919  30.275  1.00  0.00     0.001 A 
ATOM     44  C   UNL A   1      36.741  29.837  28.253  1.00  0.00     0.001 A 
ATOM     45  C   UNL A   1      36.571  29.450  29.572  1.00  0.00     0.000 A 
ENDBRANCH  26  40
BRANCH  27  46
ATOM     46  C   UNL A   1      44.374  25.358  33.871  1.00  0.00    -0.014 A 
ATOM     47  C   UNL A   1      43.256  24.629  34.293  1.00  0.00     0.009 A 
ATOM     48  C   UNL A   1      45.494  25.396  34.728  1.00  0.00     0.009 A 
ATOM     49  C   UNL A   1      43.265  23.955  35.522  1.00  0.00     0.001 A 
ATOM     50  C   UNL A   1      45.500  24.731  35.957  1.00  0.00     0.001 A 
ATOM     51  C   UNL A   1      44.385  24.000  36.349  1.00  0.00     0.000 A 
ENDBRANCH  27  46
BRANCH  39  52
ATOM     52  C   UNL A   1      45.826  28.890  28.865  1.00  0.00    -0.014 A 
ATOM     53  C   UNL A   1      46.292  27.671  28.338  1.00  0.00     0.009 A 
ATOM     54  C   UNL A   1      46.685  29.996  28.837  1.00  0.00     0.009 A 
ATOM     55  C   UNL A   1      47.588  27.556  27.826  1.00  0.00     0.001 A 
ATOM     56  C   UNL A   1      47.974  29.886  28.308  1.00  0.00     0.001 A 
ATOM     57  C   UNL A   1      48.427  28.667  27.807  1.00  0.00     0.000 A 
ENDBRANCH  39  52
ENDBRANCH  13  14
ENDBRANCH   6   8
ENDBRANCH   5   6
ENDBRANCH   4   5
ENDBRANCH   3   4
ENDBRANCH   2   3
ENDBRANCH   1   2
BRANCH   1  58
ATOM     58  C   UNL A   1      36.768  23.770  25.805  1.00  0.00     0.261 C 
BRANCH  58  59
ATOM     59  O   UNL A   1      35.519  23.752  25.076  1.00  0.00    -0.463 OA
BRANCH  59  60
ATOM     60  C   UNL A   1      34.421  23.323  25.780  1.00  0.00     0.320 C 
ATOM     61  O   UNL A   1      34.432  23.134  26.995  1.00  0.00    -0.251 OA
BRANCH  60  62
ATOM     62  C   UNL A   1      33.120  23.063  24.954  1.00  0.00     0.144 C 
ATOM     63  C   UNL A   1      34.040  22.084  24.099  1.00  0.00     0.281 C 
ATOM     64  C   UNL A   1      32.234  23.200  23.657  1.00  0.00     0.088 C 
ATOM     65  C   UNL A   1      32.785  24.598  25.243  1.00  0.00     0.145 C 
ATOM     66  N   UNL A   1      33.156  21.079  23.487  1.00  0.00    -0.345 N 
ATOM     67  C   UNL A   1      31.996  21.833  23.059  1.00  0.00     0.267 C 
ATOM     68  C   UNL A   1      30.924  23.856  24.060  1.00  0.00     0.130 C 
ATOM     69  N   UNL A   1      31.379  24.846  24.981  1.00  0.00    -0.337 N 
ATOM     70  H   UNL A   1      32.893  20.368  24.170  1.00  0.00     0.346 HD
ATOM     71  H   UNL A   1      33.604  20.584  22.717  1.00  0.00     0.346 HD
BRANCH  69  72
ATOM     72  C   UNL A   1      30.523  25.824  25.466  1.00  0.00     0.256 C 
ATOM     73  O   UNL A   1      29.927  25.721  26.527  1.00  0.00    -0.269 OA
BRANCH  72  74
ATOM     74  C   UNL A   1      30.244  27.035  24.662  1.00  0.00     0.065 A 
ATOM     75  C   UNL A   1      29.138  26.975  23.796  1.00  0.00     0.016 A 
ATOM     76  C   UNL A   1      31.046  28.188  24.678  1.00  0.00     0.079 A 
ATOM     77  C   UNL A   1      28.814  28.063  22.977  1.00  0.00     0.001 A 
ATOM     78  C   UNL A   1      30.692  29.287  23.863  1.00  0.00     0.029 A 
ATOM     79  C   UNL A   1      29.588  29.219  23.014  1.00  0.00     0.002 A 
BRANCH  76  80
ATOM     80  N   UNL A   1      32.166  28.345  25.536  1.00  0.00    -0.220 N 
ATOM     81  C   UNL A   1      33.503  28.116  25.330  1.00  0.00     0.225 A 
ATOM     82  N   UNL A   1      31.978  28.674  26.843  1.00  0.00    -0.155 NA
ATOM     83  N   UNL A   1      34.155  28.135  26.470  1.00  0.00    -0.223 NA
ATOM     84  C   UNL A   1      33.187  28.463  27.365  1.00  0.00     0.246 A 
ENDBRANCH  76  80
ENDBRANCH  72  74
ENDBRANCH  69  72
ENDBRANCH  60  62
ENDBRANCH  59  60
ENDBRANCH  58  59
ENDBRANCH   1  58
TORSDOF 17
ENDMDL
MODEL 3
REMARK VINA RESULT:     -10.9      3.103      8.056
REMARK SMILES O=C(OCCOCCOC(=O)[C@]12C[NH2+]C[C@H]1CN(C(=O)c1ccccc1-n1cncn1)C2)c1ccc(-c2c3nc(c(-c4ccccc4)c4ccc([nH]4)c(-c4ccccc4)c4nc(c(-c5ccccc5)c5ccc2[nH]5)C=C4)C=C3)cc1
REMARK SMILES IDX 7 1 6 2 5 3 4 4 3 5 2 6 1 7 33 8 34 9 80 10 35 11 79 12
REMARK SMILES IDX 36 13 37 14 38 15 73 16 39 17 78 18 72 19 74 20 40 21 77 22
REMARK SMILES IDX 71 23 70 24 41 26 63 27 48 28 62 29 49 30 52 31 61 32 75 33
REMARK SMILES IDX 50 34 51 35 60 37 76 38 53 39 42 40 43 41 47 42 44 43 46 44
REMARK SMILES IDX 45 45 64 46 65 47 69 48 66 49 68 50 67 51 54 52 55 53 59 54
REMARK SMILES IDX 56 55 58 56 57 57 8 58 9 59 10 60 11 61 12 62 13 63 16 64
REMARK SMILES IDX 32 65 14 66 15 67 17 68 18 69 19 72 20 73 21 74 22 75 26 76
REMARK SMILES IDX 23 77 25 78 24 79 27 80 28 81 31 82 29 83 30 84
REMARK H PARENT 74 25 52 36 14 70 14 71
REMARK Flexibility Score: inf
ROOT
ATOM      1  C   UNL A   1      36.734  23.249  24.095  1.00  0.00     0.202 C 
ENDROOT
BRANCH   1   2
ATOM      2  O   UNL A   1      37.039  22.650  25.353  1.00  0.00    -0.374 OA
BRANCH   2   3
ATOM      3  C   UNL A   1      37.922  21.541  25.391  1.00  0.00     0.202 C 
BRANCH   3   4
ATOM      4  C   UNL A   1      39.266  21.698  26.128  1.00  0.00     0.261 C 
BRANCH   4   5
ATOM      5  O   UNL A   1      39.650  23.042  26.399  1.00  0.00    -0.460 OA
BRANCH   5   6
ATOM      6  C   UNL A   1      40.870  23.437  26.827  1.00  0.00     0.338 C 
ATOM      7  O   UNL A   1      41.755  22.591  26.948  1.00  0.00    -0.246 OA
BRANCH   6   8
ATOM      8  C   UNL A   1      41.194  24.854  27.170  1.00  0.00     0.060 A 
ATOM      9  C   UNL A   1      42.054  25.277  28.184  1.00  0.00     0.016 A 
ATOM     10  C   UNL A   1      40.500  25.830  26.445  1.00  0.00     0.016 A 
ATOM     11  C   UNL A   1      41.953  26.532  28.715  1.00  0.00     0.010 A 
ATOM     12  C   UNL A   1      40.509  27.143  26.873  1.00  0.00     0.010 A 
ATOM     13  C   UNL A   1      41.132  27.440  28.082  1.00  0.00    -0.014 A 
BRANCH  13  14
ATOM     14  C   UNL A   1      41.033  28.731  28.721  1.00  0.00     0.031 A 
ATOM     15  C   UNL A   1      42.173  29.650  28.433  1.00  0.00     0.074 A 
ATOM     16  C   UNL A   1      39.939  29.006  29.449  1.00  0.00     0.049 A 
ATOM     17  N   UNL A   1      42.889  30.344  29.258  1.00  0.00    -0.248 NA
ATOM     18  C   UNL A   1      42.673  29.673  27.042  1.00  0.00     0.031 C 
ATOM     19  C   UNL A   1      38.721  28.199  29.583  1.00  0.00     0.029 A 
ATOM     20  N   UNL A   1      39.609  30.163  30.069  1.00  0.00    -0.354 N 
ATOM     21  C   UNL A   1      43.815  31.026  28.469  1.00  0.00     0.074 A 
ATOM     22  C   UNL A   1      43.742  30.457  27.151  1.00  0.00     0.031 C 
ATOM     23  C   UNL A   1      37.701  29.010  29.931  1.00  0.00     0.029 A 
ATOM     24  C   UNL A   1      38.238  30.337  30.175  1.00  0.00     0.049 A 
ATOM     25  H   UNL A   1      40.270  30.810  30.407  1.00  0.00     0.167 HD
ATOM     26  C   UNL A   1      44.395  32.188  28.874  1.00  0.00     0.031 A 
ATOM     27  C   UNL A   1      37.597  31.522  30.293  1.00  0.00     0.031 A 
ATOM     28  C   UNL A   1      44.406  32.316  30.303  1.00  0.00     0.049 A 
ATOM     29  C   UNL A   1      38.600  32.532  30.714  1.00  0.00     0.074 A 
ATOM     30  C   UNL A   1      44.990  31.607  31.333  1.00  0.00     0.029 A 
ATOM     31  N   UNL A   1      43.431  33.091  30.883  1.00  0.00    -0.354 N 
ATOM     32  N   UNL A   1      39.203  32.504  31.869  1.00  0.00    -0.248 NA
ATOM     33  C   UNL A   1      39.283  33.293  29.676  1.00  0.00     0.031 C 
ATOM     34  C   UNL A   1      44.024  31.624  32.381  1.00  0.00     0.029 A 
ATOM     35  C   UNL A   1      42.937  32.387  31.950  1.00  0.00     0.049 A 
ATOM     36  H   UNL A   1      43.142  33.985  30.589  1.00  0.00     0.167 HD
ATOM     37  C   UNL A   1      40.515  32.871  31.599  1.00  0.00     0.074 A 
ATOM     38  C   UNL A   1      40.480  33.443  30.253  1.00  0.00     0.031 C 
ATOM     39  C   UNL A   1      41.552  32.414  32.364  1.00  0.00     0.031 A 
BRANCH  26  40
ATOM     40  C   UNL A   1      44.518  33.374  27.945  1.00  0.00    -0.014 A 
ATOM     41  C   UNL A   1      45.793  33.907  27.691  1.00  0.00     0.009 A 
ATOM     42  C   UNL A   1      43.416  34.164  27.556  1.00  0.00     0.009 A 
ATOM     43  C   UNL A   1      45.949  35.198  27.170  1.00  0.00     0.001 A 
ATOM     44  C   UNL A   1      43.567  35.434  27.001  1.00  0.00     0.001 A 
ATOM     45  C   UNL A   1      44.836  35.965  26.838  1.00  0.00     0.000 A 
ENDBRANCH  26  40
BRANCH  27  46
ATOM     46  C   UNL A   1      36.294  31.866  29.685  1.00  0.00    -0.014 A 
ATOM     47  C   UNL A   1      35.417  32.754  30.319  1.00  0.00     0.009 A 
ATOM     48  C   UNL A   1      35.997  31.483  28.361  1.00  0.00     0.009 A 
ATOM     49  C   UNL A   1      34.290  33.247  29.646  1.00  0.00     0.001 A 
ATOM     50  C   UNL A   1      34.870  31.967  27.693  1.00  0.00     0.001 A 
ATOM     51  C   UNL A   1      34.020  32.860  28.334  1.00  0.00     0.000 A 
ENDBRANCH  27  46
BRANCH  39  52
ATOM     52  C   UNL A   1      41.216  31.619  33.604  1.00  0.00    -0.014 A 
ATOM     53  C   UNL A   1      40.957  30.237  33.568  1.00  0.00     0.009 A 
ATOM     54  C   UNL A   1      41.344  32.237  34.855  1.00  0.00     0.009 A 
ATOM     55  C   UNL A   1      40.801  29.502  34.748  1.00  0.00     0.001 A 
ATOM     56  C   UNL A   1      41.207  31.500  36.035  1.00  0.00     0.001 A 
ATOM     57  C   UNL A   1      40.932  30.135  35.981  1.00  0.00     0.000 A 
ENDBRANCH  39  52
ENDBRANCH  13  14
ENDBRANCH   6   8
ENDBRANCH   5   6
ENDBRANCH   4   5
ENDBRANCH   3   4
ENDBRANCH   2   3
ENDBRANCH   1   2
BRANCH   1  58
ATOM     58  C   UNL A   1      35.334  23.804  23.788  1.00  0.00     0.261 C 
BRANCH  58  59
ATOM     59  O   UNL A   1      34.490  23.013  22.920  1.00  0.00    -0.463 OA
BRANCH  59  60
ATOM     60  C   UNL A   1      33.339  22.523  23.487  1.00  0.00     0.320 C 
ATOM     61  O   UNL A   1      32.487  21.903  22.852  1.00  0.00    -0.251 OA
BRANCH  60  62
ATOM     62  C   UNL A   1      33.140  22.799  25.012  1.00  0.00     0.144 C 
ATOM     63  C   UNL A   1      33.702  21.321  25.199  1.00  0.00     0.281 C 
ATOM     64  C   UNL A   1      32.404  22.586  26.390  1.00  0.00     0.088 C 
ATOM     65  C   UNL A   1      31.866  23.650  24.560  1.00  0.00     0.145 C 
ATOM     66  N   UNL A   1      34.291  21.245  26.545  1.00  0.00    -0.345 N 
ATOM     67  C   UNL A   1      33.361  21.972  27.386  1.00  0.00     0.267 C 
ATOM     68  C   UNL A   1      31.914  23.943  26.867  1.00  0.00     0.130 C 
ATOM     69  N   UNL A   1      31.449  24.517  25.647  1.00  0.00    -0.337 N 
ATOM     70  H   UNL A   1      35.211  21.685  26.562  1.00  0.00     0.346 HD
ATOM     71  H   UNL A   1      34.428  20.285  26.857  1.00  0.00     0.346 HD
BRANCH  69  72
ATOM     72  C   UNL A   1      30.732  25.704  25.639  1.00  0.00     0.256 C 
ATOM     73  O   UNL A   1      29.522  25.751  25.484  1.00  0.00    -0.269 OA
BRANCH  72  74
ATOM     74  C   UNL A   1      31.437  27.000  25.757  1.00  0.00     0.065 A 
ATOM     75  C   UNL A   1      31.484  27.578  27.038  1.00  0.00     0.016 A 
ATOM     76  C   UNL A   1      31.994  27.692  24.668  1.00  0.00     0.079 A 
ATOM     77  C   UNL A   1      32.104  28.816  27.240  1.00  0.00     0.001 A 
ATOM     78  C   UNL A   1      32.639  28.929  24.891  1.00  0.00     0.029 A 
ATOM     79  C   UNL A   1      32.685  29.488  26.168  1.00  0.00     0.002 A 
BRANCH  76  80
ATOM     80  N   UNL A   1      32.013  27.175  23.346  1.00  0.00    -0.220 N 
ATOM     81  C   UNL A   1      31.044  27.133  22.376  1.00  0.00     0.225 A 
ATOM     82  N   UNL A   1      33.102  26.487  22.903  1.00  0.00    -0.155 NA
ATOM     83  N   UNL A   1      31.401  26.327  21.402  1.00  0.00    -0.223 NA
ATOM     84  C   UNL A   1      32.652  25.946  21.770  1.00  0.00     0.246 A 
ENDBRANCH  76  80
ENDBRANCH  72  74
ENDBRANCH  69  72
ENDBRANCH  60  62
ENDBRANCH  59  60
ENDBRANCH  58  59
ENDBRANCH   1  58
TORSDOF 17
ENDMDL
