MODEL 1
REMARK VINA RESULT:     -10.9      0.000      0.000
REMARK SMILES Nc1c(Nc2ccc(I)cc2)ncnc1Nc1ccc(C(=O)OCCOCCOC(=O)c2ccc(-c3c4nc(c(-c5ccccc5)c5ccc([nH]5)c(-c5ccccc5)c5nc(c(-c6ccccc6)c6ccc3[nH]6)C=C5)C=C4)cc2)cc1
REMARK SMILES IDX 25 1 24 2 23 3 21 4 22 5 20 6 17 7 18 8 81 9 19 10 80 11
REMARK SMILES IDX 16 12 15 14 2 15 3 16 12 17 14 18 13 19 1 20 4 23 5 25 6 26
REMARK SMILES IDX 11 27 7 28 10 29 8 30 9 31 26 32 27 33 28 34 29 35 30 36
REMARK SMILES IDX 31 37 32 38 33 39 79 40 34 41 78 42 35 43 36 44 37 45 72 46
REMARK SMILES IDX 38 47 77 48 71 49 73 50 39 51 76 52 70 53 69 54 40 56 62 57
REMARK SMILES IDX 47 58 61 59 48 60 51 61 60 62 74 63 49 64 50 65 59 67 75 68
REMARK SMILES IDX 52 69 41 70 42 71 46 72 43 73 45 74 44 75 63 76 64 77 68 78
REMARK SMILES IDX 65 79 67 80 66 81 53 82 54 83 58 84 55 85 57 86 56 87
REMARK H PARENT 16 13 1 21 1 22 4 24 73 55 51 66
REMARK Flexibility Score: inf
ROOT
ATOM      1  C   UNL A   1      44.699  18.931  24.575  1.00  0.00     0.202 C 
ENDROOT
BRANCH   1   2
ATOM      2  C   UNL A   1      43.538  18.546  25.496  1.00  0.00     0.261 C 
BRANCH   2   3
ATOM      3  O   UNL A   1      42.441  19.459  25.351  1.00  0.00    -0.460 OA
BRANCH   3   4
ATOM      4  C   UNL A   1      41.686  19.613  26.465  1.00  0.00     0.338 C 
ATOM      5  O   UNL A   1      41.996  19.305  27.607  1.00  0.00    -0.246 OA
BRANCH   4   6
ATOM      6  C   UNL A   1      40.453  20.367  26.152  1.00  0.00     0.060 A 
ATOM      7  C   UNL A   1      38.097  21.851  25.871  1.00  0.00     0.040 A 
ATOM      8  C   UNL A   1      39.257  22.462  26.358  1.00  0.00     0.027 A 
ATOM      9  C   UNL A   1      38.159  20.516  25.435  1.00  0.00     0.027 A 
ATOM     10  C   UNL A   1      40.426  21.721  26.508  1.00  0.00     0.018 A 
ATOM     11  C   UNL A   1      39.335  19.773  25.564  1.00  0.00     0.018 A 
BRANCH   7  12
ATOM     12  N   UNL A   1      36.854  22.490  26.069  1.00  0.00    -0.338 N 
ATOM     13  H   UNL A   1      36.809  23.269  26.668  1.00  0.00     0.168 HD
BRANCH  12  14
ATOM     14  C   UNL A   1      35.661  22.044  25.433  1.00  0.00     0.159 A 
ATOM     15  C   UNL A   1      35.155  22.763  24.344  1.00  0.00     0.118 A 
ATOM     16  C   UNL A   1      33.957  22.263  23.810  1.00  0.00     0.159 A 
ATOM     17  N   UNL A   1      33.315  21.200  24.331  1.00  0.00    -0.217 NA
ATOM     18  N   UNL A   1      35.045  20.950  25.924  1.00  0.00    -0.217 NA
ATOM     19  C   UNL A   1      33.897  20.590  25.358  1.00  0.00     0.226 A 
BRANCH  15  20
ATOM     20  N   UNL A   1      35.802  23.881  23.806  1.00  0.00    -0.393 N 
ATOM     21  H   UNL A   1      36.628  24.218  24.222  1.00  0.00     0.156 HD
ATOM     22  H   UNL A   1      35.431  24.329  23.013  1.00  0.00     0.156 HD
ENDBRANCH  15  20
BRANCH  16  23
ATOM     23  N   UNL A   1      33.418  22.888  22.657  1.00  0.00    -0.338 N 
ATOM     24  H   UNL A   1      33.640  22.480  21.788  1.00  0.00     0.168 HD
BRANCH  23  25
ATOM     25  C   UNL A   1      32.601  24.032  22.631  1.00  0.00     0.040 A 
ATOM     26  C   UNL A   1      31.363  24.006  23.286  1.00  0.00     0.027 A 
ATOM     27  C   UNL A   1      33.030  25.238  22.062  1.00  0.00     0.027 A 
ATOM     28  C   UNL A   1      30.584  25.163  23.389  1.00  0.00     0.017 A 
ATOM     29  C   UNL A   1      32.252  26.395  22.152  1.00  0.00     0.017 A 
ATOM     30  C   UNL A   1      31.035  26.355  22.826  1.00  0.00     0.013 A 
ATOM     31  I   UNL A   1      29.899  28.084  23.019  1.00  0.00    -0.044 I 
ENDBRANCH  23  25
ENDBRANCH  16  23
ENDBRANCH  12  14
ENDBRANCH   7  12
ENDBRANCH   4   6
ENDBRANCH   3   4
ENDBRANCH   2   3
ENDBRANCH   1   2
BRANCH   1  32
ATOM     32  O   UNL A   1      45.750  19.695  25.166  1.00  0.00    -0.374 OA
BRANCH  32  33
ATOM     33  C   UNL A   1      45.732  21.108  24.952  1.00  0.00     0.202 C 
BRANCH  33  34
ATOM     34  C   UNL A   1      45.042  21.950  26.030  1.00  0.00     0.261 C 
BRANCH  34  35
ATOM     35  O   UNL A   1      44.039  22.815  25.468  1.00  0.00    -0.460 OA
BRANCH  35  36
ATOM     36  C   UNL A   1      44.418  24.103  25.309  1.00  0.00     0.338 C 
ATOM     37  O   UNL A   1      45.169  24.560  24.458  1.00  0.00    -0.246 OA
BRANCH  36  38
ATOM     38  C   UNL A   1      43.642  24.966  26.217  1.00  0.00     0.060 A 
ATOM     39  C   UNL A   1      44.079  26.286  26.387  1.00  0.00     0.016 A 
ATOM     40  C   UNL A   1      42.548  24.481  26.936  1.00  0.00     0.016 A 
ATOM     41  C   UNL A   1      43.450  27.115  27.311  1.00  0.00     0.010 A 
ATOM     42  C   UNL A   1      41.925  25.311  27.874  1.00  0.00     0.010 A 
ATOM     43  C   UNL A   1      42.394  26.619  28.088  1.00  0.00    -0.014 A 
BRANCH  43  44
ATOM     44  C   UNL A   1      41.881  27.430  29.217  1.00  0.00     0.031 A 
ATOM     45  C   UNL A   1      42.610  27.391  30.532  1.00  0.00     0.074 A 
ATOM     46  C   UNL A   1      40.812  28.230  29.061  1.00  0.00     0.049 A 
ATOM     47  N   UNL A   1      42.343  28.027  31.644  1.00  0.00    -0.248 NA
ATOM     48  C   UNL A   1      43.800  26.527  30.601  1.00  0.00     0.031 C 
ATOM     49  C   UNL A   1      40.058  28.398  27.819  1.00  0.00     0.029 A 
ATOM     50  N   UNL A   1      40.184  29.060  29.954  1.00  0.00    -0.354 N 
ATOM     51  C   UNL A   1      43.333  27.647  32.540  1.00  0.00     0.074 A 
ATOM     52  C   UNL A   1      44.185  26.698  31.858  1.00  0.00     0.031 C 
ATOM     53  C   UNL A   1      39.070  29.286  28.030  1.00  0.00     0.029 A 
ATOM     54  C   UNL A   1      39.105  29.723  29.424  1.00  0.00     0.049 A 
ATOM     55  H   UNL A   1      40.479  29.169  30.887  1.00  0.00     0.167 HD
ATOM     56  C   UNL A   1      43.523  28.059  33.816  1.00  0.00     0.031 A 
ATOM     57  C   UNL A   1      38.238  30.577  30.001  1.00  0.00     0.031 A 
ATOM     58  C   UNL A   1      42.667  28.987  34.503  1.00  0.00     0.049 A 
ATOM     59  C   UNL A   1      38.409  30.940  31.452  1.00  0.00     0.074 A 
ATOM     60  C   UNL A   1      42.777  29.460  35.799  1.00  0.00     0.029 A 
ATOM     61  N   UNL A   1      41.542  29.578  33.953  1.00  0.00    -0.354 N 
ATOM     62  N   UNL A   1      39.353  30.577  32.287  1.00  0.00    -0.248 NA
ATOM     63  C   UNL A   1      37.397  31.831  32.038  1.00  0.00     0.031 C 
ATOM     64  C   UNL A   1      41.686  30.299  36.049  1.00  0.00     0.029 A 
ATOM     65  C   UNL A   1      40.932  30.393  34.891  1.00  0.00     0.049 A 
ATOM     66  H   UNL A   1      41.223  29.440  33.031  1.00  0.00     0.167 HD
ATOM     67  C   UNL A   1      39.064  31.215  33.487  1.00  0.00     0.074 A 
ATOM     68  C   UNL A   1      37.862  31.995  33.270  1.00  0.00     0.031 C 
ATOM     69  C   UNL A   1      39.737  31.162  34.662  1.00  0.00     0.031 A 
BRANCH  56  70
ATOM     70  C   UNL A   1      44.696  27.491  34.562  1.00  0.00    -0.014 A 
ATOM     71  C   UNL A   1      44.579  26.299  35.294  1.00  0.00     0.009 A 
ATOM     72  C   UNL A   1      45.947  28.122  34.483  1.00  0.00     0.009 A 
ATOM     73  C   UNL A   1      45.688  25.763  35.951  1.00  0.00     0.001 A 
ATOM     74  C   UNL A   1      47.059  27.570  35.120  1.00  0.00     0.001 A 
ATOM     75  C   UNL A   1      46.928  26.394  35.858  1.00  0.00     0.000 A 
ENDBRANCH  56  70
BRANCH  57  76
ATOM     76  C   UNL A   1      37.124  31.151  29.203  1.00  0.00    -0.014 A 
ATOM     77  C   UNL A   1      36.024  30.357  28.842  1.00  0.00     0.009 A 
ATOM     78  C   UNL A   1      37.151  32.495  28.803  1.00  0.00     0.009 A 
ATOM     79  C   UNL A   1      34.981  30.897  28.086  1.00  0.00     0.001 A 
ATOM     80  C   UNL A   1      36.094  33.039  28.069  1.00  0.00     0.001 A 
ATOM     81  C   UNL A   1      35.013  32.238  27.706  1.00  0.00     0.000 A 
ENDBRANCH  57  76
BRANCH  69  82
ATOM     82  C   UNL A   1      39.215  31.985  35.806  1.00  0.00    -0.014 A 
ATOM     83  C   UNL A   1      39.597  33.324  35.970  1.00  0.00     0.009 A 
ATOM     84  C   UNL A   1      38.258  31.437  36.676  1.00  0.00     0.009 A 
ATOM     85  C   UNL A   1      39.044  34.094  36.996  1.00  0.00     0.001 A 
ATOM     86  C   UNL A   1      37.689  32.216  37.683  1.00  0.00     0.001 A 
ATOM     87  C   UNL A   1      38.085  33.542  37.845  1.00  0.00     0.000 A 
ENDBRANCH  69  82
ENDBRANCH  43  44
ENDBRANCH  36  38
ENDBRANCH  35  36
ENDBRANCH  34  35
ENDBRANCH  33  34
ENDBRANCH  32  33
ENDBRANCH   1  32
TORSDOF 19
ENDMDL
MODEL 2
REMARK VINA RESULT:     -10.6      1.369      6.045
REMARK SMILES Nc1c(Nc2ccc(I)cc2)ncnc1Nc1ccc(C(=O)OCCOCCOC(=O)c2ccc(-c3c4nc(c(-c5ccccc5)c5ccc([nH]5)c(-c5ccccc5)c5nc(c(-c6ccccc6)c6ccc3[nH]6)C=C5)C=C4)cc2)cc1
REMARK SMILES IDX 25 1 24 2 23 3 21 4 22 5 20 6 17 7 18 8 81 9 19 10 80 11
REMARK SMILES IDX 16 12 15 14 2 15 3 16 12 17 14 18 13 19 1 20 4 23 5 25 6 26
REMARK SMILES IDX 11 27 7 28 10 29 8 30 9 31 26 32 27 33 28 34 29 35 30 36
REMARK SMILES IDX 31 37 32 38 33 39 79 40 34 41 78 42 35 43 36 44 37 45 72 46
REMARK SMILES IDX 38 47 77 48 71 49 73 50 39 51 76 52 70 53 69 54 40 56 62 57
REMARK SMILES IDX 47 58 61 59 48 60 51 61 60 62 74 63 49 64 50 65 59 67 75 68
REMARK SMILES IDX 52 69 41 70 42 71 46 72 43 73 45 74 44 75 63 76 64 77 68 78
REMARK SMILES IDX 65 79 67 80 66 81 53 82 54 83 58 84 55 85 57 86 56 87
REMARK H PARENT 16 13 1 21 1 22 4 24 73 55 51 66
REMARK Flexibility Score: inf
ROOT
ATOM      1  C   UNL A   1      42.656  21.811  26.796  1.00  0.00     0.202 C 
ENDROOT
BRANCH   1   2
ATOM      2  C   UNL A   1      41.357  21.184  27.307  1.00  0.00     0.261 C 
BRANCH   2   3
ATOM      3  O   UNL A   1      40.247  21.547  26.473  1.00  0.00    -0.460 OA
BRANCH   3   4
ATOM      4  C   UNL A   1      39.616  20.501  25.888  1.00  0.00     0.338 C 
ATOM      5  O   UNL A   1      40.034  19.357  25.790  1.00  0.00    -0.246 OA
BRANCH   4   6
ATOM      6  C   UNL A   1      38.240  20.881  25.501  1.00  0.00     0.060 A 
ATOM      7  C   UNL A   1      35.583  21.651  25.075  1.00  0.00     0.040 A 
ATOM      8  C   UNL A   1      36.503  22.565  25.598  1.00  0.00     0.027 A 
ATOM      9  C   UNL A   1      36.033  20.380  24.678  1.00  0.00     0.027 A 
ATOM     10  C   UNL A   1      37.823  22.178  25.820  1.00  0.00     0.018 A 
ATOM     11  C   UNL A   1      37.360  19.993  24.879  1.00  0.00     0.018 A 
BRANCH   7  12
ATOM     12  N   UNL A   1      34.204  21.923  25.201  1.00  0.00    -0.338 N 
ATOM     13  H   UNL A   1      33.655  21.346  25.779  1.00  0.00     0.168 HD
BRANCH  12  14
ATOM     14  C   UNL A   1      33.578  23.004  24.519  1.00  0.00     0.159 A 
ATOM     15  C   UNL A   1      32.700  23.840  25.219  1.00  0.00     0.118 A 
ATOM     16  C   UNL A   1      32.108  24.853  24.448  1.00  0.00     0.159 A 
ATOM     17  N   UNL A   1      32.330  24.988  23.126  1.00  0.00    -0.217 NA
ATOM     18  N   UNL A   1      33.840  23.168  23.206  1.00  0.00    -0.217 NA
ATOM     19  C   UNL A   1      33.194  24.143  22.573  1.00  0.00     0.226 A 
BRANCH  15  20
ATOM     20  N   UNL A   1      32.446  23.699  26.587  1.00  0.00    -0.393 N 
ATOM     21  H   UNL A   1      33.167  23.851  27.239  1.00  0.00     0.156 HD
ATOM     22  H   UNL A   1      31.546  23.447  26.896  1.00  0.00     0.156 HD
ENDBRANCH  15  20
BRANCH  16  23
ATOM     23  N   UNL A   1      31.265  25.790  25.097  1.00  0.00    -0.338 N 
ATOM     24  H   UNL A   1      31.120  25.661  26.062  1.00  0.00     0.168 HD
BRANCH  23  25
ATOM     25  C   UNL A   1      30.616  26.885  24.499  1.00  0.00     0.040 A 
ATOM     26  C   UNL A   1      31.272  28.120  24.433  1.00  0.00     0.027 A 
ATOM     27  C   UNL A   1      29.373  26.755  23.866  1.00  0.00     0.027 A 
ATOM     28  C   UNL A   1      30.711  29.193  23.734  1.00  0.00     0.017 A 
ATOM     29  C   UNL A   1      28.801  27.826  23.174  1.00  0.00     0.017 A 
ATOM     30  C   UNL A   1      29.479  29.040  23.102  1.00  0.00     0.013 A 
ATOM     31  I   UNL A   1      28.666  30.619  22.025  1.00  0.00    -0.044 I 
ENDBRANCH  23  25
ENDBRANCH  16  23
ENDBRANCH  12  14
ENDBRANCH   7  12
ENDBRANCH   4   6
ENDBRANCH   3   4
ENDBRANCH   2   3
ENDBRANCH   1   2
BRANCH   1  32
ATOM     32  O   UNL A   1      43.001  21.537  25.438  1.00  0.00    -0.374 OA
BRANCH  32  33
ATOM     33  C   UNL A   1      44.378  21.663  25.076  1.00  0.00     0.202 C 
BRANCH  33  34
ATOM     34  C   UNL A   1      44.755  22.903  24.256  1.00  0.00     0.261 C 
BRANCH  34  35
ATOM     35  O   UNL A   1      43.944  24.039  24.609  1.00  0.00    -0.460 OA
BRANCH  35  36
ATOM     36  C   UNL A   1      44.630  25.110  25.069  1.00  0.00     0.338 C 
ATOM     37  O   UNL A   1      45.685  25.559  24.642  1.00  0.00    -0.246 OA
BRANCH  36  38
ATOM     38  C   UNL A   1      43.827  25.816  26.082  1.00  0.00     0.060 A 
ATOM     39  C   UNL A   1      44.124  27.163  26.321  1.00  0.00     0.016 A 
ATOM     40  C   UNL A   1      42.845  25.161  26.830  1.00  0.00     0.016 A 
ATOM     41  C   UNL A   1      43.472  27.852  27.339  1.00  0.00     0.010 A 
ATOM     42  C   UNL A   1      42.200  25.850  27.862  1.00  0.00     0.010 A 
ATOM     43  C   UNL A   1      42.534  27.188  28.141  1.00  0.00    -0.014 A 
BRANCH  43  44
ATOM     44  C   UNL A   1      42.013  27.858  29.355  1.00  0.00     0.031 A 
ATOM     45  C   UNL A   1      40.738  28.651  29.260  1.00  0.00     0.074 A 
ATOM     46  C   UNL A   1      42.638  27.722  30.538  1.00  0.00     0.049 A 
ATOM     47  N   UNL A   1      40.101  29.306  30.197  1.00  0.00    -0.248 NA
ATOM     48  C   UNL A   1      40.093  28.707  27.938  1.00  0.00     0.031 C 
ATOM     49  C   UNL A   1      43.847  26.933  30.769  1.00  0.00     0.029 A 
ATOM     50  N   UNL A   1      42.330  28.239  31.771  1.00  0.00    -0.354 N 
ATOM     51  C   UNL A   1      38.979  29.844  29.580  1.00  0.00     0.074 A 
ATOM     52  C   UNL A   1      39.039  29.472  28.184  1.00  0.00     0.031 C 
ATOM     53  C   UNL A   1      44.174  27.012  32.071  1.00  0.00     0.029 A 
ATOM     54  C   UNL A   1      43.218  27.881  32.755  1.00  0.00     0.049 A 
ATOM     55  H   UNL A   1      41.547  28.813  31.935  1.00  0.00     0.167 HD
ATOM     56  C   UNL A   1      37.981  30.575  30.130  1.00  0.00     0.031 A 
ATOM     57  C   UNL A   1      43.260  28.223  34.057  1.00  0.00     0.031 A 
ATOM     58  C   UNL A   1      37.928  30.962  31.513  1.00  0.00     0.049 A 
ATOM     59  C   UNL A   1      42.194  29.123  34.622  1.00  0.00     0.074 A 
ATOM     60  C   UNL A   1      36.958  31.708  32.160  1.00  0.00     0.029 A 
ATOM     61  N   UNL A   1      38.886  30.641  32.460  1.00  0.00    -0.354 N 
ATOM     62  N   UNL A   1      41.135  29.621  34.029  1.00  0.00    -0.248 NA
ATOM     63  C   UNL A   1      42.328  29.506  36.035  1.00  0.00     0.031 C 
ATOM     64  C   UNL A   1      37.357  31.881  33.489  1.00  0.00     0.029 A 
ATOM     65  C   UNL A   1      38.545  31.194  33.681  1.00  0.00     0.049 A 
ATOM     66  H   UNL A   1      39.691  30.099  32.289  1.00  0.00     0.167 HD
ATOM     67  C   UNL A   1      40.465  30.353  35.002  1.00  0.00     0.074 A 
ATOM     68  C   UNL A   1      41.230  30.227  36.225  1.00  0.00     0.031 C 
ATOM     69  C   UNL A   1      39.316  31.061  34.890  1.00  0.00     0.031 A 
BRANCH  56  70
ATOM     70  C   UNL A   1      36.869  31.023  29.225  1.00  0.00    -0.014 A 
ATOM     71  C   UNL A   1      35.840  30.144  28.853  1.00  0.00     0.009 A 
ATOM     72  C   UNL A   1      36.818  32.356  28.787  1.00  0.00     0.009 A 
ATOM     73  C   UNL A   1      34.793  30.585  28.042  1.00  0.00     0.001 A 
ATOM     74  C   UNL A   1      35.757  32.800  27.997  1.00  0.00     0.001 A 
ATOM     75  C   UNL A   1      34.749  31.914  27.621  1.00  0.00     0.000 A 
ENDBRANCH  56  70
BRANCH  57  76
ATOM     76  C   UNL A   1      44.355  27.710  34.920  1.00  0.00    -0.014 A 
ATOM     77  C   UNL A   1      45.559  28.421  35.042  1.00  0.00     0.009 A 
ATOM     78  C   UNL A   1      44.200  26.511  35.633  1.00  0.00     0.009 A 
ATOM     79  C   UNL A   1      46.589  27.934  35.849  1.00  0.00     0.001 A 
ATOM     80  C   UNL A   1      45.223  26.039  36.460  1.00  0.00     0.001 A 
ATOM     81  C   UNL A   1      46.419  26.748  36.563  1.00  0.00     0.000 A 
ENDBRANCH  57  76
BRANCH  69  82
ATOM     82  C   UNL A   1      38.790  31.741  36.123  1.00  0.00    -0.014 A 
ATOM     83  C   UNL A   1      39.061  33.094  36.377  1.00  0.00     0.009 A 
ATOM     84  C   UNL A   1      37.940  31.041  36.994  1.00  0.00     0.009 A 
ATOM     85  C   UNL A   1      38.503  33.728  37.489  1.00  0.00     0.001 A 
ATOM     86  C   UNL A   1      37.363  31.683  38.090  1.00  0.00     0.001 A 
ATOM     87  C   UNL A   1      37.649  33.024  38.339  1.00  0.00     0.000 A 
ENDBRANCH  69  82
ENDBRANCH  43  44
ENDBRANCH  36  38
ENDBRANCH  35  36
ENDBRANCH  34  35
ENDBRANCH  33  34
ENDBRANCH  32  33
ENDBRANCH   1  32
TORSDOF 19
ENDMDL
MODEL 3
REMARK VINA RESULT:     -10.5      4.622      9.169
REMARK SMILES Nc1c(Nc2ccc(I)cc2)ncnc1Nc1ccc(C(=O)OCCOCCOC(=O)c2ccc(-c3c4nc(c(-c5ccccc5)c5ccc([nH]5)c(-c5ccccc5)c5nc(c(-c6ccccc6)c6ccc3[nH]6)C=C5)C=C4)cc2)cc1
REMARK SMILES IDX 25 1 24 2 23 3 21 4 22 5 20 6 17 7 18 8 81 9 19 10 80 11
REMARK SMILES IDX 16 12 15 14 2 15 3 16 12 17 14 18 13 19 1 20 4 23 5 25 6 26
REMARK SMILES IDX 11 27 7 28 10 29 8 30 9 31 26 32 27 33 28 34 29 35 30 36
REMARK SMILES IDX 31 37 32 38 33 39 79 40 34 41 78 42 35 43 36 44 37 45 72 46
REMARK SMILES IDX 38 47 77 48 71 49 73 50 39 51 76 52 70 53 69 54 40 56 62 57
REMARK SMILES IDX 47 58 61 59 48 60 51 61 60 62 74 63 49 64 50 65 59 67 75 68
REMARK SMILES IDX 52 69 41 70 42 71 46 72 43 73 45 74 44 75 63 76 64 77 68 78
REMARK SMILES IDX 65 79 67 80 66 81 53 82 54 83 58 84 55 85 57 86 56 87
REMARK H PARENT 16 13 1 21 1 22 4 24 73 55 51 66
REMARK Flexibility Score: inf
ROOT
ATOM      1  C   UNL A   1      33.561  21.328  24.325  1.00  0.00     0.202 C 
ENDROOT
BRANCH   1   2
ATOM      2  C   UNL A   1      33.597  22.566  23.425  1.00  0.00     0.261 C 
BRANCH   2   3
ATOM      3  O   UNL A   1      33.234  23.746  24.157  1.00  0.00    -0.460 OA
BRANCH   3   4
ATOM      4  C   UNL A   1      32.598  24.690  23.424  1.00  0.00     0.338 C 
ATOM      5  O   UNL A   1      32.306  24.623  22.239  1.00  0.00    -0.246 OA
BRANCH   4   6
ATOM      6  C   UNL A   1      32.143  25.796  24.293  1.00  0.00     0.060 A 
ATOM      7  C   UNL A   1      31.578  28.000  25.924  1.00  0.00     0.040 A 
ATOM      8  C   UNL A   1      31.984  28.193  24.600  1.00  0.00     0.027 A 
ATOM      9  C   UNL A   1      31.364  26.691  26.390  1.00  0.00     0.027 A 
ATOM     10  C   UNL A   1      32.276  27.097  23.792  1.00  0.00     0.018 A 
ATOM     11  C   UNL A   1      31.636  25.587  25.576  1.00  0.00     0.018 A 
BRANCH   7  12
ATOM     12  N   UNL A   1      31.646  29.085  26.824  1.00  0.00    -0.338 N 
ATOM     13  H   UNL A   1      30.810  29.443  27.201  1.00  0.00     0.168 HD
BRANCH  12  14
ATOM     14  C   UNL A   1      32.882  29.679  27.205  1.00  0.00     0.159 A 
ATOM     15  C   UNL A   1      32.981  31.074  27.270  1.00  0.00     0.118 A 
ATOM     16  C   UNL A   1      34.250  31.561  27.619  1.00  0.00     0.159 A 
ATOM     17  N   UNL A   1      35.307  30.754  27.834  1.00  0.00    -0.217 NA
ATOM     18  N   UNL A   1      33.926  28.868  27.468  1.00  0.00    -0.217 NA
ATOM     19  C   UNL A   1      35.089  29.445  27.757  1.00  0.00     0.226 A 
BRANCH  15  20
ATOM     20  N   UNL A   1      31.896  31.924  27.030  1.00  0.00    -0.393 N 
ATOM     21  H   UNL A   1      31.012  31.712  27.410  1.00  0.00     0.156 HD
ATOM     22  H   UNL A   1      32.016  32.731  26.481  1.00  0.00     0.156 HD
ENDBRANCH  15  20
BRANCH  16  23
ATOM     23  N   UNL A   1      34.416  32.959  27.782  1.00  0.00    -0.338 N 
ATOM     24  H   UNL A   1      34.740  33.461  26.999  1.00  0.00     0.168 HD
BRANCH  23  25
ATOM     25  C   UNL A   1      34.163  33.700  28.950  1.00  0.00     0.040 A 
ATOM     26  C   UNL A   1      34.910  33.438  30.105  1.00  0.00     0.027 A 
ATOM     27  C   UNL A   1      33.259  34.770  28.969  1.00  0.00     0.027 A 
ATOM     28  C   UNL A   1      34.775  34.239  31.243  1.00  0.00     0.017 A 
ATOM     29  C   UNL A   1      33.110  35.569  30.106  1.00  0.00     0.017 A 
ATOM     30  C   UNL A   1      33.879  35.306  31.237  1.00  0.00     0.013 A 
ATOM     31  I   UNL A   1      33.710  36.524  32.911  1.00  0.00    -0.044 I 
ENDBRANCH  23  25
ENDBRANCH  16  23
ENDBRANCH  12  14
ENDBRANCH   7  12
ENDBRANCH   4   6
ENDBRANCH   3   4
ENDBRANCH   2   3
ENDBRANCH   1   2
BRANCH   1  32
ATOM     32  O   UNL A   1      34.611  21.213  25.286  1.00  0.00    -0.374 OA
BRANCH  32  33
ATOM     33  C   UNL A   1      35.657  20.282  25.001  1.00  0.00     0.202 C 
BRANCH  33  34
ATOM     34  C   UNL A   1      37.039  20.879  24.712  1.00  0.00     0.261 C 
BRANCH  34  35
ATOM     35  O   UNL A   1      37.548  21.611  25.841  1.00  0.00    -0.460 OA
BRANCH  35  36
ATOM     36  C   UNL A   1      38.851  21.389  26.127  1.00  0.00     0.338 C 
ATOM     37  O   UNL A   1      39.514  20.396  25.860  1.00  0.00    -0.246 OA
BRANCH  36  38
ATOM     38  C   UNL A   1      39.458  22.617  26.667  1.00  0.00     0.060 A 
ATOM     39  C   UNL A   1      38.954  23.843  26.214  1.00  0.00     0.016 A 
ATOM     40  C   UNL A   1      40.539  22.577  27.551  1.00  0.00     0.016 A 
ATOM     41  C   UNL A   1      39.557  25.034  26.607  1.00  0.00     0.010 A 
ATOM     42  C   UNL A   1      41.153  23.774  27.935  1.00  0.00     0.010 A 
ATOM     43  C   UNL A   1      40.684  25.004  27.440  1.00  0.00    -0.014 A 
BRANCH  43  44
ATOM     44  C   UNL A   1      41.449  26.251  27.670  1.00  0.00     0.031 A 
ATOM     45  C   UNL A   1      40.899  27.278  28.622  1.00  0.00     0.074 A 
ATOM     46  C   UNL A   1      42.642  26.446  27.081  1.00  0.00     0.049 A 
ATOM     47  N   UNL A   1      41.408  28.430  28.978  1.00  0.00    -0.248 NA
ATOM     48  C   UNL A   1      39.612  26.961  29.262  1.00  0.00     0.031 C 
ATOM     49  C   UNL A   1      43.306  25.500  26.185  1.00  0.00     0.029 A 
ATOM     50  N   UNL A   1      43.509  27.505  27.159  1.00  0.00    -0.354 N 
ATOM     51  C   UNL A   1      40.507  28.971  29.887  1.00  0.00     0.074 A 
ATOM     52  C   UNL A   1      39.405  28.042  30.002  1.00  0.00     0.031 C 
ATOM     53  C   UNL A   1      44.485  26.021  25.803  1.00  0.00     0.029 A 
ATOM     54  C   UNL A   1      44.642  27.345  26.400  1.00  0.00     0.049 A 
ATOM     55  H   UNL A   1      43.337  28.305  27.707  1.00  0.00     0.167 HD
ATOM     56  C   UNL A   1      40.596  30.135  30.574  1.00  0.00     0.031 A 
ATOM     57  C   UNL A   1      45.683  28.177  26.202  1.00  0.00     0.031 A 
ATOM     58  C   UNL A   1      41.680  31.069  30.448  1.00  0.00     0.049 A 
ATOM     59  C   UNL A   1      45.708  29.512  26.898  1.00  0.00     0.074 A 
ATOM     60  C   UNL A   1      41.854  32.278  31.099  1.00  0.00     0.029 A 
ATOM     61  N   UNL A   1      42.772  30.903  29.612  1.00  0.00    -0.354 N 
ATOM     62  N   UNL A   1      44.853  30.010  27.758  1.00  0.00    -0.248 NA
ATOM     63  C   UNL A   1      46.842  30.398  26.595  1.00  0.00     0.031 C 
ATOM     64  C   UNL A   1      43.026  32.867  30.617  1.00  0.00     0.029 A 
ATOM     65  C   UNL A   1      43.611  31.999  29.711  1.00  0.00     0.049 A 
ATOM     66  H   UNL A   1      42.928  30.121  29.033  1.00  0.00     0.167 HD
ATOM     67  C   UNL A   1      45.358  31.253  28.120  1.00  0.00     0.074 A 
ATOM     68  C   UNL A   1      46.598  31.431  27.393  1.00  0.00     0.031 C 
ATOM     69  C   UNL A   1      44.842  32.163  28.981  1.00  0.00     0.031 A 
BRANCH  56  70
ATOM     70  C   UNL A   1      39.474  30.473  31.513  1.00  0.00    -0.014 A 
ATOM     71  C   UNL A   1      38.350  31.188  31.070  1.00  0.00     0.009 A 
ATOM     72  C   UNL A   1      39.513  30.020  32.841  1.00  0.00     0.009 A 
ATOM     73  C   UNL A   1      37.298  31.462  31.946  1.00  0.00     0.001 A 
ATOM     74  C   UNL A   1      38.449  30.274  33.707  1.00  0.00     0.001 A 
ATOM     75  C   UNL A   1      37.345  30.999  33.260  1.00  0.00     0.000 A 
ENDBRANCH  56  70
BRANCH  57  76
ATOM     76  C   UNL A   1      46.793  27.771  25.301  1.00  0.00    -0.014 A 
ATOM     77  C   UNL A   1      46.732  28.048  23.927  1.00  0.00     0.009 A 
ATOM     78  C   UNL A   1      47.921  27.111  25.812  1.00  0.00     0.009 A 
ATOM     79  C   UNL A   1      47.774  27.659  23.081  1.00  0.00     0.001 A 
ATOM     80  C   UNL A   1      48.973  26.746  24.968  1.00  0.00     0.001 A 
ATOM     81  C   UNL A   1      48.896  27.016  23.602  1.00  0.00     0.000 A 
ENDBRANCH  57  76
BRANCH  69  82
ATOM     82  C   UNL A   1      45.619  33.427  29.212  1.00  0.00    -0.014 A 
ATOM     83  C   UNL A   1      45.364  34.583  28.460  1.00  0.00     0.009 A 
ATOM     84  C   UNL A   1      46.556  33.486  30.257  1.00  0.00     0.009 A 
ATOM     85  C   UNL A   1      46.045  35.771  28.740  1.00  0.00     0.001 A 
ATOM     86  C   UNL A   1      47.216  34.680  30.550  1.00  0.00     0.001 A 
ATOM     87  C   UNL A   1      46.964  35.819  29.789  1.00  0.00     0.000 A 
ENDBRANCH  69  82
ENDBRANCH  43  44
ENDBRANCH  36  38
ENDBRANCH  35  36
ENDBRANCH  34  35
ENDBRANCH  33  34
ENDBRANCH  32  33
ENDBRANCH   1  32
TORSDOF 19
ENDMDL
