MODEL 1
REMARK VINA RESULT:     -12.1      0.000      0.000
REMARK SMILES CC(=O)c1ccc(N2CCN(c3ccc(C(=O)OCCOCCOC(=O)c4ccc(-c5c6nc(c(-c7ccccc7)c7ccc([nH]7)c(-c7ccccc7)c7nc(c(-c8ccccc8)c8ccc5[nH]8)C=C7)C=C6)cc4)cc3NS(=O)(=O)c3ccc(C)cc3)CC2)cc1
REMARK SMILES IDX 20 1 19 2 18 3 16 4 17 5 15 6 12 7 13 8 76 9 14 10 75 11
REMARK SMILES IDX 11 12 8 13 9 14 89 15 10 16 88 17 7 18 4 19 5 20 91 21 6 22
REMARK SMILES IDX 90 23 2 24 1 25 3 26 77 27 78 29 79 30 80 31 81 32 82 33
REMARK SMILES IDX 87 34 83 35 86 36 84 37 85 38 21 39 22 40 23 41 24 42 25 43
REMARK SMILES IDX 26 44 27 45 28 46 74 47 29 48 73 49 30 50 31 51 32 52 67 53
REMARK SMILES IDX 33 54 72 55 66 56 68 57 34 58 71 59 65 60 64 61 35 63 57 64
REMARK SMILES IDX 42 65 56 66 43 67 46 68 55 69 69 70 44 71 45 72 54 74 70 75
REMARK SMILES IDX 47 76 36 77 37 78 41 79 38 80 40 81 39 82 58 83 59 84 63 85
REMARK SMILES IDX 60 86 62 87 61 88 48 89 49 90 53 91 50 92 52 93 51 94
REMARK H PARENT 77 28 68 62 46 73
REMARK Flexibility Score: inf
ROOT
ATOM      1  C   UNL A   1      34.432  32.919  29.090  1.00  0.00     0.202 C 
ENDROOT
BRANCH   1   2
ATOM      2  C   UNL A   1      34.583  32.090  27.808  1.00  0.00     0.261 C 
BRANCH   2   3
ATOM      3  O   UNL A   1      34.021  30.775  27.986  1.00  0.00    -0.460 OA
BRANCH   3   4
ATOM      4  C   UNL A   1      32.954  30.484  27.203  1.00  0.00     0.338 C 
ATOM      5  O   UNL A   1      32.093  31.262  26.826  1.00  0.00    -0.246 OA
BRANCH   4   6
ATOM      6  C   UNL A   1      33.037  29.086  26.710  1.00  0.00     0.062 A 
ATOM      7  C   UNL A   1      32.984  26.422  25.841  1.00  0.00     0.061 A 
ATOM      8  C   UNL A   1      32.260  26.801  26.971  1.00  0.00     0.029 A 
ATOM      9  C   UNL A   1      33.698  27.409  25.110  1.00  0.00     0.073 A 
ATOM     10  C   UNL A   1      32.272  28.130  27.393  1.00  0.00     0.018 A 
ATOM     11  C   UNL A   1      33.777  28.721  25.577  1.00  0.00     0.044 A 
BRANCH   7  12
ATOM     12  N   UNL A   1      33.059  25.104  25.393  1.00  0.00    -0.366 N 
ATOM     13  N   UNL A   1      33.423  22.401  24.662  1.00  0.00    -0.368 N 
ATOM     14  C   UNL A   1      32.084  23.000  24.555  1.00  0.00     0.138 C 
ATOM     15  C   UNL A   1      34.561  23.324  24.527  1.00  0.00     0.138 C 
ATOM     16  C   UNL A   1      31.947  24.160  25.575  1.00  0.00     0.138 C 
ATOM     17  C   UNL A   1      34.409  24.493  25.520  1.00  0.00     0.138 C 
BRANCH  13  18
ATOM     18  C   UNL A   1      33.625  21.053  24.484  1.00  0.00     0.037 A 
ATOM     19  C   UNL A   1      34.077  18.281  24.290  1.00  0.00     0.017 A 
ATOM     20  C   UNL A   1      32.851  18.823  23.895  1.00  0.00     0.014 A 
ATOM     21  C   UNL A   1      35.093  19.121  24.741  1.00  0.00     0.014 A 
ATOM     22  C   UNL A   1      32.625  20.199  24.008  1.00  0.00     0.026 A 
ATOM     23  C   UNL A   1      34.866  20.496  24.820  1.00  0.00     0.026 A 
BRANCH  19  24
ATOM     24  C   UNL A   1      34.255  16.809  24.239  1.00  0.00     0.159 C 
ATOM     25  C   UNL A   1      35.054  16.155  25.335  1.00  0.00     0.093 C 
ATOM     26  O   UNL A   1      33.704  16.157  23.355  1.00  0.00    -0.295 OA
ENDBRANCH  19  24
ENDBRANCH  13  18
ENDBRANCH   7  12
BRANCH   9  27
ATOM     27  N   UNL A   1      34.027  26.985  23.781  1.00  0.00    -0.277 N 
ATOM     28  H   UNL A   1      34.872  26.487  23.694  1.00  0.00     0.180 HD
BRANCH  27  29
ATOM     29  S   UNL A   1      33.192  27.212  22.372  1.00  0.00     0.261 S 
ATOM     30  O   UNL A   1      33.929  28.160  21.564  1.00  0.00    -0.201 OA
ATOM     31  O   UNL A   1      32.862  25.893  21.877  1.00  0.00    -0.201 OA
BRANCH  29  32
ATOM     32  C   UNL A   1      31.669  27.968  22.867  1.00  0.00     0.087 A 
ATOM     33  C   UNL A   1      30.672  27.135  23.376  1.00  0.00     0.022 A 
ATOM     34  C   UNL A   1      31.384  29.277  22.476  1.00  0.00     0.022 A 
ATOM     35  C   UNL A   1      29.350  27.561  23.348  1.00  0.00     0.005 A 
ATOM     36  C   UNL A   1      30.054  29.670  22.398  1.00  0.00     0.005 A 
ATOM     37  C   UNL A   1      29.030  28.791  22.767  1.00  0.00    -0.051 A 
ATOM     38  C   UNL A   1      27.599  29.128  22.503  1.00  0.00     0.044 C 
ENDBRANCH  29  32
ENDBRANCH  27  29
ENDBRANCH   9  27
ENDBRANCH   4   6
ENDBRANCH   3   4
ENDBRANCH   2   3
ENDBRANCH   1   2
BRANCH   1  39
ATOM     39  O   UNL A   1      33.298  33.783  29.073  1.00  0.00    -0.374 OA
BRANCH  39  40
ATOM     40  C   UNL A   1      33.610  35.170  28.917  1.00  0.00     0.202 C 
BRANCH  40  41
ATOM     41  C   UNL A   1      32.746  36.095  29.787  1.00  0.00     0.261 C 
BRANCH  41  42
ATOM     42  O   UNL A   1      33.367  36.359  31.064  1.00  0.00    -0.460 OA
BRANCH  42  43
ATOM     43  C   UNL A   1      33.064  35.512  32.080  1.00  0.00     0.338 C 
ATOM     44  O   UNL A   1      31.956  35.300  32.545  1.00  0.00    -0.246 OA
BRANCH  43  45
ATOM     45  C   UNL A   1      34.270  34.738  32.480  1.00  0.00     0.060 A 
ATOM     46  C   UNL A   1      35.531  35.247  32.135  1.00  0.00     0.016 A 
ATOM     47  C   UNL A   1      34.186  33.534  33.189  1.00  0.00     0.016 A 
ATOM     48  C   UNL A   1      36.700  34.561  32.494  1.00  0.00     0.010 A 
ATOM     49  C   UNL A   1      35.356  32.853  33.556  1.00  0.00     0.010 A 
ATOM     50  C   UNL A   1      36.623  33.351  33.199  1.00  0.00    -0.014 A 
BRANCH  50  51
ATOM     51  C   UNL A   1      37.832  32.508  33.405  1.00  0.00     0.031 A 
ATOM     52  C   UNL A   1      38.669  32.768  34.627  1.00  0.00     0.074 A 
ATOM     53  C   UNL A   1      38.212  31.549  32.538  1.00  0.00     0.049 A 
ATOM     54  N   UNL A   1      39.780  32.192  35.008  1.00  0.00    -0.248 NA
ATOM     55  C   UNL A   1      38.184  33.815  35.542  1.00  0.00     0.031 C 
ATOM     56  C   UNL A   1      37.491  31.149  31.337  1.00  0.00     0.029 A 
ATOM     57  N   UNL A   1      39.322  30.736  32.532  1.00  0.00    -0.354 N 
ATOM     58  C   UNL A   1      40.122  32.799  36.208  1.00  0.00     0.074 A 
ATOM     59  C   UNL A   1      39.124  33.813  36.474  1.00  0.00     0.031 C 
ATOM     60  C   UNL A   1      38.178  30.194  30.693  1.00  0.00     0.029 A 
ATOM     61  C   UNL A   1      39.404  29.919  31.427  1.00  0.00     0.049 A 
ATOM     62  H   UNL A   1      39.995  30.739  33.251  1.00  0.00     0.167 HD
ATOM     63  C   UNL A   1      41.168  32.535  37.024  1.00  0.00     0.031 A 
ATOM     64  C   UNL A   1      40.361  29.055  31.037  1.00  0.00     0.031 A 
ATOM     65  C   UNL A   1      42.187  31.559  36.748  1.00  0.00     0.049 A 
ATOM     66  C   UNL A   1      41.567  28.851  31.909  1.00  0.00     0.074 A 
ATOM     67  C   UNL A   1      43.285  31.221  37.519  1.00  0.00     0.029 A 
ATOM     68  N   UNL A   1      42.243  30.779  35.605  1.00  0.00    -0.354 N 
ATOM     69  N   UNL A   1      41.847  29.394  33.068  1.00  0.00    -0.248 NA
ATOM     70  C   UNL A   1      42.580  27.898  31.429  1.00  0.00     0.031 C 
ATOM     71  C   UNL A   1      44.037  30.276  36.816  1.00  0.00     0.029 A 
ATOM     72  C   UNL A   1      43.371  29.978  35.637  1.00  0.00     0.049 A 
ATOM     73  H   UNL A   1      41.579  30.792  34.877  1.00  0.00     0.167 HD
ATOM     74  C   UNL A   1      43.043  28.816  33.477  1.00  0.00     0.074 A 
ATOM     75  C   UNL A   1      43.434  27.880  32.444  1.00  0.00     0.031 C 
ATOM     76  C   UNL A   1      43.744  29.037  34.614  1.00  0.00     0.031 A 
BRANCH  63  77
ATOM     77  C   UNL A   1      41.272  33.343  38.284  1.00  0.00    -0.014 A 
ATOM     78  C   UNL A   1      41.977  34.557  38.309  1.00  0.00     0.009 A 
ATOM     79  C   UNL A   1      40.643  32.895  39.455  1.00  0.00     0.009 A 
ATOM     80  C   UNL A   1      42.080  35.289  39.494  1.00  0.00     0.001 A 
ATOM     81  C   UNL A   1      40.723  33.643  40.629  1.00  0.00     0.001 A 
ATOM     82  C   UNL A   1      41.448  34.833  40.651  1.00  0.00     0.000 A 
ENDBRANCH  63  77
BRANCH  64  83
ATOM     83  C   UNL A   1      40.226  28.308  29.756  1.00  0.00    -0.014 A 
ATOM     84  C   UNL A   1      39.596  27.055  29.723  1.00  0.00     0.009 A 
ATOM     85  C   UNL A   1      40.759  28.830  28.566  1.00  0.00     0.009 A 
ATOM     86  C   UNL A   1      39.533  26.324  28.533  1.00  0.00     0.001 A 
ATOM     87  C   UNL A   1      40.669  28.109  27.373  1.00  0.00     0.001 A 
ATOM     88  C   UNL A   1      40.069  26.852  27.359  1.00  0.00     0.000 A 
ENDBRANCH  64  83
BRANCH  76  89
ATOM     89  C   UNL A   1      44.977  28.210  34.842  1.00  0.00    -0.014 A 
ATOM     90  C   UNL A   1      46.214  28.562  34.282  1.00  0.00     0.009 A 
ATOM     91  C   UNL A   1      44.906  27.093  35.691  1.00  0.00     0.009 A 
ATOM     92  C   UNL A   1      47.351  27.798  34.551  1.00  0.00     0.001 A 
ATOM     93  C   UNL A   1      46.049  26.350  35.981  1.00  0.00     0.001 A 
ATOM     94  C   UNL A   1      47.270  26.698  35.405  1.00  0.00     0.000 A 
ENDBRANCH  76  89
ENDBRANCH  50  51
ENDBRANCH  43  45
ENDBRANCH  42  43
ENDBRANCH  41  42
ENDBRANCH  40  41
ENDBRANCH  39  40
ENDBRANCH   1  39
TORSDOF 20
ENDMDL
MODEL 2
REMARK VINA RESULT:     -11.3      4.603      7.860
REMARK SMILES CC(=O)c1ccc(N2CCN(c3ccc(C(=O)OCCOCCOC(=O)c4ccc(-c5c6nc(c(-c7ccccc7)c7ccc([nH]7)c(-c7ccccc7)c7nc(c(-c8ccccc8)c8ccc5[nH]8)C=C7)C=C6)cc4)cc3NS(=O)(=O)c3ccc(C)cc3)CC2)cc1
REMARK SMILES IDX 20 1 19 2 18 3 16 4 17 5 15 6 12 7 13 8 76 9 14 10 75 11
REMARK SMILES IDX 11 12 8 13 9 14 89 15 10 16 88 17 7 18 4 19 5 20 91 21 6 22
REMARK SMILES IDX 90 23 2 24 1 25 3 26 77 27 78 29 79 30 80 31 81 32 82 33
REMARK SMILES IDX 87 34 83 35 86 36 84 37 85 38 21 39 22 40 23 41 24 42 25 43
REMARK SMILES IDX 26 44 27 45 28 46 74 47 29 48 73 49 30 50 31 51 32 52 67 53
REMARK SMILES IDX 33 54 72 55 66 56 68 57 34 58 71 59 65 60 64 61 35 63 57 64
REMARK SMILES IDX 42 65 56 66 43 67 46 68 55 69 69 70 44 71 45 72 54 74 70 75
REMARK SMILES IDX 47 76 36 77 37 78 41 79 38 80 40 81 39 82 58 83 59 84 63 85
REMARK SMILES IDX 60 86 62 87 61 88 48 89 49 90 53 91 50 92 52 93 51 94
REMARK H PARENT 77 28 68 62 46 73
REMARK Flexibility Score: inf
ROOT
ATOM      1  C   UNL A   1      34.783  33.246  28.998  1.00  0.00     0.202 C 
ENDROOT
BRANCH   1   2
ATOM      2  C   UNL A   1      34.116  32.759  27.705  1.00  0.00     0.261 C 
BRANCH   2   3
ATOM      3  O   UNL A   1      33.728  31.376  27.824  1.00  0.00    -0.460 OA
BRANCH   3   4
ATOM      4  C   UNL A   1      32.582  31.034  27.189  1.00  0.00     0.338 C 
ATOM      5  O   UNL A   1      31.673  31.783  26.870  1.00  0.00    -0.246 OA
BRANCH   4   6
ATOM      6  C   UNL A   1      32.624  29.610  26.770  1.00  0.00     0.062 A 
ATOM      7  C   UNL A   1      32.487  26.914  26.018  1.00  0.00     0.061 A 
ATOM      8  C   UNL A   1      31.662  27.397  27.032  1.00  0.00     0.029 A 
ATOM      9  C   UNL A   1      33.352  27.813  25.339  1.00  0.00     0.073 A 
ATOM     10  C   UNL A   1      31.717  28.742  27.395  1.00  0.00     0.018 A 
ATOM     11  C   UNL A   1      33.467  29.140  25.755  1.00  0.00     0.044 A 
BRANCH   7  12
ATOM     12  N   UNL A   1      32.522  25.572  25.640  1.00  0.00    -0.366 N 
ATOM     13  N   UNL A   1      32.736  22.807  25.109  1.00  0.00    -0.368 N 
ATOM     14  C   UNL A   1      31.580  23.552  24.587  1.00  0.00     0.138 C 
ATOM     15  C   UNL A   1      33.971  23.580  25.310  1.00  0.00     0.138 C 
ATOM     16  C   UNL A   1      31.294  24.777  25.493  1.00  0.00     0.138 C 
ATOM     17  C   UNL A   1      33.681  24.816  26.185  1.00  0.00     0.138 C 
BRANCH  13  18
ATOM     18  C   UNL A   1      32.805  21.436  25.027  1.00  0.00     0.037 A 
ATOM     19  C   UNL A   1      33.056  18.649  24.724  1.00  0.00     0.017 A 
ATOM     20  C   UNL A   1      33.365  19.254  25.945  1.00  0.00     0.014 A 
ATOM     21  C   UNL A   1      32.583  19.424  23.666  1.00  0.00     0.014 A 
ATOM     22  C   UNL A   1      33.254  20.642  26.086  1.00  0.00     0.026 A 
ATOM     23  C   UNL A   1      32.447  20.803  23.829  1.00  0.00     0.026 A 
BRANCH  19  24
ATOM     24  C   UNL A   1      33.267  17.187  24.579  1.00  0.00     0.159 C 
ATOM     25  C   UNL A   1      33.765  16.672  23.254  1.00  0.00     0.093 C 
ATOM     26  O   UNL A   1      33.094  16.446  25.544  1.00  0.00    -0.295 OA
ENDBRANCH  19  24
ENDBRANCH  13  18
ENDBRANCH   7  12
BRANCH   9  27
ATOM     27  N   UNL A   1      33.808  27.301  24.080  1.00  0.00    -0.277 N 
ATOM     28  H   UNL A   1      34.698  26.879  24.093  1.00  0.00     0.180 HD
BRANCH  27  29
ATOM     29  S   UNL A   1      33.054  27.315  22.608  1.00  0.00     0.261 S 
ATOM     30  O   UNL A   1      33.884  28.062  21.689  1.00  0.00    -0.201 OA
ATOM     31  O   UNL A   1      32.668  25.947  22.336  1.00  0.00    -0.201 OA
BRANCH  29  32
ATOM     32  C   UNL A   1      31.559  28.225  22.875  1.00  0.00     0.087 A 
ATOM     33  C   UNL A   1      30.437  27.511  23.298  1.00  0.00     0.022 A 
ATOM     34  C   UNL A   1      31.443  29.528  22.390  1.00  0.00     0.022 A 
ATOM     35  C   UNL A   1      29.172  28.046  23.087  1.00  0.00     0.005 A 
ATOM     36  C   UNL A   1      30.174  30.028  22.131  1.00  0.00     0.005 A 
ATOM     37  C   UNL A   1      29.037  29.263  22.413  1.00  0.00    -0.051 A 
ATOM     38  C   UNL A   1      27.684  29.705  21.960  1.00  0.00     0.044 C 
ENDBRANCH  29  32
ENDBRANCH  27  29
ENDBRANCH   9  27
ENDBRANCH   4   6
ENDBRANCH   3   4
ENDBRANCH   2   3
ENDBRANCH   1   2
BRANCH   1  39
ATOM     39  O   UNL A   1      33.983  33.033  30.159  1.00  0.00    -0.374 OA
BRANCH  39  40
ATOM     40  C   UNL A   1      34.726  32.754  31.349  1.00  0.00     0.202 C 
BRANCH  40  41
ATOM     41  C   UNL A   1      36.215  32.480  31.094  1.00  0.00     0.261 C 
BRANCH  41  42
ATOM     42  O   UNL A   1      36.696  31.368  31.882  1.00  0.00    -0.460 OA
BRANCH  42  43
ATOM     43  C   UNL A   1      36.798  30.170  31.253  1.00  0.00     0.338 C 
ATOM     44  O   UNL A   1      35.888  29.391  31.020  1.00  0.00    -0.246 OA
BRANCH  43  45
ATOM     45  C   UNL A   1      38.180  29.974  30.739  1.00  0.00     0.060 A 
ATOM     46  C   UNL A   1      38.399  30.102  29.359  1.00  0.00     0.016 A 
ATOM     47  C   UNL A   1      39.258  29.677  31.580  1.00  0.00     0.016 A 
ATOM     48  C   UNL A   1      39.683  29.934  28.822  1.00  0.00     0.010 A 
ATOM     49  C   UNL A   1      40.545  29.519  31.044  1.00  0.00     0.010 A 
ATOM     50  C   UNL A   1      40.767  29.630  29.659  1.00  0.00    -0.014 A 
BRANCH  50  51
ATOM     51  C   UNL A   1      42.087  29.245  29.091  1.00  0.00     0.031 A 
ATOM     52  C   UNL A   1      42.275  27.818  28.657  1.00  0.00     0.074 A 
ATOM     53  C   UNL A   1      43.114  30.110  28.971  1.00  0.00     0.049 A 
ATOM     54  N   UNL A   1      43.337  27.234  28.164  1.00  0.00    -0.248 NA
ATOM     55  C   UNL A   1      41.106  26.932  28.796  1.00  0.00     0.031 C 
ATOM     56  C   UNL A   1      43.078  31.528  29.304  1.00  0.00     0.029 A 
ATOM     57  N   UNL A   1      44.406  29.914  28.542  1.00  0.00    -0.354 N 
ATOM     58  C   UNL A   1      42.964  25.919  27.926  1.00  0.00     0.074 A 
ATOM     59  C   UNL A   1      41.591  25.778  28.364  1.00  0.00     0.031 C 
ATOM     60  C   UNL A   1      44.287  32.072  29.099  1.00  0.00     0.029 A 
ATOM     61  C   UNL A   1      45.196  31.037  28.631  1.00  0.00     0.049 A 
ATOM     62  H   UNL A   1      44.734  29.049  28.203  1.00  0.00     0.167 HD
ATOM     63  C   UNL A   1      43.692  24.916  27.385  1.00  0.00     0.031 A 
ATOM     64  C   UNL A   1      46.507  31.216  28.379  1.00  0.00     0.031 A 
ATOM     65  C   UNL A   1      45.068  25.035  26.987  1.00  0.00     0.049 A 
ATOM     66  C   UNL A   1      47.324  30.060  27.874  1.00  0.00     0.074 A 
ATOM     67  C   UNL A   1      45.887  24.070  26.427  1.00  0.00     0.029 A 
ATOM     68  N   UNL A   1      45.833  26.181  27.124  1.00  0.00    -0.354 N 
ATOM     69  N   UNL A   1      46.941  28.837  27.604  1.00  0.00    -0.248 NA
ATOM     70  C   UNL A   1      48.750  30.315  27.621  1.00  0.00     0.031 C 
ATOM     71  C   UNL A   1      47.165  24.617  26.277  1.00  0.00     0.029 A 
ATOM     72  C   UNL A   1      47.123  25.942  26.683  1.00  0.00     0.049 A 
ATOM     73  H   UNL A   1      45.508  27.039  27.481  1.00  0.00     0.167 HD
ATOM     74  C   UNL A   1      48.065  28.190  27.106  1.00  0.00     0.074 A 
ATOM     75  C   UNL A   1      49.143  29.157  27.110  1.00  0.00     0.031 C 
ATOM     76  C   UNL A   1      48.184  26.913  26.674  1.00  0.00     0.031 A 
BRANCH  63  77
ATOM     77  C   UNL A   1      43.011  23.589  27.223  1.00  0.00    -0.014 A 
ATOM     78  C   UNL A   1      42.920  22.686  28.295  1.00  0.00     0.009 A 
ATOM     79  C   UNL A   1      42.437  23.245  25.991  1.00  0.00     0.009 A 
ATOM     80  C   UNL A   1      42.298  21.448  28.123  1.00  0.00     0.001 A 
ATOM     81  C   UNL A   1      41.791  22.019  25.830  1.00  0.00     0.001 A 
ATOM     82  C   UNL A   1      41.731  21.118  26.892  1.00  0.00     0.000 A 
ENDBRANCH  63  77
BRANCH  64  83
ATOM     83  C   UNL A   1      47.141  32.545  28.595  1.00  0.00    -0.014 A 
ATOM     84  C   UNL A   1      47.602  32.919  29.867  1.00  0.00     0.009 A 
ATOM     85  C   UNL A   1      47.256  33.462  27.538  1.00  0.00     0.009 A 
ATOM     86  C   UNL A   1      48.132  34.194  30.083  1.00  0.00     0.001 A 
ATOM     87  C   UNL A   1      47.813  34.725  27.752  1.00  0.00     0.001 A 
ATOM     88  C   UNL A   1      48.239  35.095  29.025  1.00  0.00     0.000 A 
ENDBRANCH  64  83
BRANCH  76  89
ATOM     89  C   UNL A   1      49.511  26.492  26.106  1.00  0.00    -0.014 A 
ATOM     90  C   UNL A   1      49.909  26.863  24.813  1.00  0.00     0.009 A 
ATOM     91  C   UNL A   1      50.402  25.766  26.913  1.00  0.00     0.009 A 
ATOM     92  C   UNL A   1      51.167  26.494  24.332  1.00  0.00     0.001 A 
ATOM     93  C   UNL A   1      51.669  25.426  26.441  1.00  0.00     0.001 A 
ATOM     94  C   UNL A   1      52.048  25.784  25.148  1.00  0.00     0.000 A 
ENDBRANCH  76  89
ENDBRANCH  50  51
ENDBRANCH  43  45
ENDBRANCH  42  43
ENDBRANCH  41  42
ENDBRANCH  40  41
ENDBRANCH  39  40
ENDBRANCH   1  39
TORSDOF 20
ENDMDL
MODEL 3
REMARK VINA RESULT:     -11.2      4.514     10.523
REMARK SMILES CC(=O)c1ccc(N2CCN(c3ccc(C(=O)OCCOCCOC(=O)c4ccc(-c5c6nc(c(-c7ccccc7)c7ccc([nH]7)c(-c7ccccc7)c7nc(c(-c8ccccc8)c8ccc5[nH]8)C=C7)C=C6)cc4)cc3NS(=O)(=O)c3ccc(C)cc3)CC2)cc1
REMARK SMILES IDX 20 1 19 2 18 3 16 4 17 5 15 6 12 7 13 8 76 9 14 10 75 11
REMARK SMILES IDX 11 12 8 13 9 14 89 15 10 16 88 17 7 18 4 19 5 20 91 21 6 22
REMARK SMILES IDX 90 23 2 24 1 25 3 26 77 27 78 29 79 30 80 31 81 32 82 33
REMARK SMILES IDX 87 34 83 35 86 36 84 37 85 38 21 39 22 40 23 41 24 42 25 43
REMARK SMILES IDX 26 44 27 45 28 46 74 47 29 48 73 49 30 50 31 51 32 52 67 53
REMARK SMILES IDX 33 54 72 55 66 56 68 57 34 58 71 59 65 60 64 61 35 63 57 64
REMARK SMILES IDX 42 65 56 66 43 67 46 68 55 69 69 70 44 71 45 72 54 74 70 75
REMARK SMILES IDX 47 76 36 77 37 78 41 79 38 80 40 81 39 82 58 83 59 84 63 85
REMARK SMILES IDX 60 86 62 87 61 88 48 89 49 90 53 91 50 92 52 93 51 94
REMARK H PARENT 77 28 68 62 46 73
REMARK Flexibility Score: inf
ROOT
ATOM      1  C   UNL A   1      35.745  21.073  24.841  1.00  0.00     0.202 C 
ENDROOT
BRANCH   1   2
ATOM      2  C   UNL A   1      34.665  19.989  24.948  1.00  0.00     0.261 C 
BRANCH   2   3
ATOM      3  O   UNL A   1      33.607  20.414  25.829  1.00  0.00    -0.460 OA
BRANCH   3   4
ATOM      4  C   UNL A   1      32.553  21.016  25.228  1.00  0.00     0.338 C 
ATOM      5  O   UNL A   1      31.579  20.466  24.739  1.00  0.00    -0.246 OA
BRANCH   4   6
ATOM      6  C   UNL A   1      32.645  22.491  25.372  1.00  0.00     0.062 A 
ATOM      7  C   UNL A   1      32.931  25.241  25.832  1.00  0.00     0.061 A 
ATOM      8  C   UNL A   1      32.775  24.367  26.908  1.00  0.00     0.029 A 
ATOM      9  C   UNL A   1      32.998  24.715  24.514  1.00  0.00     0.073 A 
ATOM     10  C   UNL A   1      32.651  22.998  26.681  1.00  0.00     0.018 A 
ATOM     11  C   UNL A   1      32.793  23.356  24.280  1.00  0.00     0.044 A 
BRANCH   7  12
ATOM     12  N   UNL A   1      33.009  26.625  25.982  1.00  0.00    -0.366 N 
ATOM     13  N   UNL A   1      33.069  29.392  26.544  1.00  0.00    -0.368 N 
ATOM     14  C   UNL A   1      34.028  28.834  25.579  1.00  0.00     0.138 C 
ATOM     15  C   UNL A   1      31.791  28.676  26.680  1.00  0.00     0.138 C 
ATOM     16  C   UNL A   1      34.291  27.341  25.905  1.00  0.00     0.138 C 
ATOM     17  C   UNL A   1      32.053  27.186  26.974  1.00  0.00     0.138 C 
BRANCH  13  18
ATOM     18  C   UNL A   1      33.163  30.692  26.982  1.00  0.00     0.037 A 
ATOM     19  C   UNL A   1      33.215  33.323  27.981  1.00  0.00     0.017 A 
ATOM     20  C   UNL A   1      34.348  32.511  28.078  1.00  0.00     0.014 A 
ATOM     21  C   UNL A   1      32.070  32.842  27.350  1.00  0.00     0.014 A 
ATOM     22  C   UNL A   1      34.313  31.198  27.594  1.00  0.00     0.026 A 
ATOM     23  C   UNL A   1      32.057  31.542  26.844  1.00  0.00     0.026 A 
BRANCH  19  24
ATOM     24  C   UNL A   1      33.257  34.680  28.581  1.00  0.00     0.159 C 
ATOM     25  C   UNL A   1      34.190  35.693  27.972  1.00  0.00     0.093 C 
ATOM     26  O   UNL A   1      32.499  34.963  29.505  1.00  0.00    -0.295 OA
ENDBRANCH  19  24
ENDBRANCH  13  18
ENDBRANCH   7  12
BRANCH   9  27
ATOM     27  N   UNL A   1      33.574  25.636  23.578  1.00  0.00    -0.277 N 
ATOM     28  H   UNL A   1      34.518  25.865  23.738  1.00  0.00     0.180 HD
BRANCH  27  29
ATOM     29  S   UNL A   1      32.880  26.370  22.269  1.00  0.00     0.261 S 
ATOM     30  O   UNL A   1      33.853  27.277  21.699  1.00  0.00    -0.201 OA
ATOM     31  O   UNL A   1      32.280  25.315  21.481  1.00  0.00    -0.201 OA
BRANCH  29  32
ATOM     32  C   UNL A   1      31.551  27.328  22.939  1.00  0.00     0.087 A 
ATOM     33  C   UNL A   1      30.397  26.646  23.326  1.00  0.00     0.022 A 
ATOM     34  C   UNL A   1      31.553  28.716  22.796  1.00  0.00     0.022 A 
ATOM     35  C   UNL A   1      29.196  27.339  23.417  1.00  0.00     0.005 A 
ATOM     36  C   UNL A   1      30.338  29.388  22.833  1.00  0.00     0.005 A 
ATOM     37  C   UNL A   1      29.148  28.693  23.074  1.00  0.00    -0.051 A 
ATOM     38  C   UNL A   1      27.823  29.366  22.921  1.00  0.00     0.044 C 
ENDBRANCH  29  32
ENDBRANCH  27  29
ENDBRANCH   9  27
ENDBRANCH   4   6
ENDBRANCH   3   4
ENDBRANCH   2   3
ENDBRANCH   1   2
BRANCH   1  39
ATOM     39  O   UNL A   1      36.889  20.811  25.652  1.00  0.00    -0.374 OA
BRANCH  39  40
ATOM     40  C   UNL A   1      37.957  20.142  24.975  1.00  0.00     0.202 C 
BRANCH  40  41
ATOM     41  C   UNL A   1      39.332  20.376  25.618  1.00  0.00     0.261 C 
BRANCH  41  42
ATOM     42  O   UNL A   1      40.025  19.132  25.863  1.00  0.00    -0.460 OA
BRANCH  42  43
ATOM     43  C   UNL A   1      41.372  19.200  26.016  1.00  0.00     0.338 C 
ATOM     44  O   UNL A   1      42.181  18.331  25.736  1.00  0.00    -0.246 OA
BRANCH  43  45
ATOM     45  C   UNL A   1      41.771  20.565  26.453  1.00  0.00     0.060 A 
ATOM     46  C   UNL A   1      42.083  21.513  25.468  1.00  0.00     0.016 A 
ATOM     47  C   UNL A   1      41.837  20.930  27.802  1.00  0.00     0.016 A 
ATOM     48  C   UNL A   1      42.460  22.816  25.825  1.00  0.00     0.010 A 
ATOM     49  C   UNL A   1      42.205  22.236  28.159  1.00  0.00     0.010 A 
ATOM     50  C   UNL A   1      42.534  23.186  27.175  1.00  0.00    -0.014 A 
BRANCH  50  51
ATOM     51  C   UNL A   1      43.128  24.490  27.578  1.00  0.00     0.031 A 
ATOM     52  C   UNL A   1      42.192  25.582  28.018  1.00  0.00     0.074 A 
ATOM     53  C   UNL A   1      44.453  24.734  27.543  1.00  0.00     0.049 A 
ATOM     54  N   UNL A   1      42.463  26.809  28.383  1.00  0.00    -0.248 NA
ATOM     55  C   UNL A   1      40.759  25.241  28.053  1.00  0.00     0.031 C 
ATOM     56  C   UNL A   1      45.487  23.774  27.183  1.00  0.00     0.029 A 
ATOM     57  N   UNL A   1      45.160  25.884  27.806  1.00  0.00    -0.354 N 
ATOM     58  C   UNL A   1      41.239  27.382  28.699  1.00  0.00     0.074 A 
ATOM     59  C   UNL A   1      40.221  26.385  28.447  1.00  0.00     0.031 C 
ATOM     60  C   UNL A   1      46.689  24.368  27.217  1.00  0.00     0.029 A 
ATOM     61  C   UNL A   1      46.513  25.764  27.588  1.00  0.00     0.049 A 
ATOM     62  H   UNL A   1      44.736  26.716  28.121  1.00  0.00     0.167 HD
ATOM     63  C   UNL A   1      40.982  28.626  29.166  1.00  0.00     0.031 A 
ATOM     64  C   UNL A   1      47.504  26.674  27.665  1.00  0.00     0.031 A 
ATOM     65  C   UNL A   1      41.981  29.636  29.380  1.00  0.00     0.049 A 
ATOM     66  C   UNL A   1      47.181  28.079  28.087  1.00  0.00     0.074 A 
ATOM     67  C   UNL A   1      41.812  30.926  29.853  1.00  0.00     0.029 A 
ATOM     68  N   UNL A   1      43.332  29.478  29.118  1.00  0.00    -0.354 N 
ATOM     69  N   UNL A   1      46.025  28.590  28.434  1.00  0.00    -0.248 NA
ATOM     70  C   UNL A   1      48.302  29.029  28.147  1.00  0.00     0.031 C 
ATOM     71  C   UNL A   1      43.054  31.566  29.823  1.00  0.00     0.029 A 
ATOM     72  C   UNL A   1      44.006  30.654  29.394  1.00  0.00     0.049 A 
ATOM     73  H   UNL A   1      43.751  28.651  28.784  1.00  0.00     0.167 HD
ATOM     74  C   UNL A   1      46.287  29.905  28.798  1.00  0.00     0.074 A 
ATOM     75  C   UNL A   1      47.710  30.112  28.631  1.00  0.00     0.031 C 
ATOM     76  C   UNL A   1      45.423  30.848  29.242  1.00  0.00     0.031 A 
BRANCH  63  77
ATOM     77  C   UNL A   1      39.547  28.965  29.446  1.00  0.00    -0.014 A 
ATOM     78  C   UNL A   1      38.900  28.481  30.595  1.00  0.00     0.009 A 
ATOM     79  C   UNL A   1      38.839  29.792  28.562  1.00  0.00     0.009 A 
ATOM     80  C   UNL A   1      37.559  28.791  30.832  1.00  0.00     0.001 A 
ATOM     81  C   UNL A   1      37.509  30.124  28.817  1.00  0.00     0.001 A 
ATOM     82  C   UNL A   1      36.867  29.616  29.945  1.00  0.00     0.000 A 
ENDBRANCH  63  77
BRANCH  64  83
ATOM     83  C   UNL A   1      48.905  26.293  27.336  1.00  0.00    -0.014 A 
ATOM     84  C   UNL A   1      49.782  25.858  28.340  1.00  0.00     0.009 A 
ATOM     85  C   UNL A   1      49.382  26.397  26.019  1.00  0.00     0.009 A 
ATOM     86  C   UNL A   1      51.116  25.569  28.041  1.00  0.00     0.001 A 
ATOM     87  C   UNL A   1      50.709  26.080  25.718  1.00  0.00     0.001 A 
ATOM     88  C   UNL A   1      51.578  25.678  26.730  1.00  0.00     0.000 A 
ENDBRANCH  64  83
BRANCH  76  89
ATOM     89  C   UNL A   1      45.993  32.179  29.643  1.00  0.00    -0.014 A 
ATOM     90  C   UNL A   1      46.045  33.258  28.748  1.00  0.00     0.009 A 
ATOM     91  C   UNL A   1      46.424  32.370  30.967  1.00  0.00     0.009 A 
ATOM     92  C   UNL A   1      46.539  34.495  29.166  1.00  0.00     0.001 A 
ATOM     93  C   UNL A   1      46.888  33.614  31.389  1.00  0.00     0.001 A 
ATOM     94  C   UNL A   1      46.952  34.675  30.486  1.00  0.00     0.000 A 
ENDBRANCH  76  89
ENDBRANCH  50  51
ENDBRANCH  43  45
ENDBRANCH  42  43
ENDBRANCH  41  42
ENDBRANCH  40  41
ENDBRANCH  39  40
ENDBRANCH   1  39
TORSDOF 20
ENDMDL
