MODEL 1
REMARK VINA RESULT:     -11.2      0.000      0.000
REMARK SMILES Cc1ccc(Nc2c(Cl)cc(Cl)cc2Cl)c(CC(=O)OCCOCCOC(=O)c2ccc(-c3c4nc(c(-c5ccccc5)c5ccc([nH]5)c(-c5ccccc5)c5nc(c(-c6ccccc6)c6ccc3[nH]6)C=C5)C=C4)cc2)c1
REMARK SMILES IDX 22 1 21 2 20 3 18 4 19 5 17 6 16 7 1 8 2 9 3 10 77 11 4 12
REMARK SMILES IDX 5 13 6 14 7 16 8 17 14 18 9 19 10 20 13 21 15 22 11 23 12 24
REMARK SMILES IDX 23 25 24 26 25 27 26 28 27 29 28 30 29 31 30 32 76 33 31 34
REMARK SMILES IDX 75 35 32 36 33 37 34 38 69 39 35 40 74 41 68 42 70 43 36 44
REMARK SMILES IDX 73 45 67 46 66 47 37 49 59 50 44 51 58 52 45 53 48 54 57 55
REMARK SMILES IDX 71 56 46 57 47 58 56 60 72 61 49 62 38 63 39 64 43 65 40 66
REMARK SMILES IDX 42 67 41 68 60 69 61 70 65 71 62 72 64 73 63 74 50 75 51 76
REMARK SMILES IDX 55 77 52 78 54 79 53 80
REMARK H PARENT 6 15 70 48 48 59
REMARK Flexibility Score: inf
ROOT
ATOM      1  C   UNL A   1      37.009  21.232  24.357  1.00  0.00     0.202 C 
ENDROOT
BRANCH   1   2
ATOM      2  C   UNL A   1      36.539  22.652  24.610  1.00  0.00     0.261 C 
BRANCH   2   3
ATOM      3  O   UNL A   1      35.942  23.249  23.471  1.00  0.00    -0.463 OA
BRANCH   3   4
ATOM      4  C   UNL A   1      34.935  24.158  23.655  1.00  0.00     0.310 C 
ATOM      5  O   UNL A   1      34.279  24.715  22.786  1.00  0.00    -0.252 OA
BRANCH   4   6
ATOM      6  C   UNL A   1      34.742  24.425  25.139  1.00  0.00     0.160 C 
BRANCH   6   7
ATOM      7  C   UNL A   1      33.521  25.305  25.345  1.00  0.00    -0.013 A 
ATOM      8  C   UNL A   1      33.311  29.096  25.811  1.00  0.00     0.044 C 
ATOM      9  C   UNL A   1      32.928  27.645  25.790  1.00  0.00    -0.051 A 
ATOM     10  C   UNL A   1      31.775  27.198  26.423  1.00  0.00     0.005 A 
ATOM     11  C   UNL A   1      33.756  26.700  25.191  1.00  0.00     0.009 A 
ATOM     12  C   UNL A   1      31.492  25.826  26.507  1.00  0.00     0.026 A 
ATOM     13  C   UNL A   1      32.364  24.840  26.001  1.00  0.00     0.042 A 
BRANCH  13  14
ATOM     14  N   UNL A   1      32.102  23.453  26.188  1.00  0.00    -0.353 N 
ATOM     15  H   UNL A   1      31.551  23.226  26.972  1.00  0.00     0.167 HD
BRANCH  14  16
ATOM     16  C   UNL A   1      32.529  22.349  25.395  1.00  0.00     0.076 A 
ATOM     17  C   UNL A   1      32.029  22.111  24.101  1.00  0.00     0.067 A 
ATOM     18  C   UNL A   1      33.352  21.341  25.944  1.00  0.00     0.067 A 
ATOM     19  Cl  UNL A   1      31.336  23.383  23.147  1.00  0.00    -0.082 Cl
ATOM     20  C   UNL A   1      32.152  20.859  23.491  1.00  0.00     0.043 A 
ATOM     21  C   UNL A   1      33.433  20.068  25.368  1.00  0.00     0.043 A 
ATOM     22  Cl  UNL A   1      34.384  21.653  27.297  1.00  0.00    -0.082 Cl
ATOM     23  C   UNL A   1      32.798  19.827  24.158  1.00  0.00     0.044 A 
ATOM     24  Cl  UNL A   1      32.864  18.263  23.449  1.00  0.00    -0.084 Cl
ENDBRANCH  14  16
ENDBRANCH  13  14
ENDBRANCH   6   7
ENDBRANCH   4   6
ENDBRANCH   3   4
ENDBRANCH   2   3
ENDBRANCH   1   2
BRANCH   1  25
ATOM     25  O   UNL A   1      38.201  21.003  25.081  1.00  0.00    -0.374 OA
BRANCH  25  26
ATOM     26  C   UNL A   1      38.469  21.942  26.102  1.00  0.00     0.202 C 
BRANCH  26  27
ATOM     27  C   UNL A   1      39.974  22.044  26.345  1.00  0.00     0.261 C 
BRANCH  27  28
ATOM     28  O   UNL A   1      40.545  20.738  26.573  1.00  0.00    -0.460 OA
BRANCH  28  29
ATOM     29  C   UNL A   1      41.807  20.592  26.084  1.00  0.00     0.338 C 
ATOM     30  O   UNL A   1      42.186  19.645  25.399  1.00  0.00    -0.246 OA
BRANCH  29  31
ATOM     31  C   UNL A   1      42.722  21.580  26.718  1.00  0.00     0.060 A 
ATOM     32  C   UNL A   1      42.652  21.747  28.113  1.00  0.00     0.016 A 
ATOM     33  C   UNL A   1      43.277  22.577  25.916  1.00  0.00     0.016 A 
ATOM     34  C   UNL A   1      42.918  22.995  28.675  1.00  0.00     0.010 A 
ATOM     35  C   UNL A   1      43.396  23.839  26.457  1.00  0.00     0.010 A 
ATOM     36  C   UNL A   1      43.173  24.066  27.825  1.00  0.00    -0.014 A 
BRANCH  36  37
ATOM     37  C   UNL A   1      43.113  25.474  28.210  1.00  0.00     0.031 A 
ATOM     38  C   UNL A   1      41.901  26.248  27.898  1.00  0.00     0.074 A 
ATOM     39  C   UNL A   1      44.025  25.995  29.063  1.00  0.00     0.049 A 
ATOM     40  N   UNL A   1      41.809  27.514  28.085  1.00  0.00    -0.248 NA
ATOM     41  C   UNL A   1      40.702  25.684  27.279  1.00  0.00     0.031 C 
ATOM     42  C   UNL A   1      43.873  27.123  29.989  1.00  0.00     0.029 A 
ATOM     43  N   UNL A   1      45.343  25.617  29.249  1.00  0.00    -0.354 N 
ATOM     44  C   UNL A   1      40.484  27.842  28.006  1.00  0.00     0.074 A 
ATOM     45  C   UNL A   1      39.859  26.719  27.357  1.00  0.00     0.031 C 
ATOM     46  C   UNL A   1      45.079  27.477  30.467  1.00  0.00     0.029 A 
ATOM     47  C   UNL A   1      46.071  26.699  29.747  1.00  0.00     0.049 A 
ATOM     48  H   UNL A   1      45.711  24.724  29.059  1.00  0.00     0.167 HD
ATOM     49  C   UNL A   1      40.071  28.975  28.632  1.00  0.00     0.031 A 
ATOM     50  C   UNL A   1      47.168  27.175  29.097  1.00  0.00     0.031 A 
ATOM     51  C   UNL A   1      41.214  29.776  29.104  1.00  0.00     0.049 A 
ATOM     52  C   UNL A   1      46.838  28.534  28.506  1.00  0.00     0.074 A 
ATOM     53  C   UNL A   1      41.719  30.126  30.345  1.00  0.00     0.029 A 
ATOM     54  N   UNL A   1      42.227  30.076  28.194  1.00  0.00    -0.354 N 
ATOM     55  N   UNL A   1      45.652  29.077  28.595  1.00  0.00    -0.248 NA
ATOM     56  C   UNL A   1      47.756  29.381  27.757  1.00  0.00     0.031 C 
ATOM     57  C   UNL A   1      43.054  30.615  30.158  1.00  0.00     0.029 A 
ATOM     58  C   UNL A   1      43.345  30.612  28.803  1.00  0.00     0.049 A 
ATOM     59  H   UNL A   1      42.153  29.924  27.224  1.00  0.00     0.167 HD
ATOM     60  C   UNL A   1      45.612  30.283  27.974  1.00  0.00     0.074 A 
ATOM     61  C   UNL A   1      46.952  30.408  27.412  1.00  0.00     0.031 C 
ATOM     62  C   UNL A   1      44.476  31.050  27.977  1.00  0.00     0.031 A 
BRANCH  49  63
ATOM     63  C   UNL A   1      38.626  29.284  28.949  1.00  0.00    -0.014 A 
ATOM     64  C   UNL A   1      38.157  29.121  30.263  1.00  0.00     0.009 A 
ATOM     65  C   UNL A   1      37.657  29.660  27.996  1.00  0.00     0.009 A 
ATOM     66  C   UNL A   1      36.811  29.329  30.603  1.00  0.00     0.001 A 
ATOM     67  C   UNL A   1      36.318  29.901  28.333  1.00  0.00     0.001 A 
ATOM     68  C   UNL A   1      35.892  29.728  29.639  1.00  0.00     0.000 A 
ENDBRANCH  49  63
BRANCH  50  69
ATOM     69  C   UNL A   1      47.975  26.046  28.525  1.00  0.00    -0.014 A 
ATOM     70  C   UNL A   1      47.927  25.927  27.112  1.00  0.00     0.009 A 
ATOM     71  C   UNL A   1      49.129  25.585  29.184  1.00  0.00     0.009 A 
ATOM     72  C   UNL A   1      49.063  25.569  26.377  1.00  0.00     0.001 A 
ATOM     73  C   UNL A   1      50.261  25.214  28.435  1.00  0.00     0.001 A 
ATOM     74  C   UNL A   1      50.246  25.259  27.040  1.00  0.00     0.000 A 
ENDBRANCH  50  69
BRANCH  62  75
ATOM     75  C   UNL A   1      44.302  32.294  27.143  1.00  0.00    -0.014 A 
ATOM     76  C   UNL A   1      44.373  32.317  25.748  1.00  0.00     0.009 A 
ATOM     77  C   UNL A   1      44.074  33.535  27.779  1.00  0.00     0.009 A 
ATOM     78  C   UNL A   1      44.080  33.481  25.027  1.00  0.00     0.001 A 
ATOM     79  C   UNL A   1      43.811  34.705  27.071  1.00  0.00     0.001 A 
ATOM     80  C   UNL A   1      43.780  34.669  25.688  1.00  0.00     0.000 A 
ENDBRANCH  62  75
ENDBRANCH  36  37
ENDBRANCH  29  31
ENDBRANCH  28  29
ENDBRANCH  27  28
ENDBRANCH  26  27
ENDBRANCH  25  26
ENDBRANCH   1  25
TORSDOF 17
ENDMDL
MODEL 2
REMARK VINA RESULT:     -11.2      3.986      8.759
REMARK SMILES Cc1ccc(Nc2c(Cl)cc(Cl)cc2Cl)c(CC(=O)OCCOCCOC(=O)c2ccc(-c3c4nc(c(-c5ccccc5)c5ccc([nH]5)c(-c5ccccc5)c5nc(c(-c6ccccc6)c6ccc3[nH]6)C=C5)C=C4)cc2)c1
REMARK SMILES IDX 22 1 21 2 20 3 18 4 19 5 17 6 16 7 1 8 2 9 3 10 77 11 4 12
REMARK SMILES IDX 5 13 6 14 7 16 8 17 14 18 9 19 10 20 13 21 15 22 11 23 12 24
REMARK SMILES IDX 23 25 24 26 25 27 26 28 27 29 28 30 29 31 30 32 76 33 31 34
REMARK SMILES IDX 75 35 32 36 33 37 34 38 69 39 35 40 74 41 68 42 70 43 36 44
REMARK SMILES IDX 73 45 67 46 66 47 37 49 59 50 44 51 58 52 45 53 48 54 57 55
REMARK SMILES IDX 71 56 46 57 47 58 56 60 72 61 49 62 38 63 39 64 43 65 40 66
REMARK SMILES IDX 42 67 41 68 60 69 61 70 65 71 62 72 64 73 63 74 50 75 51 76
REMARK SMILES IDX 55 77 52 78 54 79 53 80
REMARK H PARENT 6 15 70 48 48 59
REMARK Flexibility Score: inf
ROOT
ATOM      1  C   UNL A   1      32.707  28.057  25.686  1.00  0.00     0.202 C 
ENDROOT
BRANCH   1   2
ATOM      2  C   UNL A   1      33.625  28.304  24.503  1.00  0.00     0.261 C 
BRANCH   2   3
ATOM      3  O   UNL A   1      33.755  27.173  23.658  1.00  0.00    -0.463 OA
BRANCH   3   4
ATOM      4  C   UNL A   1      33.651  27.348  22.304  1.00  0.00     0.310 C 
ATOM      5  O   UNL A   1      34.219  28.193  21.626  1.00  0.00    -0.252 OA
BRANCH   4   6
ATOM      6  C   UNL A   1      32.676  26.337  21.723  1.00  0.00     0.160 C 
BRANCH   6   7
ATOM      7  C   UNL A   1      31.293  26.568  22.307  1.00  0.00    -0.013 A 
ATOM      8  C   UNL A   1      29.416  29.851  22.881  1.00  0.00     0.044 C 
ATOM      9  C   UNL A   1      29.793  28.401  22.953  1.00  0.00    -0.051 A 
ATOM     10  C   UNL A   1      29.225  27.558  23.900  1.00  0.00     0.005 A 
ATOM     11  C   UNL A   1      30.773  27.878  22.113  1.00  0.00     0.009 A 
ATOM     12  C   UNL A   1      29.676  26.236  24.043  1.00  0.00     0.026 A 
ATOM     13  C   UNL A   1      30.737  25.711  23.278  1.00  0.00     0.042 A 
BRANCH  13  14
ATOM     14  N   UNL A   1      31.241  24.399  23.512  1.00  0.00    -0.353 N 
ATOM     15  H   UNL A   1      30.662  23.662  23.213  1.00  0.00     0.167 HD
BRANCH  14  16
ATOM     16  C   UNL A   1      32.470  24.011  24.118  1.00  0.00     0.076 A 
ATOM     17  C   UNL A   1      32.747  24.240  25.479  1.00  0.00     0.067 A 
ATOM     18  C   UNL A   1      33.541  23.528  23.333  1.00  0.00     0.067 A 
ATOM     19  Cl  UNL A   1      31.477  24.459  26.639  1.00  0.00    -0.082 Cl
ATOM     20  C   UNL A   1      34.055  24.210  25.972  1.00  0.00     0.043 A 
ATOM     21  C   UNL A   1      34.860  23.551  23.802  1.00  0.00     0.043 A 
ATOM     22  Cl  UNL A   1      33.272  22.790  21.792  1.00  0.00    -0.082 Cl
ATOM     23  C   UNL A   1      35.110  23.929  25.114  1.00  0.00     0.044 A 
ATOM     24  Cl  UNL A   1      36.724  23.987  25.699  1.00  0.00    -0.084 Cl
ENDBRANCH  14  16
ENDBRANCH  13  14
ENDBRANCH   6   7
ENDBRANCH   4   6
ENDBRANCH   3   4
ENDBRANCH   2   3
ENDBRANCH   1   2
BRANCH   1  25
ATOM     25  O   UNL A   1      31.810  29.143  25.810  1.00  0.00    -0.374 OA
BRANCH  25  26
ATOM     26  C   UNL A   1      32.029  29.973  26.933  1.00  0.00     0.202 C 
BRANCH  26  27
ATOM     27  C   UNL A   1      33.342  30.740  26.777  1.00  0.00     0.261 C 
BRANCH  27  28
ATOM     28  O   UNL A   1      33.955  30.969  28.064  1.00  0.00    -0.460 OA
BRANCH  28  29
ATOM     29  C   UNL A   1      34.046  32.282  28.408  1.00  0.00     0.338 C 
ATOM     30  O   UNL A   1      33.361  33.181  27.925  1.00  0.00    -0.246 OA
BRANCH  29  31
ATOM     31  C   UNL A   1      35.262  32.516  29.235  1.00  0.00     0.060 A 
ATOM     32  C   UNL A   1      36.405  33.033  28.597  1.00  0.00     0.016 A 
ATOM     33  C   UNL A   1      35.378  31.839  30.448  1.00  0.00     0.016 A 
ATOM     34  C   UNL A   1      37.673  32.672  29.050  1.00  0.00     0.010 A 
ATOM     35  C   UNL A   1      36.625  31.370  30.802  1.00  0.00     0.010 A 
ATOM     36  C   UNL A   1      37.771  31.743  30.081  1.00  0.00    -0.014 A 
BRANCH  36  37
ATOM     37  C   UNL A   1      38.980  30.998  30.426  1.00  0.00     0.031 A 
ATOM     38  C   UNL A   1      39.245  29.718  29.750  1.00  0.00     0.074 A 
ATOM     39  C   UNL A   1      39.967  31.581  31.144  1.00  0.00     0.049 A 
ATOM     40  N   UNL A   1      40.212  28.940  30.077  1.00  0.00    -0.248 NA
ATOM     41  C   UNL A   1      38.407  29.158  28.691  1.00  0.00     0.031 C 
ATOM     42  C   UNL A   1      41.404  31.284  31.133  1.00  0.00     0.029 A 
ATOM     43  N   UNL A   1      39.863  32.578  32.098  1.00  0.00    -0.354 N 
ATOM     44  C   UNL A   1      40.364  28.033  29.065  1.00  0.00     0.074 A 
ATOM     45  C   UNL A   1      39.139  28.106  28.310  1.00  0.00     0.031 C 
ATOM     46  C   UNL A   1      41.998  31.907  32.166  1.00  0.00     0.029 A 
ATOM     47  C   UNL A   1      40.946  32.497  32.975  1.00  0.00     0.049 A 
ATOM     48  H   UNL A   1      39.139  33.241  32.151  1.00  0.00     0.167 HD
ATOM     49  C   UNL A   1      41.576  27.436  28.923  1.00  0.00     0.031 A 
ATOM     50  C   UNL A   1      40.764  32.344  34.315  1.00  0.00     0.031 A 
ATOM     51  C   UNL A   1      42.457  27.728  30.068  1.00  0.00     0.049 A 
ATOM     52  C   UNL A   1      41.200  30.945  34.715  1.00  0.00     0.074 A 
ATOM     53  C   UNL A   1      43.627  28.446  30.244  1.00  0.00     0.029 A 
ATOM     54  N   UNL A   1      41.962  27.503  31.352  1.00  0.00    -0.354 N 
ATOM     55  N   UNL A   1      41.619  30.059  33.849  1.00  0.00    -0.248 NA
ATOM     56  C   UNL A   1      41.183  30.404  36.066  1.00  0.00     0.031 C 
ATOM     57  C   UNL A   1      43.804  28.664  31.651  1.00  0.00     0.029 A 
ATOM     58  C   UNL A   1      42.774  28.037  32.333  1.00  0.00     0.049 A 
ATOM     59  H   UNL A   1      41.126  27.017  31.538  1.00  0.00     0.167 HD
ATOM     60  C   UNL A   1      41.933  28.886  34.456  1.00  0.00     0.074 A 
ATOM     61  C   UNL A   1      41.589  29.135  35.851  1.00  0.00     0.031 C 
ATOM     62  C   UNL A   1      42.433  27.826  33.744  1.00  0.00     0.031 A 
BRANCH  49  63
ATOM     63  C   UNL A   1      42.016  26.709  27.673  1.00  0.00    -0.014 A 
ATOM     64  C   UNL A   1      42.448  27.449  26.560  1.00  0.00     0.009 A 
ATOM     65  C   UNL A   1      41.958  25.312  27.494  1.00  0.00     0.009 A 
ATOM     66  C   UNL A   1      42.805  26.831  25.351  1.00  0.00     0.001 A 
ATOM     67  C   UNL A   1      42.344  24.685  26.301  1.00  0.00     0.001 A 
ATOM     68  C   UNL A   1      42.762  25.448  25.224  1.00  0.00     0.000 A 
ENDBRANCH  49  63
BRANCH  50  69
ATOM     69  C   UNL A   1      39.596  33.160  34.786  1.00  0.00    -0.014 A 
ATOM     70  C   UNL A   1      38.406  32.426  35.027  1.00  0.00     0.009 A 
ATOM     71  C   UNL A   1      39.797  34.342  35.520  1.00  0.00     0.009 A 
ATOM     72  C   UNL A   1      37.568  32.739  36.104  1.00  0.00     0.001 A 
ATOM     73  C   UNL A   1      38.941  34.656  36.592  1.00  0.00     0.001 A 
ATOM     74  C   UNL A   1      37.864  33.828  36.916  1.00  0.00     0.000 A 
ENDBRANCH  50  69
BRANCH  62  75
ATOM     75  C   UNL A   1      42.609  26.442  34.315  1.00  0.00    -0.014 A 
ATOM     76  C   UNL A   1      41.659  25.797  35.110  1.00  0.00     0.009 A 
ATOM     77  C   UNL A   1      43.807  25.733  34.070  1.00  0.00     0.009 A 
ATOM     78  C   UNL A   1      41.830  24.465  35.505  1.00  0.00     0.001 A 
ATOM     79  C   UNL A   1      43.999  24.418  34.485  1.00  0.00     0.001 A 
ATOM     80  C   UNL A   1      42.991  23.770  35.176  1.00  0.00     0.000 A 
ENDBRANCH  62  75
ENDBRANCH  36  37
ENDBRANCH  29  31
ENDBRANCH  28  29
ENDBRANCH  27  28
ENDBRANCH  26  27
ENDBRANCH  25  26
ENDBRANCH   1  25
TORSDOF 17
ENDMDL
MODEL 3
REMARK VINA RESULT:     -11.0      2.217      3.847
REMARK SMILES Cc1ccc(Nc2c(Cl)cc(Cl)cc2Cl)c(CC(=O)OCCOCCOC(=O)c2ccc(-c3c4nc(c(-c5ccccc5)c5ccc([nH]5)c(-c5ccccc5)c5nc(c(-c6ccccc6)c6ccc3[nH]6)C=C5)C=C4)cc2)c1
REMARK SMILES IDX 22 1 21 2 20 3 18 4 19 5 17 6 16 7 1 8 2 9 3 10 77 11 4 12
REMARK SMILES IDX 5 13 6 14 7 16 8 17 14 18 9 19 10 20 13 21 15 22 11 23 12 24
REMARK SMILES IDX 23 25 24 26 25 27 26 28 27 29 28 30 29 31 30 32 76 33 31 34
REMARK SMILES IDX 75 35 32 36 33 37 34 38 69 39 35 40 74 41 68 42 70 43 36 44
REMARK SMILES IDX 73 45 67 46 66 47 37 49 59 50 44 51 58 52 45 53 48 54 57 55
REMARK SMILES IDX 71 56 46 57 47 58 56 60 72 61 49 62 38 63 39 64 43 65 40 66
REMARK SMILES IDX 42 67 41 68 60 69 61 70 65 71 62 72 64 73 63 74 50 75 51 76
REMARK SMILES IDX 55 77 52 78 54 79 53 80
REMARK H PARENT 6 15 70 48 48 59
REMARK Flexibility Score: inf
ROOT
ATOM      1  C   UNL A   1      35.883  20.711  24.956  1.00  0.00     0.202 C 
ENDROOT
BRANCH   1   2
ATOM      2  C   UNL A   1      35.583  21.727  26.044  1.00  0.00     0.261 C 
BRANCH   2   3
ATOM      3  O   UNL A   1      34.513  22.595  25.710  1.00  0.00    -0.463 OA
BRANCH   3   4
ATOM      4  C   UNL A   1      34.774  23.929  25.546  1.00  0.00     0.310 C 
ATOM      5  O   UNL A   1      35.810  24.430  25.132  1.00  0.00    -0.252 OA
BRANCH   4   6
ATOM      6  C   UNL A   1      33.576  24.751  25.990  1.00  0.00     0.160 C 
BRANCH   6   7
ATOM      7  C   UNL A   1      33.307  25.851  24.977  1.00  0.00    -0.013 A 
ATOM      8  C   UNL A   1      32.714  25.587  21.207  1.00  0.00     0.044 C 
ATOM      9  C   UNL A   1      33.002  26.165  22.562  1.00  0.00    -0.051 A 
ATOM     10  C   UNL A   1      33.498  27.455  22.700  1.00  0.00     0.005 A 
ATOM     11  C   UNL A   1      32.841  25.397  23.711  1.00  0.00     0.009 A 
ATOM     12  C   UNL A   1      33.884  27.941  23.959  1.00  0.00     0.026 A 
ATOM     13  C   UNL A   1      33.831  27.151  25.125  1.00  0.00     0.042 A 
BRANCH  13  14
ATOM     14  N   UNL A   1      34.322  27.634  26.372  1.00  0.00    -0.353 N 
ATOM     15  H   UNL A   1      34.929  27.027  26.854  1.00  0.00     0.167 HD
BRANCH  14  16
ATOM     16  C   UNL A   1      34.055  28.877  27.015  1.00  0.00     0.076 A 
ATOM     17  C   UNL A   1      32.755  29.404  27.131  1.00  0.00     0.067 A 
ATOM     18  C   UNL A   1      35.113  29.724  27.414  1.00  0.00     0.067 A 
ATOM     19  Cl  UNL A   1      31.353  28.386  27.051  1.00  0.00    -0.082 Cl
ATOM     20  C   UNL A   1      32.539  30.757  27.409  1.00  0.00     0.043 A 
ATOM     21  C   UNL A   1      34.911  31.091  27.638  1.00  0.00     0.043 A 
ATOM     22  Cl  UNL A   1      36.692  29.102  27.751  1.00  0.00    -0.082 Cl
ATOM     23  C   UNL A   1      33.623  31.605  27.596  1.00  0.00     0.044 A 
ATOM     24  Cl  UNL A   1      33.359  33.284  27.842  1.00  0.00    -0.084 Cl
ENDBRANCH  14  16
ENDBRANCH  13  14
ENDBRANCH   6   7
ENDBRANCH   4   6
ENDBRANCH   3   4
ENDBRANCH   2   3
ENDBRANCH   1   2
BRANCH   1  25
ATOM     25  O   UNL A   1      37.276  20.471  24.920  1.00  0.00    -0.374 OA
BRANCH  25  26
ATOM     26  C   UNL A   1      38.079  21.545  25.365  1.00  0.00     0.202 C 
BRANCH  26  27
ATOM     27  C   UNL A   1      39.302  21.016  26.113  1.00  0.00     0.261 C 
BRANCH  27  28
ATOM     28  O   UNL A   1      40.427  21.906  25.947  1.00  0.00    -0.460 OA
BRANCH  28  29
ATOM     29  C   UNL A   1      41.638  21.297  26.071  1.00  0.00     0.338 C 
ATOM     30  O   UNL A   1      41.859  20.119  25.804  1.00  0.00    -0.246 OA
BRANCH  29  31
ATOM     31  C   UNL A   1      42.578  22.169  26.827  1.00  0.00     0.060 A 
ATOM     32  C   UNL A   1      42.369  22.322  28.210  1.00  0.00     0.016 A 
ATOM     33  C   UNL A   1      43.324  23.110  26.118  1.00  0.00     0.016 A 
ATOM     34  C   UNL A   1      42.704  23.526  28.831  1.00  0.00     0.010 A 
ATOM     35  C   UNL A   1      43.518  24.343  26.702  1.00  0.00     0.010 A 
ATOM     36  C   UNL A   1      43.168  24.574  28.043  1.00  0.00    -0.014 A 
BRANCH  36  37
ATOM     37  C   UNL A   1      43.218  25.974  28.457  1.00  0.00     0.031 A 
ATOM     38  C   UNL A   1      41.980  26.769  28.435  1.00  0.00     0.074 A 
ATOM     39  C   UNL A   1      44.305  26.466  29.095  1.00  0.00     0.049 A 
ATOM     40  N   UNL A   1      41.953  28.032  28.660  1.00  0.00    -0.248 NA
ATOM     41  C   UNL A   1      40.665  26.233  28.087  1.00  0.00     0.031 C 
ATOM     42  C   UNL A   1      44.381  27.576  30.051  1.00  0.00     0.029 A 
ATOM     43  N   UNL A   1      45.626  26.068  28.977  1.00  0.00    -0.354 N 
ATOM     44  C   UNL A   1      40.649  28.378  28.883  1.00  0.00     0.074 A 
ATOM     45  C   UNL A   1      39.877  27.276  28.369  1.00  0.00     0.031 C 
ATOM     46  C   UNL A   1      45.668  27.906  30.255  1.00  0.00     0.029 A 
ATOM     47  C   UNL A   1      46.463  27.130  29.320  1.00  0.00     0.049 A 
ATOM     48  H   UNL A   1      45.927  25.175  28.694  1.00  0.00     0.167 HD
ATOM     49  C   UNL A   1      40.404  29.502  29.605  1.00  0.00     0.031 A 
ATOM     50  C   UNL A   1      47.397  27.607  28.451  1.00  0.00     0.031 A 
ATOM     51  C   UNL A   1      41.636  30.279  29.825  1.00  0.00     0.049 A 
ATOM     52  C   UNL A   1      46.966  28.982  27.972  1.00  0.00     0.074 A 
ATOM     53  C   UNL A   1      42.409  30.598  30.929  1.00  0.00     0.029 A 
ATOM     54  N   UNL A   1      42.427  30.586  28.718  1.00  0.00    -0.354 N 
ATOM     55  N   UNL A   1      45.838  29.537  28.332  1.00  0.00    -0.248 NA
ATOM     56  C   UNL A   1      47.709  29.833  27.053  1.00  0.00     0.031 C 
ATOM     57  C   UNL A   1      43.678  31.074  30.458  1.00  0.00     0.029 A 
ATOM     58  C   UNL A   1      43.660  31.095  29.073  1.00  0.00     0.049 A 
ATOM     59  H   UNL A   1      42.137  30.455  27.786  1.00  0.00     0.167 HD
ATOM     60  C   UNL A   1      45.682  30.756  27.756  1.00  0.00     0.074 A 
ATOM     61  C   UNL A   1      46.866  30.876  26.913  1.00  0.00     0.031 C 
ATOM     62  C   UNL A   1      44.587  31.536  28.024  1.00  0.00     0.031 A 
BRANCH  49  63
ATOM     63  C   UNL A   1      39.071  29.822  30.240  1.00  0.00    -0.014 A 
ATOM     64  C   UNL A   1      38.468  31.066  29.993  1.00  0.00     0.009 A 
ATOM     65  C   UNL A   1      38.393  28.984  31.150  1.00  0.00     0.009 A 
ATOM     66  C   UNL A   1      37.264  31.444  30.607  1.00  0.00     0.001 A 
ATOM     67  C   UNL A   1      37.174  29.341  31.743  1.00  0.00     0.001 A 
ATOM     68  C   UNL A   1      36.611  30.578  31.476  1.00  0.00     0.000 A 
ENDBRANCH  49  63
BRANCH  50  69
ATOM     69  C   UNL A   1      48.038  26.480  27.694  1.00  0.00    -0.014 A 
ATOM     70  C   UNL A   1      48.100  26.657  26.288  1.00  0.00     0.009 A 
ATOM     71  C   UNL A   1      49.025  25.681  28.299  1.00  0.00     0.009 A 
ATOM     72  C   UNL A   1      49.217  26.240  25.555  1.00  0.00     0.001 A 
ATOM     73  C   UNL A   1      50.137  25.255  27.550  1.00  0.00     0.001 A 
ATOM     74  C   UNL A   1      50.258  25.580  26.197  1.00  0.00     0.000 A 
ENDBRANCH  50  69
BRANCH  62  75
ATOM     75  C   UNL A   1      44.253  32.800  27.271  1.00  0.00    -0.014 A 
ATOM     76  C   UNL A   1      44.195  32.888  25.879  1.00  0.00     0.009 A 
ATOM     77  C   UNL A   1      44.001  33.992  27.987  1.00  0.00     0.009 A 
ATOM     78  C   UNL A   1      43.758  34.057  25.246  1.00  0.00     0.001 A 
ATOM     79  C   UNL A   1      43.595  35.170  27.363  1.00  0.00     0.001 A 
ATOM     80  C   UNL A   1      43.439  35.191  25.989  1.00  0.00     0.000 A 
ENDBRANCH  62  75
ENDBRANCH  36  37
ENDBRANCH  29  31
ENDBRANCH  28  29
ENDBRANCH  27  28
ENDBRANCH  26  27
ENDBRANCH  25  26
ENDBRANCH   1  25
TORSDOF 17
ENDMDL
