MODEL 1
REMARK VINA RESULT:      -8.1      0.000      0.000
REMARK SMILES O=C(CC[C@H]1CC[C@@H](O)CC1)OCCOCCOC(=O)c1ccc(-c2c3nc(c(-c4ccccc4)c4ccc([nH]4)c(-c4ccccc4)c4nc(c(-c5ccccc5)c5ccc2[nH]5)C=C4)C=C3)cc1
REMARK SMILES IDX 14 1 13 2 12 3 2 4 1 5 3 6 4 7 5 8 6 9 11 10 7 11 10 12 8 13
REMARK SMILES IDX 9 14 15 16 16 17 17 18 18 19 19 20 20 21 21 22 22 23 68 24
REMARK SMILES IDX 23 25 67 26 24 27 25 28 26 29 61 30 27 31 66 32 60 33 62 34
REMARK SMILES IDX 28 35 65 36 59 37 58 38 29 40 51 41 36 42 50 43 37 44 40 45
REMARK SMILES IDX 49 46 63 47 38 48 39 49 48 51 64 52 41 53 30 54 31 55 35 56
REMARK SMILES IDX 32 57 34 58 33 59 52 60 53 61 57 62 54 63 56 64 55 65 42 66
REMARK SMILES IDX 43 67 47 68 44 69 46 70 45 71
REMARK H PARENT 9 15 62 39 40 50
REMARK Flexibility Score: inf
ROOT
ATOM      1  C   UNL A   1      33.829  34.833  33.110  1.00  0.00     0.202 C 
ENDROOT
BRANCH   1   2
ATOM      2  C   UNL A   1      35.226  35.318  32.758  1.00  0.00     0.261 C 
BRANCH   2   3
ATOM      3  O   UNL A   1      36.178  35.034  33.787  1.00  0.00    -0.463 OA
BRANCH   3   4
ATOM      4  C   UNL A   1      36.241  33.865  34.462  1.00  0.00     0.305 C 
ATOM      5  O   UNL A   1      35.716  32.864  33.975  1.00  0.00    -0.252 OA
BRANCH   4   6
ATOM      6  C   UNL A   1      36.858  33.805  35.845  1.00  0.00     0.123 C 
BRANCH   6   7
ATOM      7  C   UNL A   1      38.355  33.508  35.939  1.00  0.00     0.015 C 
BRANCH   7   8
ATOM      8  C   UNL A   1      38.798  32.139  36.520  1.00  0.00    -0.010 C 
ATOM      9  C   UNL A   1      40.335  31.997  36.474  1.00  0.00     0.006 C 
ATOM     10  C   UNL A   1      38.160  30.889  35.883  1.00  0.00     0.006 C 
ATOM     11  C   UNL A   1      40.875  31.632  35.089  1.00  0.00     0.032 C 
ATOM     12  C   UNL A   1      38.667  30.595  34.482  1.00  0.00     0.032 C 
ATOM     13  C   UNL A   1      40.178  30.406  34.501  1.00  0.00     0.114 C 
BRANCH  13  14
ATOM     14  O   UNL A   1      40.651  30.162  33.183  1.00  0.00    -0.393 OA
ATOM     15  H   UNL A   1      40.520  30.955  32.640  1.00  0.00     0.210 HD
ENDBRANCH  13  14
ENDBRANCH   7   8
ENDBRANCH   6   7
ENDBRANCH   4   6
ENDBRANCH   3   4
ENDBRANCH   2   3
ENDBRANCH   1   2
BRANCH   1  16
ATOM     16  O   UNL A   1      32.828  35.322  32.218  1.00  0.00    -0.374 OA
BRANCH  16  17
ATOM     17  C   UNL A   1      33.268  36.370  31.352  1.00  0.00     0.202 C 
BRANCH  17  18
ATOM     18  C   UNL A   1      32.967  36.066  29.881  1.00  0.00     0.261 C 
BRANCH  18  19
ATOM     19  O   UNL A   1      32.638  34.678  29.723  1.00  0.00    -0.460 OA
BRANCH  19  20
ATOM     20  C   UNL A   1      33.289  34.038  28.717  1.00  0.00     0.338 C 
ATOM     21  O   UNL A   1      32.978  34.005  27.539  1.00  0.00    -0.246 OA
BRANCH  20  22
ATOM     22  C   UNL A   1      34.587  33.545  29.237  1.00  0.00     0.060 A 
ATOM     23  C   UNL A   1      35.765  34.020  28.639  1.00  0.00     0.016 A 
ATOM     24  C   UNL A   1      34.654  32.694  30.344  1.00  0.00     0.016 A 
ATOM     25  C   UNL A   1      37.011  33.628  29.129  1.00  0.00     0.010 A 
ATOM     26  C   UNL A   1      35.896  32.292  30.826  1.00  0.00     0.010 A 
ATOM     27  C   UNL A   1      37.075  32.730  30.200  1.00  0.00    -0.014 A 
BRANCH  27  28
ATOM     28  C   UNL A   1      38.330  32.020  30.523  1.00  0.00     0.031 A 
ATOM     29  C   UNL A   1      39.346  32.767  31.337  1.00  0.00     0.074 A 
ATOM     30  C   UNL A   1      38.605  30.803  30.029  1.00  0.00     0.049 A 
ATOM     31  N   UNL A   1      40.598  32.483  31.571  1.00  0.00    -0.248 NA
ATOM     32  C   UNL A   1      38.884  34.027  31.945  1.00  0.00     0.031 C 
ATOM     33  C   UNL A   1      37.686  29.969  29.258  1.00  0.00     0.029 A 
ATOM     34  N   UNL A   1      39.768  30.077  30.075  1.00  0.00    -0.354 N 
ATOM     35  C   UNL A   1      41.083  33.545  32.322  1.00  0.00     0.074 A 
ATOM     36  C   UNL A   1      39.997  34.483  32.493  1.00  0.00     0.031 C 
ATOM     37  C   UNL A   1      38.333  28.855  28.873  1.00  0.00     0.029 A 
ATOM     38  C   UNL A   1      39.720  28.925  29.330  1.00  0.00     0.049 A 
ATOM     39  H   UNL A   1      40.558  30.355  30.592  1.00  0.00     0.167 HD
ATOM     40  C   UNL A   1      42.328  33.730  32.816  1.00  0.00     0.031 A 
ATOM     41  C   UNL A   1      40.700  28.053  29.020  1.00  0.00     0.031 A 
ATOM     42  C   UNL A   1      43.409  32.806  32.618  1.00  0.00     0.049 A 
ATOM     43  C   UNL A   1      42.096  28.299  29.532  1.00  0.00     0.074 A 
ATOM     44  C   UNL A   1      44.707  32.882  33.088  1.00  0.00     0.029 A 
ATOM     45  N   UNL A   1      43.315  31.639  31.873  1.00  0.00    -0.354 N 
ATOM     46  N   UNL A   1      42.546  29.293  30.261  1.00  0.00    -0.248 NA
ATOM     47  C   UNL A   1      43.118  27.304  29.178  1.00  0.00     0.031 C 
ATOM     48  C   UNL A   1      45.413  31.784  32.583  1.00  0.00     0.029 A 
ATOM     49  C   UNL A   1      44.538  30.996  31.850  1.00  0.00     0.049 A 
ATOM     50  H   UNL A   1      42.498  31.317  31.428  1.00  0.00     0.167 HD
ATOM     51  C   UNL A   1      43.893  29.028  30.479  1.00  0.00     0.074 A 
ATOM     52  C   UNL A   1      44.186  27.779  29.805  1.00  0.00     0.031 C 
ATOM     53  C   UNL A   1      44.803  29.749  31.178  1.00  0.00     0.031 A 
BRANCH  40  54
ATOM     54  C   UNL A   1      42.581  35.012  33.556  1.00  0.00    -0.014 A 
ATOM     55  C   UNL A   1      42.233  35.159  34.909  1.00  0.00     0.009 A 
ATOM     56  C   UNL A   1      43.144  36.102  32.876  1.00  0.00     0.009 A 
ATOM     57  C   UNL A   1      42.397  36.388  35.550  1.00  0.00     0.001 A 
ATOM     58  C   UNL A   1      43.337  37.320  33.529  1.00  0.00     0.001 A 
ATOM     59  C   UNL A   1      42.949  37.467  34.860  1.00  0.00     0.000 A 
ENDBRANCH  40  54
BRANCH  41  60
ATOM     60  C   UNL A   1      40.398  26.884  28.155  1.00  0.00    -0.014 A 
ATOM     61  C   UNL A   1      40.797  26.871  26.809  1.00  0.00     0.009 A 
ATOM     62  C   UNL A   1      39.727  25.766  28.674  1.00  0.00     0.009 A 
ATOM     63  C   UNL A   1      40.520  25.765  26.001  1.00  0.00     0.001 A 
ATOM     64  C   UNL A   1      39.474  24.653  27.870  1.00  0.00     0.001 A 
ATOM     65  C   UNL A   1      39.866  24.655  26.533  1.00  0.00     0.000 A 
ENDBRANCH  41  60
BRANCH  53  66
ATOM     66  C   UNL A   1      46.192  29.188  31.298  1.00  0.00    -0.014 A 
ATOM     67  C   UNL A   1      46.535  28.295  32.323  1.00  0.00     0.009 A 
ATOM     68  C   UNL A   1      47.146  29.499  30.314  1.00  0.00     0.009 A 
ATOM     69  C   UNL A   1      47.816  27.738  32.372  1.00  0.00     0.001 A 
ATOM     70  C   UNL A   1      48.414  28.921  30.351  1.00  0.00     0.001 A 
ATOM     71  C   UNL A   1      48.750  28.046  31.382  1.00  0.00     0.000 A 
ENDBRANCH  53  66
ENDBRANCH  27  28
ENDBRANCH  20  22
ENDBRANCH  19  20
ENDBRANCH  18  19
ENDBRANCH  17  18
ENDBRANCH  16  17
ENDBRANCH   1  16
TORSDOF 17
ENDMDL
MODEL 2
REMARK VINA RESULT:      -8.0      2.174      3.973
REMARK SMILES O=C(CC[C@H]1CC[C@@H](O)CC1)OCCOCCOC(=O)c1ccc(-c2c3nc(c(-c4ccccc4)c4ccc([nH]4)c(-c4ccccc4)c4nc(c(-c5ccccc5)c5ccc2[nH]5)C=C4)C=C3)cc1
REMARK SMILES IDX 14 1 13 2 12 3 2 4 1 5 3 6 4 7 5 8 6 9 11 10 7 11 10 12 8 13
REMARK SMILES IDX 9 14 15 16 16 17 17 18 18 19 19 20 20 21 21 22 22 23 68 24
REMARK SMILES IDX 23 25 67 26 24 27 25 28 26 29 61 30 27 31 66 32 60 33 62 34
REMARK SMILES IDX 28 35 65 36 59 37 58 38 29 40 51 41 36 42 50 43 37 44 40 45
REMARK SMILES IDX 49 46 63 47 38 48 39 49 48 51 64 52 41 53 30 54 31 55 35 56
REMARK SMILES IDX 32 57 34 58 33 59 52 60 53 61 57 62 54 63 56 64 55 65 42 66
REMARK SMILES IDX 43 67 47 68 44 69 46 70 45 71
REMARK H PARENT 9 15 62 39 40 50
REMARK Flexibility Score: inf
ROOT
ATOM      1  C   UNL A   1      32.902  36.017  29.594  1.00  0.00     0.202 C 
ENDROOT
BRANCH   1   2
ATOM      2  C   UNL A   1      33.473  37.314  30.145  1.00  0.00     0.261 C 
BRANCH   2   3
ATOM      3  O   UNL A   1      32.859  37.701  31.378  1.00  0.00    -0.463 OA
BRANCH   3   4
ATOM      4  C   UNL A   1      32.809  36.919  32.479  1.00  0.00     0.305 C 
ATOM      5  O   UNL A   1      31.719  36.696  33.004  1.00  0.00    -0.252 OA
BRANCH   4   6
ATOM      6  C   UNL A   1      34.083  36.407  33.120  1.00  0.00     0.123 C 
BRANCH   6   7
ATOM      7  C   UNL A   1      34.409  34.922  32.954  1.00  0.00     0.015 C 
BRANCH   7   8
ATOM      8  C   UNL A   1      35.756  34.536  32.287  1.00  0.00    -0.010 C 
ATOM      9  C   UNL A   1      35.727  33.070  31.805  1.00  0.00     0.006 C 
ATOM     10  C   UNL A   1      37.025  34.760  33.134  1.00  0.00     0.006 C 
ATOM     11  C   UNL A   1      35.942  32.051  32.927  1.00  0.00     0.032 C 
ATOM     12  C   UNL A   1      37.171  33.775  34.281  1.00  0.00     0.032 C 
ATOM     13  C   UNL A   1      37.195  32.350  33.747  1.00  0.00     0.114 C 
BRANCH  13  14
ATOM     14  O   UNL A   1      37.302  31.432  34.827  1.00  0.00    -0.393 OA
ATOM     15  H   UNL A   1      36.586  30.780  34.769  1.00  0.00     0.210 HD
ENDBRANCH  13  14
ENDBRANCH   7   8
ENDBRANCH   6   7
ENDBRANCH   4   6
ENDBRANCH   3   4
ENDBRANCH   2   3
ENDBRANCH   1   2
BRANCH   1  16
ATOM     16  O   UNL A   1      33.887  34.996  29.440  1.00  0.00    -0.374 OA
BRANCH  16  17
ATOM     17  C   UNL A   1      33.835  34.307  28.188  1.00  0.00     0.202 C 
BRANCH  17  18
ATOM     18  C   UNL A   1      34.886  33.196  28.099  1.00  0.00     0.261 C 
BRANCH  18  19
ATOM     19  O   UNL A   1      34.429  32.029  28.799  1.00  0.00    -0.460 OA
BRANCH  19  20
ATOM     20  C   UNL A   1      34.483  30.871  28.093  1.00  0.00     0.338 C 
ATOM     21  O   UNL A   1      33.686  30.473  27.262  1.00  0.00    -0.246 OA
BRANCH  20  22
ATOM     22  C   UNL A   1      35.802  30.236  28.334  1.00  0.00     0.060 A 
ATOM     23  C   UNL A   1      36.117  29.837  29.643  1.00  0.00     0.016 A 
ATOM     24  C   UNL A   1      36.684  29.963  27.284  1.00  0.00     0.016 A 
ATOM     25  C   UNL A   1      37.321  29.186  29.910  1.00  0.00     0.010 A 
ATOM     26  C   UNL A   1      37.891  29.325  27.551  1.00  0.00     0.010 A 
ATOM     27  C   UNL A   1      38.228  28.966  28.867  1.00  0.00    -0.014 A 
BRANCH  27  28
ATOM     28  C   UNL A   1      39.635  28.611  29.144  1.00  0.00     0.031 A 
ATOM     29  C   UNL A   1      40.525  29.706  29.658  1.00  0.00     0.074 A 
ATOM     30  C   UNL A   1      40.133  27.399  28.854  1.00  0.00     0.049 A 
ATOM     31  N   UNL A   1      41.825  29.739  29.769  1.00  0.00    -0.248 NA
ATOM     32  C   UNL A   1      39.847  30.944  30.077  1.00  0.00     0.031 C 
ATOM     33  C   UNL A   1      39.361  26.251  28.385  1.00  0.00     0.029 A 
ATOM     34  N   UNL A   1      41.430  26.953  28.877  1.00  0.00    -0.354 N 
ATOM     35  C   UNL A   1      42.123  31.012  30.235  1.00  0.00     0.074 A 
ATOM     36  C   UNL A   1      40.872  31.723  30.374  1.00  0.00     0.031 C 
ATOM     37  C   UNL A   1      40.206  25.237  28.131  1.00  0.00     0.029 A 
ATOM     38  C   UNL A   1      41.577  25.684  28.375  1.00  0.00     0.049 A 
ATOM     39  H   UNL A   1      42.180  27.489  29.221  1.00  0.00     0.167 HD
ATOM     40  C   UNL A   1      43.334  31.547  30.513  1.00  0.00     0.031 A 
ATOM     41  C   UNL A   1      42.696  24.984  28.103  1.00  0.00     0.031 A 
ATOM     42  C   UNL A   1      44.573  30.843  30.346  1.00  0.00     0.049 A 
ATOM     43  C   UNL A   1      44.041  25.613  28.366  1.00  0.00     0.074 A 
ATOM     44  C   UNL A   1      45.857  31.279  30.613  1.00  0.00     0.029 A 
ATOM     45  N   UNL A   1      44.679  29.550  29.853  1.00  0.00    -0.354 N 
ATOM     46  N   UNL A   1      44.318  26.809  28.828  1.00  0.00    -0.248 NA
ATOM     47  C   UNL A   1      45.225  24.795  28.068  1.00  0.00     0.031 C 
ATOM     48  C   UNL A   1      46.745  30.267  30.232  1.00  0.00     0.029 A 
ATOM     49  C   UNL A   1      46.009  29.180  29.785  1.00  0.00     0.049 A 
ATOM     50  H   UNL A   1      43.919  28.981  29.591  1.00  0.00     0.167 HD
ATOM     51  C   UNL A   1      45.704  26.876  28.907  1.00  0.00     0.074 A 
ATOM     52  C   UNL A   1      46.210  25.600  28.445  1.00  0.00     0.031 C 
ATOM     53  C   UNL A   1      46.487  27.900  29.328  1.00  0.00     0.031 A 
BRANCH  40  54
ATOM     54  C   UNL A   1      43.355  32.981  30.958  1.00  0.00    -0.014 A 
ATOM     55  C   UNL A   1      43.209  33.331  32.311  1.00  0.00     0.009 A 
ATOM     56  C   UNL A   1      43.488  33.999  30.003  1.00  0.00     0.009 A 
ATOM     57  C   UNL A   1      43.144  34.673  32.689  1.00  0.00     0.001 A 
ATOM     58  C   UNL A   1      43.455  35.340  30.388  1.00  0.00     0.001 A 
ATOM     59  C   UNL A   1      43.268  35.676  31.728  1.00  0.00     0.000 A 
ENDBRANCH  40  54
BRANCH  41  60
ATOM     60  C   UNL A   1      42.590  23.622  27.521  1.00  0.00    -0.014 A 
ATOM     61  C   UNL A   1      42.429  22.502  28.351  1.00  0.00     0.009 A 
ATOM     62  C   UNL A   1      42.627  23.436  26.130  1.00  0.00     0.009 A 
ATOM     63  C   UNL A   1      42.318  21.223  27.799  1.00  0.00     0.001 A 
ATOM     64  C   UNL A   1      42.491  22.159  25.580  1.00  0.00     0.001 A 
ATOM     65  C   UNL A   1      42.342  21.053  26.415  1.00  0.00     0.000 A 
ENDBRANCH  41  60
BRANCH  53  66
ATOM     66  C   UNL A   1      47.972  27.672  29.361  1.00  0.00    -0.014 A 
ATOM     67  C   UNL A   1      48.594  27.057  30.457  1.00  0.00     0.009 A 
ATOM     68  C   UNL A   1      48.743  28.005  28.236  1.00  0.00     0.009 A 
ATOM     69  C   UNL A   1      49.967  26.799  30.433  1.00  0.00     0.001 A 
ATOM     70  C   UNL A   1      50.109  27.722  28.204  1.00  0.00     0.001 A 
ATOM     71  C   UNL A   1      50.720  27.124  29.304  1.00  0.00     0.000 A 
ENDBRANCH  53  66
ENDBRANCH  27  28
ENDBRANCH  20  22
ENDBRANCH  19  20
ENDBRANCH  18  19
ENDBRANCH  17  18
ENDBRANCH  16  17
ENDBRANCH   1  16
TORSDOF 17
ENDMDL
MODEL 3
REMARK VINA RESULT:      -7.9      2.240      7.369
REMARK SMILES O=C(CC[C@H]1CC[C@@H](O)CC1)OCCOCCOC(=O)c1ccc(-c2c3nc(c(-c4ccccc4)c4ccc([nH]4)c(-c4ccccc4)c4nc(c(-c5ccccc5)c5ccc2[nH]5)C=C4)C=C3)cc1
REMARK SMILES IDX 14 1 13 2 12 3 2 4 1 5 3 6 4 7 5 8 6 9 11 10 7 11 10 12 8 13
REMARK SMILES IDX 9 14 15 16 16 17 17 18 18 19 19 20 20 21 21 22 22 23 68 24
REMARK SMILES IDX 23 25 67 26 24 27 25 28 26 29 61 30 27 31 66 32 60 33 62 34
REMARK SMILES IDX 28 35 65 36 59 37 58 38 29 40 51 41 36 42 50 43 37 44 40 45
REMARK SMILES IDX 49 46 63 47 38 48 39 49 48 51 64 52 41 53 30 54 31 55 35 56
REMARK SMILES IDX 32 57 34 58 33 59 52 60 53 61 57 62 54 63 56 64 55 65 42 66
REMARK SMILES IDX 43 67 47 68 44 69 46 70 45 71
REMARK H PARENT 9 15 62 39 40 50
REMARK Flexibility Score: inf
ROOT
ATOM      1  C   UNL A   1      32.544  35.833  29.731  1.00  0.00     0.202 C 
ENDROOT
BRANCH   1   2
ATOM      2  C   UNL A   1      33.278  37.148  29.942  1.00  0.00     0.261 C 
BRANCH   2   3
ATOM      3  O   UNL A   1      33.080  37.679  31.256  1.00  0.00    -0.463 OA
BRANCH   3   4
ATOM      4  C   UNL A   1      33.078  36.933  32.384  1.00  0.00     0.305 C 
ATOM      5  O   UNL A   1      32.033  36.818  33.022  1.00  0.00    -0.252 OA
BRANCH   4   6
ATOM      6  C   UNL A   1      34.364  36.331  32.912  1.00  0.00     0.123 C 
BRANCH   6   7
ATOM      7  C   UNL A   1      34.567  34.826  32.728  1.00  0.00     0.015 C 
BRANCH   7   8
ATOM      8  C   UNL A   1      35.874  34.339  32.049  1.00  0.00    -0.010 C 
ATOM      9  C   UNL A   1      35.777  32.841  31.686  1.00  0.00     0.006 C 
ATOM     10  C   UNL A   1      37.180  34.581  32.832  1.00  0.00     0.006 C 
ATOM     11  C   UNL A   1      35.997  31.906  32.878  1.00  0.00     0.032 C 
ATOM     12  C   UNL A   1      37.334  33.684  34.048  1.00  0.00     0.032 C 
ATOM     13  C   UNL A   1      37.289  32.221  33.629  1.00  0.00     0.114 C 
BRANCH  13  14
ATOM     14  O   UNL A   1      37.403  31.387  34.774  1.00  0.00    -0.393 OA
ATOM     15  H   UNL A   1      37.897  31.854  35.466  1.00  0.00     0.210 HD
ENDBRANCH  13  14
ENDBRANCH   7   8
ENDBRANCH   6   7
ENDBRANCH   4   6
ENDBRANCH   3   4
ENDBRANCH   2   3
ENDBRANCH   1   2
BRANCH   1  16
ATOM     16  O   UNL A   1      33.426  34.725  29.556  1.00  0.00    -0.374 OA
BRANCH  16  17
ATOM     17  C   UNL A   1      33.476  34.213  28.223  1.00  0.00     0.202 C 
BRANCH  17  18
ATOM     18  C   UNL A   1      34.645  33.242  28.023  1.00  0.00     0.261 C 
BRANCH  18  19
ATOM     19  O   UNL A   1      34.375  32.002  28.693  1.00  0.00    -0.460 OA
BRANCH  19  20
ATOM     20  C   UNL A   1      34.533  30.887  27.936  1.00  0.00     0.338 C 
ATOM     21  O   UNL A   1      33.819  30.502  27.027  1.00  0.00    -0.246 OA
BRANCH  20  22
ATOM     22  C   UNL A   1      35.858  30.295  28.245  1.00  0.00     0.060 A 
ATOM     23  C   UNL A   1      36.042  29.702  29.504  1.00  0.00     0.016 A 
ATOM     24  C   UNL A   1      36.877  30.249  27.290  1.00  0.00     0.016 A 
ATOM     25  C   UNL A   1      37.251  29.083  29.820  1.00  0.00     0.010 A 
ATOM     26  C   UNL A   1      38.088  29.643  27.609  1.00  0.00     0.010 A 
ATOM     27  C   UNL A   1      38.291  29.089  28.884  1.00  0.00    -0.014 A 
BRANCH  27  28
ATOM     28  C   UNL A   1      39.677  28.772  29.284  1.00  0.00     0.031 A 
ATOM     29  C   UNL A   1      40.238  27.460  28.817  1.00  0.00     0.074 A 
ATOM     30  C   UNL A   1      40.376  29.562  30.114  1.00  0.00     0.049 A 
ATOM     31  N   UNL A   1      41.319  26.834  29.195  1.00  0.00    -0.248 NA
ATOM     32  C   UNL A   1      39.447  26.748  27.799  1.00  0.00     0.031 C 
ATOM     33  C   UNL A   1      39.950  30.871  30.604  1.00  0.00     0.029 A 
ATOM     34  N   UNL A   1      41.586  29.345  30.723  1.00  0.00    -0.354 N 
ATOM     35  C   UNL A   1      41.318  25.639  28.490  1.00  0.00     0.074 A 
ATOM     36  C   UNL A   1      40.127  25.622  27.672  1.00  0.00     0.031 C 
ATOM     37  C   UNL A   1      40.872  31.329  31.469  1.00  0.00     0.029 A 
ATOM     38  C   UNL A   1      41.923  30.324  31.625  1.00  0.00     0.049 A 
ATOM     39  H   UNL A   1      42.156  28.566  30.532  1.00  0.00     0.167 HD
ATOM     40  C   UNL A   1      42.225  24.636  28.529  1.00  0.00     0.031 A 
ATOM     41  C   UNL A   1      42.941  30.376  32.506  1.00  0.00     0.031 A 
ATOM     42  C   UNL A   1      43.392  24.648  29.365  1.00  0.00     0.049 A 
ATOM     43  C   UNL A   1      43.914  29.227  32.577  1.00  0.00     0.074 A 
ATOM     44  C   UNL A   1      44.388  23.696  29.472  1.00  0.00     0.029 A 
ATOM     45  N   UNL A   1      43.709  25.668  30.251  1.00  0.00    -0.354 N 
ATOM     46  N   UNL A   1      43.924  28.108  31.893  1.00  0.00    -0.248 NA
ATOM     47  C   UNL A   1      45.016  29.349  33.543  1.00  0.00     0.031 C 
ATOM     48  C   UNL A   1      45.283  24.117  30.463  1.00  0.00     0.029 A 
ATOM     49  C   UNL A   1      44.874  25.358  30.927  1.00  0.00     0.049 A 
ATOM     50  H   UNL A   1      43.182  26.491  30.378  1.00  0.00     0.167 HD
ATOM     51  C   UNL A   1      45.045  27.408  32.321  1.00  0.00     0.074 A 
ATOM     52  C   UNL A   1      45.692  28.229  33.324  1.00  0.00     0.031 C 
ATOM     53  C   UNL A   1      45.502  26.197  31.917  1.00  0.00     0.031 A 
BRANCH  40  54
ATOM     54  C   UNL A   1      41.936  23.427  27.686  1.00  0.00    -0.014 A 
ATOM     55  C   UNL A   1      41.158  22.363  28.172  1.00  0.00     0.009 A 
ATOM     56  C   UNL A   1      42.481  23.337  26.397  1.00  0.00     0.009 A 
ATOM     57  C   UNL A   1      40.977  21.213  27.402  1.00  0.00     0.001 A 
ATOM     58  C   UNL A   1      42.271  22.200  25.617  1.00  0.00     0.001 A 
ATOM     59  C   UNL A   1      41.532  21.132  26.125  1.00  0.00     0.000 A 
ENDBRANCH  40  54
BRANCH  41  60
ATOM     60  C   UNL A   1      43.071  31.545  33.413  1.00  0.00    -0.014 A 
ATOM     61  C   UNL A   1      43.855  32.649  33.045  1.00  0.00     0.009 A 
ATOM     62  C   UNL A   1      42.395  31.573  34.643  1.00  0.00     0.009 A 
ATOM     63  C   UNL A   1      43.967  33.752  33.896  1.00  0.00     0.001 A 
ATOM     64  C   UNL A   1      42.488  32.687  35.479  1.00  0.00     0.001 A 
ATOM     65  C   UNL A   1      43.278  33.773  35.108  1.00  0.00     0.000 A 
ENDBRANCH  41  60
BRANCH  53  66
ATOM     66  C   UNL A   1      46.788  25.702  32.517  1.00  0.00    -0.014 A 
ATOM     67  C   UNL A   1      48.031  26.029  31.956  1.00  0.00     0.009 A 
ATOM     68  C   UNL A   1      46.749  24.966  33.712  1.00  0.00     0.009 A 
ATOM     69  C   UNL A   1      49.213  25.610  32.573  1.00  0.00     0.001 A 
ATOM     70  C   UNL A   1      47.931  24.572  34.339  1.00  0.00     0.001 A 
ATOM     71  C   UNL A   1      49.161  24.889  33.766  1.00  0.00     0.000 A 
ENDBRANCH  53  66
ENDBRANCH  27  28
ENDBRANCH  20  22
ENDBRANCH  19  20
ENDBRANCH  18  19
ENDBRANCH  17  18
ENDBRANCH  16  17
ENDBRANCH   1  16
TORSDOF 17
ENDMDL
