MODEL 1
REMARK VINA RESULT:     -11.7      0.000      0.000
REMARK SMILES Cc1ccc(CN2/C(=[NH+]/C(=O)CCC(=O)OCCOCCOC(=O)c3ccc(-c4c5nc(c(-c6ccccc6)c6ccc([nH]6)c(-c6ccccc6)c6nc(c(-c7ccccc7)c7ccc4[nH]7)C=C6)C=C5)cc3)S[C@H]3CS(=O)(=O)C[C@@H]32)cc1
REMARK SMILES IDX 18 1 17 2 16 3 14 4 15 5 13 6 12 7 10 8 7 9 8 10 80 11 9 12
REMARK SMILES IDX 73 13 74 14 79 15 75 17 76 18 11 19 77 20 78 21 6 22 5 23
REMARK SMILES IDX 1 24 2 25 3 26 82 27 4 28 81 29 19 30 20 31 21 32 22 33
REMARK SMILES IDX 23 34 24 35 25 36 26 37 72 38 27 39 71 40 28 41 29 42 30 43
REMARK SMILES IDX 65 44 31 45 70 46 64 47 66 48 32 49 69 50 63 51 62 52 33 54
REMARK SMILES IDX 55 55 40 56 54 57 41 58 44 59 53 60 67 61 42 62 43 63 52 65
REMARK SMILES IDX 68 66 45 67 34 68 35 69 39 70 36 71 38 72 37 73 56 74 57 75
REMARK SMILES IDX 61 76 58 77 60 78 59 79 46 80 47 81 51 82 48 83 50 84 49 85
REMARK H PARENT 9 16 66 53 44 64
REMARK Flexibility Score: inf
ROOT
ATOM      1  C   UNL A   1      42.666  22.189  27.772  1.00  0.00     0.202 C 
ENDROOT
BRANCH   1   2
ATOM      2  C   UNL A   1      42.447  21.147  26.687  1.00  0.00     0.261 C 
BRANCH   2   3
ATOM      3  O   UNL A   1      41.410  21.469  25.791  1.00  0.00    -0.463 OA
BRANCH   3   4
ATOM      4  C   UNL A   1      40.324  20.688  25.994  1.00  0.00     0.306 C 
ATOM      5  O   UNL A   1      40.308  19.496  26.143  1.00  0.00    -0.252 OA
BRANCH   4   6
ATOM      6  C   UNL A   1      39.148  21.617  26.084  1.00  0.00     0.135 C 
BRANCH   6   7
ATOM      7  C   UNL A   1      38.066  21.288  25.019  1.00  0.00     0.139 C 
BRANCH   7   8
ATOM      8  C   UNL A   1      36.672  21.938  25.253  1.00  0.00     0.308 C 
ATOM      9  N   UNL A   1      33.146  22.133  23.976  1.00  0.00    -0.247 N 
ATOM     10  C   UNL A   1      34.541  22.319  24.296  1.00  0.00     0.314 C 
ATOM     11  C   UNL A   1      32.369  23.396  24.121  1.00  0.00     0.206 C 
ATOM     12  N   UNL A   1      35.519  21.493  24.544  1.00  0.00    -0.205 N 
ATOM     13  S   UNL A   1      34.794  24.124  24.426  1.00  0.00    -0.030 SA
ATOM     14  C   UNL A   1      33.154  24.252  25.122  1.00  0.00     0.120 C 
ATOM     15  C   UNL A   1      30.969  23.324  24.695  1.00  0.00     0.187 C 
ATOM     16  H   UNL A   1      35.461  20.558  24.239  1.00  0.00     0.316 HD
ATOM     17  C   UNL A   1      32.416  25.532  25.365  1.00  0.00     0.156 C 
ATOM     18  S   UNL A   1      30.706  24.976  25.352  1.00  0.00     0.155 S 
ATOM     19  O   UNL A   1      36.629  22.760  26.173  1.00  0.00    -0.247 OA
ATOM     20  O   UNL A   1      30.234  24.847  26.714  1.00  0.00    -0.229 OA
ATOM     21  O   UNL A   1      29.993  25.746  24.355  1.00  0.00    -0.229 OA
BRANCH   9  22
ATOM     22  C   UNL A   1      32.424  20.996  23.333  1.00  0.00     0.273 C 
BRANCH  22  23
ATOM     23  C   UNL A   1      32.609  19.618  23.992  1.00  0.00    -0.007 A 
ATOM     24  C   UNL A   1      32.857  15.409  25.228  1.00  0.00     0.044 C 
ATOM     25  C   UNL A   1      32.827  16.882  24.916  1.00  0.00    -0.051 A 
ATOM     26  C   UNL A   1      32.820  17.230  23.581  1.00  0.00     0.004 A 
ATOM     27  C   UNL A   1      32.705  17.930  25.821  1.00  0.00     0.004 A 
ATOM     28  C   UNL A   1      32.694  18.547  23.131  1.00  0.00     0.008 A 
ATOM     29  C   UNL A   1      32.603  19.287  25.365  1.00  0.00     0.008 A 
ENDBRANCH  22  23
ENDBRANCH   9  22
ENDBRANCH   7   8
ENDBRANCH   6   7
ENDBRANCH   4   6
ENDBRANCH   3   4
ENDBRANCH   2   3
ENDBRANCH   1   2
BRANCH   1  30
ATOM     30  O   UNL A   1      42.386  23.468  27.228  1.00  0.00    -0.374 OA
BRANCH  30  31
ATOM     31  C   UNL A   1      43.110  24.565  27.773  1.00  0.00     0.202 C 
BRANCH  31  32
ATOM     32  C   UNL A   1      42.280  25.678  28.440  1.00  0.00     0.261 C 
BRANCH  32  33
ATOM     33  O   UNL A   1      41.364  26.246  27.479  1.00  0.00    -0.460 OA
BRANCH  33  34
ATOM     34  C   UNL A   1      40.044  26.005  27.704  1.00  0.00     0.338 C 
ATOM     35  O   UNL A   1      39.431  25.016  27.333  1.00  0.00    -0.246 OA
BRANCH  34  36
ATOM     36  C   UNL A   1      39.379  27.275  28.139  1.00  0.00     0.060 A 
ATOM     37  C   UNL A   1      39.781  28.488  27.574  1.00  0.00     0.016 A 
ATOM     38  C   UNL A   1      38.721  27.295  29.364  1.00  0.00     0.016 A 
ATOM     39  C   UNL A   1      39.716  29.666  28.337  1.00  0.00     0.010 A 
ATOM     40  C   UNL A   1      38.852  28.422  30.170  1.00  0.00     0.010 A 
ATOM     41  C   UNL A   1      39.457  29.604  29.703  1.00  0.00    -0.014 A 
BRANCH  41  42
ATOM     42  C   UNL A   1      39.504  30.719  30.686  1.00  0.00     0.031 A 
ATOM     43  C   UNL A   1      40.538  30.506  31.745  1.00  0.00     0.074 A 
ATOM     44  C   UNL A   1      38.885  31.951  30.715  1.00  0.00     0.049 A 
ATOM     45  N   UNL A   1      40.559  31.106  32.891  1.00  0.00    -0.248 NA
ATOM     46  C   UNL A   1      41.598  29.502  31.609  1.00  0.00     0.031 C 
ATOM     47  C   UNL A   1      39.589  33.130  31.248  1.00  0.00     0.029 A 
ATOM     48  N   UNL A   1      37.667  32.537  30.310  1.00  0.00    -0.354 N 
ATOM     49  C   UNL A   1      41.827  30.908  33.385  1.00  0.00     0.074 A 
ATOM     50  C   UNL A   1      42.328  29.749  32.694  1.00  0.00     0.031 C 
ATOM     51  C   UNL A   1      38.749  34.161  31.378  1.00  0.00     0.029 A 
ATOM     52  C   UNL A   1      37.423  33.726  31.021  1.00  0.00     0.049 A 
ATOM     53  H   UNL A   1      37.068  32.164  29.623  1.00  0.00     0.167 HD
ATOM     54  C   UNL A   1      42.429  31.875  34.130  1.00  0.00     0.031 A 
ATOM     55  C   UNL A   1      36.268  34.237  31.549  1.00  0.00     0.031 A 
ATOM     56  C   UNL A   1      41.565  33.029  34.376  1.00  0.00     0.049 A 
ATOM     57  C   UNL A   1      36.361  34.450  33.024  1.00  0.00     0.074 A 
ATOM     58  C   UNL A   1      41.552  34.334  33.911  1.00  0.00     0.029 A 
ATOM     59  N   UNL A   1      40.357  32.851  35.028  1.00  0.00    -0.354 N 
ATOM     60  N   UNL A   1      37.487  34.601  33.639  1.00  0.00    -0.248 NA
ATOM     61  C   UNL A   1      35.227  34.271  33.939  1.00  0.00     0.031 C 
ATOM     62  C   UNL A   1      40.370  34.961  34.381  1.00  0.00     0.029 A 
ATOM     63  C   UNL A   1      39.657  34.037  35.122  1.00  0.00     0.049 A 
ATOM     64  H   UNL A   1      40.038  31.988  35.378  1.00  0.00     0.167 HD
ATOM     65  C   UNL A   1      37.297  34.261  34.943  1.00  0.00     0.074 A 
ATOM     66  C   UNL A   1      35.867  34.094  35.102  1.00  0.00     0.031 C 
ATOM     67  C   UNL A   1      38.354  34.037  35.766  1.00  0.00     0.031 A 
BRANCH  54  68
ATOM     68  C   UNL A   1      43.915  31.912  34.402  1.00  0.00    -0.014 A 
ATOM     69  C   UNL A   1      44.689  32.946  33.845  1.00  0.00     0.009 A 
ATOM     70  C   UNL A   1      44.622  30.969  35.167  1.00  0.00     0.009 A 
ATOM     71  C   UNL A   1      46.081  32.988  33.969  1.00  0.00     0.001 A 
ATOM     72  C   UNL A   1      46.019  30.981  35.268  1.00  0.00     0.001 A 
ATOM     73  C   UNL A   1      46.750  31.990  34.663  1.00  0.00     0.000 A 
ENDBRANCH  54  68
BRANCH  55  74
ATOM     74  C   UNL A   1      35.006  33.869  30.917  1.00  0.00    -0.014 A 
ATOM     75  C   UNL A   1      34.147  34.940  30.664  1.00  0.00     0.009 A 
ATOM     76  C   UNL A   1      34.892  32.654  30.233  1.00  0.00     0.009 A 
ATOM     77  C   UNL A   1      33.491  34.943  29.462  1.00  0.00     0.001 A 
ATOM     78  C   UNL A   1      34.159  32.632  29.079  1.00  0.00     0.001 A 
ATOM     79  C   UNL A   1      33.623  33.829  28.649  1.00  0.00     0.000 A 
ENDBRANCH  55  74
BRANCH  67  80
ATOM     80  C   UNL A   1      38.197  33.779  37.228  1.00  0.00    -0.014 A 
ATOM     81  C   UNL A   1      38.781  34.614  38.193  1.00  0.00     0.009 A 
ATOM     82  C   UNL A   1      37.580  32.603  37.688  1.00  0.00     0.009 A 
ATOM     83  C   UNL A   1      38.682  34.333  39.555  1.00  0.00     0.001 A 
ATOM     84  C   UNL A   1      37.510  32.298  39.046  1.00  0.00     0.001 A 
ATOM     85  C   UNL A   1      38.048  33.172  39.981  1.00  0.00     0.000 A 
ENDBRANCH  67  80
ENDBRANCH  41  42
ENDBRANCH  34  36
ENDBRANCH  33  34
ENDBRANCH  32  33
ENDBRANCH  31  32
ENDBRANCH  30  31
ENDBRANCH   1  30
TORSDOF 18
ENDMDL
MODEL 2
REMARK VINA RESULT:     -11.4      2.341      4.833
REMARK SMILES Cc1ccc(CN2/C(=[NH+]/C(=O)CCC(=O)OCCOCCOC(=O)c3ccc(-c4c5nc(c(-c6ccccc6)c6ccc([nH]6)c(-c6ccccc6)c6nc(c(-c7ccccc7)c7ccc4[nH]7)C=C6)C=C5)cc3)S[C@H]3CS(=O)(=O)C[C@@H]32)cc1
REMARK SMILES IDX 18 1 17 2 16 3 14 4 15 5 13 6 12 7 10 8 7 9 8 10 80 11 9 12
REMARK SMILES IDX 73 13 74 14 79 15 75 17 76 18 11 19 77 20 78 21 6 22 5 23
REMARK SMILES IDX 1 24 2 25 3 26 82 27 4 28 81 29 19 30 20 31 21 32 22 33
REMARK SMILES IDX 23 34 24 35 25 36 26 37 72 38 27 39 71 40 28 41 29 42 30 43
REMARK SMILES IDX 65 44 31 45 70 46 64 47 66 48 32 49 69 50 63 51 62 52 33 54
REMARK SMILES IDX 55 55 40 56 54 57 41 58 44 59 53 60 67 61 42 62 43 63 52 65
REMARK SMILES IDX 68 66 45 67 34 68 35 69 39 70 36 71 38 72 37 73 56 74 57 75
REMARK SMILES IDX 61 76 58 77 60 78 59 79 46 80 47 81 51 82 48 83 50 84 49 85
REMARK H PARENT 9 16 66 53 44 64
REMARK Flexibility Score: inf
ROOT
ATOM      1  C   UNL A   1      38.154  21.534  25.270  1.00  0.00     0.202 C 
ENDROOT
BRANCH   1   2
ATOM      2  C   UNL A   1      37.206  22.666  24.909  1.00  0.00     0.261 C 
BRANCH   2   3
ATOM      3  O   UNL A   1      35.934  22.230  24.491  1.00  0.00    -0.463 OA
BRANCH   3   4
ATOM      4  C   UNL A   1      35.320  23.166  23.730  1.00  0.00     0.306 C 
ATOM      5  O   UNL A   1      35.465  23.348  22.552  1.00  0.00    -0.252 OA
BRANCH   4   6
ATOM      6  C   UNL A   1      34.354  23.876  24.634  1.00  0.00     0.135 C 
BRANCH   6   7
ATOM      7  C   UNL A   1      32.881  23.488  24.326  1.00  0.00     0.139 C 
BRANCH   7   8
ATOM      8  C   UNL A   1      31.974  24.643  23.814  1.00  0.00     0.308 C 
ATOM      9  N   UNL A   1      31.419  28.356  23.911  1.00  0.00    -0.247 N 
ATOM     10  C   UNL A   1      31.417  26.925  24.102  1.00  0.00     0.314 C 
ATOM     11  C   UNL A   1      30.038  28.906  23.814  1.00  0.00     0.206 C 
ATOM     12  N   UNL A   1      32.337  26.008  23.999  1.00  0.00    -0.205 N 
ATOM     13  S   UNL A   1      29.686  26.467  24.469  1.00  0.00    -0.030 SA
ATOM     14  C   UNL A   1      29.161  27.743  23.336  1.00  0.00     0.120 C 
ATOM     15  C   UNL A   1      29.769  30.020  22.824  1.00  0.00     0.187 C 
ATOM     16  H   UNL A   1      33.288  26.259  24.051  1.00  0.00     0.316 HD
ATOM     17  C   UNL A   1      27.753  28.222  23.165  1.00  0.00     0.156 C 
ATOM     18  S   UNL A   1      28.006  29.876  22.507  1.00  0.00     0.155 S 
ATOM     19  O   UNL A   1      31.005  24.284  23.138  1.00  0.00    -0.247 OA
ATOM     20  O   UNL A   1      27.808  29.857  21.074  1.00  0.00    -0.229 OA
ATOM     21  O   UNL A   1      27.318  30.811  23.372  1.00  0.00    -0.229 OA
BRANCH   9  22
ATOM     22  C   UNL A   1      32.515  29.363  24.016  1.00  0.00     0.273 C 
BRANCH  22  23
ATOM     23  C   UNL A   1      33.375  29.297  25.289  1.00  0.00    -0.007 A 
ATOM     24  C   UNL A   1      35.693  29.847  28.982  1.00  0.00     0.044 C 
ATOM     25  C   UNL A   1      34.925  29.534  27.724  1.00  0.00    -0.051 A 
ATOM     26  C   UNL A   1      33.908  30.403  27.389  1.00  0.00     0.004 A 
ATOM     27  C   UNL A   1      35.191  28.522  26.808  1.00  0.00     0.004 A 
ATOM     28  C   UNL A   1      33.172  30.305  26.206  1.00  0.00     0.008 A 
ATOM     29  C   UNL A   1      34.420  28.400  25.605  1.00  0.00     0.008 A 
ENDBRANCH  22  23
ENDBRANCH   9  22
ENDBRANCH   7   8
ENDBRANCH   6   7
ENDBRANCH   4   6
ENDBRANCH   3   4
ENDBRANCH   2   3
ENDBRANCH   1   2
BRANCH   1  30
ATOM     30  O   UNL A   1      38.855  21.894  26.448  1.00  0.00    -0.374 OA
BRANCH  30  31
ATOM     31  C   UNL A   1      39.589  23.112  26.407  1.00  0.00     0.202 C 
BRANCH  31  32
ATOM     32  C   UNL A   1      39.373  24.089  27.578  1.00  0.00     0.261 C 
BRANCH  32  33
ATOM     33  O   UNL A   1      39.150  25.421  27.067  1.00  0.00    -0.460 OA
BRANCH  33  34
ATOM     34  C   UNL A   1      40.041  26.367  27.467  1.00  0.00     0.338 C 
ATOM     35  O   UNL A   1      41.242  26.197  27.606  1.00  0.00    -0.246 OA
BRANCH  34  36
ATOM     36  C   UNL A   1      39.297  27.525  28.059  1.00  0.00     0.060 A 
ATOM     37  C   UNL A   1      39.443  28.796  27.496  1.00  0.00     0.016 A 
ATOM     38  C   UNL A   1      38.845  27.425  29.371  1.00  0.00     0.016 A 
ATOM     39  C   UNL A   1      39.351  29.934  28.315  1.00  0.00     0.010 A 
ATOM     40  C   UNL A   1      38.958  28.538  30.199  1.00  0.00     0.010 A 
ATOM     41  C   UNL A   1      39.325  29.802  29.700  1.00  0.00    -0.014 A 
BRANCH  41  42
ATOM     42  C   UNL A   1      39.384  30.887  30.715  1.00  0.00     0.031 A 
ATOM     43  C   UNL A   1      40.411  30.628  31.771  1.00  0.00     0.074 A 
ATOM     44  C   UNL A   1      38.785  32.127  30.778  1.00  0.00     0.049 A 
ATOM     45  N   UNL A   1      40.436  31.194  32.934  1.00  0.00    -0.248 NA
ATOM     46  C   UNL A   1      41.456  29.612  31.610  1.00  0.00     0.031 C 
ATOM     47  C   UNL A   1      39.504  33.279  31.348  1.00  0.00     0.029 A 
ATOM     48  N   UNL A   1      37.577  32.744  30.385  1.00  0.00    -0.354 N 
ATOM     49  C   UNL A   1      41.699  30.962  33.427  1.00  0.00     0.074 A 
ATOM     50  C   UNL A   1      42.185  29.815  32.703  1.00  0.00     0.031 C 
ATOM     51  C   UNL A   1      38.680  34.319  31.504  1.00  0.00     0.029 A 
ATOM     52  C   UNL A   1      37.349  33.915  31.130  1.00  0.00     0.049 A 
ATOM     53  H   UNL A   1      36.975  32.400  29.686  1.00  0.00     0.167 HD
ATOM     54  C   UNL A   1      42.313  31.896  34.202  1.00  0.00     0.031 A 
ATOM     55  C   UNL A   1      36.199  34.428  31.669  1.00  0.00     0.031 A 
ATOM     56  C   UNL A   1      41.465  33.056  34.479  1.00  0.00     0.049 A 
ATOM     57  C   UNL A   1      36.290  34.597  33.150  1.00  0.00     0.074 A 
ATOM     58  C   UNL A   1      41.475  34.374  34.051  1.00  0.00     0.029 A 
ATOM     59  N   UNL A   1      40.253  32.878  35.120  1.00  0.00    -0.354 N 
ATOM     60  N   UNL A   1      37.415  34.712  33.773  1.00  0.00    -0.248 NA
ATOM     61  C   UNL A   1      35.149  34.409  34.055  1.00  0.00     0.031 C 
ATOM     62  C   UNL A   1      40.301  35.006  34.535  1.00  0.00     0.029 A 
ATOM     63  C   UNL A   1      39.570  34.072  35.247  1.00  0.00     0.049 A 
ATOM     64  H   UNL A   1      39.919  32.011  35.444  1.00  0.00     0.167 HD
ATOM     65  C   UNL A   1      37.215  34.337  35.066  1.00  0.00     0.074 A 
ATOM     66  C   UNL A   1      35.782  34.187  35.215  1.00  0.00     0.031 C 
ATOM     67  C   UNL A   1      38.265  34.073  35.886  1.00  0.00     0.031 A 
BRANCH  54  68
ATOM     68  C   UNL A   1      43.798  31.903  34.480  1.00  0.00    -0.014 A 
ATOM     69  C   UNL A   1      44.691  32.206  33.436  1.00  0.00     0.009 A 
ATOM     70  C   UNL A   1      44.391  31.604  35.718  1.00  0.00     0.009 A 
ATOM     71  C   UNL A   1      46.078  32.133  33.593  1.00  0.00     0.001 A 
ATOM     72  C   UNL A   1      45.778  31.493  35.878  1.00  0.00     0.001 A 
ATOM     73  C   UNL A   1      46.623  31.752  34.811  1.00  0.00     0.000 A 
ENDBRANCH  54  68
BRANCH  55  74
ATOM     74  C   UNL A   1      34.935  34.098  31.021  1.00  0.00    -0.014 A 
ATOM     75  C   UNL A   1      33.890  34.983  31.296  1.00  0.00     0.009 A 
ATOM     76  C   UNL A   1      34.918  33.263  29.900  1.00  0.00     0.009 A 
ATOM     77  C   UNL A   1      33.080  35.336  30.251  1.00  0.00     0.001 A 
ATOM     78  C   UNL A   1      34.041  33.558  28.892  1.00  0.00     0.001 A 
ATOM     79  C   UNL A   1      33.268  34.692  29.039  1.00  0.00     0.000 A 
ENDBRANCH  55  74
BRANCH  67  80
ATOM     80  C   UNL A   1      38.098  33.775  37.339  1.00  0.00    -0.014 A 
ATOM     81  C   UNL A   1      39.065  34.147  38.285  1.00  0.00     0.009 A 
ATOM     82  C   UNL A   1      37.032  32.978  37.791  1.00  0.00     0.009 A 
ATOM     83  C   UNL A   1      38.932  33.811  39.632  1.00  0.00     0.001 A 
ATOM     84  C   UNL A   1      36.914  32.609  39.130  1.00  0.00     0.001 A 
ATOM     85  C   UNL A   1      37.857  33.039  40.053  1.00  0.00     0.000 A 
ENDBRANCH  67  80
ENDBRANCH  41  42
ENDBRANCH  34  36
ENDBRANCH  33  34
ENDBRANCH  32  33
ENDBRANCH  31  32
ENDBRANCH  30  31
ENDBRANCH   1  30
TORSDOF 18
ENDMDL
MODEL 3
REMARK VINA RESULT:     -11.2      3.043      7.857
REMARK SMILES Cc1ccc(CN2/C(=[NH+]/C(=O)CCC(=O)OCCOCCOC(=O)c3ccc(-c4c5nc(c(-c6ccccc6)c6ccc([nH]6)c(-c6ccccc6)c6nc(c(-c7ccccc7)c7ccc4[nH]7)C=C6)C=C5)cc3)S[C@H]3CS(=O)(=O)C[C@@H]32)cc1
REMARK SMILES IDX 18 1 17 2 16 3 14 4 15 5 13 6 12 7 10 8 7 9 8 10 80 11 9 12
REMARK SMILES IDX 73 13 74 14 79 15 75 17 76 18 11 19 77 20 78 21 6 22 5 23
REMARK SMILES IDX 1 24 2 25 3 26 82 27 4 28 81 29 19 30 20 31 21 32 22 33
REMARK SMILES IDX 23 34 24 35 25 36 26 37 72 38 27 39 71 40 28 41 29 42 30 43
REMARK SMILES IDX 65 44 31 45 70 46 64 47 66 48 32 49 69 50 63 51 62 52 33 54
REMARK SMILES IDX 55 55 40 56 54 57 41 58 44 59 53 60 67 61 42 62 43 63 52 65
REMARK SMILES IDX 68 66 45 67 34 68 35 69 39 70 36 71 38 72 37 73 56 74 57 75
REMARK SMILES IDX 61 76 58 77 60 78 59 79 46 80 47 81 51 82 48 83 50 84 49 85
REMARK H PARENT 9 16 66 53 44 64
REMARK Flexibility Score: inf
ROOT
ATOM      1  C   UNL A   1      34.199  28.320  26.511  1.00  0.00     0.202 C 
ENDROOT
BRANCH   1   2
ATOM      2  C   UNL A   1      33.476  28.914  25.313  1.00  0.00     0.261 C 
BRANCH   2   3
ATOM      3  O   UNL A   1      32.075  28.783  25.372  1.00  0.00    -0.463 OA
BRANCH   3   4
ATOM      4  C   UNL A   1      31.523  28.849  24.138  1.00  0.00     0.306 C 
ATOM      5  O   UNL A   1      30.406  29.195  23.864  1.00  0.00    -0.252 OA
BRANCH   4   6
ATOM      6  C   UNL A   1      32.611  28.487  23.169  1.00  0.00     0.135 C 
BRANCH   6   7
ATOM      7  C   UNL A   1      32.164  27.372  22.184  1.00  0.00     0.139 C 
BRANCH   7   8
ATOM      8  C   UNL A   1      32.201  25.923  22.748  1.00  0.00     0.308 C 
ATOM      9  N   UNL A   1      34.243  23.474  24.731  1.00  0.00    -0.247 N 
ATOM     10  C   UNL A   1      33.588  24.271  23.722  1.00  0.00     0.314 C 
ATOM     11  C   UNL A   1      34.161  22.017  24.429  1.00  0.00     0.206 C 
ATOM     12  N   UNL A   1      33.200  25.515  23.678  1.00  0.00    -0.205 N 
ATOM     13  S   UNL A   1      33.227  23.135  22.336  1.00  0.00    -0.030 SA
ATOM     14  C   UNL A   1      32.926  21.848  23.536  1.00  0.00     0.120 C 
ATOM     15  C   UNL A   1      33.941  21.051  25.574  1.00  0.00     0.187 C 
ATOM     16  H   UNL A   1      33.598  26.176  24.290  1.00  0.00     0.316 HD
ATOM     17  C   UNL A   1      32.739  20.397  23.219  1.00  0.00     0.156 C 
ATOM     18  S   UNL A   1      33.206  19.620  24.772  1.00  0.00     0.155 S 
ATOM     19  O   UNL A   1      31.241  25.215  22.428  1.00  0.00    -0.247 OA
ATOM     20  O   UNL A   1      32.012  19.258  25.504  1.00  0.00    -0.229 OA
ATOM     21  O   UNL A   1      34.263  18.670  24.496  1.00  0.00    -0.229 OA
BRANCH   9  22
ATOM     22  C   UNL A   1      35.144  23.855  25.859  1.00  0.00     0.273 C 
BRANCH  22  23
ATOM     23  C   UNL A   1      36.518  23.167  25.889  1.00  0.00    -0.007 A 
ATOM     24  C   UNL A   1      40.721  21.897  26.085  1.00  0.00     0.044 C 
ATOM     25  C   UNL A   1      39.249  22.208  26.007  1.00  0.00    -0.051 A 
ATOM     26  C   UNL A   1      38.834  23.382  26.600  1.00  0.00     0.004 A 
ATOM     27  C   UNL A   1      38.275  21.495  25.318  1.00  0.00     0.004 A 
ATOM     28  C   UNL A   1      37.524  23.859  26.528  1.00  0.00     0.008 A 
ATOM     29  C   UNL A   1      36.920  21.966  25.264  1.00  0.00     0.008 A 
ENDBRANCH  22  23
ENDBRANCH   9  22
ENDBRANCH   7   8
ENDBRANCH   6   7
ENDBRANCH   4   6
ENDBRANCH   3   4
ENDBRANCH   2   3
ENDBRANCH   1   2
BRANCH   1  30
ATOM     30  O   UNL A   1      33.971  29.157  27.633  1.00  0.00    -0.374 OA
BRANCH  30  31
ATOM     31  C   UNL A   1      34.456  30.492  27.541  1.00  0.00     0.202 C 
BRANCH  31  32
ATOM     32  C   UNL A   1      33.403  31.615  27.595  1.00  0.00     0.261 C 
BRANCH  32  33
ATOM     33  O   UNL A   1      34.060  32.894  27.721  1.00  0.00    -0.460 OA
BRANCH  33  34
ATOM     34  C   UNL A   1      33.771  33.602  28.846  1.00  0.00     0.338 C 
ATOM     35  O   UNL A   1      32.800  34.327  28.999  1.00  0.00    -0.246 OA
BRANCH  34  36
ATOM     36  C   UNL A   1      34.987  33.655  29.719  1.00  0.00     0.060 A 
ATOM     37  C   UNL A   1      36.140  34.292  29.253  1.00  0.00     0.016 A 
ATOM     38  C   UNL A   1      35.109  32.727  30.749  1.00  0.00     0.016 A 
ATOM     39  C   UNL A   1      37.403  33.834  29.664  1.00  0.00     0.010 A 
ATOM     40  C   UNL A   1      36.356  32.158  30.986  1.00  0.00     0.010 A 
ATOM     41  C   UNL A   1      37.523  32.634  30.358  1.00  0.00    -0.014 A 
BRANCH  41  42
ATOM     42  C   UNL A   1      38.775  31.925  30.734  1.00  0.00     0.031 A 
ATOM     43  C   UNL A   1      38.929  30.619  30.022  1.00  0.00     0.074 A 
ATOM     44  C   UNL A   1      39.863  32.309  31.488  1.00  0.00     0.049 A 
ATOM     45  N   UNL A   1      39.704  29.655  30.401  1.00  0.00    -0.248 NA
ATOM     46  C   UNL A   1      38.123  30.272  28.847  1.00  0.00     0.031 C 
ATOM     47  C   UNL A   1      41.221  31.873  31.120  1.00  0.00     0.029 A 
ATOM     48  N   UNL A   1      40.146  33.121  32.607  1.00  0.00    -0.354 N 
ATOM     49  C   UNL A   1      39.821  28.828  29.309  1.00  0.00     0.074 A 
ATOM     50  C   UNL A   1      38.673  29.114  28.489  1.00  0.00     0.031 C 
ATOM     51  C   UNL A   1      42.092  32.176  32.087  1.00  0.00     0.029 A 
ATOM     52  C   UNL A   1      41.373  32.758  33.192  1.00  0.00     0.049 A 
ATOM     53  H   UNL A   1      39.563  33.843  32.936  1.00  0.00     0.167 HD
ATOM     54  C   UNL A   1      40.990  28.172  29.070  1.00  0.00     0.031 A 
ATOM     55  C   UNL A   1      41.748  32.655  34.505  1.00  0.00     0.031 A 
ATOM     56  C   UNL A   1      41.994  28.397  30.109  1.00  0.00     0.049 A 
ATOM     57  C   UNL A   1      42.215  31.282  34.859  1.00  0.00     0.074 A 
ATOM     58  C   UNL A   1      43.181  29.112  30.157  1.00  0.00     0.029 A 
ATOM     59  N   UNL A   1      41.713  28.049  31.418  1.00  0.00    -0.354 N 
ATOM     60  N   UNL A   1      42.665  30.448  33.981  1.00  0.00    -0.248 NA
ATOM     61  C   UNL A   1      41.989  30.666  36.172  1.00  0.00     0.031 C 
ATOM     62  C   UNL A   1      43.655  29.095  31.494  1.00  0.00     0.029 A 
ATOM     63  C   UNL A   1      42.753  28.382  32.263  1.00  0.00     0.049 A 
ATOM     64  H   UNL A   1      40.877  27.619  31.709  1.00  0.00     0.167 HD
ATOM     65  C   UNL A   1      42.517  29.193  34.485  1.00  0.00     0.074 A 
ATOM     66  C   UNL A   1      42.124  29.368  35.868  1.00  0.00     0.031 C 
ATOM     67  C   UNL A   1      42.626  28.102  33.683  1.00  0.00     0.031 A 
BRANCH  54  68
ATOM     68  C   UNL A   1      41.338  27.549  27.739  1.00  0.00    -0.014 A 
ATOM     69  C   UNL A   1      41.163  26.164  27.563  1.00  0.00     0.009 A 
ATOM     70  C   UNL A   1      41.854  28.241  26.631  1.00  0.00     0.009 A 
ATOM     71  C   UNL A   1      41.557  25.503  26.395  1.00  0.00     0.001 A 
ATOM     72  C   UNL A   1      42.285  27.585  25.471  1.00  0.00     0.001 A 
ATOM     73  C   UNL A   1      42.142  26.212  25.356  1.00  0.00     0.000 A 
ENDBRANCH  54  68
BRANCH  55  74
ATOM     74  C   UNL A   1      41.060  33.494  35.479  1.00  0.00    -0.014 A 
ATOM     75  C   UNL A   1      41.559  34.794  35.585  1.00  0.00     0.009 A 
ATOM     76  C   UNL A   1      39.768  33.164  35.902  1.00  0.00     0.009 A 
ATOM     77  C   UNL A   1      40.645  35.807  35.694  1.00  0.00     0.001 A 
ATOM     78  C   UNL A   1      38.877  34.182  36.102  1.00  0.00     0.001 A 
ATOM     79  C   UNL A   1      39.309  35.463  35.825  1.00  0.00     0.000 A 
ENDBRANCH  55  74
BRANCH  67  80
ATOM     80  C   UNL A   1      42.589  26.706  34.211  1.00  0.00    -0.014 A 
ATOM     81  C   UNL A   1      41.558  26.262  35.054  1.00  0.00     0.009 A 
ATOM     82  C   UNL A   1      43.667  25.830  34.000  1.00  0.00     0.009 A 
ATOM     83  C   UNL A   1      41.563  24.976  35.593  1.00  0.00     0.001 A 
ATOM     84  C   UNL A   1      43.694  24.557  34.567  1.00  0.00     0.001 A 
ATOM     85  C   UNL A   1      42.634  24.125  35.351  1.00  0.00     0.000 A 
ENDBRANCH  67  80
ENDBRANCH  41  42
ENDBRANCH  34  36
ENDBRANCH  33  34
ENDBRANCH  32  33
ENDBRANCH  31  32
ENDBRANCH  30  31
ENDBRANCH   1  30
TORSDOF 18
ENDMDL
