MODEL 1
REMARK VINA RESULT:     -11.7      0.000      0.000
REMARK SMILES Cc1cccc(-c2ncc(C[NH+]3CCC4(CC3)NC(=O)C[C@H]4C(=O)OCCOCCOC(=O)c3ccc(-c4c5nc(c(-c6ccccc6)c6ccc([nH]6)c(-c6ccccc6)c6nc(c(-c7ccccc7)c7ccc4[nH]7)C=C6)C=C5)cc3)cn2)c1
REMARK SMILES IDX 27 1 26 2 25 3 23 4 24 5 22 6 12 7 13 8 17 9 14 11 16 12
REMARK SMILES IDX 15 13 18 14 19 15 21 17 20 18 11 19 10 20 7 21 8 22 83 23
REMARK SMILES IDX 9 24 82 25 6 26 1 27 2 28 3 29 84 30 4 31 5 32 28 33 29 34
REMARK SMILES IDX 30 35 31 36 32 37 33 38 34 39 35 40 81 41 36 42 80 43 37 44
REMARK SMILES IDX 38 45 39 46 74 47 40 48 79 49 73 50 75 51 41 52 78 53 72 54
REMARK SMILES IDX 71 55 42 57 64 58 49 59 63 60 50 61 53 62 62 63 76 64 51 65
REMARK SMILES IDX 52 66 61 68 77 69 54 70 43 71 44 72 48 73 45 74 47 75 46 76
REMARK SMILES IDX 65 77 66 78 70 79 67 80 69 81 68 82 55 83 56 84 60 85 57 86
REMARK SMILES IDX 59 87 58 88
REMARK H PARENT 12 10 18 16 75 56 53 67
REMARK Flexibility Score: inf
ROOT
ATOM      1  C   UNL A   1      31.638  24.108  26.690  1.00  0.00     0.202 C 
ENDROOT
BRANCH   1   2
ATOM      2  C   UNL A   1      31.422  24.307  25.214  1.00  0.00     0.261 C 
BRANCH   2   3
ATOM      3  O   UNL A   1      30.504  25.327  24.734  1.00  0.00    -0.463 OA
BRANCH   3   4
ATOM      4  C   UNL A   1      30.898  26.309  23.876  1.00  0.00     0.311 C 
ATOM      5  O   UNL A   1      31.501  26.132  22.829  1.00  0.00    -0.252 OA
BRANCH   4   6
ATOM      6  C   UNL A   1      30.434  27.695  24.367  1.00  0.00     0.134 C 
ATOM      7  N   UNL A   1      33.485  28.478  26.931  1.00  0.00    -0.331 N 
ATOM      8  C   UNL A   1      32.280  29.311  27.044  1.00  0.00     0.264 C 
ATOM      9  C   UNL A   1      33.264  27.438  25.950  1.00  0.00     0.264 C 
ATOM     10  H   UNL A   1      33.571  28.105  27.876  1.00  0.00     0.348 HD
ATOM     11  C   UNL A   1      31.514  29.712  25.747  1.00  0.00     0.091 C 
ATOM     12  C   UNL A   1      32.950  28.099  24.625  1.00  0.00     0.091 C 
ATOM     13  C   UNL A   1      31.582  28.718  24.553  1.00  0.00     0.064 C 
ATOM     14  N   UNL A   1      31.507  29.492  23.324  1.00  0.00    -0.349 N 
ATOM     15  C   UNL A   1      30.401  29.246  22.546  1.00  0.00     0.221 C 
ATOM     16  H   UNL A   1      32.198  30.145  23.068  1.00  0.00     0.164 HD
ATOM     17  C   UNL A   1      29.497  28.330  23.328  1.00  0.00     0.117 C 
ATOM     18  O   UNL A   1      30.192  29.734  21.464  1.00  0.00    -0.275 OA
BRANCH   7  19
ATOM     19  C   UNL A   1      34.848  29.081  26.876  1.00  0.00     0.302 C 
BRANCH  19  20
ATOM     20  C   UNL A   1      35.122  30.319  27.713  1.00  0.00     0.043 A 
ATOM     21  C   UNL A   1      34.928  32.218  29.675  1.00  0.00     0.159 A 
ATOM     22  N   UNL A   1      35.700  31.134  29.907  1.00  0.00    -0.236 NA
ATOM     23  N   UNL A   1      34.336  32.485  28.494  1.00  0.00    -0.236 NA
ATOM     24  C   UNL A   1      35.805  30.227  28.909  1.00  0.00     0.124 A 
ATOM     25  C   UNL A   1      34.461  31.533  27.531  1.00  0.00     0.124 A 
BRANCH  21  26
ATOM     26  C   UNL A   1      34.700  33.117  30.819  1.00  0.00     0.019 A 
ATOM     27  C   UNL A   1      33.370  36.653  31.566  1.00  0.00     0.044 C 
ATOM     28  C   UNL A   1      33.900  35.258  31.750  1.00  0.00    -0.050 A 
ATOM     29  C   UNL A   1      33.989  34.722  33.037  1.00  0.00     0.003 A 
ATOM     30  C   UNL A   1      34.266  34.453  30.655  1.00  0.00     0.015 A 
ATOM     31  C   UNL A   1      34.458  33.423  33.225  1.00  0.00     0.001 A 
ATOM     32  C   UNL A   1      34.817  32.633  32.127  1.00  0.00     0.012 A 
ENDBRANCH  21  26
ENDBRANCH  19  20
ENDBRANCH   7  19
ENDBRANCH   4   6
ENDBRANCH   3   4
ENDBRANCH   2   3
ENDBRANCH   1   2
BRANCH   1  33
ATOM     33  O   UNL A   1      32.892  23.473  26.850  1.00  0.00    -0.374 OA
BRANCH  33  34
ATOM     34  C   UNL A   1      33.921  23.761  25.916  1.00  0.00     0.202 C 
BRANCH  34  35
ATOM     35  C   UNL A   1      35.232  22.961  26.030  1.00  0.00     0.261 C 
BRANCH  35  36
ATOM     36  O   UNL A   1      36.321  23.817  26.443  1.00  0.00    -0.460 OA
BRANCH  36  37
ATOM     37  C   UNL A   1      37.402  23.876  25.618  1.00  0.00     0.338 C 
ATOM     38  O   UNL A   1      37.423  23.506  24.456  1.00  0.00    -0.246 OA
BRANCH  37  39
ATOM     39  C   UNL A   1      38.627  24.141  26.434  1.00  0.00     0.060 A 
ATOM     40  C   UNL A   1      38.540  24.215  27.836  1.00  0.00     0.016 A 
ATOM     41  C   UNL A   1      39.704  24.721  25.778  1.00  0.00     0.016 A 
ATOM     42  C   UNL A   1      39.438  25.023  28.552  1.00  0.00     0.010 A 
ATOM     43  C   UNL A   1      40.437  25.664  26.456  1.00  0.00     0.010 A 
ATOM     44  C   UNL A   1      40.325  25.826  27.847  1.00  0.00    -0.014 A 
BRANCH  44  45
ATOM     45  C   UNL A   1      41.165  26.905  28.382  1.00  0.00     0.031 A 
ATOM     46  C   UNL A   1      40.490  28.203  28.592  1.00  0.00     0.074 A 
ATOM     47  C   UNL A   1      42.408  26.709  28.900  1.00  0.00     0.049 A 
ATOM     48  N   UNL A   1      41.125  29.291  28.821  1.00  0.00    -0.248 NA
ATOM     49  C   UNL A   1      39.042  28.412  28.521  1.00  0.00     0.031 C 
ATOM     50  C   UNL A   1      43.180  27.551  29.819  1.00  0.00     0.029 A 
ATOM     51  N   UNL A   1      43.300  25.659  28.663  1.00  0.00    -0.354 N 
ATOM     52  C   UNL A   1      40.222  30.200  29.303  1.00  0.00     0.074 A 
ATOM     53  C   UNL A   1      38.931  29.663  28.965  1.00  0.00     0.031 C 
ATOM     54  C   UNL A   1      44.474  27.172  29.792  1.00  0.00     0.029 A 
ATOM     55  C   UNL A   1      44.605  26.147  28.770  1.00  0.00     0.049 A 
ATOM     56  H   UNL A   1      43.050  24.730  28.454  1.00  0.00     0.167 HD
ATOM     57  C   UNL A   1      40.702  31.226  30.056  1.00  0.00     0.031 A 
ATOM     58  C   UNL A   1      45.411  26.098  27.679  1.00  0.00     0.031 A 
ATOM     59  C   UNL A   1      42.184  31.246  30.034  1.00  0.00     0.049 A 
ATOM     60  C   UNL A   1      45.655  27.512  27.224  1.00  0.00     0.074 A 
ATOM     61  C   UNL A   1      43.186  31.037  30.967  1.00  0.00     0.029 A 
ATOM     62  N   UNL A   1      42.823  31.162  28.793  1.00  0.00    -0.354 N 
ATOM     63  N   UNL A   1      45.067  28.541  27.775  1.00  0.00    -0.248 NA
ATOM     64  C   UNL A   1      46.539  27.912  26.144  1.00  0.00     0.031 C 
ATOM     65  C   UNL A   1      44.418  30.811  30.259  1.00  0.00     0.029 A 
ATOM     66  C   UNL A   1      44.180  30.924  28.898  1.00  0.00     0.049 A 
ATOM     67  H   UNL A   1      42.354  31.265  27.933  1.00  0.00     0.167 HD
ATOM     68  C   UNL A   1      45.467  29.704  27.208  1.00  0.00     0.074 A 
ATOM     69  C   UNL A   1      46.360  29.248  26.146  1.00  0.00     0.031 C 
ATOM     70  C   UNL A   1      45.000  30.907  27.672  1.00  0.00     0.031 A 
BRANCH  57  71
ATOM     71  C   UNL A   1      39.827  32.088  30.943  1.00  0.00    -0.014 A 
ATOM     72  C   UNL A   1      39.058  33.116  30.375  1.00  0.00     0.009 A 
ATOM     73  C   UNL A   1      39.743  31.985  32.348  1.00  0.00     0.009 A 
ATOM     74  C   UNL A   1      38.270  33.979  31.157  1.00  0.00     0.001 A 
ATOM     75  C   UNL A   1      38.956  32.836  33.138  1.00  0.00     0.001 A 
ATOM     76  C   UNL A   1      38.218  33.839  32.539  1.00  0.00     0.000 A 
ENDBRANCH  57  71
BRANCH  58  77
ATOM     77  C   UNL A   1      45.173  24.835  26.890  1.00  0.00    -0.014 A 
ATOM     78  C   UNL A   1      44.167  24.884  25.891  1.00  0.00     0.009 A 
ATOM     79  C   UNL A   1      46.167  23.854  26.746  1.00  0.00     0.009 A 
ATOM     80  C   UNL A   1      44.233  24.093  24.733  1.00  0.00     0.001 A 
ATOM     81  C   UNL A   1      46.226  23.057  25.584  1.00  0.00     0.001 A 
ATOM     82  C   UNL A   1      45.289  23.206  24.562  1.00  0.00     0.000 A 
ENDBRANCH  58  77
BRANCH  70  83
ATOM     83  C   UNL A   1      45.203  32.217  26.952  1.00  0.00    -0.014 A 
ATOM     84  C   UNL A   1      46.330  33.028  27.087  1.00  0.00     0.009 A 
ATOM     85  C   UNL A   1      44.208  32.678  26.061  1.00  0.00     0.009 A 
ATOM     86  C   UNL A   1      46.527  34.140  26.261  1.00  0.00     0.001 A 
ATOM     87  C   UNL A   1      44.385  33.794  25.248  1.00  0.00     0.001 A 
ATOM     88  C   UNL A   1      45.566  34.508  25.326  1.00  0.00     0.000 A 
ENDBRANCH  70  83
ENDBRANCH  44  45
ENDBRANCH  37  39
ENDBRANCH  36  37
ENDBRANCH  35  36
ENDBRANCH  34  35
ENDBRANCH  33  34
ENDBRANCH   1  33
TORSDOF 17
ENDMDL
MODEL 2
REMARK VINA RESULT:     -11.7      3.021      9.101
REMARK SMILES Cc1cccc(-c2ncc(C[NH+]3CCC4(CC3)NC(=O)C[C@H]4C(=O)OCCOCCOC(=O)c3ccc(-c4c5nc(c(-c6ccccc6)c6ccc([nH]6)c(-c6ccccc6)c6nc(c(-c7ccccc7)c7ccc4[nH]7)C=C6)C=C5)cc3)cn2)c1
REMARK SMILES IDX 27 1 26 2 25 3 23 4 24 5 22 6 12 7 13 8 17 9 14 11 16 12
REMARK SMILES IDX 15 13 18 14 19 15 21 17 20 18 11 19 10 20 7 21 8 22 83 23
REMARK SMILES IDX 9 24 82 25 6 26 1 27 2 28 3 29 84 30 4 31 5 32 28 33 29 34
REMARK SMILES IDX 30 35 31 36 32 37 33 38 34 39 35 40 81 41 36 42 80 43 37 44
REMARK SMILES IDX 38 45 39 46 74 47 40 48 79 49 73 50 75 51 41 52 78 53 72 54
REMARK SMILES IDX 71 55 42 57 64 58 49 59 63 60 50 61 53 62 62 63 76 64 51 65
REMARK SMILES IDX 52 66 61 68 77 69 54 70 43 71 44 72 48 73 45 74 47 75 46 76
REMARK SMILES IDX 65 77 66 78 70 79 67 80 69 81 68 82 55 83 56 84 60 85 57 86
REMARK SMILES IDX 59 87 58 88
REMARK H PARENT 12 10 18 16 75 56 53 67
REMARK Flexibility Score: inf
ROOT
ATOM      1  C   UNL A   1      32.046  28.976  23.290  1.00  0.00     0.202 C 
ENDROOT
BRANCH   1   2
ATOM      2  C   UNL A   1      31.635  27.540  23.105  1.00  0.00     0.261 C 
BRANCH   2   3
ATOM      3  O   UNL A   1      32.442  26.465  23.659  1.00  0.00    -0.463 OA
BRANCH   3   4
ATOM      4  C   UNL A   1      32.715  25.329  22.957  1.00  0.00     0.311 C 
ATOM      5  O   UNL A   1      33.495  25.248  22.022  1.00  0.00    -0.252 OA
BRANCH   4   6
ATOM      6  C   UNL A   1      31.944  24.124  23.530  1.00  0.00     0.134 C 
ATOM      7  N   UNL A   1      35.119  21.883  24.713  1.00  0.00    -0.331 N 
ATOM      8  C   UNL A   1      33.814  21.212  24.632  1.00  0.00     0.264 C 
ATOM      9  C   UNL A   1      34.996  23.240  24.224  1.00  0.00     0.264 C 
ATOM     10  H   UNL A   1      35.691  21.303  24.101  1.00  0.00     0.348 HD
ATOM     11  C   UNL A   1      32.532  21.999  25.040  1.00  0.00     0.091 C 
ATOM     12  C   UNL A   1      33.976  23.958  25.081  1.00  0.00     0.091 C 
ATOM     13  C   UNL A   1      32.553  23.540  24.829  1.00  0.00     0.064 C 
ATOM     14  N   UNL A   1      31.721  24.143  25.858  1.00  0.00    -0.349 N 
ATOM     15  C   UNL A   1      30.612  24.808  25.395  1.00  0.00     0.221 C 
ATOM     16  H   UNL A   1      31.938  24.079  26.816  1.00  0.00     0.164 HD
ATOM     17  C   UNL A   1      30.518  24.550  23.915  1.00  0.00     0.117 C 
ATOM     18  O   UNL A   1      29.839  25.427  26.082  1.00  0.00    -0.275 OA
BRANCH   7  19
ATOM     19  C   UNL A   1      35.991  21.751  25.916  1.00  0.00     0.302 C 
BRANCH  19  20
ATOM     20  C   UNL A   1      37.446  22.171  25.800  1.00  0.00     0.043 A 
ATOM     21  C   UNL A   1      40.090  22.553  26.397  1.00  0.00     0.159 A 
ATOM     22  N   UNL A   1      39.731  21.402  25.790  1.00  0.00    -0.236 NA
ATOM     23  N   UNL A   1      39.248  23.581  26.628  1.00  0.00    -0.236 NA
ATOM     24  C   UNL A   1      38.424  21.252  25.476  1.00  0.00     0.124 A 
ATOM     25  C   UNL A   1      37.943  23.370  26.307  1.00  0.00     0.124 A 
BRANCH  21  26
ATOM     26  C   UNL A   1      41.482  22.639  26.869  1.00  0.00     0.019 A 
ATOM     27  C   UNL A   1      43.460  23.211  30.124  1.00  0.00     0.044 C 
ATOM     28  C   UNL A   1      43.128  22.913  28.688  1.00  0.00    -0.050 A 
ATOM     29  C   UNL A   1      44.144  22.508  27.819  1.00  0.00     0.003 A 
ATOM     30  C   UNL A   1      41.809  22.984  28.202  1.00  0.00     0.015 A 
ATOM     31  C   UNL A   1      43.851  22.208  26.490  1.00  0.00     0.001 A 
ATOM     32  C   UNL A   1      42.535  22.280  26.020  1.00  0.00     0.012 A 
ENDBRANCH  21  26
ENDBRANCH  19  20
ENDBRANCH   7  19
ENDBRANCH   4   6
ENDBRANCH   3   4
ENDBRANCH   2   3
ENDBRANCH   1   2
BRANCH   1  33
ATOM     33  O   UNL A   1      31.860  29.295  24.656  1.00  0.00    -0.374 OA
BRANCH  33  34
ATOM     34  C   UNL A   1      33.002  29.606  25.440  1.00  0.00     0.202 C 
BRANCH  34  35
ATOM     35  C   UNL A   1      32.948  30.880  26.304  1.00  0.00     0.261 C 
BRANCH  35  36
ATOM     36  O   UNL A   1      33.557  30.650  27.595  1.00  0.00    -0.460 OA
BRANCH  36  37
ATOM     37  C   UNL A   1      34.762  31.243  27.819  1.00  0.00     0.338 C 
ATOM     38  O   UNL A   1      35.054  32.386  27.510  1.00  0.00    -0.246 OA
BRANCH  37  39
ATOM     39  C   UNL A   1      35.762  30.194  28.185  1.00  0.00     0.060 A 
ATOM     40  C   UNL A   1      35.825  29.705  29.503  1.00  0.00     0.016 A 
ATOM     41  C   UNL A   1      36.858  30.051  27.344  1.00  0.00     0.016 A 
ATOM     42  C   UNL A   1      37.044  29.239  30.021  1.00  0.00     0.010 A 
ATOM     43  C   UNL A   1      38.079  29.794  27.917  1.00  0.00     0.010 A 
ATOM     44  C   UNL A   1      38.194  29.379  29.254  1.00  0.00    -0.014 A 
BRANCH  44  45
ATOM     45  C   UNL A   1      39.582  29.187  29.692  1.00  0.00     0.031 A 
ATOM     46  C   UNL A   1      40.300  28.050  29.080  1.00  0.00     0.074 A 
ATOM     47  C   UNL A   1      40.282  30.106  30.412  1.00  0.00     0.049 A 
ATOM     48  N   UNL A   1      41.416  27.608  29.524  1.00  0.00    -0.248 NA
ATOM     49  C   UNL A   1      39.811  27.272  27.939  1.00  0.00     0.031 C 
ATOM     50  C   UNL A   1      41.731  30.265  30.565  1.00  0.00     0.029 A 
ATOM     51  N   UNL A   1      39.798  31.131  31.230  1.00  0.00    -0.354 N 
ATOM     52  C   UNL A   1      41.960  26.812  28.551  1.00  0.00     0.074 A 
ATOM     53  C   UNL A   1      40.873  26.518  27.656  1.00  0.00     0.031 C 
ATOM     54  C   UNL A   1      41.984  31.058  31.627  1.00  0.00     0.029 A 
ATOM     55  C   UNL A   1      40.711  31.347  32.266  1.00  0.00     0.049 A 
ATOM     56  H   UNL A   1      38.953  31.619  31.099  1.00  0.00     0.167 HD
ATOM     57  C   UNL A   1      43.307  26.629  28.567  1.00  0.00     0.031 A 
ATOM     58  C   UNL A   1      40.307  31.139  33.545  1.00  0.00     0.031 A 
ATOM     59  C   UNL A   1      43.901  27.200  29.799  1.00  0.00     0.049 A 
ATOM     60  C   UNL A   1      41.046  29.936  34.070  1.00  0.00     0.074 A 
ATOM     61  C   UNL A   1      44.759  28.248  30.085  1.00  0.00     0.029 A 
ATOM     62  N   UNL A   1      43.312  26.872  31.024  1.00  0.00    -0.354 N 
ATOM     63  N   UNL A   1      41.839  29.215  33.323  1.00  0.00    -0.248 NA
ATOM     64  C   UNL A   1      40.976  29.429  35.428  1.00  0.00     0.031 C 
ATOM     65  C   UNL A   1      44.654  28.545  31.489  1.00  0.00     0.029 A 
ATOM     66  C   UNL A   1      43.766  27.654  32.069  1.00  0.00     0.049 A 
ATOM     67  H   UNL A   1      42.643  26.157  31.131  1.00  0.00     0.167 HD
ATOM     68  C   UNL A   1      42.403  28.207  34.029  1.00  0.00     0.074 A 
ATOM     69  C   UNL A   1      41.785  28.354  35.344  1.00  0.00     0.031 C 
ATOM     70  C   UNL A   1      43.303  27.357  33.439  1.00  0.00     0.031 A 
BRANCH  57  71
ATOM     71  C   UNL A   1      44.089  26.091  27.385  1.00  0.00    -0.014 A 
ATOM     72  C   UNL A   1      45.447  25.770  27.537  1.00  0.00     0.009 A 
ATOM     73  C   UNL A   1      43.575  25.921  26.082  1.00  0.00     0.009 A 
ATOM     74  C   UNL A   1      46.231  25.319  26.460  1.00  0.00     0.001 A 
ATOM     75  C   UNL A   1      44.346  25.467  25.003  1.00  0.00     0.001 A 
ATOM     76  C   UNL A   1      45.682  25.166  25.193  1.00  0.00     0.000 A 
ENDBRANCH  57  71
BRANCH  58  77
ATOM     77  C   UNL A   1      38.877  31.580  33.736  1.00  0.00    -0.014 A 
ATOM     78  C   UNL A   1      38.632  32.977  33.731  1.00  0.00     0.009 A 
ATOM     79  C   UNL A   1      37.796  30.742  33.419  1.00  0.00     0.009 A 
ATOM     80  C   UNL A   1      37.411  33.514  33.291  1.00  0.00     0.001 A 
ATOM     81  C   UNL A   1      36.569  31.285  32.984  1.00  0.00     0.001 A 
ATOM     82  C   UNL A   1      36.392  32.665  32.878  1.00  0.00     0.000 A 
ENDBRANCH  58  77
BRANCH  70  83
ATOM     83  C   UNL A   1      43.789  26.078  34.076  1.00  0.00    -0.014 A 
ATOM     84  C   UNL A   1      43.018  25.264  34.904  1.00  0.00     0.009 A 
ATOM     85  C   UNL A   1      45.109  25.638  33.824  1.00  0.00     0.009 A 
ATOM     86  C   UNL A   1      43.476  24.009  35.319  1.00  0.00     0.001 A 
ATOM     87  C   UNL A   1      45.582  24.400  34.248  1.00  0.00     0.001 A 
ATOM     88  C   UNL A   1      44.748  23.567  34.970  1.00  0.00     0.000 A 
ENDBRANCH  70  83
ENDBRANCH  44  45
ENDBRANCH  37  39
ENDBRANCH  36  37
ENDBRANCH  35  36
ENDBRANCH  34  35
ENDBRANCH  33  34
ENDBRANCH   1  33
TORSDOF 17
ENDMDL
MODEL 3
REMARK VINA RESULT:     -11.4      3.374      9.347
REMARK SMILES Cc1cccc(-c2ncc(C[NH+]3CCC4(CC3)NC(=O)C[C@H]4C(=O)OCCOCCOC(=O)c3ccc(-c4c5nc(c(-c6ccccc6)c6ccc([nH]6)c(-c6ccccc6)c6nc(c(-c7ccccc7)c7ccc4[nH]7)C=C6)C=C5)cc3)cn2)c1
REMARK SMILES IDX 27 1 26 2 25 3 23 4 24 5 22 6 12 7 13 8 17 9 14 11 16 12
REMARK SMILES IDX 15 13 18 14 19 15 21 17 20 18 11 19 10 20 7 21 8 22 83 23
REMARK SMILES IDX 9 24 82 25 6 26 1 27 2 28 3 29 84 30 4 31 5 32 28 33 29 34
REMARK SMILES IDX 30 35 31 36 32 37 33 38 34 39 35 40 81 41 36 42 80 43 37 44
REMARK SMILES IDX 38 45 39 46 74 47 40 48 79 49 73 50 75 51 41 52 78 53 72 54
REMARK SMILES IDX 71 55 42 57 64 58 49 59 63 60 50 61 53 62 62 63 76 64 51 65
REMARK SMILES IDX 52 66 61 68 77 69 54 70 43 71 44 72 48 73 45 74 47 75 46 76
REMARK SMILES IDX 65 77 66 78 70 79 67 80 69 81 68 82 55 83 56 84 60 85 57 86
REMARK SMILES IDX 59 87 58 88
REMARK H PARENT 12 10 18 16 75 56 53 67
REMARK Flexibility Score: inf
ROOT
ATOM      1  C   UNL A   1      31.656  29.679  25.009  1.00  0.00     0.202 C 
ENDROOT
BRANCH   1   2
ATOM      2  C   UNL A   1      31.441  28.452  25.854  1.00  0.00     0.261 C 
BRANCH   2   3
ATOM      3  O   UNL A   1      32.132  27.211  25.541  1.00  0.00    -0.463 OA
BRANCH   3   4
ATOM      4  C   UNL A   1      32.253  26.751  24.264  1.00  0.00     0.311 C 
ATOM      5  O   UNL A   1      33.027  27.188  23.427  1.00  0.00    -0.252 OA
BRANCH   4   6
ATOM      6  C   UNL A   1      31.313  25.556  24.013  1.00  0.00     0.134 C 
ATOM      7  N   UNL A   1      34.105  22.609  23.887  1.00  0.00    -0.331 N 
ATOM      8  C   UNL A   1      32.766  22.290  23.372  1.00  0.00     0.264 C 
ATOM      9  C   UNL A   1      34.165  24.009  24.246  1.00  0.00     0.264 C 
ATOM     10  H   UNL A   1      34.696  22.390  23.086  1.00  0.00     0.348 HD
ATOM     11  C   UNL A   1      31.518  22.893  24.086  1.00  0.00     0.091 C 
ATOM     12  C   UNL A   1      33.113  24.270  25.303  1.00  0.00     0.091 C 
ATOM     13  C   UNL A   1      31.702  24.270  24.784  1.00  0.00     0.064 C 
ATOM     14  N   UNL A   1      30.805  24.313  25.928  1.00  0.00    -0.349 N 
ATOM     15  C   UNL A   1      29.825  25.273  25.865  1.00  0.00     0.221 C 
ATOM     16  H   UNL A   1      30.895  23.699  26.692  1.00  0.00     0.164 HD
ATOM     17  C   UNL A   1      29.894  25.896  24.496  1.00  0.00     0.117 C 
ATOM     18  O   UNL A   1      29.030  25.512  26.739  1.00  0.00    -0.275 OA
BRANCH   7  19
ATOM     19  C   UNL A   1      34.805  21.708  24.849  1.00  0.00     0.302 C 
BRANCH  19  20
ATOM     20  C   UNL A   1      36.320  21.788  24.938  1.00  0.00     0.043 A 
ATOM     21  C   UNL A   1      38.885  21.468  25.837  1.00  0.00     0.159 A 
ATOM     22  N   UNL A   1      38.364  20.515  25.034  1.00  0.00    -0.236 NA
ATOM     23  N   UNL A   1      38.265  22.628  26.135  1.00  0.00    -0.236 NA
ATOM     24  C   UNL A   1      37.107  20.713  24.577  1.00  0.00     0.124 A 
ATOM     25  C   UNL A   1      36.997  22.768  25.662  1.00  0.00     0.124 A 
BRANCH  21  26
ATOM     26  C   UNL A   1      40.191  21.169  26.449  1.00  0.00     0.019 A 
ATOM     27  C   UNL A   1      43.452  19.279  25.656  1.00  0.00     0.044 C 
ATOM     28  C   UNL A   1      42.434  20.143  26.347  1.00  0.00    -0.050 A 
ATOM     29  C   UNL A   1      42.798  20.848  27.498  1.00  0.00     0.003 A 
ATOM     30  C   UNL A   1      41.130  20.304  25.840  1.00  0.00     0.015 A 
ATOM     31  C   UNL A   1      41.874  21.670  28.140  1.00  0.00     0.001 A 
ATOM     32  C   UNL A   1      40.583  21.822  27.624  1.00  0.00     0.012 A 
ENDBRANCH  21  26
ENDBRANCH  19  20
ENDBRANCH   7  19
ENDBRANCH   4   6
ENDBRANCH   3   4
ENDBRANCH   2   3
ENDBRANCH   1   2
BRANCH   1  33
ATOM     33  O   UNL A   1      32.361  30.616  25.800  1.00  0.00    -0.374 OA
BRANCH  33  34
ATOM     34  C   UNL A   1      32.661  30.277  27.146  1.00  0.00     0.202 C 
BRANCH  34  35
ATOM     35  C   UNL A   1      34.126  29.951  27.490  1.00  0.00     0.261 C 
BRANCH  35  36
ATOM     36  O   UNL A   1      34.968  31.111  27.303  1.00  0.00    -0.460 OA
BRANCH  36  37
ATOM     37  C   UNL A   1      35.913  31.343  28.256  1.00  0.00     0.338 C 
ATOM     38  O   UNL A   1      36.204  32.437  28.709  1.00  0.00    -0.246 OA
BRANCH  37  39
ATOM     39  C   UNL A   1      36.760  30.121  28.412  1.00  0.00     0.060 A 
ATOM     40  C   UNL A   1      36.811  29.448  29.647  1.00  0.00     0.016 A 
ATOM     41  C   UNL A   1      37.779  29.941  27.487  1.00  0.00     0.016 A 
ATOM     42  C   UNL A   1      37.969  28.745  30.015  1.00  0.00     0.010 A 
ATOM     43  C   UNL A   1      38.973  29.435  27.937  1.00  0.00     0.010 A 
ATOM     44  C   UNL A   1      39.088  28.825  29.197  1.00  0.00    -0.014 A 
BRANCH  44  45
ATOM     45  C   UNL A   1      40.452  28.376  29.510  1.00  0.00     0.031 A 
ATOM     46  C   UNL A   1      40.853  27.079  28.928  1.00  0.00     0.074 A 
ATOM     47  C   UNL A   1      41.398  29.174  30.077  1.00  0.00     0.049 A 
ATOM     48  N   UNL A   1      41.902  26.444  29.296  1.00  0.00    -0.248 NA
ATOM     49  C   UNL A   1      40.093  26.350  27.911  1.00  0.00     0.031 C 
ATOM     50  C   UNL A   1      42.858  29.038  30.072  1.00  0.00     0.029 A 
ATOM     51  N   UNL A   1      41.224  30.326  30.849  1.00  0.00    -0.354 N 
ATOM     52  C   UNL A   1      42.161  25.493  28.344  1.00  0.00     0.074 A 
ATOM     53  C   UNL A   1      40.944  25.376  27.589  1.00  0.00     0.031 C 
ATOM     54  C   UNL A   1      43.383  29.826  31.033  1.00  0.00     0.029 A 
ATOM     55  C   UNL A   1      42.274  30.412  31.768  1.00  0.00     0.049 A 
ATOM     56  H   UNL A   1      40.484  30.969  30.762  1.00  0.00     0.167 HD
ATOM     57  C   UNL A   1      43.439  25.036  28.244  1.00  0.00     0.031 A 
ATOM     58  C   UNL A   1      41.985  30.373  33.094  1.00  0.00     0.031 A 
ATOM     59  C   UNL A   1      44.270  25.548  29.357  1.00  0.00     0.049 A 
ATOM     60  C   UNL A   1      42.524  29.079  33.643  1.00  0.00     0.074 A 
ATOM     61  C   UNL A   1      45.348  26.411  29.467  1.00  0.00     0.029 A 
ATOM     62  N   UNL A   1      43.772  25.427  30.658  1.00  0.00    -0.354 N 
ATOM     63  N   UNL A   1      43.067  28.163  32.885  1.00  0.00    -0.248 NA
ATOM     64  C   UNL A   1      42.510  28.683  35.040  1.00  0.00     0.031 C 
ATOM     65  C   UNL A   1      45.465  26.810  30.845  1.00  0.00     0.029 A 
ATOM     66  C   UNL A   1      44.489  26.161  31.584  1.00  0.00     0.049 A 
ATOM     67  H   UNL A   1      42.990  24.874  30.891  1.00  0.00     0.167 HD
ATOM     68  C   UNL A   1      43.496  27.106  33.614  1.00  0.00     0.074 A 
ATOM     69  C   UNL A   1      43.073  27.460  34.967  1.00  0.00     0.031 C 
ATOM     70  C   UNL A   1      44.135  26.052  33.012  1.00  0.00     0.031 A 
BRANCH  57  71
ATOM     71  C   UNL A   1      43.957  24.275  27.040  1.00  0.00    -0.014 A 
ATOM     72  C   UNL A   1      43.197  24.237  25.860  1.00  0.00     0.009 A 
ATOM     73  C   UNL A   1      45.156  23.532  27.003  1.00  0.00     0.009 A 
ATOM     74  C   UNL A   1      43.605  23.503  24.733  1.00  0.00     0.001 A 
ATOM     75  C   UNL A   1      45.576  22.801  25.883  1.00  0.00     0.001 A 
ATOM     76  C   UNL A   1      44.795  22.785  24.742  1.00  0.00     0.000 A 
ENDBRANCH  57  71
BRANCH  58  77
ATOM     77  C   UNL A   1      40.704  31.112  33.388  1.00  0.00    -0.014 A 
ATOM     78  C   UNL A   1      39.518  30.335  33.455  1.00  0.00     0.009 A 
ATOM     79  C   UNL A   1      40.698  32.344  34.060  1.00  0.00     0.009 A 
ATOM     80  C   UNL A   1      38.437  30.703  34.272  1.00  0.00     0.001 A 
ATOM     81  C   UNL A   1      39.607  32.712  34.875  1.00  0.00     0.001 A 
ATOM     82  C   UNL A   1      38.500  31.876  35.015  1.00  0.00     0.000 A 
ENDBRANCH  58  77
BRANCH  70  83
ATOM     83  C   UNL A   1      44.425  24.743  33.704  1.00  0.00    -0.014 A 
ATOM     84  C   UNL A   1      43.481  23.989  34.398  1.00  0.00     0.009 A 
ATOM     85  C   UNL A   1      45.733  24.209  33.652  1.00  0.00     0.009 A 
ATOM     86  C   UNL A   1      43.779  22.705  34.866  1.00  0.00     0.001 A 
ATOM     87  C   UNL A   1      46.046  22.941  34.131  1.00  0.00     0.001 A 
ATOM     88  C   UNL A   1      45.054  22.171  34.710  1.00  0.00     0.000 A 
ENDBRANCH  70  83
ENDBRANCH  44  45
ENDBRANCH  37  39
ENDBRANCH  36  37
ENDBRANCH  35  36
ENDBRANCH  34  35
ENDBRANCH  33  34
ENDBRANCH   1  33
TORSDOF 17
ENDMDL
