MODEL 1
REMARK VINA RESULT:     -10.7      0.000      0.000
REMARK SMILES C[C@@H](C(=O)OCCOCCOC(=O)c1ccc(-c2c3nc(c(-c4ccccc4)c4ccc([nH]4)c(-c4ccccc4)c4nc(c(-c5ccccc5)c5ccc2[nH]5)C=C4)C=C3)cc1)c1ccc(-c2ccccc2)c(F)c1
REMARK SMILES IDX 8 1 7 2 6 3 5 4 3 5 4 6 2 7 1 8 62 9 63 10 74 11 64 12 72 13
REMARK SMILES IDX 65 14 73 15 66 16 67 17 71 18 68 19 70 20 69 21 9 22 10 23
REMARK SMILES IDX 11 24 12 25 13 26 14 27 15 28 61 29 16 30 60 31 17 32 18 33
REMARK SMILES IDX 19 34 54 35 20 36 59 37 53 38 55 39 21 40 58 41 52 42 51 43
REMARK SMILES IDX 22 45 44 46 29 47 43 48 30 49 33 50 42 51 56 52 31 53 32 54
REMARK SMILES IDX 41 56 57 57 34 58 23 59 24 60 28 61 25 62 27 63 26 64 45 65
REMARK SMILES IDX 46 66 50 67 47 68 49 69 48 70 35 71 36 72 40 73 37 74 39 75
REMARK SMILES IDX 38 76
REMARK H PARENT 55 44 33 55
REMARK Flexibility Score: inf
ROOT
ATOM      1  O   UNL A   1      46.778  21.624  24.681  1.00  0.00    -0.374 OA
ENDROOT
BRANCH   1   2
ATOM      2  C   UNL A   1      45.806  20.803  25.330  1.00  0.00     0.202 C 
BRANCH   2   3
ATOM      3  C   UNL A   1      44.731  20.198  24.425  1.00  0.00     0.261 C 
BRANCH   3   4
ATOM      4  O   UNL A   1      43.423  20.417  24.983  1.00  0.00    -0.463 OA
BRANCH   4   5
ATOM      5  C   UNL A   1      42.902  19.375  25.684  1.00  0.00     0.313 C 
ATOM      6  O   UNL A   1      43.144  18.196  25.443  1.00  0.00    -0.252 OA
BRANCH   5   7
ATOM      7  C   UNL A   1      41.999  19.825  26.842  1.00  0.00     0.126 C 
ATOM      8  C   UNL A   1      41.882  18.805  27.981  1.00  0.00     0.025 C 
BRANCH   7   9
ATOM      9  C   UNL A   1      40.662  20.346  26.314  1.00  0.00    -0.031 A 
ATOM     10  C   UNL A   1      39.829  19.459  25.613  1.00  0.00     0.005 A 
ATOM     11  C   UNL A   1      40.196  21.653  26.511  1.00  0.00     0.044 A 
ATOM     12  C   UNL A   1      38.576  19.857  25.135  1.00  0.00     0.012 A 
ATOM     13  C   UNL A   1      38.943  22.047  26.021  1.00  0.00     0.131 A 
ATOM     14  C   UNL A   1      38.106  21.163  25.329  1.00  0.00     0.017 A 
ATOM     15  F   UNL A   1      38.553  23.312  26.247  1.00  0.00    -0.206 F 
BRANCH  14  16
ATOM     16  C   UNL A   1      36.790  21.559  24.801  1.00  0.00    -0.015 A 
ATOM     17  C   UNL A   1      36.684  22.505  23.765  1.00  0.00     0.009 A 
ATOM     18  C   UNL A   1      35.602  21.052  25.351  1.00  0.00     0.009 A 
ATOM     19  C   UNL A   1      35.437  22.940  23.308  1.00  0.00     0.001 A 
ATOM     20  C   UNL A   1      34.354  21.490  24.898  1.00  0.00     0.001 A 
ATOM     21  C   UNL A   1      34.273  22.437  23.880  1.00  0.00     0.000 A 
ENDBRANCH  14  16
ENDBRANCH   7   9
ENDBRANCH   5   7
ENDBRANCH   4   5
ENDBRANCH   3   4
ENDBRANCH   2   3
ENDBRANCH   1   2
BRANCH   1  22
ATOM     22  C   UNL A   1      46.365  22.923  24.256  1.00  0.00     0.202 C 
BRANCH  22  23
ATOM     23  C   UNL A   1      45.802  23.846  25.344  1.00  0.00     0.261 C 
BRANCH  23  24
ATOM     24  O   UNL A   1      44.830  24.776  24.828  1.00  0.00    -0.460 OA
BRANCH  24  25
ATOM     25  C   UNL A   1      43.541  24.380  24.964  1.00  0.00     0.338 C 
ATOM     26  O   UNL A   1      43.030  23.355  24.532  1.00  0.00    -0.246 OA
BRANCH  25  27
ATOM     27  C   UNL A   1      42.818  25.281  25.879  1.00  0.00     0.060 A 
ATOM     28  C   UNL A   1      43.315  26.583  26.027  1.00  0.00     0.016 A 
ATOM     29  C   UNL A   1      41.736  24.844  26.648  1.00  0.00     0.016 A 
ATOM     30  C   UNL A   1      42.767  27.437  26.981  1.00  0.00     0.010 A 
ATOM     31  C   UNL A   1      41.193  25.701  27.612  1.00  0.00     0.010 A 
ATOM     32  C   UNL A   1      41.729  26.987  27.809  1.00  0.00    -0.014 A 
BRANCH  32  33
ATOM     33  C   UNL A   1      41.322  27.811  28.973  1.00  0.00     0.031 A 
ATOM     34  C   UNL A   1      42.102  27.703  30.254  1.00  0.00     0.074 A 
ATOM     35  C   UNL A   1      40.300  28.680  28.879  1.00  0.00     0.049 A 
ATOM     36  N   UNL A   1      41.925  28.332  31.389  1.00  0.00    -0.248 NA
ATOM     37  C   UNL A   1      43.236  26.764  30.257  1.00  0.00     0.031 C 
ATOM     38  C   UNL A   1      39.494  28.915  27.683  1.00  0.00     0.029 A 
ATOM     39  N   UNL A   1      39.770  29.530  29.817  1.00  0.00    -0.354 N 
ATOM     40  C   UNL A   1      42.920  27.865  32.237  1.00  0.00     0.074 A 
ATOM     41  C   UNL A   1      43.680  26.880  31.499  1.00  0.00     0.031 C 
ATOM     42  C   UNL A   1      38.566  29.847  27.960  1.00  0.00     0.029 A 
ATOM     43  C   UNL A   1      38.696  30.253  29.359  1.00  0.00     0.049 A 
ATOM     44  H   UNL A   1      40.125  29.614  30.731  1.00  0.00     0.167 HD
ATOM     45  C   UNL A   1      43.185  28.229  33.516  1.00  0.00     0.031 A 
ATOM     46  C   UNL A   1      37.899  31.130  29.999  1.00  0.00     0.031 A 
ATOM     47  C   UNL A   1      42.425  29.196  34.261  1.00  0.00     0.049 A 
ATOM     48  C   UNL A   1      38.163  31.456  31.444  1.00  0.00     0.074 A 
ATOM     49  C   UNL A   1      42.623  29.635  35.558  1.00  0.00     0.029 A 
ATOM     50  N   UNL A   1      41.316  29.869  33.774  1.00  0.00    -0.354 N 
ATOM     51  N   UNL A   1      39.121  31.024  32.228  1.00  0.00    -0.248 NA
ATOM     52  C   UNL A   1      37.239  32.400  32.090  1.00  0.00     0.031 C 
ATOM     53  C   UNL A   1      41.602  30.538  35.874  1.00  0.00     0.029 A 
ATOM     54  C   UNL A   1      40.802  30.701  34.754  1.00  0.00     0.049 A 
ATOM     55  H   UNL A   1      40.948  29.771  32.867  1.00  0.00     0.167 HD
ATOM     56  C   UNL A   1      38.929  31.661  33.448  1.00  0.00     0.074 A 
ATOM     57  C   UNL A   1      37.773  32.518  33.297  1.00  0.00     0.031 C 
ATOM     58  C   UNL A   1      39.649  31.546  34.591  1.00  0.00     0.031 A 
BRANCH  45  59
ATOM     59  C   UNL A   1      44.333  27.543  34.202  1.00  0.00    -0.014 A 
ATOM     60  C   UNL A   1      45.626  28.089  34.175  1.00  0.00     0.009 A 
ATOM     61  C   UNL A   1      44.112  26.351  34.907  1.00  0.00     0.009 A 
ATOM     62  C   UNL A   1      46.681  27.436  34.816  1.00  0.00     0.001 A 
ATOM     63  C   UNL A   1      45.163  25.714  35.568  1.00  0.00     0.001 A 
ATOM     64  C   UNL A   1      46.448  26.252  35.515  1.00  0.00     0.000 A 
ENDBRANCH  45  59
BRANCH  46  65
ATOM     65  C   UNL A   1      36.753  31.750  29.284  1.00  0.00    -0.014 A 
ATOM     66  C   UNL A   1      35.536  31.064  29.150  1.00  0.00     0.009 A 
ATOM     67  C   UNL A   1      36.881  33.026  28.715  1.00  0.00     0.009 A 
ATOM     68  C   UNL A   1      34.478  31.637  28.439  1.00  0.00     0.001 A 
ATOM     69  C   UNL A   1      35.812  33.606  28.028  1.00  0.00     0.001 A 
ATOM     70  C   UNL A   1      34.615  32.908  27.884  1.00  0.00     0.000 A 
ENDBRANCH  46  65
BRANCH  58  71
ATOM     71  C   UNL A   1      39.227  32.392  35.759  1.00  0.00    -0.014 A 
ATOM     72  C   UNL A   1      39.805  33.649  35.995  1.00  0.00     0.009 A 
ATOM     73  C   UNL A   1      38.205  31.941  36.610  1.00  0.00     0.009 A 
ATOM     74  C   UNL A   1      39.388  34.424  37.079  1.00  0.00     0.001 A 
ATOM     75  C   UNL A   1      37.773  32.731  37.678  1.00  0.00     0.001 A 
ATOM     76  C   UNL A   1      38.371  33.967  37.917  1.00  0.00     0.000 A 
ENDBRANCH  58  71
ENDBRANCH  32  33
ENDBRANCH  25  27
ENDBRANCH  24  25
ENDBRANCH  23  24
ENDBRANCH  22  23
ENDBRANCH   1  22
TORSDOF 16
ENDMDL
MODEL 2
REMARK VINA RESULT:     -10.3      0.719      5.971
REMARK SMILES C[C@@H](C(=O)OCCOCCOC(=O)c1ccc(-c2c3nc(c(-c4ccccc4)c4ccc([nH]4)c(-c4ccccc4)c4nc(c(-c5ccccc5)c5ccc2[nH]5)C=C4)C=C3)cc1)c1ccc(-c2ccccc2)c(F)c1
REMARK SMILES IDX 8 1 7 2 6 3 5 4 3 5 4 6 2 7 1 8 62 9 63 10 74 11 64 12 72 13
REMARK SMILES IDX 65 14 73 15 66 16 67 17 71 18 68 19 70 20 69 21 9 22 10 23
REMARK SMILES IDX 11 24 12 25 13 26 14 27 15 28 61 29 16 30 60 31 17 32 18 33
REMARK SMILES IDX 19 34 54 35 20 36 59 37 53 38 55 39 21 40 58 41 52 42 51 43
REMARK SMILES IDX 22 45 44 46 29 47 43 48 30 49 33 50 42 51 56 52 31 53 32 54
REMARK SMILES IDX 41 56 57 57 34 58 23 59 24 60 28 61 25 62 27 63 26 64 45 65
REMARK SMILES IDX 46 66 50 67 47 68 49 69 48 70 35 71 36 72 40 73 37 74 39 75
REMARK SMILES IDX 38 76
REMARK H PARENT 55 44 33 55
REMARK Flexibility Score: inf
ROOT
ATOM      1  O   UNL A   1      46.540  21.859  24.604  1.00  0.00    -0.374 OA
ENDROOT
BRANCH   1   2
ATOM      2  C   UNL A   1      45.775  20.925  25.367  1.00  0.00     0.202 C 
BRANCH   2   3
ATOM      3  C   UNL A   1      44.853  20.003  24.566  1.00  0.00     0.261 C 
BRANCH   3   4
ATOM      4  O   UNL A   1      43.476  20.256  24.899  1.00  0.00    -0.463 OA
BRANCH   4   5
ATOM      5  C   UNL A   1      42.863  19.288  25.632  1.00  0.00     0.313 C 
ATOM      6  O   UNL A   1      43.005  18.085  25.436  1.00  0.00    -0.252 OA
BRANCH   5   7
ATOM      7  C   UNL A   1      41.992  19.856  26.762  1.00  0.00     0.126 C 
ATOM      8  C   UNL A   1      41.971  18.996  28.032  1.00  0.00     0.025 C 
BRANCH   7   9
ATOM      9  C   UNL A   1      40.612  20.249  26.237  1.00  0.00    -0.031 A 
ATOM     10  C   UNL A   1      40.226  21.597  26.318  1.00  0.00     0.005 A 
ATOM     11  C   UNL A   1      39.712  19.352  25.647  1.00  0.00     0.044 A 
ATOM     12  C   UNL A   1      38.993  22.035  25.822  1.00  0.00     0.012 A 
ATOM     13  C   UNL A   1      38.474  19.797  25.161  1.00  0.00     0.131 A 
ATOM     14  C   UNL A   1      38.088  21.142  25.232  1.00  0.00     0.017 A 
ATOM     15  F   UNL A   1      37.657  18.888  24.603  1.00  0.00    -0.206 F 
BRANCH  14  16
ATOM     16  C   UNL A   1      36.791  21.627  24.734  1.00  0.00    -0.015 A 
ATOM     17  C   UNL A   1      36.726  22.654  23.775  1.00  0.00     0.009 A 
ATOM     18  C   UNL A   1      35.582  21.123  25.240  1.00  0.00     0.009 A 
ATOM     19  C   UNL A   1      35.498  23.170  23.351  1.00  0.00     0.001 A 
ATOM     20  C   UNL A   1      34.353  21.642  24.819  1.00  0.00     0.001 A 
ATOM     21  C   UNL A   1      34.313  22.668  23.879  1.00  0.00     0.000 A 
ENDBRANCH  14  16
ENDBRANCH   7   9
ENDBRANCH   5   7
ENDBRANCH   4   5
ENDBRANCH   3   4
ENDBRANCH   2   3
ENDBRANCH   1   2
BRANCH   1  22
ATOM     22  C   UNL A   1      45.883  23.050  24.169  1.00  0.00     0.202 C 
BRANCH  22  23
ATOM     23  C   UNL A   1      45.632  24.117  25.241  1.00  0.00     0.261 C 
BRANCH  23  24
ATOM     24  O   UNL A   1      44.534  24.987  24.906  1.00  0.00    -0.460 OA
BRANCH  24  25
ATOM     25  C   UNL A   1      43.313  24.521  25.266  1.00  0.00     0.338 C 
ATOM     26  O   UNL A   1      42.820  23.438  24.982  1.00  0.00    -0.246 OA
BRANCH  25  27
ATOM     27  C   UNL A   1      42.673  25.438  26.226  1.00  0.00     0.060 A 
ATOM     28  C   UNL A   1      43.240  26.710  26.378  1.00  0.00     0.016 A 
ATOM     29  C   UNL A   1      41.603  25.038  27.031  1.00  0.00     0.016 A 
ATOM     30  C   UNL A   1      42.774  27.570  27.370  1.00  0.00     0.010 A 
ATOM     31  C   UNL A   1      41.142  25.901  28.033  1.00  0.00     0.010 A 
ATOM     32  C   UNL A   1      41.750  27.155  28.231  1.00  0.00    -0.014 A 
BRANCH  32  33
ATOM     33  C   UNL A   1      41.430  27.973  29.426  1.00  0.00     0.031 A 
ATOM     34  C   UNL A   1      40.263  28.920  29.373  1.00  0.00     0.074 A 
ATOM     35  C   UNL A   1      42.139  27.842  30.562  1.00  0.00     0.049 A 
ATOM     36  N   UNL A   1      39.804  29.724  30.299  1.00  0.00    -0.248 NA
ATOM     37  C   UNL A   1      39.511  28.967  28.108  1.00  0.00     0.031 C 
ATOM     38  C   UNL A   1      43.261  26.928  30.760  1.00  0.00     0.029 A 
ATOM     39  N   UNL A   1      42.010  28.486  31.767  1.00  0.00    -0.354 N 
ATOM     40  C   UNL A   1      38.714  30.369  29.731  1.00  0.00     0.074 A 
ATOM     41  C   UNL A   1      38.596  29.888  28.371  1.00  0.00     0.031 C 
ATOM     42  C   UNL A   1      43.723  27.072  32.014  1.00  0.00     0.029 A 
ATOM     43  C   UNL A   1      42.947  28.107  32.695  1.00  0.00     0.049 A 
ATOM     44  H   UNL A   1      41.312  29.157  31.948  1.00  0.00     0.167 HD
ATOM     45  C   UNL A   1      37.878  31.277  30.291  1.00  0.00     0.031 A 
ATOM     46  C   UNL A   1      43.165  28.554  33.947  1.00  0.00     0.031 A 
ATOM     47  C   UNL A   1      37.998  31.771  31.636  1.00  0.00     0.049 A 
ATOM     48  C   UNL A   1      42.273  29.622  34.519  1.00  0.00     0.074 A 
ATOM     49  C   UNL A   1      37.193  32.685  32.294  1.00  0.00     0.029 A 
ATOM     50  N   UNL A   1      38.989  31.395  32.527  1.00  0.00    -0.354 N 
ATOM     51  N   UNL A   1      41.232  30.209  33.978  1.00  0.00    -0.248 NA
ATOM     52  C   UNL A   1      42.582  30.085  35.880  1.00  0.00     0.031 C 
ATOM     53  C   UNL A   1      37.729  32.900  33.569  1.00  0.00     0.029 A 
ATOM     54  C   UNL A   1      38.834  32.079  33.721  1.00  0.00     0.049 A 
ATOM     55  H   UNL A   1      39.699  30.740  32.340  1.00  0.00     0.167 HD
ATOM     56  C   UNL A   1      40.749  31.088  34.940  1.00  0.00     0.074 A 
ATOM     57  C   UNL A   1      41.602  30.949  36.102  1.00  0.00     0.031 C 
ATOM     58  C   UNL A   1      39.692  31.934  34.868  1.00  0.00     0.031 A 
BRANCH  45  59
ATOM     59  C   UNL A   1      36.775  31.821  29.427  1.00  0.00    -0.014 A 
ATOM     60  C   UNL A   1      36.912  33.049  28.761  1.00  0.00     0.009 A 
ATOM     61  C   UNL A   1      35.596  31.082  29.255  1.00  0.00     0.009 A 
ATOM     62  C   UNL A   1      35.875  33.539  27.965  1.00  0.00     0.001 A 
ATOM     63  C   UNL A   1      34.571  31.562  28.439  1.00  0.00     0.001 A 
ATOM     64  C   UNL A   1      34.707  32.795  27.801  1.00  0.00     0.000 A 
ENDBRANCH  45  59
BRANCH  46  65
ATOM     65  C   UNL A   1      44.294  28.009  34.744  1.00  0.00    -0.014 A 
ATOM     66  C   UNL A   1      44.101  26.923  35.611  1.00  0.00     0.009 A 
ATOM     67  C   UNL A   1      45.568  28.590  34.656  1.00  0.00     0.009 A 
ATOM     68  C   UNL A   1      45.158  26.445  36.389  1.00  0.00     0.001 A 
ATOM     69  C   UNL A   1      46.629  28.092  35.415  1.00  0.00     0.001 A 
ATOM     70  C   UNL A   1      46.421  27.026  36.288  1.00  0.00     0.000 A 
ENDBRANCH  46  65
BRANCH  58  71
ATOM     71  C   UNL A   1      39.378  32.751  36.088  1.00  0.00    -0.014 A 
ATOM     72  C   UNL A   1      39.879  34.053  36.241  1.00  0.00     0.009 A 
ATOM     73  C   UNL A   1      38.534  32.225  37.078  1.00  0.00     0.009 A 
ATOM     74  C   UNL A   1      39.564  34.800  37.378  1.00  0.00     0.001 A 
ATOM     75  C   UNL A   1      38.200  32.985  38.201  1.00  0.00     0.001 A 
ATOM     76  C   UNL A   1      38.722  34.268  38.354  1.00  0.00     0.000 A 
ENDBRANCH  58  71
ENDBRANCH  32  33
ENDBRANCH  25  27
ENDBRANCH  24  25
ENDBRANCH  23  24
ENDBRANCH  22  23
ENDBRANCH   1  22
TORSDOF 16
ENDMDL
MODEL 3
REMARK VINA RESULT:     -10.2      2.457      4.900
REMARK SMILES C[C@@H](C(=O)OCCOCCOC(=O)c1ccc(-c2c3nc(c(-c4ccccc4)c4ccc([nH]4)c(-c4ccccc4)c4nc(c(-c5ccccc5)c5ccc2[nH]5)C=C4)C=C3)cc1)c1ccc(-c2ccccc2)c(F)c1
REMARK SMILES IDX 8 1 7 2 6 3 5 4 3 5 4 6 2 7 1 8 62 9 63 10 74 11 64 12 72 13
REMARK SMILES IDX 65 14 73 15 66 16 67 17 71 18 68 19 70 20 69 21 9 22 10 23
REMARK SMILES IDX 11 24 12 25 13 26 14 27 15 28 61 29 16 30 60 31 17 32 18 33
REMARK SMILES IDX 19 34 54 35 20 36 59 37 53 38 55 39 21 40 58 41 52 42 51 43
REMARK SMILES IDX 22 45 44 46 29 47 43 48 30 49 33 50 42 51 56 52 31 53 32 54
REMARK SMILES IDX 41 56 57 57 34 58 23 59 24 60 28 61 25 62 27 63 26 64 45 65
REMARK SMILES IDX 46 66 50 67 47 68 49 69 48 70 35 71 36 72 40 73 37 74 39 75
REMARK SMILES IDX 38 76
REMARK H PARENT 55 44 33 55
REMARK Flexibility Score: inf
ROOT
ATOM      1  O   UNL A   1      38.718  22.145  25.803  1.00  0.00    -0.374 OA
ENDROOT
BRANCH   1   2
ATOM      2  C   UNL A   1      37.680  21.468  25.093  1.00  0.00     0.202 C 
BRANCH   2   3
ATOM      3  C   UNL A   1      36.251  21.912  25.415  1.00  0.00     0.261 C 
BRANCH   3   4
ATOM      4  O   UNL A   1      35.389  21.687  24.285  1.00  0.00    -0.463 OA
BRANCH   4   5
ATOM      5  C   UNL A   1      35.246  22.742  23.438  1.00  0.00     0.313 C 
ATOM      6  O   UNL A   1      36.156  23.205  22.758  1.00  0.00    -0.252 OA
BRANCH   5   7
ATOM      7  C   UNL A   1      33.808  23.282  23.394  1.00  0.00     0.126 C 
ATOM      8  C   UNL A   1      33.146  23.189  22.014  1.00  0.00     0.025 C 
BRANCH   7   9
ATOM      9  C   UNL A   1      33.727  24.661  24.048  1.00  0.00    -0.031 A 
ATOM     10  C   UNL A   1      33.523  24.729  25.436  1.00  0.00     0.005 A 
ATOM     11  C   UNL A   1      33.873  25.869  23.355  1.00  0.00     0.044 A 
ATOM     12  C   UNL A   1      33.475  25.956  26.107  1.00  0.00     0.012 A 
ATOM     13  C   UNL A   1      33.816  27.094  24.033  1.00  0.00     0.131 A 
ATOM     14  C   UNL A   1      33.620  27.168  25.418  1.00  0.00     0.017 A 
ATOM     15  F   UNL A   1      33.967  28.217  23.311  1.00  0.00    -0.206 F 
BRANCH  14  16
ATOM     16  C   UNL A   1      33.550  28.444  26.147  1.00  0.00    -0.015 A 
ATOM     17  C   UNL A   1      32.388  29.236  26.104  1.00  0.00     0.009 A 
ATOM     18  C   UNL A   1      34.655  28.939  26.858  1.00  0.00     0.009 A 
ATOM     19  C   UNL A   1      32.339  30.483  26.733  1.00  0.00     0.001 A 
ATOM     20  C   UNL A   1      34.609  30.188  27.485  1.00  0.00     0.001 A 
ATOM     21  C   UNL A   1      33.453  30.961  27.418  1.00  0.00     0.000 A 
ENDBRANCH  14  16
ENDBRANCH   7   9
ENDBRANCH   5   7
ENDBRANCH   4   5
ENDBRANCH   3   4
ENDBRANCH   2   3
ENDBRANCH   1   2
BRANCH   1  22
ATOM     22  C   UNL A   1      39.809  21.358  26.282  1.00  0.00     0.202 C 
BRANCH  22  23
ATOM     23  C   UNL A   1      41.207  21.970  26.129  1.00  0.00     0.261 C 
BRANCH  23  24
ATOM     24  O   UNL A   1      41.439  23.050  27.054  1.00  0.00    -0.460 OA
BRANCH  24  25
ATOM     25  C   UNL A   1      41.828  24.214  26.479  1.00  0.00     0.338 C 
ATOM     26  O   UNL A   1      42.353  24.360  25.383  1.00  0.00    -0.246 OA
BRANCH  25  27
ATOM     27  C   UNL A   1      41.377  25.363  27.283  1.00  0.00     0.060 A 
ATOM     28  C   UNL A   1      42.159  26.525  27.240  1.00  0.00     0.016 A 
ATOM     29  C   UNL A   1      40.271  25.285  28.133  1.00  0.00     0.016 A 
ATOM     30  C   UNL A   1      41.870  27.594  28.085  1.00  0.00     0.010 A 
ATOM     31  C   UNL A   1      39.987  26.357  28.987  1.00  0.00     0.010 A 
ATOM     32  C   UNL A   1      40.807  27.501  28.994  1.00  0.00    -0.014 A 
BRANCH  32  33
ATOM     33  C   UNL A   1      40.660  28.535  30.046  1.00  0.00     0.031 A 
ATOM     34  C   UNL A   1      41.615  28.537  31.208  1.00  0.00     0.074 A 
ATOM     35  C   UNL A   1      39.720  29.492  29.947  1.00  0.00     0.049 A 
ATOM     36  N   UNL A   1      41.672  29.349  32.234  1.00  0.00    -0.248 NA
ATOM     37  C   UNL A   1      42.644  27.485  31.215  1.00  0.00     0.031 C 
ATOM     38  C   UNL A   1      38.765  29.632  28.850  1.00  0.00     0.029 A 
ATOM     39  N   UNL A   1      39.421  30.532  30.791  1.00  0.00    -0.354 N 
ATOM     40  C   UNL A   1      42.738  28.907  33.005  1.00  0.00     0.074 A 
ATOM     41  C   UNL A   1      43.283  27.738  32.348  1.00  0.00     0.031 C 
ATOM     42  C   UNL A   1      37.980  30.696  29.090  1.00  0.00     0.029 A 
ATOM     43  C   UNL A   1      38.359  31.294  30.369  1.00  0.00     0.049 A 
ATOM     44  H   UNL A   1      39.918  30.714  31.621  1.00  0.00     0.167 HD
ATOM     45  C   UNL A   1      43.229  29.429  34.156  1.00  0.00     0.031 A 
ATOM     46  C   UNL A   1      37.754  32.345  30.954  1.00  0.00     0.031 A 
ATOM     47  C   UNL A   1      42.684  30.581  34.823  1.00  0.00     0.049 A 
ATOM     48  C   UNL A   1      38.266  32.858  32.273  1.00  0.00     0.074 A 
ATOM     49  C   UNL A   1      43.118  31.188  35.988  1.00  0.00     0.029 A 
ATOM     50  N   UNL A   1      41.580  31.294  34.385  1.00  0.00    -0.354 N 
ATOM     51  N   UNL A   1      39.289  32.443  32.981  1.00  0.00    -0.248 NA
ATOM     52  C   UNL A   1      37.542  33.990  32.870  1.00  0.00     0.031 C 
ATOM     53  C   UNL A   1      42.245  32.241  36.283  1.00  0.00     0.029 A 
ATOM     54  C   UNL A   1      41.301  32.321  35.272  1.00  0.00     0.049 A 
ATOM     55  H   UNL A   1      41.070  31.101  33.566  1.00  0.00     0.167 HD
ATOM     56  C   UNL A   1      39.346  33.278  34.090  1.00  0.00     0.074 A 
ATOM     57  C   UNL A   1      38.263  34.230  33.956  1.00  0.00     0.031 C 
ATOM     58  C   UNL A   1      40.219  33.259  35.127  1.00  0.00     0.031 A 
BRANCH  45  59
ATOM     59  C   UNL A   1      44.401  28.729  34.784  1.00  0.00    -0.014 A 
ATOM     60  C   UNL A   1      45.719  29.100  34.476  1.00  0.00     0.009 A 
ATOM     61  C   UNL A   1      44.182  27.706  35.718  1.00  0.00     0.009 A 
ATOM     62  C   UNL A   1      46.795  28.436  35.069  1.00  0.00     0.001 A 
ATOM     63  C   UNL A   1      45.259  27.061  36.327  1.00  0.00     0.001 A 
ATOM     64  C   UNL A   1      46.565  27.420  35.996  1.00  0.00     0.000 A 
ENDBRANCH  45  59
BRANCH  46  65
ATOM     65  C   UNL A   1      36.574  32.976  30.308  1.00  0.00    -0.014 A 
ATOM     66  C   UNL A   1      35.274  32.694  30.757  1.00  0.00     0.009 A 
ATOM     67  C   UNL A   1      36.743  33.850  29.223  1.00  0.00     0.009 A 
ATOM     68  C   UNL A   1      34.169  33.257  30.116  1.00  0.00     0.001 A 
ATOM     69  C   UNL A   1      35.637  34.433  28.602  1.00  0.00     0.001 A 
ATOM     70  C   UNL A   1      34.350  34.130  29.043  1.00  0.00     0.000 A 
ENDBRANCH  46  65
BRANCH  58  71
ATOM     71  C   UNL A   1      40.060  34.316  36.182  1.00  0.00    -0.014 A 
ATOM     72  C   UNL A   1      40.665  35.576  36.047  1.00  0.00     0.009 A 
ATOM     73  C   UNL A   1      39.259  34.063  37.306  1.00  0.00     0.009 A 
ATOM     74  C   UNL A   1      40.493  36.549  37.033  1.00  0.00     0.001 A 
ATOM     75  C   UNL A   1      39.068  35.048  38.277  1.00  0.00     0.001 A 
ATOM     76  C   UNL A   1      39.693  36.286  38.144  1.00  0.00     0.000 A 
ENDBRANCH  58  71
ENDBRANCH  32  33
ENDBRANCH  25  27
ENDBRANCH  24  25
ENDBRANCH  23  24
ENDBRANCH  22  23
ENDBRANCH   1  22
TORSDOF 16
ENDMDL
