MODEL 1
REMARK VINA RESULT:      -9.1      0.000      0.000
REMARK SMILES CC[C@@H]1CCCN1C(=O)N(CC(=O)OCCOCCOC(=O)c1ccc(-c2c3nc(c(-c4ccccc4)c4ccc([nH]4)c(-c4ccccc4)c4nc(c(-c5ccccc5)c5ccc2[nH]5)C=C4)C=C3)cc1)CC(F)(F)F
REMARK SMILES IDX 16 1 15 2 14 3 12 4 13 5 11 6 10 7 8 8 9 9 7 10 3 11 4 12
REMARK SMILES IDX 5 13 6 14 2 15 1 16 71 17 72 18 73 19 74 20 75 21 17 22
REMARK SMILES IDX 18 23 19 24 20 25 21 26 22 27 23 28 24 29 70 30 25 31 69 32
REMARK SMILES IDX 26 33 27 34 28 35 63 36 29 37 68 38 62 39 64 40 30 41 67 42
REMARK SMILES IDX 61 43 60 44 31 46 53 47 38 48 52 49 39 50 42 51 51 52 65 53
REMARK SMILES IDX 40 54 41 55 50 57 66 58 43 59 32 60 33 61 37 62 34 63 36 64
REMARK SMILES IDX 35 65 54 66 55 67 59 68 56 69 58 70 57 71 44 72 45 73 49 74
REMARK SMILES IDX 46 75 48 76 47 77
REMARK H PARENT 64 45 42 56
REMARK Flexibility Score: inf
ROOT
ATOM      1  C   UNL A   1      35.692  21.645  25.847  1.00  0.00     0.202 C 
ENDROOT
BRANCH   1   2
ATOM      2  C   UNL A   1      34.581  22.660  26.158  1.00  0.00     0.261 C 
BRANCH   2   3
ATOM      3  O   UNL A   1      33.238  22.210  25.898  1.00  0.00    -0.462 OA
BRANCH   3   4
ATOM      4  C   UNL A   1      32.267  23.013  26.414  1.00  0.00     0.325 C 
ATOM      5  O   UNL A   1      32.082  23.192  27.615  1.00  0.00    -0.250 OA
BRANCH   4   6
ATOM      6  C   UNL A   1      31.462  23.783  25.364  1.00  0.00     0.244 C 
BRANCH   6   7
ATOM      7  N   UNL A   1      31.758  25.171  25.069  1.00  0.00    -0.304 N 
BRANCH   7   8
ATOM      8  C   UNL A   1      31.097  26.296  25.470  1.00  0.00     0.321 C 
ATOM      9  O   UNL A   1      30.705  26.296  26.648  1.00  0.00    -0.248 OA
BRANCH   8  10
ATOM     10  N   UNL A   1      30.842  27.416  24.713  1.00  0.00    -0.322 N 
ATOM     11  C   UNL A   1      31.403  28.770  24.413  1.00  0.00     0.086 C 
ATOM     12  C   UNL A   1      30.205  29.458  23.724  1.00  0.00     0.027 C 
ATOM     13  C   UNL A   1      29.648  28.382  22.833  1.00  0.00     0.024 C 
ATOM     14  C   UNL A   1      29.836  27.132  23.666  1.00  0.00     0.122 C 
BRANCH  11  15
ATOM     15  C   UNL A   1      31.902  29.760  25.466  1.00  0.00     0.022 C 
ATOM     16  C   UNL A   1      33.231  29.333  26.094  1.00  0.00     0.006 C 
ENDBRANCH  11  15
ENDBRANCH   8  10
ENDBRANCH   7   8
BRANCH   7  17
ATOM     17  C   UNL A   1      33.076  25.395  24.405  1.00  0.00     0.237 C 
BRANCH  17  18
ATOM     18  C   UNL A   1      33.251  25.012  22.923  1.00  0.00     0.406 C 
ATOM     19  F   UNL A   1      33.810  23.796  22.747  1.00  0.00    -0.169 F 
ATOM     20  F   UNL A   1      32.023  24.943  22.338  1.00  0.00    -0.169 F 
ATOM     21  F   UNL A   1      33.957  25.924  22.225  1.00  0.00    -0.169 F 
ENDBRANCH  17  18
ENDBRANCH   7  17
ENDBRANCH   6   7
ENDBRANCH   4   6
ENDBRANCH   3   4
ENDBRANCH   2   3
ENDBRANCH   1   2
BRANCH   1  22
ATOM     22  O   UNL A   1      36.844  22.090  25.144  1.00  0.00    -0.374 OA
BRANCH  22  23
ATOM     23  C   UNL A   1      38.132  21.834  25.697  1.00  0.00     0.202 C 
BRANCH  23  24
ATOM     24  C   UNL A   1      38.851  20.534  25.320  1.00  0.00     0.261 C 
BRANCH  24  25
ATOM     25  O   UNL A   1      39.593  19.965  26.414  1.00  0.00    -0.460 OA
BRANCH  25  26
ATOM     26  C   UNL A   1      40.924  19.856  26.183  1.00  0.00     0.338 C 
ATOM     27  O   UNL A   1      41.489  18.993  25.520  1.00  0.00    -0.246 OA
BRANCH  26  28
ATOM     28  C   UNL A   1      41.652  21.035  26.678  1.00  0.00     0.060 A 
ATOM     29  C   UNL A   1      41.660  21.256  28.061  1.00  0.00     0.016 A 
ATOM     30  C   UNL A   1      42.170  21.992  25.806  1.00  0.00     0.016 A 
ATOM     31  C   UNL A   1      42.135  22.462  28.572  1.00  0.00     0.010 A 
ATOM     32  C   UNL A   1      42.650  23.202  26.319  1.00  0.00     0.010 A 
ATOM     33  C   UNL A   1      42.587  23.461  27.700  1.00  0.00    -0.014 A 
BRANCH  33  34
ATOM     34  C   UNL A   1      42.811  24.829  28.227  1.00  0.00     0.031 A 
ATOM     35  C   UNL A   1      44.213  25.263  28.559  1.00  0.00     0.074 A 
ATOM     36  C   UNL A   1      41.793  25.700  28.344  1.00  0.00     0.049 A 
ATOM     37  N   UNL A   1      44.646  26.427  28.974  1.00  0.00    -0.248 NA
ATOM     38  C   UNL A   1      45.271  24.253  28.389  1.00  0.00     0.031 C 
ATOM     39  C   UNL A   1      40.399  25.422  28.009  1.00  0.00     0.029 A 
ATOM     40  N   UNL A   1      41.788  27.006  28.766  1.00  0.00    -0.354 N 
ATOM     41  C   UNL A   1      46.021  26.290  29.112  1.00  0.00     0.074 A 
ATOM     42  C   UNL A   1      46.348  24.923  28.771  1.00  0.00     0.031 C 
ATOM     43  C   UNL A   1      39.670  26.531  28.230  1.00  0.00     0.029 A 
ATOM     44  C   UNL A   1      40.543  27.584  28.744  1.00  0.00     0.049 A 
ATOM     45  H   UNL A   1      42.599  27.482  29.057  1.00  0.00     0.167 HD
ATOM     46  C   UNL A   1      46.937  27.220  29.478  1.00  0.00     0.031 A 
ATOM     47  C   UNL A   1      40.153  28.822  29.105  1.00  0.00     0.031 A 
ATOM     48  C   UNL A   1      46.618  28.573  29.841  1.00  0.00     0.049 A 
ATOM     49  C   UNL A   1      41.174  29.808  29.603  1.00  0.00     0.074 A 
ATOM     50  C   UNL A   1      47.475  29.590  30.225  1.00  0.00     0.029 A 
ATOM     51  N   UNL A   1      45.336  29.097  29.876  1.00  0.00    -0.354 N 
ATOM     52  N   UNL A   1      42.474  29.673  29.705  1.00  0.00    -0.248 NA
ATOM     53  C   UNL A   1      40.671  31.123  30.028  1.00  0.00     0.031 C 
ATOM     54  C   UNL A   1      46.705  30.715  30.540  1.00  0.00     0.029 A 
ATOM     55  C   UNL A   1      45.375  30.414  30.301  1.00  0.00     0.049 A 
ATOM     56  H   UNL A   1      44.517  28.605  29.634  1.00  0.00     0.167 HD
ATOM     57  C   UNL A   1      42.946  30.891  30.179  1.00  0.00     0.074 A 
ATOM     58  C   UNL A   1      41.795  31.756  30.334  1.00  0.00     0.031 C 
ATOM     59  C   UNL A   1      44.221  31.262  30.455  1.00  0.00     0.031 A 
BRANCH  46  60
ATOM     60  C   UNL A   1      48.373  26.781  29.533  1.00  0.00    -0.014 A 
ATOM     61  C   UNL A   1      48.921  26.230  30.703  1.00  0.00     0.009 A 
ATOM     62  C   UNL A   1      49.185  26.909  28.397  1.00  0.00     0.009 A 
ATOM     63  C   UNL A   1      50.263  25.851  30.743  1.00  0.00     0.001 A 
ATOM     64  C   UNL A   1      50.521  26.505  28.432  1.00  0.00     0.001 A 
ATOM     65  C   UNL A   1      51.062  25.986  29.607  1.00  0.00     0.000 A 
ENDBRANCH  46  60
BRANCH  47  66
ATOM     66  C   UNL A   1      38.720  29.204  29.012  1.00  0.00    -0.014 A 
ATOM     67  C   UNL A   1      37.869  29.061  30.118  1.00  0.00     0.009 A 
ATOM     68  C   UNL A   1      38.194  29.699  27.809  1.00  0.00     0.009 A 
ATOM     69  C   UNL A   1      36.516  29.389  30.016  1.00  0.00     0.001 A 
ATOM     70  C   UNL A   1      36.845  30.050  27.717  1.00  0.00     0.001 A 
ATOM     71  C   UNL A   1      36.006  29.887  28.818  1.00  0.00     0.000 A 
ENDBRANCH  47  66
BRANCH  59  72
ATOM     72  C   UNL A   1      44.442  32.672  30.924  1.00  0.00    -0.014 A 
ATOM     73  C   UNL A   1      44.640  33.721  30.014  1.00  0.00     0.009 A 
ATOM     74  C   UNL A   1      44.407  32.960  32.299  1.00  0.00     0.009 A 
ATOM     75  C   UNL A   1      44.830  35.026  30.472  1.00  0.00     0.001 A 
ATOM     76  C   UNL A   1      44.571  34.270  32.752  1.00  0.00     0.001 A 
ATOM     77  C   UNL A   1      44.792  35.300  31.839  1.00  0.00     0.000 A 
ENDBRANCH  59  72
ENDBRANCH  33  34
ENDBRANCH  26  28
ENDBRANCH  25  26
ENDBRANCH  24  25
ENDBRANCH  23  24
ENDBRANCH  22  23
ENDBRANCH   1  22
TORSDOF 20
ENDMDL
MODEL 2
REMARK VINA RESULT:      -8.7      1.974      2.614
REMARK SMILES CC[C@@H]1CCCN1C(=O)N(CC(=O)OCCOCCOC(=O)c1ccc(-c2c3nc(c(-c4ccccc4)c4ccc([nH]4)c(-c4ccccc4)c4nc(c(-c5ccccc5)c5ccc2[nH]5)C=C4)C=C3)cc1)CC(F)(F)F
REMARK SMILES IDX 16 1 15 2 14 3 12 4 13 5 11 6 10 7 8 8 9 9 7 10 3 11 4 12
REMARK SMILES IDX 5 13 6 14 2 15 1 16 71 17 72 18 73 19 74 20 75 21 17 22
REMARK SMILES IDX 18 23 19 24 20 25 21 26 22 27 23 28 24 29 70 30 25 31 69 32
REMARK SMILES IDX 26 33 27 34 28 35 63 36 29 37 68 38 62 39 64 40 30 41 67 42
REMARK SMILES IDX 61 43 60 44 31 46 53 47 38 48 52 49 39 50 42 51 51 52 65 53
REMARK SMILES IDX 40 54 41 55 50 57 66 58 43 59 32 60 33 61 37 62 34 63 36 64
REMARK SMILES IDX 35 65 54 66 55 67 59 68 56 69 58 70 57 71 44 72 45 73 49 74
REMARK SMILES IDX 46 75 48 76 47 77
REMARK H PARENT 64 45 42 56
REMARK Flexibility Score: inf
ROOT
ATOM      1  C   UNL A   1      37.353  22.724  25.377  1.00  0.00     0.202 C 
ENDROOT
BRANCH   1   2
ATOM      2  C   UNL A   1      36.124  23.644  25.321  1.00  0.00     0.261 C 
BRANCH   2   3
ATOM      3  O   UNL A   1      35.163  23.462  26.378  1.00  0.00    -0.462 OA
BRANCH   3   4
ATOM      4  C   UNL A   1      34.590  22.226  26.409  1.00  0.00     0.325 C 
ATOM      5  O   UNL A   1      34.464  21.547  27.425  1.00  0.00    -0.250 OA
BRANCH   4   6
ATOM      6  C   UNL A   1      34.003  21.771  25.072  1.00  0.00     0.244 C 
BRANCH   6   7
ATOM      7  N   UNL A   1      32.585  21.501  24.934  1.00  0.00    -0.304 N 
BRANCH   7   8
ATOM      8  C   UNL A   1      31.524  22.329  25.163  1.00  0.00     0.321 C 
ATOM      9  O   UNL A   1      30.578  21.827  25.792  1.00  0.00    -0.248 OA
BRANCH   8  10
ATOM     10  N   UNL A   1      31.412  23.647  24.786  1.00  0.00    -0.322 N 
ATOM     11  C   UNL A   1      31.994  24.994  25.076  1.00  0.00     0.086 C 
ATOM     12  C   UNL A   1      30.954  25.930  24.424  1.00  0.00     0.027 C 
ATOM     13  C   UNL A   1      30.621  25.238  23.132  1.00  0.00     0.024 C 
ATOM     14  C   UNL A   1      30.656  23.775  23.521  1.00  0.00     0.122 C 
BRANCH  11  15
ATOM     15  C   UNL A   1      32.237  25.555  26.478  1.00  0.00     0.022 C 
ATOM     16  C   UNL A   1      31.563  26.913  26.694  1.00  0.00     0.006 C 
ENDBRANCH  11  15
ENDBRANCH   8  10
ENDBRANCH   7   8
BRANCH   7  17
ATOM     17  C   UNL A   1      32.265  20.206  24.263  1.00  0.00     0.237 C 
BRANCH  17  18
ATOM     18  C   UNL A   1      32.854  18.897  24.823  1.00  0.00     0.406 C 
ATOM     19  F   UNL A   1      32.967  18.894  26.168  1.00  0.00    -0.169 F 
ATOM     20  F   UNL A   1      32.011  17.871  24.520  1.00  0.00    -0.169 F 
ATOM     21  F   UNL A   1      34.049  18.585  24.281  1.00  0.00    -0.169 F 
ENDBRANCH  17  18
ENDBRANCH   7  17
ENDBRANCH   6   7
ENDBRANCH   4   6
ENDBRANCH   3   4
ENDBRANCH   2   3
ENDBRANCH   1   2
BRANCH   1  22
ATOM     22  O   UNL A   1      38.491  23.150  26.115  1.00  0.00    -0.374 OA
BRANCH  22  23
ATOM     23  C   UNL A   1      39.389  22.169  26.625  1.00  0.00     0.202 C 
BRANCH  23  24
ATOM     24  C   UNL A   1      39.587  20.869  25.836  1.00  0.00     0.261 C 
BRANCH  24  25
ATOM     25  O   UNL A   1      40.465  19.940  26.496  1.00  0.00    -0.460 OA
BRANCH  25  26
ATOM     26  C   UNL A   1      41.744  19.973  26.047  1.00  0.00     0.338 C 
ATOM     27  O   UNL A   1      42.273  19.189  25.268  1.00  0.00    -0.246 OA
BRANCH  26  28
ATOM     28  C   UNL A   1      42.425  21.208  26.465  1.00  0.00     0.060 A 
ATOM     29  C   UNL A   1      42.600  21.418  27.839  1.00  0.00     0.016 A 
ATOM     30  C   UNL A   1      42.735  22.216  25.551  1.00  0.00     0.016 A 
ATOM     31  C   UNL A   1      43.031  22.658  28.306  1.00  0.00     0.010 A 
ATOM     32  C   UNL A   1      43.171  23.460  26.020  1.00  0.00     0.010 A 
ATOM     33  C   UNL A   1      43.272  23.701  27.402  1.00  0.00    -0.014 A 
BRANCH  33  34
ATOM     34  C   UNL A   1      43.443  25.079  27.923  1.00  0.00     0.031 A 
ATOM     35  C   UNL A   1      44.835  25.613  28.130  1.00  0.00     0.074 A 
ATOM     36  C   UNL A   1      42.380  25.872  28.142  1.00  0.00     0.049 A 
ATOM     37  N   UNL A   1      45.218  26.804  28.517  1.00  0.00    -0.248 NA
ATOM     38  C   UNL A   1      45.943  24.684  27.852  1.00  0.00     0.031 C 
ATOM     39  C   UNL A   1      40.984  25.494  27.933  1.00  0.00     0.029 A 
ATOM     40  N   UNL A   1      42.319  27.172  28.578  1.00  0.00    -0.354 N 
ATOM     41  C   UNL A   1      46.607  26.767  28.527  1.00  0.00     0.074 A 
ATOM     42  C   UNL A   1      46.999  25.430  28.142  1.00  0.00     0.031 C 
ATOM     43  C   UNL A   1      40.201  26.545  28.232  1.00  0.00     0.029 A 
ATOM     44  C   UNL A   1      41.039  27.657  28.677  1.00  0.00     0.049 A 
ATOM     45  H   UNL A   1      43.116  27.705  28.800  1.00  0.00     0.167 HD
ATOM     46  C   UNL A   1      47.482  27.760  28.819  1.00  0.00     0.031 A 
ATOM     47  C   UNL A   1      40.594  28.862  29.086  1.00  0.00     0.031 A 
ATOM     48  C   UNL A   1      47.100  29.085  29.225  1.00  0.00     0.049 A 
ATOM     49  C   UNL A   1      41.583  29.917  29.500  1.00  0.00     0.074 A 
ATOM     50  C   UNL A   1      47.913  30.160  29.541  1.00  0.00     0.029 A 
ATOM     51  N   UNL A   1      45.792  29.512  29.383  1.00  0.00    -0.354 N 
ATOM     52  N   UNL A   1      42.893  29.878  29.481  1.00  0.00    -0.248 NA
ATOM     53  C   UNL A   1      41.026  31.189  29.985  1.00  0.00     0.031 C 
ATOM     54  C   UNL A   1      47.096  31.223  29.938  1.00  0.00     0.029 A 
ATOM     55  C   UNL A   1      45.775  30.827  29.818  1.00  0.00     0.049 A 
ATOM     56  H   UNL A   1      44.993  28.963  29.211  1.00  0.00     0.167 HD
ATOM     57  C   UNL A   1      43.317  31.125  29.924  1.00  0.00     0.074 A 
ATOM     58  C   UNL A   1      42.125  31.902  30.194  1.00  0.00     0.031 C 
ATOM     59  C   UNL A   1      44.581  31.587  30.087  1.00  0.00     0.031 A 
BRANCH  46  60
ATOM     60  C   UNL A   1      48.945  27.428  28.737  1.00  0.00    -0.014 A 
ATOM     61  C   UNL A   1      49.733  27.875  27.664  1.00  0.00     0.009 A 
ATOM     62  C   UNL A   1      49.546  26.669  29.752  1.00  0.00     0.009 A 
ATOM     63  C   UNL A   1      51.085  27.536  27.592  1.00  0.00     0.001 A 
ATOM     64  C   UNL A   1      50.904  26.353  29.691  1.00  0.00     0.001 A 
ATOM     65  C   UNL A   1      51.671  26.778  28.607  1.00  0.00     0.000 A 
ENDBRANCH  46  60
BRANCH  47  66
ATOM     66  C   UNL A   1      39.135  29.138  29.129  1.00  0.00    -0.014 A 
ATOM     67  C   UNL A   1      38.484  29.716  28.029  1.00  0.00     0.009 A 
ATOM     68  C   UNL A   1      38.389  28.838  30.280  1.00  0.00     0.009 A 
ATOM     69  C   UNL A   1      37.120  30.005  28.087  1.00  0.00     0.001 A 
ATOM     70  C   UNL A   1      37.019  29.104  30.325  1.00  0.00     0.001 A 
ATOM     71  C   UNL A   1      36.388  29.695  29.232  1.00  0.00     0.000 A 
ENDBRANCH  47  66
BRANCH  59  72
ATOM     72  C   UNL A   1      44.741  33.007  30.550  1.00  0.00    -0.014 A 
ATOM     73  C   UNL A   1      44.840  33.323  31.913  1.00  0.00     0.009 A 
ATOM     74  C   UNL A   1      44.838  34.039  29.602  1.00  0.00     0.009 A 
ATOM     75  C   UNL A   1      45.001  34.650  32.321  1.00  0.00     0.001 A 
ATOM     76  C   UNL A   1      45.026  35.360  30.011  1.00  0.00     0.001 A 
ATOM     77  C   UNL A   1      45.098  35.665  31.370  1.00  0.00     0.000 A 
ENDBRANCH  59  72
ENDBRANCH  33  34
ENDBRANCH  26  28
ENDBRANCH  25  26
ENDBRANCH  24  25
ENDBRANCH  23  24
ENDBRANCH  22  23
ENDBRANCH   1  22
TORSDOF 20
ENDMDL
MODEL 3
REMARK VINA RESULT:      -8.7      3.259      4.757
REMARK SMILES CC[C@@H]1CCCN1C(=O)N(CC(=O)OCCOCCOC(=O)c1ccc(-c2c3nc(c(-c4ccccc4)c4ccc([nH]4)c(-c4ccccc4)c4nc(c(-c5ccccc5)c5ccc2[nH]5)C=C4)C=C3)cc1)CC(F)(F)F
REMARK SMILES IDX 16 1 15 2 14 3 12 4 13 5 11 6 10 7 8 8 9 9 7 10 3 11 4 12
REMARK SMILES IDX 5 13 6 14 2 15 1 16 71 17 72 18 73 19 74 20 75 21 17 22
REMARK SMILES IDX 18 23 19 24 20 25 21 26 22 27 23 28 24 29 70 30 25 31 69 32
REMARK SMILES IDX 26 33 27 34 28 35 63 36 29 37 68 38 62 39 64 40 30 41 67 42
REMARK SMILES IDX 61 43 60 44 31 46 53 47 38 48 52 49 39 50 42 51 51 52 65 53
REMARK SMILES IDX 40 54 41 55 50 57 66 58 43 59 32 60 33 61 37 62 34 63 36 64
REMARK SMILES IDX 35 65 54 66 55 67 59 68 56 69 58 70 57 71 44 72 45 73 49 74
REMARK SMILES IDX 46 75 48 76 47 77
REMARK H PARENT 64 45 42 56
REMARK Flexibility Score: inf
ROOT
ATOM      1  C   UNL A   1      39.181  22.045  26.125  1.00  0.00     0.202 C 
ENDROOT
BRANCH   1   2
ATOM      2  C   UNL A   1      38.113  21.269  25.338  1.00  0.00     0.261 C 
BRANCH   2   3
ATOM      3  O   UNL A   1      36.858  21.952  25.153  1.00  0.00    -0.462 OA
BRANCH   3   4
ATOM      4  C   UNL A   1      35.778  21.127  25.068  1.00  0.00     0.325 C 
ATOM      5  O   UNL A   1      35.846  19.905  24.965  1.00  0.00    -0.250 OA
BRANCH   4   6
ATOM      6  C   UNL A   1      34.431  21.837  25.217  1.00  0.00     0.244 C 
BRANCH   6   7
ATOM      7  N   UNL A   1      34.197  23.129  24.601  1.00  0.00    -0.304 N 
BRANCH   7   8
ATOM      8  C   UNL A   1      34.074  24.354  25.190  1.00  0.00     0.321 C 
ATOM      9  O   UNL A   1      35.139  24.888  25.543  1.00  0.00    -0.248 OA
BRANCH   8  10
ATOM     10  N   UNL A   1      32.908  25.049  25.411  1.00  0.00    -0.322 N 
ATOM     11  C   UNL A   1      32.239  26.340  25.061  1.00  0.00     0.086 C 
ATOM     12  C   UNL A   1      31.094  26.389  26.096  1.00  0.00     0.027 C 
ATOM     13  C   UNL A   1      30.590  24.973  26.127  1.00  0.00     0.024 C 
ATOM     14  C   UNL A   1      31.860  24.165  25.967  1.00  0.00     0.122 C 
BRANCH  11  15
ATOM     15  C   UNL A   1      32.909  27.713  25.118  1.00  0.00     0.022 C 
ATOM     16  C   UNL A   1      33.924  27.920  23.990  1.00  0.00     0.006 C 
ENDBRANCH  11  15
ENDBRANCH   8  10
ENDBRANCH   7   8
BRANCH   7  17
ATOM     17  C   UNL A   1      34.307  23.132  23.113  1.00  0.00     0.237 C 
BRANCH  17  18
ATOM     18  C   UNL A   1      33.028  23.236  22.260  1.00  0.00     0.406 C 
ATOM     19  F   UNL A   1      33.226  22.932  20.960  1.00  0.00    -0.169 F 
ATOM     20  F   UNL A   1      32.119  22.331  22.718  1.00  0.00    -0.169 F 
ATOM     21  F   UNL A   1      32.439  24.446  22.342  1.00  0.00    -0.169 F 
ENDBRANCH  17  18
ENDBRANCH   7  17
ENDBRANCH   6   7
ENDBRANCH   4   6
ENDBRANCH   3   4
ENDBRANCH   2   3
ENDBRANCH   1   2
BRANCH   1  22
ATOM     22  O   UNL A   1      39.977  21.343  27.069  1.00  0.00    -0.374 OA
BRANCH  22  23
ATOM     23  C   UNL A   1      41.177  20.715  26.627  1.00  0.00     0.202 C 
BRANCH  23  24
ATOM     24  C   UNL A   1      42.207  21.550  25.857  1.00  0.00     0.261 C 
BRANCH  24  25
ATOM     25  O   UNL A   1      42.735  22.642  26.631  1.00  0.00    -0.460 OA
BRANCH  25  26
ATOM     26  C   UNL A   1      42.836  23.808  25.947  1.00  0.00     0.338 C 
ATOM     27  O   UNL A   1      43.272  23.962  24.812  1.00  0.00    -0.246 OA
BRANCH  26  28
ATOM     28  C   UNL A   1      42.170  24.907  26.663  1.00  0.00     0.060 A 
ATOM     29  C   UNL A   1      42.713  26.191  26.526  1.00  0.00     0.016 A 
ATOM     30  C   UNL A   1      41.146  24.667  27.578  1.00  0.00     0.016 A 
ATOM     31  C   UNL A   1      42.272  27.227  27.346  1.00  0.00     0.010 A 
ATOM     32  C   UNL A   1      40.699  25.708  28.399  1.00  0.00     0.010 A 
ATOM     33  C   UNL A   1      41.297  26.979  28.321  1.00  0.00    -0.014 A 
BRANCH  33  34
ATOM     34  C   UNL A   1      41.050  28.000  29.368  1.00  0.00     0.031 A 
ATOM     35  C   UNL A   1      41.998  28.093  30.534  1.00  0.00     0.074 A 
ATOM     36  C   UNL A   1      40.041  28.880  29.252  1.00  0.00     0.049 A 
ATOM     37  N   UNL A   1      42.009  28.944  31.529  1.00  0.00    -0.248 NA
ATOM     38  C   UNL A   1      43.084  27.100  30.578  1.00  0.00     0.031 C 
ATOM     39  C   UNL A   1      39.084  28.931  28.149  1.00  0.00     0.029 A 
ATOM     40  N   UNL A   1      39.666  29.914  30.074  1.00  0.00    -0.354 N 
ATOM     41  C   UNL A   1      43.100  28.592  32.313  1.00  0.00     0.074 A 
ATOM     42  C   UNL A   1      43.707  27.431  31.700  1.00  0.00     0.031 C 
ATOM     43  C   UNL A   1      38.235  29.952  28.357  1.00  0.00     0.029 A 
ATOM     44  C   UNL A   1      38.574  30.608  29.618  1.00  0.00     0.049 A 
ATOM     45  H   UNL A   1      40.136  30.136  30.911  1.00  0.00     0.167 HD
ATOM     46  C   UNL A   1      43.567  29.186  33.438  1.00  0.00     0.031 A 
ATOM     47  C   UNL A   1      37.917  31.652  30.163  1.00  0.00     0.031 A 
ATOM     48  C   UNL A   1      42.957  30.325  34.067  1.00  0.00     0.049 A 
ATOM     49  C   UNL A   1      38.396  32.234  31.465  1.00  0.00     0.074 A 
ATOM     50  C   UNL A   1      43.356  31.000  35.208  1.00  0.00     0.029 A 
ATOM     51  N   UNL A   1      41.808  30.953  33.613  1.00  0.00    -0.354 N 
ATOM     52  N   UNL A   1      39.443  31.907  32.182  1.00  0.00    -0.248 NA
ATOM     53  C   UNL A   1      37.602  33.336  32.027  1.00  0.00     0.031 C 
ATOM     54  C   UNL A   1      42.420  32.005  35.471  1.00  0.00     0.029 A 
ATOM     55  C   UNL A   1      41.469  31.989  34.465  1.00  0.00     0.049 A 
ATOM     56  H   UNL A   1      41.308  30.699  32.803  1.00  0.00     0.167 HD
ATOM     57  C   UNL A   1      39.450  32.780  33.264  1.00  0.00     0.074 A 
ATOM     58  C   UNL A   1      38.309  33.656  33.103  1.00  0.00     0.031 C 
ATOM     59  C   UNL A   1      40.327  32.851  34.295  1.00  0.00     0.031 A 
BRANCH  46  60
ATOM     60  C   UNL A   1      44.787  28.583  34.075  1.00  0.00    -0.014 A 
ATOM     61  C   UNL A   1      46.078  29.016  33.729  1.00  0.00     0.009 A 
ATOM     62  C   UNL A   1      44.644  27.576  35.041  1.00  0.00     0.009 A 
ATOM     63  C   UNL A   1      47.200  28.427  34.313  1.00  0.00     0.001 A 
ATOM     64  C   UNL A   1      45.768  27.006  35.642  1.00  0.00     0.001 A 
ATOM     65  C   UNL A   1      47.045  27.425  35.271  1.00  0.00     0.000 A 
ENDBRANCH  46  60
BRANCH  47  66
ATOM     66  C   UNL A   1      36.727  32.218  29.477  1.00  0.00    -0.014 A 
ATOM     67  C   UNL A   1      35.453  31.670  29.689  1.00  0.00     0.009 A 
ATOM     68  C   UNL A   1      36.863  33.300  28.594  1.00  0.00     0.009 A 
ATOM     69  C   UNL A   1      34.342  32.183  29.016  1.00  0.00     0.001 A 
ATOM     70  C   UNL A   1      35.747  33.827  27.942  1.00  0.00     0.001 A 
ATOM     71  C   UNL A   1      34.489  33.263  28.148  1.00  0.00     0.000 A 
ENDBRANCH  47  66
BRANCH  59  72
ATOM     72  C   UNL A   1      40.105  33.934  35.314  1.00  0.00    -0.014 A 
ATOM     73  C   UNL A   1      39.623  33.639  36.597  1.00  0.00     0.009 A 
ATOM     74  C   UNL A   1      40.426  35.263  34.994  1.00  0.00     0.009 A 
ATOM     75  C   UNL A   1      39.437  34.660  37.533  1.00  0.00     0.001 A 
ATOM     76  C   UNL A   1      40.264  36.277  35.939  1.00  0.00     0.001 A 
ATOM     77  C   UNL A   1      39.761  35.976  37.204  1.00  0.00     0.000 A 
ENDBRANCH  59  72
ENDBRANCH  33  34
ENDBRANCH  26  28
ENDBRANCH  25  26
ENDBRANCH  24  25
ENDBRANCH  23  24
ENDBRANCH  22  23
ENDBRANCH   1  22
TORSDOF 20
ENDMDL
