MODEL 1
REMARK VINA RESULT:      -8.9      0.000      0.000
REMARK SMILES Cc1ncccc1C(=O)N1CC[C@H](C(=O)OCCOCCOC(=O)c2ccc(-c3c4nc(c(-c5ccccc5)c5ccc([nH]5)c(-c5ccccc5)c5nc(c(-c6ccccc6)c6ccc3[nH]6)C=C5)C=C4)cc2)C1
REMARK SMILES IDX 19 1 18 2 17 3 16 4 14 5 15 6 13 7 10 8 11 9 73 10 12 11
REMARK SMILES IDX 8 12 9 13 7 14 1 15 2 16 3 17 4 18 6 19 5 20 20 21 21 22
REMARK SMILES IDX 22 23 23 24 24 25 25 26 26 27 72 28 27 29 71 30 28 31 29 32
REMARK SMILES IDX 30 33 65 34 31 35 70 36 64 37 66 38 32 39 69 40 63 41 62 42
REMARK SMILES IDX 33 44 55 45 40 46 54 47 41 48 44 49 53 50 67 51 42 52 43 53
REMARK SMILES IDX 52 55 68 56 45 57 34 58 35 59 39 60 36 61 38 62 37 63 56 64
REMARK SMILES IDX 57 65 61 66 58 67 60 68 59 69 46 70 47 71 51 72 48 73 50 74
REMARK SMILES IDX 49 75
REMARK H PARENT 66 43 44 54
REMARK Flexibility Score: inf
ROOT
ATOM      1  O   UNL A   1      32.737  34.425  29.137  1.00  0.00    -0.374 OA
ENDROOT
BRANCH   1   2
ATOM      2  C   UNL A   1      33.036  35.703  29.692  1.00  0.00     0.202 C 
BRANCH   2   3
ATOM      3  C   UNL A   1      32.877  35.849  31.209  1.00  0.00     0.261 C 
BRANCH   3   4
ATOM      4  O   UNL A   1      34.115  36.205  31.852  1.00  0.00    -0.463 OA
BRANCH   4   5
ATOM      5  C   UNL A   1      34.574  35.326  32.782  1.00  0.00     0.310 C 
ATOM      6  O   UNL A   1      34.747  35.583  33.967  1.00  0.00    -0.252 OA
BRANCH   5   7
ATOM      7  C   UNL A   1      34.919  33.975  32.196  1.00  0.00     0.120 C 
ATOM      8  N   UNL A   1      36.574  32.487  32.986  1.00  0.00    -0.338 N 
ATOM      9  C   UNL A   1      36.771  32.577  31.555  1.00  0.00     0.121 C 
ATOM     10  C   UNL A   1      35.273  33.029  33.338  1.00  0.00     0.135 C 
ATOM     11  C   UNL A   1      36.110  33.906  31.223  1.00  0.00     0.039 C 
BRANCH   8  12
ATOM     12  C   UNL A   1      37.364  31.958  33.983  1.00  0.00     0.255 C 
ATOM     13  O   UNL A   1      37.120  32.194  35.169  1.00  0.00    -0.269 OA
BRANCH  12  14
ATOM     14  C   UNL A   1      38.565  31.135  33.704  1.00  0.00     0.061 A 
ATOM     15  C   UNL A   1      40.257  32.637  34.920  1.00  0.00     0.067 C 
ATOM     16  C   UNL A   1      39.855  31.396  34.182  1.00  0.00     0.050 A 
ATOM     17  N   UNL A   1      40.871  30.494  34.054  1.00  0.00    -0.261 NA
ATOM     18  C   UNL A   1      40.590  29.283  33.528  1.00  0.00     0.111 A 
ATOM     19  C   UNL A   1      38.323  29.869  33.148  1.00  0.00     0.017 A 
ATOM     20  C   UNL A   1      39.340  28.924  33.068  1.00  0.00     0.021 A 
ENDBRANCH  12  14
ENDBRANCH   8  12
ENDBRANCH   5   7
ENDBRANCH   4   5
ENDBRANCH   3   4
ENDBRANCH   2   3
ENDBRANCH   1   2
BRANCH   1  21
ATOM     21  C   UNL A   1      33.694  33.856  28.246  1.00  0.00     0.202 C 
BRANCH  21  22
ATOM     22  C   UNL A   1      34.200  32.447  28.580  1.00  0.00     0.261 C 
BRANCH  22  23
ATOM     23  O   UNL A   1      34.200  31.572  27.438  1.00  0.00    -0.460 OA
BRANCH  23  24
ATOM     24  C   UNL A   1      34.378  30.261  27.729  1.00  0.00     0.338 C 
ATOM     25  O   UNL A   1      33.585  29.345  27.543  1.00  0.00    -0.246 OA
BRANCH  24  26
ATOM     26  C   UNL A   1      35.763  30.017  28.165  1.00  0.00     0.060 A 
ATOM     27  C   UNL A   1      36.779  30.169  27.212  1.00  0.00     0.016 A 
ATOM     28  C   UNL A   1      36.062  29.579  29.456  1.00  0.00     0.016 A 
ATOM     29  C   UNL A   1      38.096  29.854  27.540  1.00  0.00     0.010 A 
ATOM     30  C   UNL A   1      37.384  29.254  29.779  1.00  0.00     0.010 A 
ATOM     31  C   UNL A   1      38.404  29.367  28.817  1.00  0.00    -0.014 A 
BRANCH  31  32
ATOM     32  C   UNL A   1      39.779  28.902  29.119  1.00  0.00     0.031 A 
ATOM     33  C   UNL A   1      40.743  29.828  29.807  1.00  0.00     0.074 A 
ATOM     34  C   UNL A   1      40.161  27.656  28.793  1.00  0.00     0.049 A 
ATOM     35  N   UNL A   1      41.997  29.628  30.125  1.00  0.00    -0.248 NA
ATOM     36  C   UNL A   1      40.226  31.152  30.188  1.00  0.00     0.031 C 
ATOM     37  C   UNL A   1      39.309  26.649  28.160  1.00  0.00     0.029 A 
ATOM     38  N   UNL A   1      41.373  27.029  28.941  1.00  0.00    -0.354 N 
ATOM     39  C   UNL A   1      42.422  30.801  30.737  1.00  0.00     0.074 A 
ATOM     40  C   UNL A   1      41.300  31.715  30.726  1.00  0.00     0.031 C 
ATOM     41  C   UNL A   1      40.030  25.532  27.963  1.00  0.00     0.029 A 
ATOM     42  C   UNL A   1      41.399  25.758  28.422  1.00  0.00     0.049 A 
ATOM     43  H   UNL A   1      42.148  27.449  29.379  1.00  0.00     0.167 HD
ATOM     44  C   UNL A   1      43.638  31.089  31.262  1.00  0.00     0.031 A 
ATOM     45  C   UNL A   1      42.418  24.886  28.303  1.00  0.00     0.031 A 
ATOM     46  C   UNL A   1      44.760  30.189  31.258  1.00  0.00     0.049 A 
ATOM     47  C   UNL A   1      43.782  25.265  28.811  1.00  0.00     0.074 A 
ATOM     48  C   UNL A   1      46.023  30.383  31.792  1.00  0.00     0.029 A 
ATOM     49  N   UNL A   1      44.760  28.931  30.677  1.00  0.00    -0.354 N 
ATOM     50  N   UNL A   1      44.162  26.362  29.420  1.00  0.00    -0.248 NA
ATOM     51  C   UNL A   1      44.859  24.283  28.614  1.00  0.00     0.031 C 
ATOM     52  C   UNL A   1      46.806  29.265  31.482  1.00  0.00     0.029 A 
ATOM     53  C   UNL A   1      46.012  28.352  30.805  1.00  0.00     0.049 A 
ATOM     54  H   UNL A   1      43.985  28.510  30.241  1.00  0.00     0.167 HD
ATOM     55  C   UNL A   1      45.514  26.196  29.693  1.00  0.00     0.074 A 
ATOM     56  C   UNL A   1      45.883  24.885  29.201  1.00  0.00     0.031 C 
ATOM     57  C   UNL A   1      46.372  27.053  30.298  1.00  0.00     0.031 A 
BRANCH  44  58
ATOM     58  C   UNL A   1      43.828  32.457  31.853  1.00  0.00    -0.014 A 
ATOM     59  C   UNL A   1      43.611  32.700  33.219  1.00  0.00     0.009 A 
ATOM     60  C   UNL A   1      44.272  33.510  31.037  1.00  0.00     0.009 A 
ATOM     61  C   UNL A   1      43.806  33.977  33.748  1.00  0.00     0.001 A 
ATOM     62  C   UNL A   1      44.489  34.781  31.575  1.00  0.00     0.001 A 
ATOM     63  C   UNL A   1      44.248  35.014  32.927  1.00  0.00     0.000 A 
ENDBRANCH  44  58
BRANCH  45  64
ATOM     64  C   UNL A   1      42.196  23.575  27.639  1.00  0.00    -0.014 A 
ATOM     65  C   UNL A   1      42.423  23.420  26.264  1.00  0.00     0.009 A 
ATOM     66  C   UNL A   1      41.744  22.473  28.381  1.00  0.00     0.009 A 
ATOM     67  C   UNL A   1      42.183  22.192  25.642  1.00  0.00     0.001 A 
ATOM     68  C   UNL A   1      41.532  21.239  27.764  1.00  0.00     0.001 A 
ATOM     69  C   UNL A   1      41.743  21.102  26.393  1.00  0.00     0.000 A 
ENDBRANCH  45  64
BRANCH  57  70
ATOM     70  C   UNL A   1      47.793  26.595  30.474  1.00  0.00    -0.014 A 
ATOM     71  C   UNL A   1      48.778  26.908  29.525  1.00  0.00     0.009 A 
ATOM     72  C   UNL A   1      48.158  25.879  31.625  1.00  0.00     0.009 A 
ATOM     73  C   UNL A   1      50.096  26.487  29.711  1.00  0.00     0.001 A 
ATOM     74  C   UNL A   1      49.482  25.481  31.820  1.00  0.00     0.001 A 
ATOM     75  C   UNL A   1      50.447  25.778  30.860  1.00  0.00     0.000 A 
ENDBRANCH  57  70
ENDBRANCH  31  32
ENDBRANCH  24  26
ENDBRANCH  23  24
ENDBRANCH  22  23
ENDBRANCH  21  22
ENDBRANCH   1  21
TORSDOF 16
ENDMDL
MODEL 2
REMARK VINA RESULT:      -8.6      4.160      9.650
REMARK SMILES Cc1ncccc1C(=O)N1CC[C@H](C(=O)OCCOCCOC(=O)c2ccc(-c3c4nc(c(-c5ccccc5)c5ccc([nH]5)c(-c5ccccc5)c5nc(c(-c6ccccc6)c6ccc3[nH]6)C=C5)C=C4)cc2)C1
REMARK SMILES IDX 19 1 18 2 17 3 16 4 14 5 15 6 13 7 10 8 11 9 73 10 12 11
REMARK SMILES IDX 8 12 9 13 7 14 1 15 2 16 3 17 4 18 6 19 5 20 20 21 21 22
REMARK SMILES IDX 22 23 23 24 24 25 25 26 26 27 72 28 27 29 71 30 28 31 29 32
REMARK SMILES IDX 30 33 65 34 31 35 70 36 64 37 66 38 32 39 69 40 63 41 62 42
REMARK SMILES IDX 33 44 55 45 40 46 54 47 41 48 44 49 53 50 67 51 42 52 43 53
REMARK SMILES IDX 52 55 68 56 45 57 34 58 35 59 39 60 36 61 38 62 37 63 56 64
REMARK SMILES IDX 57 65 61 66 58 67 60 68 59 69 46 70 47 71 51 72 48 73 50 74
REMARK SMILES IDX 49 75
REMARK H PARENT 66 43 44 54
REMARK Flexibility Score: inf
ROOT
ATOM      1  O   UNL A   1      38.219  22.266  26.080  1.00  0.00    -0.374 OA
ENDROOT
BRANCH   1   2
ATOM      2  C   UNL A   1      37.688  23.566  25.835  1.00  0.00     0.202 C 
BRANCH   2   3
ATOM      3  C   UNL A   1      36.374  23.635  25.051  1.00  0.00     0.261 C 
BRANCH   3   4
ATOM      4  O   UNL A   1      35.270  24.043  25.880  1.00  0.00    -0.463 OA
BRANCH   4   5
ATOM      5  C   UNL A   1      34.445  23.048  26.302  1.00  0.00     0.310 C 
ATOM      6  O   UNL A   1      34.790  22.092  26.984  1.00  0.00    -0.252 OA
BRANCH   5   7
ATOM      7  C   UNL A   1      33.029  23.200  25.791  1.00  0.00     0.120 C 
ATOM      8  N   UNL A   1      31.657  25.108  26.017  1.00  0.00    -0.338 N 
ATOM      9  C   UNL A   1      30.838  23.981  26.411  1.00  0.00     0.121 C 
ATOM     10  C   UNL A   1      32.839  24.636  25.317  1.00  0.00     0.135 C 
ATOM     11  C   UNL A   1      31.883  22.941  26.786  1.00  0.00     0.039 C 
BRANCH   8  12
ATOM     12  C   UNL A   1      31.466  26.465  26.159  1.00  0.00     0.255 C 
ATOM     13  O   UNL A   1      31.384  26.973  27.280  1.00  0.00    -0.269 OA
BRANCH  12  14
ATOM     14  C   UNL A   1      31.295  27.378  25.004  1.00  0.00     0.061 A 
ATOM     15  C   UNL A   1      33.634  28.436  25.099  1.00  0.00     0.067 C 
ATOM     16  C   UNL A   1      32.288  28.214  24.478  1.00  0.00     0.050 A 
ATOM     17  N   UNL A   1      32.125  28.876  23.295  1.00  0.00    -0.261 NA
ATOM     18  C   UNL A   1      31.005  28.642  22.579  1.00  0.00     0.111 A 
ATOM     19  C   UNL A   1      30.139  27.177  24.232  1.00  0.00     0.017 A 
ATOM     20  C   UNL A   1      29.993  27.804  23.000  1.00  0.00     0.021 A 
ENDBRANCH  12  14
ENDBRANCH   8  12
ENDBRANCH   5   7
ENDBRANCH   4   5
ENDBRANCH   3   4
ENDBRANCH   2   3
ENDBRANCH   1   2
BRANCH   1  21
ATOM     21  C   UNL A   1      37.933  21.249  25.122  1.00  0.00     0.202 C 
BRANCH  21  22
ATOM     22  C   UNL A   1      38.728  19.942  25.240  1.00  0.00     0.261 C 
BRANCH  22  23
ATOM     23  O   UNL A   1      39.591  19.920  26.392  1.00  0.00    -0.460 OA
BRANCH  23  24
ATOM     24  C   UNL A   1      40.916  19.934  26.108  1.00  0.00     0.338 C 
ATOM     25  O   UNL A   1      41.536  19.130  25.423  1.00  0.00    -0.246 OA
BRANCH  24  26
ATOM     26  C   UNL A   1      41.531  21.177  26.602  1.00  0.00     0.060 A 
ATOM     27  C   UNL A   1      41.529  21.396  27.986  1.00  0.00     0.016 A 
ATOM     28  C   UNL A   1      42.037  22.145  25.732  1.00  0.00     0.016 A 
ATOM     29  C   UNL A   1      42.005  22.599  28.504  1.00  0.00     0.010 A 
ATOM     30  C   UNL A   1      42.506  23.356  26.254  1.00  0.00     0.010 A 
ATOM     31  C   UNL A   1      42.471  23.598  27.639  1.00  0.00    -0.014 A 
BRANCH  31  32
ATOM     32  C   UNL A   1      42.847  24.927  28.180  1.00  0.00     0.031 A 
ATOM     33  C   UNL A   1      41.788  25.975  28.382  1.00  0.00     0.074 A 
ATOM     34  C   UNL A   1      44.125  25.193  28.501  1.00  0.00     0.049 A 
ATOM     35  N   UNL A   1      41.914  27.207  28.807  1.00  0.00    -0.248 NA
ATOM     36  C   UNL A   1      40.406  25.582  28.067  1.00  0.00     0.031 C 
ATOM     37  C   UNL A   1      45.237  24.250  28.390  1.00  0.00     0.029 A 
ATOM     38  N   UNL A   1      44.702  26.343  28.977  1.00  0.00    -0.354 N 
ATOM     39  C   UNL A   1      40.631  27.739  28.803  1.00  0.00     0.074 A 
ATOM     40  C   UNL A   1      39.744  26.704  28.315  1.00  0.00     0.031 C 
ATOM     41  C   UNL A   1      46.368  24.866  28.776  1.00  0.00     0.029 A 
ATOM     42  C   UNL A   1      46.064  26.251  29.126  1.00  0.00     0.049 A 
ATOM     43  H   UNL A   1      44.189  27.155  29.192  1.00  0.00     0.167 HD
ATOM     44  C   UNL A   1      40.228  28.978  29.175  1.00  0.00     0.031 A 
ATOM     45  C   UNL A   1      46.968  27.186  29.476  1.00  0.00     0.031 A 
ATOM     46  C   UNL A   1      41.110  30.014  29.644  1.00  0.00     0.049 A 
ATOM     47  C   UNL A   1      46.505  28.582  29.796  1.00  0.00     0.074 A 
ATOM     48  C   UNL A   1      40.789  31.292  30.071  1.00  0.00     0.029 A 
ATOM     49  N   UNL A   1      42.487  29.897  29.732  1.00  0.00    -0.354 N 
ATOM     50  N   UNL A   1      45.286  29.062  29.824  1.00  0.00    -0.248 NA
ATOM     51  C   UNL A   1      47.547  29.564  30.132  1.00  0.00     0.031 C 
ATOM     52  C   UNL A   1      41.979  31.968  30.360  1.00  0.00     0.029 A 
ATOM     53  C   UNL A   1      43.036  31.092  30.168  1.00  0.00     0.049 A 
ATOM     54  H   UNL A   1      43.001  29.085  29.518  1.00  0.00     0.167 HD
ATOM     55  C   UNL A   1      45.412  30.395  30.197  1.00  0.00     0.074 A 
ATOM     56  C   UNL A   1      46.824  30.641  30.402  1.00  0.00     0.031 C 
ATOM     57  C   UNL A   1      44.444  31.330  30.354  1.00  0.00     0.031 A 
BRANCH  44  58
ATOM     58  C   UNL A   1      38.764  29.295  29.052  1.00  0.00    -0.014 A 
ATOM     59  C   UNL A   1      38.205  29.706  27.833  1.00  0.00     0.009 A 
ATOM     60  C   UNL A   1      37.925  29.137  30.167  1.00  0.00     0.009 A 
ATOM     61  C   UNL A   1      36.839  29.982  27.740  1.00  0.00     0.001 A 
ATOM     62  C   UNL A   1      36.556  29.392  30.065  1.00  0.00     0.001 A 
ATOM     63  C   UNL A   1      36.016  29.821  28.854  1.00  0.00     0.000 A 
ENDBRANCH  44  58
BRANCH  45  64
ATOM     64  C   UNL A   1      48.413  26.843  29.506  1.00  0.00    -0.014 A 
ATOM     65  C   UNL A   1      49.007  26.344  30.674  1.00  0.00     0.009 A 
ATOM     66  C   UNL A   1      49.209  27.028  28.364  1.00  0.00     0.009 A 
ATOM     67  C   UNL A   1      50.374  26.052  30.702  1.00  0.00     0.001 A 
ATOM     68  C   UNL A   1      50.567  26.710  28.386  1.00  0.00     0.001 A 
ATOM     69  C   UNL A   1      51.151  26.231  29.558  1.00  0.00     0.000 A 
ENDBRANCH  45  64
BRANCH  57  70
ATOM     70  C   UNL A   1      44.877  32.704  30.783  1.00  0.00    -0.014 A 
ATOM     71  C   UNL A   1      45.157  33.704  29.838  1.00  0.00     0.009 A 
ATOM     72  C   UNL A   1      44.965  33.014  32.149  1.00  0.00     0.009 A 
ATOM     73  C   UNL A   1      45.545  34.978  30.253  1.00  0.00     0.001 A 
ATOM     74  C   UNL A   1      45.327  34.298  32.561  1.00  0.00     0.001 A 
ATOM     75  C   UNL A   1      45.625  35.276  31.614  1.00  0.00     0.000 A 
ENDBRANCH  57  70
ENDBRANCH  31  32
ENDBRANCH  24  26
ENDBRANCH  23  24
ENDBRANCH  22  23
ENDBRANCH  21  22
ENDBRANCH   1  21
TORSDOF 16
ENDMDL
MODEL 3
REMARK VINA RESULT:      -8.6      4.642     10.341
REMARK SMILES Cc1ncccc1C(=O)N1CC[C@H](C(=O)OCCOCCOC(=O)c2ccc(-c3c4nc(c(-c5ccccc5)c5ccc([nH]5)c(-c5ccccc5)c5nc(c(-c6ccccc6)c6ccc3[nH]6)C=C5)C=C4)cc2)C1
REMARK SMILES IDX 19 1 18 2 17 3 16 4 14 5 15 6 13 7 10 8 11 9 73 10 12 11
REMARK SMILES IDX 8 12 9 13 7 14 1 15 2 16 3 17 4 18 6 19 5 20 20 21 21 22
REMARK SMILES IDX 22 23 23 24 24 25 25 26 26 27 72 28 27 29 71 30 28 31 29 32
REMARK SMILES IDX 30 33 65 34 31 35 70 36 64 37 66 38 32 39 69 40 63 41 62 42
REMARK SMILES IDX 33 44 55 45 40 46 54 47 41 48 44 49 53 50 67 51 42 52 43 53
REMARK SMILES IDX 52 55 68 56 45 57 34 58 35 59 39 60 36 61 38 62 37 63 56 64
REMARK SMILES IDX 57 65 61 66 58 67 60 68 59 69 46 70 47 71 51 72 48 73 50 74
REMARK SMILES IDX 49 75
REMARK H PARENT 66 43 44 54
REMARK Flexibility Score: inf
ROOT
ATOM      1  O   UNL A   1      38.324  21.590  25.743  1.00  0.00    -0.374 OA
ENDROOT
BRANCH   1   2
ATOM      2  C   UNL A   1      37.429  22.643  25.392  1.00  0.00     0.202 C 
BRANCH   2   3
ATOM      3  C   UNL A   1      36.676  22.493  24.067  1.00  0.00     0.261 C 
BRANCH   3   4
ATOM      4  O   UNL A   1      35.288  22.853  24.188  1.00  0.00    -0.463 OA
BRANCH   4   5
ATOM      5  C   UNL A   1      34.405  21.818  24.184  1.00  0.00     0.310 C 
ATOM      6  O   UNL A   1      34.605  20.721  24.690  1.00  0.00    -0.252 OA
BRANCH   5   7
ATOM      7  C   UNL A   1      33.135  22.131  23.425  1.00  0.00     0.120 C 
ATOM      8  N   UNL A   1      32.415  24.267  22.721  1.00  0.00    -0.338 N 
ATOM      9  C   UNL A   1      31.267  23.649  23.351  1.00  0.00     0.121 C 
ATOM     10  C   UNL A   1      33.425  23.261  22.444  1.00  0.00     0.135 C 
ATOM     11  C   UNL A   1      31.917  22.600  24.242  1.00  0.00     0.039 C 
BRANCH   8  12
ATOM     12  C   UNL A   1      32.649  25.569  22.335  1.00  0.00     0.255 C 
ATOM     13  O   UNL A   1      33.503  25.825  21.482  1.00  0.00    -0.269 OA
BRANCH  12  14
ATOM     14  C   UNL A   1      31.949  26.725  22.941  1.00  0.00     0.061 A 
ATOM     15  C   UNL A   1      33.525  27.022  24.948  1.00  0.00     0.067 C 
ATOM     16  C   UNL A   1      32.377  27.428  24.075  1.00  0.00     0.050 A 
ATOM     17  N   UNL A   1      31.797  28.602  24.460  1.00  0.00    -0.261 NA
ATOM     18  C   UNL A   1      30.842  29.136  23.669  1.00  0.00     0.111 A 
ATOM     19  C   UNL A   1      30.941  27.309  22.157  1.00  0.00     0.017 A 
ATOM     20  C   UNL A   1      30.387  28.534  22.514  1.00  0.00     0.021 A 
ENDBRANCH  12  14
ENDBRANCH   8  12
ENDBRANCH   5   7
ENDBRANCH   4   5
ENDBRANCH   3   4
ENDBRANCH   2   3
ENDBRANCH   1   2
BRANCH   1  21
ATOM     21  C   UNL A   1      38.160  20.340  25.074  1.00  0.00     0.202 C 
BRANCH  21  22
ATOM     22  C   UNL A   1      39.196  19.251  25.379  1.00  0.00     0.261 C 
BRANCH  22  23
ATOM     23  O   UNL A   1      40.072  19.605  26.465  1.00  0.00    -0.460 OA
BRANCH  23  24
ATOM     24  C   UNL A   1      41.372  19.759  26.117  1.00  0.00     0.338 C 
ATOM     25  O   UNL A   1      42.041  19.022  25.403  1.00  0.00    -0.246 OA
BRANCH  24  26
ATOM     26  C   UNL A   1      41.875  21.063  26.583  1.00  0.00     0.060 A 
ATOM     27  C   UNL A   1      41.803  21.333  27.956  1.00  0.00     0.016 A 
ATOM     28  C   UNL A   1      42.340  22.032  25.692  1.00  0.00     0.016 A 
ATOM     29  C   UNL A   1      42.170  22.587  28.441  1.00  0.00     0.010 A 
ATOM     30  C   UNL A   1      42.698  23.294  26.181  1.00  0.00     0.010 A 
ATOM     31  C   UNL A   1      42.593  23.585  27.554  1.00  0.00    -0.014 A 
BRANCH  31  32
ATOM     32  C   UNL A   1      42.849  24.958  28.053  1.00  0.00     0.031 A 
ATOM     33  C   UNL A   1      44.245  25.362  28.437  1.00  0.00     0.074 A 
ATOM     34  C   UNL A   1      41.842  25.843  28.152  1.00  0.00     0.049 A 
ATOM     35  N   UNL A   1      44.671  26.498  28.929  1.00  0.00    -0.248 NA
ATOM     36  C   UNL A   1      45.299  24.355  28.238  1.00  0.00     0.031 C 
ATOM     37  C   UNL A   1      40.452  25.588  27.774  1.00  0.00     0.029 A 
ATOM     38  N   UNL A   1      41.836  27.136  28.612  1.00  0.00    -0.354 N 
ATOM     39  C   UNL A   1      46.041  26.341  29.106  1.00  0.00     0.074 A 
ATOM     40  C   UNL A   1      46.370  24.994  28.689  1.00  0.00     0.031 C 
ATOM     41  C   UNL A   1      39.724  26.688  28.030  1.00  0.00     0.029 A 
ATOM     42  C   UNL A   1      40.587  27.708  28.621  1.00  0.00     0.049 A 
ATOM     43  H   UNL A   1      42.648  27.608  28.906  1.00  0.00     0.167 HD
ATOM     44  C   UNL A   1      46.942  27.239  29.573  1.00  0.00     0.031 A 
ATOM     45  C   UNL A   1      40.181  28.906  29.080  1.00  0.00     0.031 A 
ATOM     46  C   UNL A   1      46.613  28.571  30.004  1.00  0.00     0.049 A 
ATOM     47  C   UNL A   1      41.188  29.851  29.678  1.00  0.00     0.074 A 
ATOM     48  C   UNL A   1      47.464  29.562  30.465  1.00  0.00     0.029 A 
ATOM     49  N   UNL A   1      45.331  29.094  30.045  1.00  0.00    -0.354 N 
ATOM     50  N   UNL A   1      42.484  29.706  29.806  1.00  0.00    -0.248 NA
ATOM     51  C   UNL A   1      40.672  31.127  30.196  1.00  0.00     0.031 C 
ATOM     52  C   UNL A   1      46.688  30.665  30.841  1.00  0.00     0.029 A 
ATOM     53  C   UNL A   1      45.362  30.380  30.560  1.00  0.00     0.049 A 
ATOM     54  H   UNL A   1      44.519  28.623  29.750  1.00  0.00     0.167 HD
ATOM     55  C   UNL A   1      42.940  30.875  30.402  1.00  0.00     0.074 A 
ATOM     56  C   UNL A   1      41.785  31.727  30.593  1.00  0.00     0.031 C 
ATOM     57  C   UNL A   1      44.203  31.212  30.759  1.00  0.00     0.031 A 
BRANCH  44  58
ATOM     58  C   UNL A   1      48.372  26.792  29.676  1.00  0.00    -0.014 A 
ATOM     59  C   UNL A   1      48.848  26.120  30.812  1.00  0.00     0.009 A 
ATOM     60  C   UNL A   1      49.246  27.010  28.599  1.00  0.00     0.009 A 
ATOM     61  C   UNL A   1      50.179  25.703  30.880  1.00  0.00     0.001 A 
ATOM     62  C   UNL A   1      50.571  26.571  28.660  1.00  0.00     0.001 A 
ATOM     63  C   UNL A   1      51.037  25.924  29.803  1.00  0.00     0.000 A 
ENDBRANCH  44  58
BRANCH  45  64
ATOM     64  C   UNL A   1      38.742  29.270  29.027  1.00  0.00    -0.014 A 
ATOM     65  C   UNL A   1      37.918  29.104  30.149  1.00  0.00     0.009 A 
ATOM     66  C   UNL A   1      38.183  29.776  27.842  1.00  0.00     0.009 A 
ATOM     67  C   UNL A   1      36.558  29.421  30.080  1.00  0.00     0.001 A 
ATOM     68  C   UNL A   1      36.831  30.118  27.784  1.00  0.00     0.001 A 
ATOM     69  C   UNL A   1      36.018  29.932  28.901  1.00  0.00     0.000 A 
ENDBRANCH  45  64
BRANCH  57  70
ATOM     70  C   UNL A   1      44.405  32.566  31.380  1.00  0.00    -0.014 A 
ATOM     71  C   UNL A   1      44.630  33.702  30.588  1.00  0.00     0.009 A 
ATOM     72  C   UNL A   1      44.326  32.713  32.774  1.00  0.00     0.009 A 
ATOM     73  C   UNL A   1      44.801  34.954  31.181  1.00  0.00     0.001 A 
ATOM     74  C   UNL A   1      44.472  33.971  33.363  1.00  0.00     0.001 A 
ATOM     75  C   UNL A   1      44.718  35.087  32.566  1.00  0.00     0.000 A 
ENDBRANCH  57  70
ENDBRANCH  31  32
ENDBRANCH  24  26
ENDBRANCH  23  24
ENDBRANCH  22  23
ENDBRANCH  21  22
ENDBRANCH   1  21
TORSDOF 16
ENDMDL
