MODEL 1
REMARK VINA RESULT:      -9.5      0.000      0.000
REMARK SMILES [NH3+]CC1([C@H](O)C(=O)OCCOCCOC(=O)c2ccc(-c3c4nc(c(-c5ccccc5)c5ccc([nH]5)c(-c5ccccc5)c5nc(c(-c6ccccc6)c6ccc3[nH]6)C=C5)C=C4)cc2)Cc2ccccc2C1
REMARK SMILES IDX 10 1 9 2 8 3 6 4 7 5 4 6 3 7 65 8 72 9 66 10 71 11 67 12
REMARK SMILES IDX 70 13 68 14 69 15 2 16 1 17 5 21 11 23 12 24 13 25 14 26
REMARK SMILES IDX 15 27 16 28 17 29 18 30 64 31 19 32 63 33 20 34 21 35 22 36
REMARK SMILES IDX 57 37 23 38 62 39 56 40 58 41 24 42 61 43 55 44 54 45 25 47
REMARK SMILES IDX 47 48 32 49 46 50 33 51 36 52 45 53 59 54 34 55 35 56 44 58
REMARK SMILES IDX 60 59 37 60 26 61 27 62 31 63 28 64 30 65 29 66 48 67 49 68
REMARK SMILES IDX 53 69 50 70 52 71 51 72 38 73 39 74 43 75 40 76 42 77 41 78
REMARK H PARENT 1 18 1 19 1 20 5 22 58 46 36 57
REMARK Flexibility Score: inf
ROOT
ATOM      1  C   UNL A   1      40.976  21.530  26.429  1.00  0.00     0.202 C 
ENDROOT
BRANCH   1   2
ATOM      2  C   UNL A   1      39.906  22.574  26.749  1.00  0.00     0.261 C 
BRANCH   2   3
ATOM      3  O   UNL A   1      38.710  22.350  25.984  1.00  0.00    -0.461 OA
BRANCH   3   4
ATOM      4  C   UNL A   1      37.831  23.390  25.945  1.00  0.00     0.335 C 
ATOM      5  O   UNL A   1      37.810  24.336  26.724  1.00  0.00    -0.249 OA
BRANCH   4   6
ATOM      6  C   UNL A   1      36.902  23.287  24.718  1.00  0.00     0.236 C 
BRANCH   6   7
ATOM      7  C   UNL A   1      35.413  22.935  25.057  1.00  0.00     0.064 C 
ATOM      8  C   UNL A   1      34.511  23.045  23.790  1.00  0.00     0.052 C 
ATOM      9  C   UNL A   1      34.821  23.974  26.060  1.00  0.00     0.052 C 
ATOM     10  C   UNL A   1      34.078  24.480  23.848  1.00  0.00    -0.044 A 
ATOM     11  C   UNL A   1      34.252  25.004  25.133  1.00  0.00    -0.044 A 
ATOM     12  C   UNL A   1      33.612  25.272  22.812  1.00  0.00     0.004 A 
ATOM     13  C   UNL A   1      33.956  26.327  25.413  1.00  0.00     0.004 A 
ATOM     14  C   UNL A   1      33.333  26.613  23.079  1.00  0.00     0.000 A 
ATOM     15  C   UNL A   1      33.501  27.137  24.370  1.00  0.00     0.000 A 
BRANCH   7  16
ATOM     16  C   UNL A   1      35.422  21.502  25.657  1.00  0.00     0.269 C 
BRANCH  16  17
ATOM     17  N   UNL A   1      34.853  20.431  24.842  1.00  0.00    -0.357 N 
ATOM     18  H   UNL A   1      34.503  19.691  25.450  1.00  0.00     0.344 HD
ATOM     19  H   UNL A   1      35.574  20.053  24.227  1.00  0.00     0.344 HD
ATOM     20  H   UNL A   1      34.087  20.802  24.281  1.00  0.00     0.344 HD
ENDBRANCH  16  17
ENDBRANCH   7  16
ENDBRANCH   6   7
BRANCH   6  21
ATOM     21  O   UNL A   1      37.380  22.391  23.708  1.00  0.00    -0.381 OA
ATOM     22  H   UNL A   1      37.161  22.744  22.831  1.00  0.00     0.211 HD
ENDBRANCH   6  21
ENDBRANCH   4   6
ENDBRANCH   3   4
ENDBRANCH   2   3
ENDBRANCH   1   2
BRANCH   1  23
ATOM     23  O   UNL A   1      41.955  21.908  25.463  1.00  0.00    -0.374 OA
BRANCH  23  24
ATOM     24  C   UNL A   1      43.289  21.441  25.642  1.00  0.00     0.202 C 
BRANCH  24  25
ATOM     25  C   UNL A   1      44.403  22.361  25.133  1.00  0.00     0.261 C 
BRANCH  25  26
ATOM     26  O   UNL A   1      43.885  23.592  24.593  1.00  0.00    -0.460 OA
BRANCH  26  27
ATOM     27  C   UNL A   1      44.513  24.703  25.047  1.00  0.00     0.338 C 
ATOM     28  O   UNL A   1      45.617  25.115  24.716  1.00  0.00    -0.246 OA
BRANCH  27  29
ATOM     29  C   UNL A   1      43.632  25.496  25.921  1.00  0.00     0.060 A 
ATOM     30  C   UNL A   1      43.750  26.889  25.844  1.00  0.00     0.016 A 
ATOM     31  C   UNL A   1      42.823  24.904  26.894  1.00  0.00     0.016 A 
ATOM     32  C   UNL A   1      43.121  27.694  26.788  1.00  0.00     0.010 A 
ATOM     33  C   UNL A   1      42.193  25.718  27.847  1.00  0.00     0.010 A 
ATOM     34  C   UNL A   1      42.380  27.113  27.826  1.00  0.00    -0.014 A 
BRANCH  34  35
ATOM     35  C   UNL A   1      41.953  27.975  28.956  1.00  0.00     0.031 A 
ATOM     36  C   UNL A   1      40.609  28.649  28.900  1.00  0.00     0.074 A 
ATOM     37  C   UNL A   1      42.707  28.074  30.065  1.00  0.00     0.049 A 
ATOM     38  N   UNL A   1      39.985  29.332  29.829  1.00  0.00    -0.248 NA
ATOM     39  C   UNL A   1      39.863  28.532  27.637  1.00  0.00     0.031 C 
ATOM     40  C   UNL A   1      44.011  27.444  30.259  1.00  0.00     0.029 A 
ATOM     41  N   UNL A   1      42.465  28.727  31.247  1.00  0.00    -0.354 N 
ATOM     42  C   UNL A   1      38.775  29.718  29.265  1.00  0.00     0.074 A 
ATOM     43  C   UNL A   1      38.766  29.226  27.904  1.00  0.00     0.031 C 
ATOM     44  C   UNL A   1      44.451  27.729  31.497  1.00  0.00     0.029 A 
ATOM     45  C   UNL A   1      43.465  28.569  32.174  1.00  0.00     0.049 A 
ATOM     46  H   UNL A   1      41.653  29.258  31.414  1.00  0.00     0.167 HD
ATOM     47  C   UNL A   1      37.755  30.406  29.830  1.00  0.00     0.031 A 
ATOM     48  C   UNL A   1      43.571  29.044  33.430  1.00  0.00     0.031 A 
ATOM     49  C   UNL A   1      37.761  30.912  31.177  1.00  0.00     0.049 A 
ATOM     50  C   UNL A   1      42.448  29.853  34.018  1.00  0.00     0.074 A 
ATOM     51  C   UNL A   1      36.768  31.613  31.841  1.00  0.00     0.029 A 
ATOM     52  N   UNL A   1      38.816  30.776  32.065  1.00  0.00    -0.354 N 
ATOM     53  N   UNL A   1      41.294  30.175  33.487  1.00  0.00    -0.248 NA
ATOM     54  C   UNL A   1      42.639  30.349  35.390  1.00  0.00     0.031 C 
ATOM     55  C   UNL A   1      37.242  31.941  33.115  1.00  0.00     0.029 A 
ATOM     56  C   UNL A   1      38.508  31.400  33.262  1.00  0.00     0.049 A 
ATOM     57  H   UNL A   1      39.658  30.305  31.873  1.00  0.00     0.167 HD
ATOM     58  C   UNL A   1      40.611  30.887  34.465  1.00  0.00     0.074 A 
ATOM     59  C   UNL A   1      41.474  30.937  35.627  1.00  0.00     0.031 C 
ATOM     60  C   UNL A   1      39.378  31.446  34.408  1.00  0.00     0.031 A 
BRANCH  47  61
ATOM     61  C   UNL A   1      36.550  30.677  28.975  1.00  0.00    -0.014 A 
ATOM     62  C   UNL A   1      36.255  31.973  28.525  1.00  0.00     0.009 A 
ATOM     63  C   UNL A   1      35.714  29.617  28.591  1.00  0.00     0.009 A 
ATOM     64  C   UNL A   1      35.129  32.207  27.731  1.00  0.00     0.001 A 
ATOM     65  C   UNL A   1      34.603  29.849  27.779  1.00  0.00     0.001 A 
ATOM     66  C   UNL A   1      34.307  31.144  27.357  1.00  0.00     0.000 A 
ENDBRANCH  47  61
BRANCH  48  67
ATOM     67  C   UNL A   1      44.789  28.755  34.229  1.00  0.00    -0.014 A 
ATOM     68  C   UNL A   1      45.900  29.611  34.177  1.00  0.00     0.009 A 
ATOM     69  C   UNL A   1      44.850  27.609  35.038  1.00  0.00     0.009 A 
ATOM     70  C   UNL A   1      47.056  29.311  34.903  1.00  0.00     0.001 A 
ATOM     71  C   UNL A   1      45.997  27.327  35.780  1.00  0.00     0.001 A 
ATOM     72  C   UNL A   1      47.101  28.173  35.707  1.00  0.00     0.000 A 
ENDBRANCH  48  67
BRANCH  60  73
ATOM     73  C   UNL A   1      38.879  32.134  35.648  1.00  0.00    -0.014 A 
ATOM     74  C   UNL A   1      39.111  33.500  35.868  1.00  0.00     0.009 A 
ATOM     75  C   UNL A   1      38.143  31.407  36.598  1.00  0.00     0.009 A 
ATOM     76  C   UNL A   1      38.649  34.116  37.034  1.00  0.00     0.001 A 
ATOM     77  C   UNL A   1      37.660  32.032  37.749  1.00  0.00     0.001 A 
ATOM     78  C   UNL A   1      37.922  33.383  37.970  1.00  0.00     0.000 A 
ENDBRANCH  60  73
ENDBRANCH  34  35
ENDBRANCH  27  29
ENDBRANCH  26  27
ENDBRANCH  25  26
ENDBRANCH  24  25
ENDBRANCH  23  24
ENDBRANCH   1  23
TORSDOF 18
ENDMDL
MODEL 2
REMARK VINA RESULT:      -9.5      3.451      8.130
REMARK SMILES [NH3+]CC1([C@H](O)C(=O)OCCOCCOC(=O)c2ccc(-c3c4nc(c(-c5ccccc5)c5ccc([nH]5)c(-c5ccccc5)c5nc(c(-c6ccccc6)c6ccc3[nH]6)C=C5)C=C4)cc2)Cc2ccccc2C1
REMARK SMILES IDX 10 1 9 2 8 3 6 4 7 5 4 6 3 7 65 8 72 9 66 10 71 11 67 12
REMARK SMILES IDX 70 13 68 14 69 15 2 16 1 17 5 21 11 23 12 24 13 25 14 26
REMARK SMILES IDX 15 27 16 28 17 29 18 30 64 31 19 32 63 33 20 34 21 35 22 36
REMARK SMILES IDX 57 37 23 38 62 39 56 40 58 41 24 42 61 43 55 44 54 45 25 47
REMARK SMILES IDX 47 48 32 49 46 50 33 51 36 52 45 53 59 54 34 55 35 56 44 58
REMARK SMILES IDX 60 59 37 60 26 61 27 62 31 63 28 64 30 65 29 66 48 67 49 68
REMARK SMILES IDX 53 69 50 70 52 71 51 72 38 73 39 74 43 75 40 76 42 77 41 78
REMARK H PARENT 1 18 1 19 1 20 5 22 58 46 36 57
REMARK Flexibility Score: inf
ROOT
ATOM      1  C   UNL A   1      30.725  27.481  24.462  1.00  0.00     0.202 C 
ENDROOT
BRANCH   1   2
ATOM      2  C   UNL A   1      30.662  26.691  25.770  1.00  0.00     0.261 C 
BRANCH   2   3
ATOM      3  O   UNL A   1      30.080  25.392  25.570  1.00  0.00    -0.461 OA
BRANCH   3   4
ATOM      4  C   UNL A   1      30.854  24.335  25.946  1.00  0.00     0.335 C 
ATOM      5  O   UNL A   1      31.282  24.131  27.076  1.00  0.00    -0.249 OA
BRANCH   4   6
ATOM      6  C   UNL A   1      31.054  23.349  24.776  1.00  0.00     0.236 C 
BRANCH   6   7
ATOM      7  C   UNL A   1      32.552  23.075  24.407  1.00  0.00     0.064 C 
ATOM      8  C   UNL A   1      32.658  22.230  23.100  1.00  0.00     0.052 C 
ATOM      9  C   UNL A   1      33.233  22.200  25.504  1.00  0.00     0.052 C 
ATOM     10  C   UNL A   1      32.641  20.830  23.640  1.00  0.00    -0.044 A 
ATOM     11  C   UNL A   1      32.969  20.814  24.999  1.00  0.00    -0.044 A 
ATOM     12  C   UNL A   1      32.305  19.664  22.974  1.00  0.00     0.004 A 
ATOM     13  C   UNL A   1      32.976  19.632  25.720  1.00  0.00     0.004 A 
ATOM     14  C   UNL A   1      32.288  18.471  23.698  1.00  0.00     0.000 A 
ATOM     15  C   UNL A   1      32.623  18.454  25.060  1.00  0.00     0.000 A 
BRANCH   7  16
ATOM     16  C   UNL A   1      33.238  24.463  24.274  1.00  0.00     0.269 C 
BRANCH  16  17
ATOM     17  N   UNL A   1      32.929  25.251  23.083  1.00  0.00    -0.357 N 
ATOM     18  H   UNL A   1      33.304  26.193  23.193  1.00  0.00     0.344 HD
ATOM     19  H   UNL A   1      31.917  25.299  22.961  1.00  0.00     0.344 HD
ATOM     20  H   UNL A   1      33.349  24.810  22.266  1.00  0.00     0.344 HD
ENDBRANCH  16  17
ENDBRANCH   7  16
ENDBRANCH   6   7
BRANCH   6  21
ATOM     21  O   UNL A   1      30.334  23.708  23.592  1.00  0.00    -0.381 OA
ATOM     22  H   UNL A   1      29.485  23.238  23.574  1.00  0.00     0.211 HD
ENDBRANCH   6  21
ENDBRANCH   4   6
ENDBRANCH   3   4
ENDBRANCH   2   3
ENDBRANCH   1   2
BRANCH   1  23
ATOM     23  O   UNL A   1      31.315  28.778  24.538  1.00  0.00    -0.374 OA
BRANCH  23  24
ATOM     24  C   UNL A   1      31.449  29.379  25.823  1.00  0.00     0.202 C 
BRANCH  24  25
ATOM     25  C   UNL A   1      32.635  30.331  26.003  1.00  0.00     0.261 C 
BRANCH  25  26
ATOM     26  O   UNL A   1      32.912  30.595  27.392  1.00  0.00    -0.460 OA
BRANCH  26  27
ATOM     27  C   UNL A   1      33.683  31.689  27.604  1.00  0.00     0.338 C 
ATOM     28  O   UNL A   1      33.308  32.849  27.709  1.00  0.00    -0.246 OA
BRANCH  27  29
ATOM     29  C   UNL A   1      35.085  31.314  27.857  1.00  0.00     0.060 A 
ATOM     30  C   UNL A   1      35.357  29.950  28.014  1.00  0.00     0.016 A 
ATOM     31  C   UNL A   1      36.080  32.268  28.084  1.00  0.00     0.016 A 
ATOM     32  C   UNL A   1      36.604  29.538  28.474  1.00  0.00     0.010 A 
ATOM     33  C   UNL A   1      37.335  31.851  28.550  1.00  0.00     0.010 A 
ATOM     34  C   UNL A   1      37.584  30.487  28.794  1.00  0.00    -0.014 A 
BRANCH  34  35
ATOM     35  C   UNL A   1      38.792  30.034  29.527  1.00  0.00     0.031 A 
ATOM     36  C   UNL A   1      38.943  30.380  30.984  1.00  0.00     0.074 A 
ATOM     37  C   UNL A   1      39.696  29.236  28.931  1.00  0.00     0.049 A 
ATOM     38  N   UNL A   1      39.846  29.976  31.843  1.00  0.00    -0.248 NA
ATOM     39  C   UNL A   1      37.940  31.295  31.552  1.00  0.00     0.031 C 
ATOM     40  C   UNL A   1      39.648  28.799  27.537  1.00  0.00     0.029 A 
ATOM     41  N   UNL A   1      40.818  28.631  29.439  1.00  0.00    -0.354 N 
ATOM     42  C   UNL A   1      39.516  30.578  33.050  1.00  0.00     0.074 A 
ATOM     43  C   UNL A   1      38.353  31.405  32.806  1.00  0.00     0.031 C 
ATOM     44  C   UNL A   1      40.690  27.982  27.303  1.00  0.00     0.029 A 
ATOM     45  C   UNL A   1      41.480  27.849  28.526  1.00  0.00     0.049 A 
ATOM     46  H   UNL A   1      41.119  28.748  30.368  1.00  0.00     0.167 HD
ATOM     47  C   UNL A   1      40.115  30.448  34.257  1.00  0.00     0.031 A 
ATOM     48  C   UNL A   1      42.594  27.105  28.661  1.00  0.00     0.031 A 
ATOM     49  C   UNL A   1      41.280  29.641  34.506  1.00  0.00     0.049 A 
ATOM     50  C   UNL A   1      43.273  27.019  30.000  1.00  0.00     0.074 A 
ATOM     51  C   UNL A   1      41.952  29.439  35.700  1.00  0.00     0.029 A 
ATOM     52  N   UNL A   1      41.950  28.907  33.541  1.00  0.00    -0.354 N 
ATOM     53  N   UNL A   1      42.926  27.562  31.141  1.00  0.00    -0.248 NA
ATOM     54  C   UNL A   1      44.492  26.197  30.070  1.00  0.00     0.031 C 
ATOM     55  C   UNL A   1      43.056  28.619  35.447  1.00  0.00     0.029 A 
ATOM     56  C   UNL A   1      43.041  28.269  34.107  1.00  0.00     0.049 A 
ATOM     57  H   UNL A   1      41.688  28.848  32.594  1.00  0.00     0.167 HD
ATOM     58  C   UNL A   1      43.866  27.130  32.069  1.00  0.00     0.074 A 
ATOM     59  C   UNL A   1      44.789  26.266  31.361  1.00  0.00     0.031 C 
ATOM     60  C   UNL A   1      43.954  27.418  33.390  1.00  0.00     0.031 A 
BRANCH  47  61
ATOM     61  C   UNL A   1      39.530  31.223  35.403  1.00  0.00    -0.014 A 
ATOM     62  C   UNL A   1      40.040  32.480  35.767  1.00  0.00     0.009 A 
ATOM     63  C   UNL A   1      38.436  30.703  36.112  1.00  0.00     0.009 A 
ATOM     64  C   UNL A   1      39.484  33.186  36.836  1.00  0.00     0.001 A 
ATOM     65  C   UNL A   1      37.867  31.421  37.165  1.00  0.00     0.001 A 
ATOM     66  C   UNL A   1      38.397  32.658  37.532  1.00  0.00     0.000 A 
ENDBRANCH  47  61
BRANCH  48  67
ATOM     67  C   UNL A   1      43.136  26.366  27.492  1.00  0.00    -0.014 A 
ATOM     68  C   UNL A   1      44.048  26.976  26.618  1.00  0.00     0.009 A 
ATOM     69  C   UNL A   1      42.729  25.047  27.238  1.00  0.00     0.009 A 
ATOM     70  C   UNL A   1      44.524  26.287  25.501  1.00  0.00     0.001 A 
ATOM     71  C   UNL A   1      43.226  24.353  26.135  1.00  0.00     0.001 A 
ATOM     72  C   UNL A   1      44.116  24.975  25.263  1.00  0.00     0.000 A 
ENDBRANCH  48  67
BRANCH  60  73
ATOM     73  C   UNL A   1      45.071  26.770  34.160  1.00  0.00    -0.014 A 
ATOM     74  C   UNL A   1      44.910  25.510  34.757  1.00  0.00     0.009 A 
ATOM     75  C   UNL A   1      46.311  27.420  34.266  1.00  0.00     0.009 A 
ATOM     76  C   UNL A   1      45.958  24.932  35.478  1.00  0.00     0.001 A 
ATOM     77  C   UNL A   1      47.364  26.827  34.964  1.00  0.00     0.001 A 
ATOM     78  C   UNL A   1      47.183  25.589  35.578  1.00  0.00     0.000 A 
ENDBRANCH  60  73
ENDBRANCH  34  35
ENDBRANCH  27  29
ENDBRANCH  26  27
ENDBRANCH  25  26
ENDBRANCH  24  25
ENDBRANCH  23  24
ENDBRANCH   1  23
TORSDOF 18
ENDMDL
MODEL 3
REMARK VINA RESULT:      -9.5      3.622      7.756
REMARK SMILES [NH3+]CC1([C@H](O)C(=O)OCCOCCOC(=O)c2ccc(-c3c4nc(c(-c5ccccc5)c5ccc([nH]5)c(-c5ccccc5)c5nc(c(-c6ccccc6)c6ccc3[nH]6)C=C5)C=C4)cc2)Cc2ccccc2C1
REMARK SMILES IDX 10 1 9 2 8 3 6 4 7 5 4 6 3 7 65 8 72 9 66 10 71 11 67 12
REMARK SMILES IDX 70 13 68 14 69 15 2 16 1 17 5 21 11 23 12 24 13 25 14 26
REMARK SMILES IDX 15 27 16 28 17 29 18 30 64 31 19 32 63 33 20 34 21 35 22 36
REMARK SMILES IDX 57 37 23 38 62 39 56 40 58 41 24 42 61 43 55 44 54 45 25 47
REMARK SMILES IDX 47 48 32 49 46 50 33 51 36 52 45 53 59 54 34 55 35 56 44 58
REMARK SMILES IDX 60 59 37 60 26 61 27 62 31 63 28 64 30 65 29 66 48 67 49 68
REMARK SMILES IDX 53 69 50 70 52 71 51 72 38 73 39 74 43 75 40 76 42 77 41 78
REMARK H PARENT 1 18 1 19 1 20 5 22 58 46 36 57
REMARK Flexibility Score: inf
ROOT
ATOM      1  C   UNL A   1      35.543  21.961  25.077  1.00  0.00     0.202 C 
ENDROOT
BRANCH   1   2
ATOM      2  C   UNL A   1      34.287  21.948  24.204  1.00  0.00     0.261 C 
BRANCH   2   3
ATOM      3  O   UNL A   1      33.239  22.744  24.781  1.00  0.00    -0.461 OA
BRANCH   3   4
ATOM      4  C   UNL A   1      33.032  23.959  24.201  1.00  0.00     0.335 C 
ATOM      5  O   UNL A   1      33.862  24.592  23.557  1.00  0.00    -0.249 OA
BRANCH   4   6
ATOM      6  C   UNL A   1      31.568  24.415  24.370  1.00  0.00     0.236 C 
BRANCH   6   7
ATOM      7  C   UNL A   1      31.217  24.957  25.798  1.00  0.00     0.064 C 
ATOM      8  C   UNL A   1      30.402  26.283  25.705  1.00  0.00     0.052 C 
ATOM      9  C   UNL A   1      32.516  25.339  26.571  1.00  0.00     0.052 C 
ATOM     10  C   UNL A   1      31.494  27.312  25.695  1.00  0.00    -0.044 A 
ATOM     11  C   UNL A   1      32.689  26.778  26.187  1.00  0.00    -0.044 A 
ATOM     12  C   UNL A   1      31.433  28.614  25.230  1.00  0.00     0.004 A 
ATOM     13  C   UNL A   1      33.847  27.535  26.233  1.00  0.00     0.004 A 
ATOM     14  C   UNL A   1      32.601  29.379  25.251  1.00  0.00     0.000 A 
ATOM     15  C   UNL A   1      33.798  28.844  25.751  1.00  0.00     0.000 A 
BRANCH   7  16
ATOM     16  C   UNL A   1      30.432  23.827  26.520  1.00  0.00     0.269 C 
BRANCH  16  17
ATOM     17  N   UNL A   1      31.186  22.641  26.923  1.00  0.00    -0.357 N 
ATOM     18  H   UNL A   1      31.099  22.510  27.930  1.00  0.00     0.344 HD
ATOM     19  H   UNL A   1      32.169  22.764  26.678  1.00  0.00     0.344 HD
ATOM     20  H   UNL A   1      30.815  21.823  26.440  1.00  0.00     0.344 HD
ENDBRANCH  16  17
ENDBRANCH   7  16
ENDBRANCH   6   7
BRANCH   6  21
ATOM     21  O   UNL A   1      30.609  23.420  23.993  1.00  0.00    -0.381 OA
ATOM     22  H   UNL A   1      30.983  22.857  23.297  1.00  0.00     0.211 HD
ENDBRANCH   6  21
ENDBRANCH   4   6
ENDBRANCH   3   4
ENDBRANCH   2   3
ENDBRANCH   1   2
BRANCH   1  23
ATOM     23  O   UNL A   1      36.701  21.338  24.524  1.00  0.00    -0.374 OA
BRANCH  23  24
ATOM     24  C   UNL A   1      37.913  21.393  25.272  1.00  0.00     0.202 C 
BRANCH  24  25
ATOM     25  C   UNL A   1      38.856  20.196  25.118  1.00  0.00     0.261 C 
BRANCH  25  26
ATOM     26  O   UNL A   1      39.661  19.985  26.294  1.00  0.00    -0.460 OA
BRANCH  26  27
ATOM     27  C   UNL A   1      40.991  19.912  26.048  1.00  0.00     0.338 C 
ATOM     28  O   UNL A   1      41.576  19.063  25.389  1.00  0.00    -0.246 OA
BRANCH  27  29
ATOM     29  C   UNL A   1      41.695  21.101  26.559  1.00  0.00     0.060 A 
ATOM     30  C   UNL A   1      41.774  21.241  27.949  1.00  0.00     0.016 A 
ATOM     31  C   UNL A   1      42.132  22.125  25.715  1.00  0.00     0.016 A 
ATOM     32  C   UNL A   1      42.220  22.437  28.503  1.00  0.00     0.010 A 
ATOM     33  C   UNL A   1      42.578  23.331  26.276  1.00  0.00     0.010 A 
ATOM     34  C   UNL A   1      42.576  23.507  27.672  1.00  0.00    -0.014 A 
BRANCH  34  35
ATOM     35  C   UNL A   1      42.787  24.841  28.290  1.00  0.00     0.031 A 
ATOM     36  C   UNL A   1      44.179  25.264  28.672  1.00  0.00     0.074 A 
ATOM     37  C   UNL A   1      41.765  25.706  28.416  1.00  0.00     0.049 A 
ATOM     38  N   UNL A   1      44.604  26.428  29.098  1.00  0.00    -0.248 NA
ATOM     39  C   UNL A   1      45.236  24.247  28.549  1.00  0.00     0.031 C 
ATOM     40  C   UNL A   1      40.376  25.433  28.053  1.00  0.00     0.029 A 
ATOM     41  N   UNL A   1      41.750  27.003  28.863  1.00  0.00    -0.354 N 
ATOM     42  C   UNL A   1      45.973  26.285  29.286  1.00  0.00     0.074 A 
ATOM     43  C   UNL A   1      46.304  24.913  28.964  1.00  0.00     0.031 C 
ATOM     44  C   UNL A   1      39.643  26.537  28.278  1.00  0.00     0.029 A 
ATOM     45  C   UNL A   1      40.509  27.586  28.811  1.00  0.00     0.049 A 
ATOM     46  H   UNL A   1      42.553  27.470  29.190  1.00  0.00     0.167 HD
ATOM     47  C   UNL A   1      46.879  27.212  29.678  1.00  0.00     0.031 A 
ATOM     48  C   UNL A   1      40.116  28.830  29.149  1.00  0.00     0.031 A 
ATOM     49  C   UNL A   1      46.559  28.573  30.015  1.00  0.00     0.049 A 
ATOM     50  C   UNL A   1      41.132  29.826  29.633  1.00  0.00     0.074 A 
ATOM     51  C   UNL A   1      47.412  29.589  30.413  1.00  0.00     0.029 A 
ATOM     52  N   UNL A   1      45.280  29.109  29.999  1.00  0.00    -0.354 N 
ATOM     53  N   UNL A   1      42.429  29.688  29.767  1.00  0.00    -0.248 NA
ATOM     54  C   UNL A   1      40.629  31.160  29.996  1.00  0.00     0.031 C 
ATOM     55  C   UNL A   1      46.643  30.726  30.683  1.00  0.00     0.029 A 
ATOM     56  C   UNL A   1      45.318  30.432  30.403  1.00  0.00     0.049 A 
ATOM     57  H   UNL A   1      44.467  28.619  29.740  1.00  0.00     0.167 HD
ATOM     58  C   UNL A   1      42.899  30.920  30.204  1.00  0.00     0.074 A 
ATOM     59  C   UNL A   1      41.751  31.798  30.298  1.00  0.00     0.031 C 
ATOM     60  C   UNL A   1      44.169  31.293  30.497  1.00  0.00     0.031 A 
BRANCH  47  61
ATOM     61  C   UNL A   1      48.311  26.771  29.789  1.00  0.00    -0.014 A 
ATOM     62  C   UNL A   1      48.807  26.204  30.973  1.00  0.00     0.009 A 
ATOM     63  C   UNL A   1      49.169  26.899  28.685  1.00  0.00     0.009 A 
ATOM     64  C   UNL A   1      50.142  25.800  31.059  1.00  0.00     0.001 A 
ATOM     65  C   UNL A   1      50.495  26.474  28.766  1.00  0.00     0.001 A 
ATOM     66  C   UNL A   1      50.983  25.933  29.955  1.00  0.00     0.000 A 
ENDBRANCH  47  61
BRANCH  48  67
ATOM     67  C   UNL A   1      38.685  29.210  29.029  1.00  0.00    -0.014 A 
ATOM     68  C   UNL A   1      37.821  29.106  30.130  1.00  0.00     0.009 A 
ATOM     69  C   UNL A   1      38.175  29.667  27.804  1.00  0.00     0.009 A 
ATOM     70  C   UNL A   1      36.469  29.431  29.998  1.00  0.00     0.001 A 
ATOM     71  C   UNL A   1      36.829  30.014  27.684  1.00  0.00     0.001 A 
ATOM     72  C   UNL A   1      35.975  29.888  28.777  1.00  0.00     0.000 A 
ENDBRANCH  48  67
BRANCH  60  73
ATOM     73  C   UNL A   1      44.384  32.720  30.918  1.00  0.00    -0.014 A 
ATOM     74  C   UNL A   1      44.624  33.730  29.974  1.00  0.00     0.009 A 
ATOM     75  C   UNL A   1      44.320  33.060  32.278  1.00  0.00     0.009 A 
ATOM     76  C   UNL A   1      44.834  35.047  30.389  1.00  0.00     0.001 A 
ATOM     77  C   UNL A   1      44.503  34.383  32.687  1.00  0.00     0.001 A 
ATOM     78  C   UNL A   1      44.770  35.372  31.743  1.00  0.00     0.000 A 
ENDBRANCH  60  73
ENDBRANCH  34  35
ENDBRANCH  27  29
ENDBRANCH  26  27
ENDBRANCH  25  26
ENDBRANCH  24  25
ENDBRANCH  23  24
ENDBRANCH   1  23
TORSDOF 18
ENDMDL
