MODEL 1
REMARK VINA RESULT:     -10.3      0.000      0.000
REMARK SMILES COc1cccc(OCC(=O)N/N=C/c2ccccc2C(=O)OCCOCCOC(=O)c2ccc(-c3c4nc(c(-c5ccccc5)c5ccc([nH]5)c(-c5ccccc5)c5nc(c(-c6ccccc6)c6ccc3[nH]6)C=C5)C=C4)cc2)c1
REMARK SMILES IDX 24 1 23 2 21 3 22 4 20 5 15 6 16 7 17 8 19 9 18 10 14 11
REMARK SMILES IDX 13 12 12 13 10 14 11 15 9 17 8 18 7 19 3 20 4 21 80 22 5 23
REMARK SMILES IDX 6 24 2 25 1 26 25 27 26 28 27 29 28 30 29 31 30 32 31 33
REMARK SMILES IDX 32 34 33 35 79 36 34 37 78 38 35 39 36 40 37 41 72 42 38 43
REMARK SMILES IDX 77 44 71 45 73 46 39 47 76 48 70 49 69 50 40 52 62 53 47 54
REMARK SMILES IDX 61 55 48 56 51 57 60 58 74 59 49 60 50 61 59 63 75 64 52 65
REMARK SMILES IDX 41 66 42 67 46 68 43 69 45 70 44 71 63 72 64 73 68 74 65 75
REMARK SMILES IDX 67 76 66 77 53 78 54 79 58 80 55 81 57 82 56 83
REMARK H PARENT 12 16 73 51 51 62
REMARK Flexibility Score: inf
ROOT
ATOM      1  C   UNL A   1      33.837  24.969  25.608  1.00  0.00     0.261 C 
ENDROOT
BRANCH   1   2
ATOM      2  O   UNL A   1      35.172  24.561  25.944  1.00  0.00    -0.460 OA
BRANCH   2   3
ATOM      3  C   UNL A   1      35.898  23.975  24.969  1.00  0.00     0.338 C 
ATOM      4  O   UNL A   1      35.646  24.000  23.773  1.00  0.00    -0.246 OA
BRANCH   3   5
ATOM      5  C   UNL A   1      37.161  23.401  25.508  1.00  0.00     0.068 A 
ATOM      6  C   UNL A   1      37.564  22.065  25.382  1.00  0.00     0.009 A 
ATOM      7  C   UNL A   1      38.780  21.620  25.918  1.00  0.00     0.010 A 
ATOM      8  C   UNL A   1      39.587  22.506  26.628  1.00  0.00     0.001 A 
ATOM      9  C   UNL A   1      37.981  24.273  26.242  1.00  0.00     0.016 A 
ATOM     10  C   UNL A   1      39.177  23.825  26.810  1.00  0.00     0.001 A 
BRANCH   6  11
ATOM     11  C   UNL A   1      36.673  21.031  24.861  1.00  0.00     0.142 C 
ATOM     12  N   UNL A   1      35.689  20.562  25.550  1.00  0.00    -0.181 NA
BRANCH  12  13
ATOM     13  N   UNL A   1      34.942  19.608  24.927  1.00  0.00    -0.244 N 
ATOM     14  C   UNL A   1      33.717  19.755  24.323  1.00  0.00     0.277 C 
ATOM     15  O   UNL A   1      33.145  18.755  23.881  1.00  0.00    -0.269 OA
ATOM     16  H   UNL A   1      35.327  18.703  24.907  1.00  0.00     0.193 HD
BRANCH  14  17
ATOM     17  C   UNL A   1      33.049  21.140  24.226  1.00  0.00     0.331 C 
BRANCH  17  18
ATOM     18  O   UNL A   1      32.603  21.577  22.943  1.00  0.00    -0.484 OA
BRANCH  18  19
ATOM     19  C   UNL A   1      32.293  22.912  22.891  1.00  0.00     0.123 A 
ATOM     20  C   UNL A   1      32.620  25.152  22.045  1.00  0.00     0.122 A 
ATOM     21  C   UNL A   1      31.428  25.554  22.641  1.00  0.00     0.046 A 
ATOM     22  C   UNL A   1      33.085  23.855  22.241  1.00  0.00     0.092 A 
ATOM     23  C   UNL A   1      30.674  24.636  23.379  1.00  0.00     0.008 A 
ATOM     24  C   UNL A   1      31.101  23.309  23.491  1.00  0.00     0.047 A 
BRANCH  20  25
ATOM     25  O   UNL A   1      33.313  26.069  21.306  1.00  0.00    -0.497 OA
ATOM     26  C   UNL A   1      33.626  27.254  22.047  1.00  0.00     0.278 C 
ENDBRANCH  20  25
ENDBRANCH  18  19
ENDBRANCH  17  18
ENDBRANCH  14  17
ENDBRANCH  12  13
ENDBRANCH   6  11
ENDBRANCH   3   5
ENDBRANCH   2   3
ENDBRANCH   1   2
BRANCH   1  27
ATOM     27  C   UNL A   1      33.717  26.483  25.787  1.00  0.00     0.202 C 
BRANCH  27  28
ATOM     28  O   UNL A   1      32.523  26.913  26.442  1.00  0.00    -0.374 OA
BRANCH  28  29
ATOM     29  C   UNL A   1      31.769  27.942  25.802  1.00  0.00     0.202 C 
BRANCH  29  30
ATOM     30  C   UNL A   1      31.827  29.317  26.475  1.00  0.00     0.261 C 
BRANCH  30  31
ATOM     31  O   UNL A   1      33.002  30.059  26.096  1.00  0.00    -0.460 OA
BRANCH  31  32
ATOM     32  C   UNL A   1      33.336  31.067  26.938  1.00  0.00     0.338 C 
ATOM     33  O   UNL A   1      32.626  31.988  27.314  1.00  0.00    -0.246 OA
BRANCH  32  34
ATOM     34  C   UNL A   1      34.685  30.833  27.480  1.00  0.00     0.060 A 
ATOM     35  C   UNL A   1      35.089  29.512  27.715  1.00  0.00     0.016 A 
ATOM     36  C   UNL A   1      35.509  31.901  27.834  1.00  0.00     0.016 A 
ATOM     37  C   UNL A   1      36.318  29.251  28.326  1.00  0.00     0.010 A 
ATOM     38  C   UNL A   1      36.733  31.637  28.456  1.00  0.00     0.010 A 
ATOM     39  C   UNL A   1      37.139  30.313  28.723  1.00  0.00    -0.014 A 
BRANCH  39  40
ATOM     40  C   UNL A   1      38.343  30.085  29.565  1.00  0.00     0.031 A 
ATOM     41  C   UNL A   1      39.452  29.241  28.993  1.00  0.00     0.074 A 
ATOM     42  C   UNL A   1      38.451  30.589  30.810  1.00  0.00     0.049 A 
ATOM     43  N   UNL A   1      40.508  28.742  29.580  1.00  0.00    -0.248 NA
ATOM     44  C   UNL A   1      39.349  28.914  27.558  1.00  0.00     0.031 C 
ATOM     45  C   UNL A   1      37.499  31.496  31.451  1.00  0.00     0.029 A 
ATOM     46  N   UNL A   1      39.415  30.392  31.772  1.00  0.00    -0.354 N 
ATOM     47  C   UNL A   1      41.179  28.024  28.596  1.00  0.00     0.074 A 
ATOM     48  C   UNL A   1      40.403  28.131  27.382  1.00  0.00     0.031 C 
ATOM     49  C   UNL A   1      37.918  31.767  32.702  1.00  0.00     0.029 A 
ATOM     50  C   UNL A   1      39.137  31.010  32.970  1.00  0.00     0.049 A 
ATOM     51  H   UNL A   1      40.227  29.858  31.617  1.00  0.00     0.167 HD
ATOM     52  C   UNL A   1      42.343  27.341  28.698  1.00  0.00     0.031 A 
ATOM     53  C   UNL A   1      39.772  30.936  34.157  1.00  0.00     0.031 A 
ATOM     54  C   UNL A   1      43.112  27.245  29.908  1.00  0.00     0.049 A 
ATOM     55  C   UNL A   1      40.978  30.040  34.279  1.00  0.00     0.074 A 
ATOM     56  C   UNL A   1      44.317  26.598  30.117  1.00  0.00     0.029 A 
ATOM     57  N   UNL A   1      42.744  27.813  31.118  1.00  0.00    -0.354 N 
ATOM     58  N   UNL A   1      41.588  29.341  33.352  1.00  0.00    -0.248 NA
ATOM     59  C   UNL A   1      41.571  29.912  35.618  1.00  0.00     0.031 C 
ATOM     60  C   UNL A   1      44.653  26.731  31.466  1.00  0.00     0.029 A 
ATOM     61  C   UNL A   1      43.685  27.509  32.084  1.00  0.00     0.049 A 
ATOM     62  H   UNL A   1      41.934  28.352  31.267  1.00  0.00     0.167 HD
ATOM     63  C   UNL A   1      42.664  28.732  33.986  1.00  0.00     0.074 A 
ATOM     64  C   UNL A   1      42.614  29.131  35.377  1.00  0.00     0.031 C 
ATOM     65  C   UNL A   1      43.621  27.931  33.458  1.00  0.00     0.031 A 
BRANCH  52  66
ATOM     66  C   UNL A   1      42.839  26.618  27.476  1.00  0.00    -0.014 A 
ATOM     67  C   UNL A   1      43.736  27.224  26.583  1.00  0.00     0.009 A 
ATOM     68  C   UNL A   1      42.434  25.295  27.240  1.00  0.00     0.009 A 
ATOM     69  C   UNL A   1      44.194  26.528  25.460  1.00  0.00     0.001 A 
ATOM     70  C   UNL A   1      42.913  24.594  26.132  1.00  0.00     0.001 A 
ATOM     71  C   UNL A   1      43.786  25.214  25.239  1.00  0.00     0.000 A 
ENDBRANCH  52  66
BRANCH  53  72
ATOM     72  C   UNL A   1      39.279  31.680  35.350  1.00  0.00    -0.014 A 
ATOM     73  C   UNL A   1      38.363  31.095  36.236  1.00  0.00     0.009 A 
ATOM     74  C   UNL A   1      39.660  33.009  35.576  1.00  0.00     0.009 A 
ATOM     75  C   UNL A   1      37.842  31.831  37.308  1.00  0.00     0.001 A 
ATOM     76  C   UNL A   1      39.167  33.734  36.661  1.00  0.00     0.001 A 
ATOM     77  C   UNL A   1      38.249  33.146  37.524  1.00  0.00     0.000 A 
ENDBRANCH  53  72
BRANCH  65  78
ATOM     78  C   UNL A   1      44.734  27.495  34.366  1.00  0.00    -0.014 A 
ATOM     79  C   UNL A   1      44.640  26.326  35.135  1.00  0.00     0.009 A 
ATOM     80  C   UNL A   1      45.925  28.240  34.394  1.00  0.00     0.009 A 
ATOM     81  C   UNL A   1      45.713  25.924  35.933  1.00  0.00     0.001 A 
ATOM     82  C   UNL A   1      47.004  27.821  35.171  1.00  0.00     0.001 A 
ATOM     83  C   UNL A   1      46.895  26.666  35.944  1.00  0.00     0.000 A 
ENDBRANCH  65  78
ENDBRANCH  39  40
ENDBRANCH  32  34
ENDBRANCH  31  32
ENDBRANCH  30  31
ENDBRANCH  29  30
ENDBRANCH  28  29
ENDBRANCH  27  28
ENDBRANCH   1  27
TORSDOF 20
ENDMDL
MODEL 2
REMARK VINA RESULT:     -10.2      3.603      6.628
REMARK SMILES COc1cccc(OCC(=O)N/N=C/c2ccccc2C(=O)OCCOCCOC(=O)c2ccc(-c3c4nc(c(-c5ccccc5)c5ccc([nH]5)c(-c5ccccc5)c5nc(c(-c6ccccc6)c6ccc3[nH]6)C=C5)C=C4)cc2)c1
REMARK SMILES IDX 24 1 23 2 21 3 22 4 20 5 15 6 16 7 17 8 19 9 18 10 14 11
REMARK SMILES IDX 13 12 12 13 10 14 11 15 9 17 8 18 7 19 3 20 4 21 80 22 5 23
REMARK SMILES IDX 6 24 2 25 1 26 25 27 26 28 27 29 28 30 29 31 30 32 31 33
REMARK SMILES IDX 32 34 33 35 79 36 34 37 78 38 35 39 36 40 37 41 72 42 38 43
REMARK SMILES IDX 77 44 71 45 73 46 39 47 76 48 70 49 69 50 40 52 62 53 47 54
REMARK SMILES IDX 61 55 48 56 51 57 60 58 74 59 49 60 50 61 59 63 75 64 52 65
REMARK SMILES IDX 41 66 42 67 46 68 43 69 45 70 44 71 63 72 64 73 68 74 65 75
REMARK SMILES IDX 67 76 66 77 53 78 54 79 58 80 55 81 57 82 56 83
REMARK H PARENT 12 16 73 51 51 62
REMARK Flexibility Score: inf
ROOT
ATOM      1  C   UNL A   1      33.652  26.046  25.449  1.00  0.00     0.261 C 
ENDROOT
BRANCH   1   2
ATOM      2  O   UNL A   1      34.838  25.360  25.019  1.00  0.00    -0.460 OA
BRANCH   2   3
ATOM      3  C   UNL A   1      34.692  24.440  24.043  1.00  0.00     0.338 C 
ATOM      4  O   UNL A   1      34.212  24.637  22.936  1.00  0.00    -0.246 OA
BRANCH   3   5
ATOM      5  C   UNL A   1      35.337  23.151  24.416  1.00  0.00     0.068 A 
ATOM      6  C   UNL A   1      34.775  22.172  25.245  1.00  0.00     0.009 A 
ATOM      7  C   UNL A   1      35.458  20.983  25.533  1.00  0.00     0.010 A 
ATOM      8  C   UNL A   1      36.739  20.783  25.023  1.00  0.00     0.001 A 
ATOM      9  C   UNL A   1      36.636  22.937  23.927  1.00  0.00     0.016 A 
ATOM     10  C   UNL A   1      37.337  21.769  24.241  1.00  0.00     0.001 A 
BRANCH   6  11
ATOM     11  C   UNL A   1      33.547  22.407  26.002  1.00  0.00     0.142 C 
ATOM     12  N   UNL A   1      32.471  21.728  25.792  1.00  0.00    -0.181 NA
BRANCH  12  13
ATOM     13  N   UNL A   1      31.410  22.056  26.581  1.00  0.00    -0.244 N 
ATOM     14  C   UNL A   1      30.568  23.135  26.460  1.00  0.00     0.277 C 
ATOM     15  O   UNL A   1      29.706  23.321  27.324  1.00  0.00    -0.269 OA
ATOM     16  H   UNL A   1      31.224  21.446  27.331  1.00  0.00     0.193 HD
BRANCH  14  17
ATOM     17  C   UNL A   1      30.715  24.118  25.283  1.00  0.00     0.331 C 
BRANCH  17  18
ATOM     18  O   UNL A   1      29.836  25.241  25.239  1.00  0.00    -0.484 OA
BRANCH  18  19
ATOM     19  C   UNL A   1      30.163  26.162  24.276  1.00  0.00     0.123 A 
ATOM     20  C   UNL A   1      30.403  28.430  23.480  1.00  0.00     0.122 A 
ATOM     21  C   UNL A   1      31.103  27.969  22.368  1.00  0.00     0.046 A 
ATOM     22  C   UNL A   1      29.868  27.519  24.384  1.00  0.00     0.092 A 
ATOM     23  C   UNL A   1      31.318  26.598  22.201  1.00  0.00     0.008 A 
ATOM     24  C   UNL A   1      30.861  25.695  23.165  1.00  0.00     0.047 A 
BRANCH  20  25
ATOM     25  O   UNL A   1      30.238  29.780  23.625  1.00  0.00    -0.497 OA
ATOM     26  C   UNL A   1      29.151  30.292  22.845  1.00  0.00     0.278 C 
ENDBRANCH  20  25
ENDBRANCH  18  19
ENDBRANCH  17  18
ENDBRANCH  14  17
ENDBRANCH  12  13
ENDBRANCH   6  11
ENDBRANCH   3   5
ENDBRANCH   2   3
ENDBRANCH   1   2
BRANCH   1  27
ATOM     27  C   UNL A   1      33.719  27.501  24.981  1.00  0.00     0.202 C 
BRANCH  27  28
ATOM     28  O   UNL A   1      33.668  28.467  26.032  1.00  0.00    -0.374 OA
BRANCH  28  29
ATOM     29  C   UNL A   1      33.126  29.747  25.707  1.00  0.00     0.202 C 
BRANCH  29  30
ATOM     30  C   UNL A   1      33.130  30.773  26.845  1.00  0.00     0.261 C 
BRANCH  30  31
ATOM     31  O   UNL A   1      33.768  30.265  28.033  1.00  0.00    -0.460 OA
BRANCH  31  32
ATOM     32  C   UNL A   1      34.796  31.018  28.494  1.00  0.00     0.338 C 
ATOM     33  O   UNL A   1      34.747  32.158  28.931  1.00  0.00    -0.246 OA
BRANCH  32  34
ATOM     34  C   UNL A   1      36.025  30.207  28.534  1.00  0.00     0.060 A 
ATOM     35  C   UNL A   1      36.459  29.715  29.772  1.00  0.00     0.016 A 
ATOM     36  C   UNL A   1      36.786  30.003  27.383  1.00  0.00     0.016 A 
ATOM     37  C   UNL A   1      37.673  29.032  29.870  1.00  0.00     0.010 A 
ATOM     38  C   UNL A   1      38.006  29.329  27.487  1.00  0.00     0.010 A 
ATOM     39  C   UNL A   1      38.468  28.855  28.732  1.00  0.00    -0.014 A 
BRANCH  39  40
ATOM     40  C   UNL A   1      39.856  28.329  28.833  1.00  0.00     0.031 A 
ATOM     41  C   UNL A   1      40.948  29.296  29.211  1.00  0.00     0.074 A 
ATOM     42  C   UNL A   1      40.152  27.040  28.578  1.00  0.00     0.049 A 
ATOM     43  N   UNL A   1      42.246  29.140  29.184  1.00  0.00    -0.248 NA
ATOM     44  C   UNL A   1      40.511  30.624  29.681  1.00  0.00     0.031 C 
ATOM     45  C   UNL A   1      39.185  25.980  28.294  1.00  0.00     0.029 A 
ATOM     46  N   UNL A   1      41.369  26.403  28.501  1.00  0.00    -0.354 N 
ATOM     47  C   UNL A   1      42.778  30.353  29.607  1.00  0.00     0.074 A 
ATOM     48  C   UNL A   1      41.668  31.242  29.862  1.00  0.00     0.031 C 
ATOM     49  C   UNL A   1      39.844  24.829  28.062  1.00  0.00     0.029 A 
ATOM     50  C   UNL A   1      41.280  25.081  28.126  1.00  0.00     0.049 A 
ATOM     51  H   UNL A   1      42.224  26.851  28.696  1.00  0.00     0.167 HD
ATOM     52  C   UNL A   1      44.078  30.690  29.773  1.00  0.00     0.031 A 
ATOM     53  C   UNL A   1      42.249  24.193  27.826  1.00  0.00     0.031 A 
ATOM     54  C   UNL A   1      45.175  29.797  29.523  1.00  0.00     0.049 A 
ATOM     55  C   UNL A   1      43.686  24.647  27.868  1.00  0.00     0.074 A 
ATOM     56  C   UNL A   1      46.531  30.027  29.681  1.00  0.00     0.029 A 
ATOM     57  N   UNL A   1      45.038  28.498  29.058  1.00  0.00    -0.354 N 
ATOM     58  N   UNL A   1      44.179  25.804  28.239  1.00  0.00    -0.248 NA
ATOM     59  C   UNL A   1      44.697  23.673  27.432  1.00  0.00     0.031 C 
ATOM     60  C   UNL A   1      47.217  28.885  29.262  1.00  0.00     0.029 A 
ATOM     61  C   UNL A   1      46.286  27.923  28.897  1.00  0.00     0.049 A 
ATOM     62  H   UNL A   1      44.182  28.051  28.871  1.00  0.00     0.167 HD
ATOM     63  C   UNL A   1      45.559  25.679  28.129  1.00  0.00     0.074 A 
ATOM     64  C   UNL A   1      45.822  24.341  27.641  1.00  0.00     0.031 C 
ATOM     65  C   UNL A   1      46.522  26.584  28.425  1.00  0.00     0.031 A 
BRANCH  52  66
ATOM     66  C   UNL A   1      44.385  32.093  30.216  1.00  0.00    -0.014 A 
ATOM     67  C   UNL A   1      44.529  32.416  31.575  1.00  0.00     0.009 A 
ATOM     68  C   UNL A   1      44.576  33.099  29.256  1.00  0.00     0.009 A 
ATOM     69  C   UNL A   1      44.827  33.724  31.963  1.00  0.00     0.001 A 
ATOM     70  C   UNL A   1      44.900  34.400  29.645  1.00  0.00     0.001 A 
ATOM     71  C   UNL A   1      45.017  34.713  30.999  1.00  0.00     0.000 A 
ENDBRANCH  52  66
BRANCH  53  72
ATOM     72  C   UNL A   1      41.925  22.799  27.413  1.00  0.00    -0.014 A 
ATOM     73  C   UNL A   1      41.736  22.474  26.062  1.00  0.00     0.009 A 
ATOM     74  C   UNL A   1      41.727  21.795  28.369  1.00  0.00     0.009 A 
ATOM     75  C   UNL A   1      41.350  21.180  25.690  1.00  0.00     0.001 A 
ATOM     76  C   UNL A   1      41.373  20.496  27.998  1.00  0.00     0.001 A 
ATOM     77  C   UNL A   1      41.176  20.191  26.657  1.00  0.00     0.000 A 
ENDBRANCH  53  72
BRANCH  65  78
ATOM     78  C   UNL A   1      47.950  26.137  28.307  1.00  0.00    -0.014 A 
ATOM     79  C   UNL A   1      48.687  25.727  29.427  1.00  0.00     0.009 A 
ATOM     80  C   UNL A   1      48.541  26.066  27.034  1.00  0.00     0.009 A 
ATOM     81  C   UNL A   1      49.998  25.272  29.275  1.00  0.00     0.001 A 
ATOM     82  C   UNL A   1      49.841  25.587  26.883  1.00  0.00     0.001 A 
ATOM     83  C   UNL A   1      50.571  25.195  28.004  1.00  0.00     0.000 A 
ENDBRANCH  65  78
ENDBRANCH  39  40
ENDBRANCH  32  34
ENDBRANCH  31  32
ENDBRANCH  30  31
ENDBRANCH  29  30
ENDBRANCH  28  29
ENDBRANCH  27  28
ENDBRANCH   1  27
TORSDOF 20
ENDMDL
MODEL 3
REMARK VINA RESULT:     -10.2      4.022      7.803
REMARK SMILES COc1cccc(OCC(=O)N/N=C/c2ccccc2C(=O)OCCOCCOC(=O)c2ccc(-c3c4nc(c(-c5ccccc5)c5ccc([nH]5)c(-c5ccccc5)c5nc(c(-c6ccccc6)c6ccc3[nH]6)C=C5)C=C4)cc2)c1
REMARK SMILES IDX 24 1 23 2 21 3 22 4 20 5 15 6 16 7 17 8 19 9 18 10 14 11
REMARK SMILES IDX 13 12 12 13 10 14 11 15 9 17 8 18 7 19 3 20 4 21 80 22 5 23
REMARK SMILES IDX 6 24 2 25 1 26 25 27 26 28 27 29 28 30 29 31 30 32 31 33
REMARK SMILES IDX 32 34 33 35 79 36 34 37 78 38 35 39 36 40 37 41 72 42 38 43
REMARK SMILES IDX 77 44 71 45 73 46 39 47 76 48 70 49 69 50 40 52 62 53 47 54
REMARK SMILES IDX 61 55 48 56 51 57 60 58 74 59 49 60 50 61 59 63 75 64 52 65
REMARK SMILES IDX 41 66 42 67 46 68 43 69 45 70 44 71 63 72 64 73 68 74 65 75
REMARK SMILES IDX 67 76 66 77 53 78 54 79 58 80 55 81 57 82 56 83
REMARK H PARENT 12 16 73 51 51 62
REMARK Flexibility Score: inf
ROOT
ATOM      1  C   UNL A   1      33.787  34.909  29.462  1.00  0.00     0.261 C 
ENDROOT
BRANCH   1   2
ATOM      2  O   UNL A   1      34.294  33.990  28.482  1.00  0.00    -0.460 OA
BRANCH   2   3
ATOM      3  C   UNL A   1      33.437  33.059  28.014  1.00  0.00     0.338 C 
ATOM      4  O   UNL A   1      32.305  33.268  27.602  1.00  0.00    -0.246 OA
BRANCH   3   5
ATOM      5  C   UNL A   1      34.091  31.726  27.912  1.00  0.00     0.068 A 
ATOM      6  C   UNL A   1      33.608  30.639  27.171  1.00  0.00     0.009 A 
ATOM      7  C   UNL A   1      34.302  29.423  27.130  1.00  0.00     0.010 A 
ATOM      8  C   UNL A   1      35.471  29.270  27.871  1.00  0.00     0.001 A 
ATOM      9  C   UNL A   1      35.261  31.545  28.666  1.00  0.00     0.016 A 
ATOM     10  C   UNL A   1      35.938  30.321  28.657  1.00  0.00     0.001 A 
BRANCH   6  11
ATOM     11  C   UNL A   1      32.280  30.644  26.562  1.00  0.00     0.142 C 
ATOM     12  N   UNL A   1      32.103  30.439  25.301  1.00  0.00    -0.181 NA
BRANCH  12  13
ATOM     13  N   UNL A   1      30.807  30.465  24.882  1.00  0.00    -0.244 N 
ATOM     14  C   UNL A   1      30.253  29.809  23.809  1.00  0.00     0.277 C 
ATOM     15  O   UNL A   1      29.069  30.020  23.527  1.00  0.00    -0.269 OA
ATOM     16  H   UNL A   1      30.192  31.023  25.412  1.00  0.00     0.193 HD
BRANCH  14  17
ATOM     17  C   UNL A   1      31.099  28.850  22.951  1.00  0.00     0.331 C 
BRANCH  17  18
ATOM     18  O   UNL A   1      30.878  27.449  23.102  1.00  0.00    -0.484 OA
BRANCH  18  19
ATOM     19  C   UNL A   1      31.589  26.886  24.131  1.00  0.00     0.123 A 
ATOM     20  C   UNL A   1      31.796  25.403  26.028  1.00  0.00     0.122 A 
ATOM     21  C   UNL A   1      33.176  25.590  26.027  1.00  0.00     0.046 A 
ATOM     22  C   UNL A   1      31.004  26.115  25.132  1.00  0.00     0.092 A 
ATOM     23  C   UNL A   1      33.762  26.442  25.086  1.00  0.00     0.008 A 
ATOM     24  C   UNL A   1      32.969  27.078  24.128  1.00  0.00     0.047 A 
BRANCH  20  25
ATOM     25  O   UNL A   1      31.263  24.539  26.944  1.00  0.00    -0.497 OA
ATOM     26  C   UNL A   1      32.013  23.326  27.062  1.00  0.00     0.278 C 
ENDBRANCH  20  25
ENDBRANCH  18  19
ENDBRANCH  17  18
ENDBRANCH  14  17
ENDBRANCH  12  13
ENDBRANCH   6  11
ENDBRANCH   3   5
ENDBRANCH   2   3
ENDBRANCH   1   2
BRANCH   1  27
ATOM     27  C   UNL A   1      34.009  34.324  30.857  1.00  0.00     0.202 C 
BRANCH  27  28
ATOM     28  O   UNL A   1      35.363  34.362  31.312  1.00  0.00    -0.374 OA
BRANCH  28  29
ATOM     29  C   UNL A   1      35.583  34.794  32.654  1.00  0.00     0.202 C 
BRANCH  29  30
ATOM     30  C   UNL A   1      35.314  33.744  33.737  1.00  0.00     0.261 C 
BRANCH  30  31
ATOM     31  O   UNL A   1      35.793  32.439  33.360  1.00  0.00    -0.460 OA
BRANCH  31  32
ATOM     32  C   UNL A   1      36.968  32.076  33.930  1.00  0.00     0.338 C 
ATOM     33  O   UNL A   1      37.261  32.110  35.116  1.00  0.00    -0.246 OA
BRANCH  32  34
ATOM     34  C   UNL A   1      37.848  31.476  32.914  1.00  0.00     0.060 A 
ATOM     35  C   UNL A   1      38.964  30.747  33.345  1.00  0.00     0.016 A 
ATOM     36  C   UNL A   1      37.627  31.697  31.555  1.00  0.00     0.016 A 
ATOM     37  C   UNL A   1      39.882  30.251  32.416  1.00  0.00     0.010 A 
ATOM     38  C   UNL A   1      38.553  31.210  30.628  1.00  0.00     0.010 A 
ATOM     39  C   UNL A   1      39.696  30.500  31.051  1.00  0.00    -0.014 A 
BRANCH  39  40
ATOM     40  C   UNL A   1      40.754  30.180  30.057  1.00  0.00     0.031 A 
ATOM     41  C   UNL A   1      40.673  28.854  29.346  1.00  0.00     0.074 A 
ATOM     42  C   UNL A   1      41.772  31.024  29.799  1.00  0.00     0.049 A 
ATOM     43  N   UNL A   1      41.556  28.260  28.586  1.00  0.00    -0.248 NA
ATOM     44  C   UNL A   1      39.422  28.093  29.524  1.00  0.00     0.031 C 
ATOM     45  C   UNL A   1      41.923  32.374  30.342  1.00  0.00     0.029 A 
ATOM     46  N   UNL A   1      42.892  30.858  29.018  1.00  0.00    -0.354 N 
ATOM     47  C   UNL A   1      40.979  27.049  28.218  1.00  0.00     0.074 A 
ATOM     48  C   UNL A   1      39.683  26.981  28.853  1.00  0.00     0.031 C 
ATOM     49  C   UNL A   1      43.072  32.908  29.889  1.00  0.00     0.029 A 
ATOM     50  C   UNL A   1      43.767  31.920  29.069  1.00  0.00     0.049 A 
ATOM     51  H   UNL A   1      43.054  30.055  28.472  1.00  0.00     0.167 HD
ATOM     52  C   UNL A   1      41.485  26.085  27.414  1.00  0.00     0.031 A 
ATOM     53  C   UNL A   1      45.003  32.058  28.550  1.00  0.00     0.031 A 
ATOM     54  C   UNL A   1      42.772  26.164  26.781  1.00  0.00     0.049 A 
ATOM     55  C   UNL A   1      45.603  30.902  27.792  1.00  0.00     0.074 A 
ATOM     56  C   UNL A   1      43.374  25.255  25.928  1.00  0.00     0.029 A 
ATOM     57  N   UNL A   1      43.658  27.219  26.935  1.00  0.00    -0.354 N 
ATOM     58  N   UNL A   1      45.063  29.749  27.474  1.00  0.00    -0.248 NA
ATOM     59  C   UNL A   1      46.992  31.062  27.336  1.00  0.00     0.031 C 
ATOM     60  C   UNL A   1      44.646  25.736  25.608  1.00  0.00     0.029 A 
ATOM     61  C   UNL A   1      44.813  26.971  26.216  1.00  0.00     0.049 A 
ATOM     62  H   UNL A   1      43.491  28.024  27.476  1.00  0.00     0.167 HD
ATOM     63  C   UNL A   1      46.028  29.070  26.739  1.00  0.00     0.074 A 
ATOM     64  C   UNL A   1      47.190  29.932  26.673  1.00  0.00     0.031 C 
ATOM     65  C   UNL A   1      45.950  27.851  26.153  1.00  0.00     0.031 A 
BRANCH  52  66
ATOM     66  C   UNL A   1      40.659  24.847  27.201  1.00  0.00    -0.014 A 
ATOM     67  C   UNL A   1      39.495  24.871  26.417  1.00  0.00     0.009 A 
ATOM     68  C   UNL A   1      41.076  23.629  27.760  1.00  0.00     0.009 A 
ATOM     69  C   UNL A   1      38.749  23.706  26.223  1.00  0.00     0.001 A 
ATOM     70  C   UNL A   1      40.344  22.460  27.542  1.00  0.00     0.001 A 
ATOM     71  C   UNL A   1      39.177  22.502  26.781  1.00  0.00     0.000 A 
ENDBRANCH  52  66
BRANCH  53  72
ATOM     72  C   UNL A   1      45.797  33.303  28.751  1.00  0.00    -0.014 A 
ATOM     73  C   UNL A   1      45.753  34.344  27.813  1.00  0.00     0.009 A 
ATOM     74  C   UNL A   1      46.663  33.433  29.844  1.00  0.00     0.009 A 
ATOM     75  C   UNL A   1      46.566  35.474  27.968  1.00  0.00     0.001 A 
ATOM     76  C   UNL A   1      47.450  34.572  30.018  1.00  0.00     0.001 A 
ATOM     77  C   UNL A   1      47.407  35.591  29.073  1.00  0.00     0.000 A 
ENDBRANCH  53  72
BRANCH  65  78
ATOM     78  C   UNL A   1      47.120  27.407  25.326  1.00  0.00    -0.014 A 
ATOM     79  C   UNL A   1      47.234  27.748  23.970  1.00  0.00     0.009 A 
ATOM     80  C   UNL A   1      48.159  26.688  25.941  1.00  0.00     0.009 A 
ATOM     81  C   UNL A   1      48.359  27.358  23.241  1.00  0.00     0.001 A 
ATOM     82  C   UNL A   1      49.293  26.323  25.216  1.00  0.00     0.001 A 
ATOM     83  C   UNL A   1      49.390  26.654  23.866  1.00  0.00     0.000 A 
ENDBRANCH  65  78
ENDBRANCH  39  40
ENDBRANCH  32  34
ENDBRANCH  31  32
ENDBRANCH  30  31
ENDBRANCH  29  30
ENDBRANCH  28  29
ENDBRANCH  27  28
ENDBRANCH   1  27
TORSDOF 20
ENDMDL
