MODEL 1
REMARK VINA RESULT:      -9.5      0.000      0.000
REMARK SMILES CCN(C(=O)[C@H]1C=C[C@@H]([NH3+])C1)[C@H](C)CC(=O)OCCOCCOC(=O)c1ccc(-c2c3nc(c(-c4ccccc4)c4ccc([nH]4)c(-c4ccccc4)c4nc(c(-c5ccccc5)c5ccc2[nH]5)C=C4)C=C3)cc1
REMARK SMILES IDX 18 1 17 2 15 3 16 4 14 5 12 6 13 7 3 8 2 9 1 10 4 11 5 12
REMARK SMILES IDX 6 13 7 14 11 15 8 16 9 17 10 18 19 22 20 23 21 24 22 25
REMARK SMILES IDX 23 26 24 27 25 28 26 29 27 30 73 31 28 32 72 33 29 34 30 35
REMARK SMILES IDX 31 36 66 37 32 38 71 39 65 40 67 41 33 42 70 43 64 44 63 45
REMARK SMILES IDX 34 47 56 48 41 49 55 50 42 51 45 52 54 53 68 54 43 55 44 56
REMARK SMILES IDX 53 58 69 59 46 60 35 61 36 62 40 63 37 64 39 65 38 66 57 67
REMARK SMILES IDX 58 68 62 69 59 70 61 71 60 72 47 73 48 74 52 75 49 76 51 77
REMARK SMILES IDX 50 78
REMARK H PARENT 10 19 10 20 10 21 67 46 45 57
REMARK Flexibility Score: inf
ROOT
ATOM      1  C   UNL A   1      33.480  29.052  27.279  1.00  0.00     0.261 C 
ENDROOT
BRANCH   1   2
ATOM      2  O   UNL A   1      33.949  28.514  26.027  1.00  0.00    -0.463 OA
BRANCH   2   3
ATOM      3  C   UNL A   1      33.220  27.509  25.476  1.00  0.00     0.307 C 
ATOM      4  O   UNL A   1      33.641  26.389  25.220  1.00  0.00    -0.252 OA
BRANCH   3   5
ATOM      5  C   UNL A   1      31.800  27.940  25.216  1.00  0.00     0.147 C 
BRANCH   5   6
ATOM      6  C   UNL A   1      31.588  28.583  23.835  1.00  0.00     0.093 C 
ATOM      7  C   UNL A   1      32.901  28.950  23.121  1.00  0.00     0.031 C 
BRANCH   6   8
ATOM      8  N   UNL A   1      30.727  27.736  22.968  1.00  0.00    -0.339 N 
BRANCH   8   9
ATOM      9  C   UNL A   1      31.401  26.856  22.000  1.00  0.00     0.116 C 
ATOM     10  C   UNL A   1      31.559  25.419  22.480  1.00  0.00     0.027 C 
ENDBRANCH   8   9
BRANCH   8  11
ATOM     11  C   UNL A   1      29.341  27.833  23.125  1.00  0.00     0.229 C 
ATOM     12  O   UNL A   1      28.742  27.052  23.873  1.00  0.00    -0.274 OA
BRANCH  11  13
ATOM     13  C   UNL A   1      28.567  28.951  22.404  1.00  0.00     0.107 C 
ATOM     14  C   UNL A   1      27.616  29.737  23.269  1.00  0.00    -0.012 C 
ATOM     15  C   UNL A   1      29.523  30.072  21.939  1.00  0.00     0.087 C 
ATOM     16  C   UNL A   1      27.682  31.051  23.022  1.00  0.00     0.033 C 
ATOM     17  C   UNL A   1      28.710  31.369  21.992  1.00  0.00     0.205 C 
BRANCH  17  18
ATOM     18  N   UNL A   1      29.528  32.504  22.375  1.00  0.00    -0.352 N 
ATOM     19  H   UNL A   1      30.414  32.170  22.754  1.00  0.00     0.345 HD
ATOM     20  H   UNL A   1      29.040  33.050  23.084  1.00  0.00     0.345 HD
ATOM     21  H   UNL A   1      29.705  33.087  21.557  1.00  0.00     0.345 HD
ENDBRANCH  17  18
ENDBRANCH  11  13
ENDBRANCH   8  11
ENDBRANCH   6   8
ENDBRANCH   5   6
ENDBRANCH   3   5
ENDBRANCH   2   3
ENDBRANCH   1   2
BRANCH   1  22
ATOM     22  C   UNL A   1      33.312  30.572  27.201  1.00  0.00     0.202 C 
BRANCH  22  23
ATOM     23  O   UNL A   1      31.994  31.029  26.896  1.00  0.00    -0.374 OA
BRANCH  23  24
ATOM     24  C   UNL A   1      31.801  32.440  26.864  1.00  0.00     0.202 C 
BRANCH  24  25
ATOM     25  C   UNL A   1      32.883  33.266  27.568  1.00  0.00     0.261 C 
BRANCH  25  26
ATOM     26  O   UNL A   1      32.376  34.543  28.002  1.00  0.00    -0.460 OA
BRANCH  26  27
ATOM     27  C   UNL A   1      33.096  35.137  28.981  1.00  0.00     0.338 C 
ATOM     28  O   UNL A   1      32.804  36.149  29.603  1.00  0.00    -0.246 OA
BRANCH  27  29
ATOM     29  C   UNL A   1      34.257  34.302  29.345  1.00  0.00     0.060 A 
ATOM     30  C   UNL A   1      34.031  33.246  30.237  1.00  0.00     0.016 A 
ATOM     31  C   UNL A   1      35.550  34.579  28.893  1.00  0.00     0.016 A 
ATOM     32  C   UNL A   1      35.100  32.500  30.725  1.00  0.00     0.010 A 
ATOM     33  C   UNL A   1      36.626  33.831  29.391  1.00  0.00     0.010 A 
ATOM     34  C   UNL A   1      36.410  32.814  30.338  1.00  0.00    -0.014 A 
BRANCH  34  35
ATOM     35  C   UNL A   1      37.549  32.171  31.041  1.00  0.00     0.031 A 
ATOM     36  C   UNL A   1      38.308  31.069  30.350  1.00  0.00     0.074 A 
ATOM     37  C   UNL A   1      37.934  32.588  32.261  1.00  0.00     0.049 A 
ATOM     38  N   UNL A   1      39.334  30.377  30.776  1.00  0.00    -0.248 NA
ATOM     39  C   UNL A   1      37.853  30.700  28.999  1.00  0.00     0.031 C 
ATOM     40  C   UNL A   1      37.313  33.671  33.022  1.00  0.00     0.029 A 
ATOM     41  N   UNL A   1      38.949  32.145  33.072  1.00  0.00    -0.354 N 
ATOM     42  C   UNL A   1      39.638  29.484  29.755  1.00  0.00     0.074 A 
ATOM     43  C   UNL A   1      38.679  29.708  28.696  1.00  0.00     0.031 C 
ATOM     44  C   UNL A   1      37.960  33.805  34.195  1.00  0.00     0.029 A 
ATOM     45  C   UNL A   1      39.017  32.800  34.278  1.00  0.00     0.049 A 
ATOM     46  H   UNL A   1      39.569  31.425  32.816  1.00  0.00     0.167 HD
ATOM     47  C   UNL A   1      40.629  28.564  29.702  1.00  0.00     0.031 A 
ATOM     48  C   UNL A   1      39.829  32.599  35.335  1.00  0.00     0.031 A 
ATOM     49  C   UNL A   1      41.593  28.342  30.746  1.00  0.00     0.049 A 
ATOM     50  C   UNL A   1      40.879  31.522  35.271  1.00  0.00     0.074 A 
ATOM     51  C   UNL A   1      42.659  27.458  30.759  1.00  0.00     0.029 A 
ATOM     52  N   UNL A   1      41.603  29.001  31.963  1.00  0.00    -0.354 N 
ATOM     53  N   UNL A   1      41.186  30.721  34.280  1.00  0.00    -0.248 NA
ATOM     54  C   UNL A   1      41.701  31.325  36.476  1.00  0.00     0.031 C 
ATOM     55  C   UNL A   1      43.280  27.542  32.008  1.00  0.00     0.029 A 
ATOM     56  C   UNL A   1      42.636  28.519  32.749  1.00  0.00     0.049 A 
ATOM     57  H   UNL A   1      40.971  29.708  32.230  1.00  0.00     0.167 HD
ATOM     58  C   UNL A   1      42.255  29.953  34.728  1.00  0.00     0.074 A 
ATOM     59  C   UNL A   1      42.552  30.392  36.076  1.00  0.00     0.031 C 
ATOM     60  C   UNL A   1      42.930  28.972  34.082  1.00  0.00     0.031 A 
BRANCH  47  61
ATOM     61  C   UNL A   1      40.712  27.694  28.480  1.00  0.00    -0.014 A 
ATOM     62  C   UNL A   1      40.021  26.476  28.402  1.00  0.00     0.009 A 
ATOM     63  C   UNL A   1      41.435  28.142  27.362  1.00  0.00     0.009 A 
ATOM     64  C   UNL A   1      40.070  25.713  27.233  1.00  0.00     0.001 A 
ATOM     65  C   UNL A   1      41.462  27.388  26.188  1.00  0.00     0.001 A 
ATOM     66  C   UNL A   1      40.783  26.172  26.126  1.00  0.00     0.000 A 
ENDBRANCH  47  61
BRANCH  48  67
ATOM     67  C   UNL A   1      39.672  33.412  36.571  1.00  0.00    -0.014 A 
ATOM     68  C   UNL A   1      38.789  33.013  37.586  1.00  0.00     0.009 A 
ATOM     69  C   UNL A   1      40.363  34.625  36.712  1.00  0.00     0.009 A 
ATOM     70  C   UNL A   1      38.571  33.831  38.698  1.00  0.00     0.001 A 
ATOM     71  C   UNL A   1      40.168  35.426  37.839  1.00  0.00     0.001 A 
ATOM     72  C   UNL A   1      39.262  35.035  38.824  1.00  0.00     0.000 A 
ENDBRANCH  48  67
BRANCH  60  73
ATOM     73  C   UNL A   1      44.087  28.337  34.802  1.00  0.00    -0.014 A 
ATOM     74  C   UNL A   1      43.917  27.182  35.580  1.00  0.00     0.009 A 
ATOM     75  C   UNL A   1      45.373  28.882  34.662  1.00  0.00     0.009 A 
ATOM     76  C   UNL A   1      45.010  26.604  36.230  1.00  0.00     0.001 A 
ATOM     77  C   UNL A   1      46.468  28.285  35.290  1.00  0.00     0.001 A 
ATOM     78  C   UNL A   1      46.284  27.152  36.081  1.00  0.00     0.000 A 
ENDBRANCH  60  73
ENDBRANCH  34  35
ENDBRANCH  27  29
ENDBRANCH  26  27
ENDBRANCH  25  26
ENDBRANCH  24  25
ENDBRANCH  23  24
ENDBRANCH  22  23
ENDBRANCH   1  22
TORSDOF 20
ENDMDL
MODEL 2
REMARK VINA RESULT:      -9.3      1.370      6.336
REMARK SMILES CCN(C(=O)[C@H]1C=C[C@@H]([NH3+])C1)[C@H](C)CC(=O)OCCOCCOC(=O)c1ccc(-c2c3nc(c(-c4ccccc4)c4ccc([nH]4)c(-c4ccccc4)c4nc(c(-c5ccccc5)c5ccc2[nH]5)C=C4)C=C3)cc1
REMARK SMILES IDX 18 1 17 2 15 3 16 4 14 5 12 6 13 7 3 8 2 9 1 10 4 11 5 12
REMARK SMILES IDX 6 13 7 14 11 15 8 16 9 17 10 18 19 22 20 23 21 24 22 25
REMARK SMILES IDX 23 26 24 27 25 28 26 29 27 30 73 31 28 32 72 33 29 34 30 35
REMARK SMILES IDX 31 36 66 37 32 38 71 39 65 40 67 41 33 42 70 43 64 44 63 45
REMARK SMILES IDX 34 47 56 48 41 49 55 50 42 51 45 52 54 53 68 54 43 55 44 56
REMARK SMILES IDX 53 58 69 59 46 60 35 61 36 62 40 63 37 64 39 65 38 66 57 67
REMARK SMILES IDX 58 68 62 69 59 70 61 71 60 72 47 73 48 74 52 75 49 76 51 77
REMARK SMILES IDX 50 78
REMARK H PARENT 10 19 10 20 10 21 67 46 45 57
REMARK Flexibility Score: inf
ROOT
ATOM      1  C   UNL A   1      32.453  29.000  27.023  1.00  0.00     0.261 C 
ENDROOT
BRANCH   1   2
ATOM      2  O   UNL A   1      32.329  28.552  25.659  1.00  0.00    -0.463 OA
BRANCH   2   3
ATOM      3  C   UNL A   1      33.431  28.001  25.087  1.00  0.00     0.307 C 
ATOM      4  O   UNL A   1      33.996  28.427  24.089  1.00  0.00    -0.252 OA
BRANCH   3   5
ATOM      5  C   UNL A   1      33.891  26.782  25.843  1.00  0.00     0.147 C 
BRANCH   5   6
ATOM      6  C   UNL A   1      33.747  25.470  25.056  1.00  0.00     0.093 C 
ATOM      7  C   UNL A   1      34.707  24.363  25.527  1.00  0.00     0.031 C 
BRANCH   6   8
ATOM      8  N   UNL A   1      32.339  24.990  25.053  1.00  0.00    -0.339 N 
BRANCH   8   9
ATOM      9  C   UNL A   1      31.648  24.916  26.350  1.00  0.00     0.116 C 
ATOM     10  C   UNL A   1      31.039  23.552  26.647  1.00  0.00     0.027 C 
ENDBRANCH   8   9
BRANCH   8  11
ATOM     11  C   UNL A   1      31.768  24.640  23.825  1.00  0.00     0.229 C 
ATOM     12  O   UNL A   1      32.024  23.549  23.306  1.00  0.00    -0.274 OA
BRANCH  11  13
ATOM     13  C   UNL A   1      30.775  25.599  23.145  1.00  0.00     0.107 C 
ATOM     14  C   UNL A   1      29.965  26.458  24.082  1.00  0.00    -0.012 C 
ATOM     15  C   UNL A   1      31.520  26.684  22.336  1.00  0.00     0.087 C 
ATOM     16  C   UNL A   1      29.873  27.722  23.651  1.00  0.00     0.033 C 
ATOM     17  C   UNL A   1      30.635  27.933  22.389  1.00  0.00     0.205 C 
BRANCH  17  18
ATOM     18  N   UNL A   1      31.422  29.151  22.429  1.00  0.00    -0.352 N 
ATOM     19  H   UNL A   1      31.408  29.594  21.510  1.00  0.00     0.345 HD
ATOM     20  H   UNL A   1      32.384  28.926  22.682  1.00  0.00     0.345 HD
ATOM     21  H   UNL A   1      31.027  29.788  23.120  1.00  0.00     0.345 HD
ENDBRANCH  17  18
ENDBRANCH  11  13
ENDBRANCH   8  11
ENDBRANCH   6   8
ENDBRANCH   5   6
ENDBRANCH   3   5
ENDBRANCH   2   3
ENDBRANCH   1   2
BRANCH   1  22
ATOM     22  C   UNL A   1      32.429  30.529  27.108  1.00  0.00     0.202 C 
BRANCH  22  23
ATOM     23  O   UNL A   1      31.539  31.180  26.201  1.00  0.00    -0.374 OA
BRANCH  23  24
ATOM     24  C   UNL A   1      31.422  32.594  26.328  1.00  0.00     0.202 C 
BRANCH  24  25
ATOM     25  C   UNL A   1      31.867  33.170  27.676  1.00  0.00     0.261 C 
BRANCH  25  26
ATOM     26  O   UNL A   1      32.976  34.077  27.526  1.00  0.00    -0.460 OA
BRANCH  26  27
ATOM     27  C   UNL A   1      33.179  34.905  28.576  1.00  0.00     0.338 C 
ATOM     28  O   UNL A   1      32.455  35.821  28.945  1.00  0.00    -0.246 OA
BRANCH  27  29
ATOM     29  C   UNL A   1      34.347  34.463  29.362  1.00  0.00     0.060 A 
ATOM     30  C   UNL A   1      35.598  34.524  28.737  1.00  0.00     0.016 A 
ATOM     31  C   UNL A   1      34.225  33.931  30.648  1.00  0.00     0.016 A 
ATOM     32  C   UNL A   1      36.724  34.001  29.369  1.00  0.00     0.010 A 
ATOM     33  C   UNL A   1      35.357  33.399  31.281  1.00  0.00     0.010 A 
ATOM     34  C   UNL A   1      36.604  33.398  30.628  1.00  0.00    -0.014 A 
BRANCH  34  35
ATOM     35  C   UNL A   1      37.755  32.641  31.183  1.00  0.00     0.031 A 
ATOM     36  C   UNL A   1      38.372  33.094  32.480  1.00  0.00     0.074 A 
ATOM     37  C   UNL A   1      38.221  31.540  30.567  1.00  0.00     0.049 A 
ATOM     38  N   UNL A   1      39.376  32.580  33.144  1.00  0.00    -0.248 NA
ATOM     39  C   UNL A   1      37.777  34.282  33.116  1.00  0.00     0.031 C 
ATOM     40  C   UNL A   1      37.689  30.970  29.331  1.00  0.00     0.029 A 
ATOM     41  N   UNL A   1      39.253  30.700  30.908  1.00  0.00    -0.354 N 
ATOM     42  C   UNL A   1      39.541  33.386  34.264  1.00  0.00     0.074 A 
ATOM     43  C   UNL A   1      38.548  34.434  34.183  1.00  0.00     0.031 C 
ATOM     44  C   UNL A   1      38.403  29.874  29.013  1.00  0.00     0.029 A 
ATOM     45  C   UNL A   1      39.459  29.685  30.005  1.00  0.00     0.049 A 
ATOM     46  H   UNL A   1      39.796  30.816  31.721  1.00  0.00     0.167 HD
ATOM     47  C   UNL A   1      40.437  33.262  35.272  1.00  0.00     0.031 A 
ATOM     48  C   UNL A   1      40.402  28.724  29.975  1.00  0.00     0.031 A 
ATOM     49  C   UNL A   1      41.421  32.218  35.364  1.00  0.00     0.049 A 
ATOM     50  C   UNL A   1      41.427  28.653  31.077  1.00  0.00     0.074 A 
ATOM     51  C   UNL A   1      42.342  31.991  36.374  1.00  0.00     0.029 A 
ATOM     52  N   UNL A   1      41.618  31.232  34.412  1.00  0.00    -0.354 N 
ATOM     53  N   UNL A   1      41.539  29.392  32.154  1.00  0.00    -0.248 NA
ATOM     54  C   UNL A   1      42.456  27.608  30.958  1.00  0.00     0.031 C 
ATOM     55  C   UNL A   1      43.135  30.901  36.003  1.00  0.00     0.029 A 
ATOM     56  C   UNL A   1      42.669  30.416  34.793  1.00  0.00     0.049 A 
ATOM     57  H   UNL A   1      41.089  31.128  33.588  1.00  0.00     0.167 HD
ATOM     58  C   UNL A   1      42.624  28.879  32.855  1.00  0.00     0.074 A 
ATOM     59  C   UNL A   1      43.129  27.759  32.089  1.00  0.00     0.031 C 
ATOM     60  C   UNL A   1      43.155  29.298  34.029  1.00  0.00     0.031 A 
BRANCH  47  61
ATOM     61  C   UNL A   1      40.421  34.304  36.354  1.00  0.00    -0.014 A 
ATOM     62  C   UNL A   1      41.183  35.477  36.250  1.00  0.00     0.009 A 
ATOM     63  C   UNL A   1      39.570  34.138  37.459  1.00  0.00     0.009 A 
ATOM     64  C   UNL A   1      41.107  36.456  37.244  1.00  0.00     0.001 A 
ATOM     65  C   UNL A   1      39.480  35.129  38.438  1.00  0.00     0.001 A 
ATOM     66  C   UNL A   1      40.252  36.284  38.332  1.00  0.00     0.000 A 
ENDBRANCH  47  61
BRANCH  48  67
ATOM     67  C   UNL A   1      40.456  27.755  28.847  1.00  0.00    -0.014 A 
ATOM     68  C   UNL A   1      41.132  28.074  27.659  1.00  0.00     0.009 A 
ATOM     69  C   UNL A   1      39.777  26.530  28.933  1.00  0.00     0.009 A 
ATOM     70  C   UNL A   1      41.093  27.202  26.567  1.00  0.00     0.001 A 
ATOM     71  C   UNL A   1      39.766  25.647  27.852  1.00  0.00     0.001 A 
ATOM     72  C   UNL A   1      40.412  25.989  26.666  1.00  0.00     0.000 A 
ENDBRANCH  48  67
BRANCH  60  73
ATOM     73  C   UNL A   1      44.313  28.517  34.583  1.00  0.00    -0.014 A 
ATOM     74  C   UNL A   1      45.639  28.922  34.366  1.00  0.00     0.009 A 
ATOM     75  C   UNL A   1      44.068  27.382  35.373  1.00  0.00     0.009 A 
ATOM     76  C   UNL A   1      46.698  28.186  34.902  1.00  0.00     0.001 A 
ATOM     77  C   UNL A   1      45.128  26.665  35.931  1.00  0.00     0.001 A 
ATOM     78  C   UNL A   1      46.442  27.062  35.687  1.00  0.00     0.000 A 
ENDBRANCH  60  73
ENDBRANCH  34  35
ENDBRANCH  27  29
ENDBRANCH  26  27
ENDBRANCH  25  26
ENDBRANCH  24  25
ENDBRANCH  23  24
ENDBRANCH  22  23
ENDBRANCH   1  22
TORSDOF 20
ENDMDL
MODEL 3
REMARK VINA RESULT:      -9.3      4.195      8.237
REMARK SMILES CCN(C(=O)[C@H]1C=C[C@@H]([NH3+])C1)[C@H](C)CC(=O)OCCOCCOC(=O)c1ccc(-c2c3nc(c(-c4ccccc4)c4ccc([nH]4)c(-c4ccccc4)c4nc(c(-c5ccccc5)c5ccc2[nH]5)C=C4)C=C3)cc1
REMARK SMILES IDX 18 1 17 2 15 3 16 4 14 5 12 6 13 7 3 8 2 9 1 10 4 11 5 12
REMARK SMILES IDX 6 13 7 14 11 15 8 16 9 17 10 18 19 22 20 23 21 24 22 25
REMARK SMILES IDX 23 26 24 27 25 28 26 29 27 30 73 31 28 32 72 33 29 34 30 35
REMARK SMILES IDX 31 36 66 37 32 38 71 39 65 40 67 41 33 42 70 43 64 44 63 45
REMARK SMILES IDX 34 47 56 48 41 49 55 50 42 51 45 52 54 53 68 54 43 55 44 56
REMARK SMILES IDX 53 58 69 59 46 60 35 61 36 62 40 63 37 64 39 65 38 66 57 67
REMARK SMILES IDX 58 68 62 69 59 70 61 71 60 72 47 73 48 74 52 75 49 76 51 77
REMARK SMILES IDX 50 78
REMARK H PARENT 10 19 10 20 10 21 67 46 45 57
REMARK Flexibility Score: inf
ROOT
ATOM      1  C   UNL A   1      30.609  26.294  25.647  1.00  0.00     0.261 C 
ENDROOT
BRANCH   1   2
ATOM      2  O   UNL A   1      29.818  25.239  26.229  1.00  0.00    -0.463 OA
BRANCH   2   3
ATOM      3  C   UNL A   1      30.464  24.086  26.544  1.00  0.00     0.307 C 
ATOM      4  O   UNL A   1      30.108  23.289  27.400  1.00  0.00    -0.252 OA
BRANCH   3   5
ATOM      5  C   UNL A   1      31.693  23.896  25.694  1.00  0.00     0.147 C 
BRANCH   5   6
ATOM      6  C   UNL A   1      31.488  22.941  24.506  1.00  0.00     0.093 C 
ATOM      7  C   UNL A   1      30.847  23.615  23.280  1.00  0.00     0.031 C 
BRANCH   6   8
ATOM      8  N   UNL A   1      32.754  22.253  24.137  1.00  0.00    -0.339 N 
BRANCH   8   9
ATOM      9  C   UNL A   1      33.062  20.991  24.826  1.00  0.00     0.116 C 
ATOM     10  C   UNL A   1      32.622  19.748  24.063  1.00  0.00     0.027 C 
ENDBRANCH   8   9
BRANCH   8  11
ATOM     11  C   UNL A   1      33.565  22.849  23.166  1.00  0.00     0.229 C 
ATOM     12  O   UNL A   1      33.234  22.822  21.976  1.00  0.00    -0.274 OA
BRANCH  11  13
ATOM     13  C   UNL A   1      34.847  23.587  23.591  1.00  0.00     0.107 C 
ATOM     14  C   UNL A   1      34.779  24.280  24.927  1.00  0.00    -0.012 C 
ATOM     15  C   UNL A   1      35.999  22.589  23.845  1.00  0.00     0.087 C 
ATOM     16  C   UNL A   1      35.892  24.094  25.647  1.00  0.00     0.033 C 
ATOM     17  C   UNL A   1      36.867  23.217  24.940  1.00  0.00     0.205 C 
BRANCH  17  18
ATOM     18  N   UNL A   1      37.431  22.214  25.823  1.00  0.00    -0.352 N 
ATOM     19  H   UNL A   1      37.727  22.656  26.694  1.00  0.00     0.345 HD
ATOM     20  H   UNL A   1      38.236  21.779  25.372  1.00  0.00     0.345 HD
ATOM     21  H   UNL A   1      36.727  21.503  26.024  1.00  0.00     0.345 HD
ENDBRANCH  17  18
ENDBRANCH  11  13
ENDBRANCH   8  11
ENDBRANCH   6   8
ENDBRANCH   5   6
ENDBRANCH   3   5
ENDBRANCH   2   3
ENDBRANCH   1   2
BRANCH   1  22
ATOM     22  C   UNL A   1      31.429  27.025  26.714  1.00  0.00     0.202 C 
BRANCH  22  23
ATOM     23  O   UNL A   1      31.429  28.450  26.618  1.00  0.00    -0.374 OA
BRANCH  23  24
ATOM     24  C   UNL A   1      32.420  29.031  25.777  1.00  0.00     0.202 C 
BRANCH  24  25
ATOM     25  C   UNL A   1      33.871  28.745  26.180  1.00  0.00     0.261 C 
BRANCH  25  26
ATOM     26  O   UNL A   1      34.073  28.923  27.595  1.00  0.00    -0.460 OA
BRANCH  26  27
ATOM     27  C   UNL A   1      34.612  30.112  27.947  1.00  0.00     0.338 C 
ATOM     28  O   UNL A   1      34.031  31.184  28.055  1.00  0.00    -0.246 OA
BRANCH  27  29
ATOM     29  C   UNL A   1      36.017  29.938  28.362  1.00  0.00     0.060 A 
ATOM     30  C   UNL A   1      37.003  30.186  27.399  1.00  0.00     0.016 A 
ATOM     31  C   UNL A   1      36.371  29.473  29.632  1.00  0.00     0.016 A 
ATOM     32  C   UNL A   1      38.341  29.915  27.680  1.00  0.00     0.010 A 
ATOM     33  C   UNL A   1      37.716  29.196  29.911  1.00  0.00     0.010 A 
ATOM     34  C   UNL A   1      38.702  29.379  28.923  1.00  0.00    -0.014 A 
BRANCH  34  35
ATOM     35  C   UNL A   1      40.086  28.879  29.124  1.00  0.00     0.031 A 
ATOM     36  C   UNL A   1      41.099  29.775  29.788  1.00  0.00     0.074 A 
ATOM     37  C   UNL A   1      40.430  27.630  28.761  1.00  0.00     0.049 A 
ATOM     38  N   UNL A   1      42.356  29.539  30.066  1.00  0.00    -0.248 NA
ATOM     39  C   UNL A   1      40.633  31.111  30.196  1.00  0.00     0.031 C 
ATOM     40  C   UNL A   1      39.537  26.648  28.149  1.00  0.00     0.029 A 
ATOM     41  N   UNL A   1      41.632  26.975  28.863  1.00  0.00    -0.354 N 
ATOM     42  C   UNL A   1      42.834  30.698  30.667  1.00  0.00     0.074 A 
ATOM     43  C   UNL A   1      41.739  31.642  30.698  1.00  0.00     0.031 C 
ATOM     44  C   UNL A   1      40.225  25.514  27.923  1.00  0.00     0.029 A 
ATOM     45  C   UNL A   1      41.611  25.701  28.348  1.00  0.00     0.049 A 
ATOM     46  H   UNL A   1      42.435  27.379  29.265  1.00  0.00     0.167 HD
ATOM     47  C   UNL A   1      44.071  30.952  31.153  1.00  0.00     0.031 A 
ATOM     48  C   UNL A   1      42.601  24.797  28.218  1.00  0.00     0.031 A 
ATOM     49  C   UNL A   1      45.162  30.015  31.135  1.00  0.00     0.049 A 
ATOM     50  C   UNL A   1      43.985  25.134  28.708  1.00  0.00     0.074 A 
ATOM     51  C   UNL A   1      46.440  30.173  31.645  1.00  0.00     0.029 A 
ATOM     52  N   UNL A   1      45.108  28.751  30.572  1.00  0.00    -0.354 N 
ATOM     53  N   UNL A   1      44.408  26.215  29.318  1.00  0.00    -0.248 NA
ATOM     54  C   UNL A   1      45.030  24.120  28.493  1.00  0.00     0.031 C 
ATOM     55  C   UNL A   1      47.177  29.025  31.339  1.00  0.00     0.029 A 
ATOM     56  C   UNL A   1      46.340  28.132  30.691  1.00  0.00     0.049 A 
ATOM     57  H   UNL A   1      44.311  28.352  30.152  1.00  0.00     0.167 HD
ATOM     58  C   UNL A   1      45.753  25.995  29.591  1.00  0.00     0.074 A 
ATOM     59  C   UNL A   1      46.074  24.674  29.092  1.00  0.00     0.031 C 
ATOM     60  C   UNL A   1      46.644  26.813  30.201  1.00  0.00     0.031 A 
BRANCH  47  61
ATOM     61  C   UNL A   1      44.332  32.316  31.726  1.00  0.00    -0.014 A 
ATOM     62  C   UNL A   1      44.147  32.583  33.090  1.00  0.00     0.009 A 
ATOM     63  C   UNL A   1      44.842  33.327  30.895  1.00  0.00     0.009 A 
ATOM     64  C   UNL A   1      44.450  33.844  33.608  1.00  0.00     0.001 A 
ATOM     65  C   UNL A   1      45.165  34.579  31.420  1.00  0.00     0.001 A 
ATOM     66  C   UNL A   1      44.965  34.837  32.775  1.00  0.00     0.000 A 
ENDBRANCH  47  61
BRANCH  48  67
ATOM     67  C   UNL A   1      42.343  23.485  27.566  1.00  0.00    -0.014 A 
ATOM     68  C   UNL A   1      41.903  22.384  28.318  1.00  0.00     0.009 A 
ATOM     69  C   UNL A   1      42.594  23.313  26.197  1.00  0.00     0.009 A 
ATOM     70  C   UNL A   1      41.759  21.130  27.719  1.00  0.00     0.001 A 
ATOM     71  C   UNL A   1      42.420  22.066  25.593  1.00  0.00     0.001 A 
ATOM     72  C   UNL A   1      42.015  20.973  26.358  1.00  0.00     0.000 A 
ENDBRANCH  48  67
BRANCH  60  73
ATOM     73  C   UNL A   1      48.038  26.290  30.406  1.00  0.00    -0.014 A 
ATOM     74  C   UNL A   1      49.022  26.425  29.415  1.00  0.00     0.009 A 
ATOM     75  C   UNL A   1      48.380  25.692  31.630  1.00  0.00     0.009 A 
ATOM     76  C   UNL A   1      50.314  25.941  29.635  1.00  0.00     0.001 A 
ATOM     77  C   UNL A   1      49.680  25.236  31.857  1.00  0.00     0.001 A 
ATOM     78  C   UNL A   1      50.643  25.352  30.855  1.00  0.00     0.000 A 
ENDBRANCH  60  73
ENDBRANCH  34  35
ENDBRANCH  27  29
ENDBRANCH  26  27
ENDBRANCH  25  26
ENDBRANCH  24  25
ENDBRANCH  23  24
ENDBRANCH  22  23
ENDBRANCH   1  22
TORSDOF 20
ENDMDL
