MODEL 1
REMARK VINA RESULT:     -12.6      0.000      0.000
REMARK SMILES Cc1c(C(=O)OCCOCCOC(=O)c2ccc(-c3c4nc(c(-c5ccccc5)c5ccc([nH]5)c(-c5ccccc5)c5nc(c(-c6ccccc6)c6ccc3[nH]6)C=C5)C=C4)cc2)oc2c1/C(=N/NC(=O)C(c1ccccc1)c1ccccc1)CCC2
REMARK SMILES IDX 8 1 7 2 6 3 4 4 5 5 3 6 1 7 2 8 65 9 63 10 64 11 66 12 86 13
REMARK SMILES IDX 67 14 84 15 85 16 68 17 69 18 70 20 71 21 72 22 73 23 77 24
REMARK SMILES IDX 74 25 76 26 75 27 78 28 79 29 83 30 80 31 82 32 81 33 9 34
REMARK SMILES IDX 10 35 11 36 12 37 13 38 14 39 15 40 16 41 62 42 17 43 61 44
REMARK SMILES IDX 18 45 19 46 20 47 55 48 21 49 60 50 54 51 56 52 22 53 59 54
REMARK SMILES IDX 53 55 52 56 23 58 45 59 30 60 44 61 31 62 34 63 43 64 57 65
REMARK SMILES IDX 32 66 33 67 42 69 58 70 35 71 24 72 25 73 29 74 26 75 28 76
REMARK SMILES IDX 27 77 46 78 47 79 51 80 48 81 50 82 49 83 36 84 37 85 41 86
REMARK SMILES IDX 38 87 40 88 39 89
REMARK H PARENT 68 19 56 57 34 68
REMARK Flexibility Score: inf
ROOT
ATOM      1  C   UNL A   1      31.769  29.742  25.628  1.00  0.00     0.202 C 
ENDROOT
BRANCH   1   2
ATOM      2  C   UNL A   1      30.722  29.963  24.533  1.00  0.00     0.261 C 
BRANCH   2   3
ATOM      3  O   UNL A   1      31.117  29.393  23.297  1.00  0.00    -0.457 OA
BRANCH   3   4
ATOM      4  C   UNL A   1      30.228  28.566  22.689  1.00  0.00     0.374 C 
ATOM      5  O   UNL A   1      29.229  28.914  22.052  1.00  0.00    -0.242 OA
BRANCH   4   6
ATOM      6  C   UNL A   1      30.745  27.234  22.802  1.00  0.00     0.215 A 
ATOM      7  C   UNL A   1      30.203  26.366  25.172  1.00  0.00     0.049 C 
ATOM      8  C   UNL A   1      30.795  26.277  23.815  1.00  0.00     0.012 A 
ATOM      9  C   UNL A   1      31.632  25.253  23.291  1.00  0.00     0.043 A 
ATOM     10  O   UNL A   1      31.261  26.736  21.647  1.00  0.00    -0.453 OA
ATOM     11  C   UNL A   1      31.813  25.570  21.953  1.00  0.00     0.114 A 
ATOM     12  C   UNL A   1      32.413  24.164  23.876  1.00  0.00     0.072 C 
ATOM     13  C   UNL A   1      32.679  24.996  20.909  1.00  0.00     0.076 C 
ATOM     14  N   UNL A   1      32.082  23.733  25.063  1.00  0.00    -0.177 NA
ATOM     15  C   UNL A   1      33.583  23.921  22.943  1.00  0.00     0.059 C 
ATOM     16  C   UNL A   1      33.292  23.744  21.463  1.00  0.00     0.014 C 
BRANCH  14  17
ATOM     17  N   UNL A   1      32.582  22.775  25.952  1.00  0.00    -0.246 N 
ATOM     18  C   UNL A   1      33.407  21.648  25.927  1.00  0.00     0.252 C 
ATOM     19  H   UNL A   1      32.256  22.946  26.866  1.00  0.00     0.193 HD
ATOM     20  O   UNL A   1      33.524  20.974  26.958  1.00  0.00    -0.272 OA
BRANCH  18  21
ATOM     21  C   UNL A   1      34.195  21.265  24.668  1.00  0.00     0.140 C 
BRANCH  21  22
ATOM     22  C   UNL A   1      35.709  21.768  24.964  1.00  0.00    -0.031 A 
ATOM     23  C   UNL A   1      36.825  20.929  25.099  1.00  0.00     0.005 A 
ATOM     24  C   UNL A   1      36.003  23.158  25.151  1.00  0.00     0.005 A 
ATOM     25  C   UNL A   1      38.078  21.444  25.540  1.00  0.00     0.000 A 
ATOM     26  C   UNL A   1      37.200  23.656  25.678  1.00  0.00     0.000 A 
ATOM     27  C   UNL A   1      38.247  22.790  25.885  1.00  0.00     0.000 A 
ENDBRANCH  21  22
BRANCH  21  28
ATOM     28  C   UNL A   1      33.676  19.758  24.310  1.00  0.00    -0.031 A 
ATOM     29  C   UNL A   1      32.530  19.443  23.553  1.00  0.00     0.005 A 
ATOM     30  C   UNL A   1      34.523  18.642  24.602  1.00  0.00     0.005 A 
ATOM     31  C   UNL A   1      32.417  18.173  22.917  1.00  0.00     0.000 A 
ATOM     32  C   UNL A   1      34.452  17.422  23.919  1.00  0.00     0.000 A 
ATOM     33  C   UNL A   1      33.413  17.198  23.041  1.00  0.00     0.000 A 
ENDBRANCH  21  28
ENDBRANCH  18  21
ENDBRANCH  14  17
ENDBRANCH   4   6
ENDBRANCH   3   4
ENDBRANCH   2   3
ENDBRANCH   1   2
BRANCH   1  34
ATOM     34  O   UNL A   1      32.074  30.815  26.523  1.00  0.00    -0.374 OA
BRANCH  34  35
ATOM     35  C   UNL A   1      33.331  30.873  27.188  1.00  0.00     0.202 C 
BRANCH  35  36
ATOM     36  C   UNL A   1      33.710  32.100  27.991  1.00  0.00     0.261 C 
BRANCH  36  37
ATOM     37  O   UNL A   1      35.112  32.277  28.030  1.00  0.00    -0.460 OA
BRANCH  37  38
ATOM     38  C   UNL A   1      35.705  31.719  29.105  1.00  0.00     0.338 C 
ATOM     39  O   UNL A   1      35.363  31.792  30.273  1.00  0.00    -0.246 OA
BRANCH  38  40
ATOM     40  C   UNL A   1      36.962  31.131  28.645  1.00  0.00     0.060 A 
ATOM     41  C   UNL A   1      36.891  29.957  27.904  1.00  0.00     0.016 A 
ATOM     42  C   UNL A   1      38.174  31.594  29.167  1.00  0.00     0.016 A 
ATOM     43  C   UNL A   1      37.934  29.065  28.042  1.00  0.00     0.010 A 
ATOM     44  C   UNL A   1      39.260  30.768  29.129  1.00  0.00     0.010 A 
ATOM     45  C   UNL A   1      39.046  29.437  28.813  1.00  0.00    -0.014 A 
BRANCH  45  46
ATOM     46  C   UNL A   1      40.138  28.518  29.076  1.00  0.00     0.031 A 
ATOM     47  C   UNL A   1      40.284  28.377  30.541  1.00  0.00     0.074 A 
ATOM     48  C   UNL A   1      40.832  27.831  28.130  1.00  0.00     0.049 A 
ATOM     49  N   UNL A   1      41.166  28.993  31.250  1.00  0.00    -0.248 NA
ATOM     50  C   UNL A   1      39.188  27.789  31.333  1.00  0.00     0.031 C 
ATOM     51  C   UNL A   1      40.695  27.810  26.664  1.00  0.00     0.029 A 
ATOM     52  N   UNL A   1      41.854  26.941  28.320  1.00  0.00    -0.354 N 
ATOM     53  C   UNL A   1      40.902  28.635  32.562  1.00  0.00     0.074 A 
ATOM     54  C   UNL A   1      39.568  28.098  32.575  1.00  0.00     0.031 C 
ATOM     55  C   UNL A   1      41.432  26.792  26.138  1.00  0.00     0.029 A 
ATOM     56  C   UNL A   1      42.209  26.176  27.197  1.00  0.00     0.049 A 
ATOM     57  H   UNL A   1      42.310  26.843  29.187  1.00  0.00     0.167 HD
ATOM     58  C   UNL A   1      41.933  28.502  33.437  1.00  0.00     0.031 A 
ATOM     59  C   UNL A   1      43.141  25.175  27.136  1.00  0.00     0.031 A 
ATOM     60  C   UNL A   1      43.128  29.118  32.910  1.00  0.00     0.049 A 
ATOM     61  C   UNL A   1      44.070  25.402  28.269  1.00  0.00     0.074 A 
ATOM     62  C   UNL A   1      43.520  30.405  32.612  1.00  0.00     0.029 A 
ATOM     63  N   UNL A   1      43.932  28.282  32.175  1.00  0.00    -0.354 N 
ATOM     64  N   UNL A   1      44.851  26.443  28.316  1.00  0.00    -0.248 NA
ATOM     65  C   UNL A   1      43.707  24.819  29.551  1.00  0.00     0.031 C 
ATOM     66  C   UNL A   1      44.261  30.296  31.397  1.00  0.00     0.029 A 
ATOM     67  C   UNL A   1      44.391  28.945  31.067  1.00  0.00     0.049 A 
ATOM     68  H   UNL A   1      44.146  27.349  32.407  1.00  0.00     0.167 HD
ATOM     69  C   UNL A   1      44.690  26.937  29.602  1.00  0.00     0.074 A 
ATOM     70  C   UNL A   1      44.008  25.862  30.335  1.00  0.00     0.031 C 
ATOM     71  C   UNL A   1      44.817  28.274  29.859  1.00  0.00     0.031 A 
BRANCH  58  72
ATOM     72  C   UNL A   1      42.000  27.380  34.440  1.00  0.00    -0.014 A 
ATOM     73  C   UNL A   1      41.531  27.630  35.741  1.00  0.00     0.009 A 
ATOM     74  C   UNL A   1      42.778  26.220  34.256  1.00  0.00     0.009 A 
ATOM     75  C   UNL A   1      41.882  26.800  36.810  1.00  0.00     0.001 A 
ATOM     76  C   UNL A   1      43.104  25.373  35.317  1.00  0.00     0.001 A 
ATOM     77  C   UNL A   1      42.675  25.677  36.600  1.00  0.00     0.000 A 
ENDBRANCH  58  72
BRANCH  59  78
ATOM     78  C   UNL A   1      43.033  23.831  26.489  1.00  0.00    -0.014 A 
ATOM     79  C   UNL A   1      44.153  23.131  25.991  1.00  0.00     0.009 A 
ATOM     80  C   UNL A   1      41.841  23.098  26.630  1.00  0.00     0.009 A 
ATOM     81  C   UNL A   1      44.075  21.764  25.652  1.00  0.00     0.001 A 
ATOM     82  C   UNL A   1      41.766  21.735  26.304  1.00  0.00     0.001 A 
ATOM     83  C   UNL A   1      42.882  21.064  25.817  1.00  0.00     0.000 A 
ENDBRANCH  59  78
BRANCH  71  84
ATOM     84  C   UNL A   1      45.312  29.161  28.736  1.00  0.00    -0.014 A 
ATOM     85  C   UNL A   1      44.473  29.796  27.797  1.00  0.00     0.009 A 
ATOM     86  C   UNL A   1      46.675  29.480  28.724  1.00  0.00     0.009 A 
ATOM     87  C   UNL A   1      44.999  30.701  26.861  1.00  0.00     0.001 A 
ATOM     88  C   UNL A   1      47.194  30.394  27.806  1.00  0.00     0.001 A 
ATOM     89  C   UNL A   1      46.361  30.999  26.870  1.00  0.00     0.000 A 
ENDBRANCH  71  84
ENDBRANCH  45  46
ENDBRANCH  38  40
ENDBRANCH  37  38
ENDBRANCH  36  37
ENDBRANCH  35  36
ENDBRANCH  34  35
ENDBRANCH   1  34
TORSDOF 18
ENDMDL
MODEL 2
REMARK VINA RESULT:     -12.4      3.270      5.468
REMARK SMILES Cc1c(C(=O)OCCOCCOC(=O)c2ccc(-c3c4nc(c(-c5ccccc5)c5ccc([nH]5)c(-c5ccccc5)c5nc(c(-c6ccccc6)c6ccc3[nH]6)C=C5)C=C4)cc2)oc2c1/C(=N/NC(=O)C(c1ccccc1)c1ccccc1)CCC2
REMARK SMILES IDX 8 1 7 2 6 3 4 4 5 5 3 6 1 7 2 8 65 9 63 10 64 11 66 12 86 13
REMARK SMILES IDX 67 14 84 15 85 16 68 17 69 18 70 20 71 21 72 22 73 23 77 24
REMARK SMILES IDX 74 25 76 26 75 27 78 28 79 29 83 30 80 31 82 32 81 33 9 34
REMARK SMILES IDX 10 35 11 36 12 37 13 38 14 39 15 40 16 41 62 42 17 43 61 44
REMARK SMILES IDX 18 45 19 46 20 47 55 48 21 49 60 50 54 51 56 52 22 53 59 54
REMARK SMILES IDX 53 55 52 56 23 58 45 59 30 60 44 61 31 62 34 63 43 64 57 65
REMARK SMILES IDX 32 66 33 67 42 69 58 70 35 71 24 72 25 73 29 74 26 75 28 76
REMARK SMILES IDX 27 77 46 78 47 79 51 80 48 81 50 82 49 83 36 84 37 85 41 86
REMARK SMILES IDX 38 87 40 88 39 89
REMARK H PARENT 68 19 56 57 34 68
REMARK Flexibility Score: inf
ROOT
ATOM      1  C   UNL A   1      35.024  33.498  28.161  1.00  0.00     0.202 C 
ENDROOT
BRANCH   1   2
ATOM      2  C   UNL A   1      34.288  32.190  28.464  1.00  0.00     0.261 C 
BRANCH   2   3
ATOM      3  O   UNL A   1      33.866  31.531  27.282  1.00  0.00    -0.457 OA
BRANCH   3   4
ATOM      4  C   UNL A   1      32.544  31.595  26.980  1.00  0.00     0.374 C 
ATOM      5  O   UNL A   1      31.770  32.503  27.294  1.00  0.00    -0.242 OA
BRANCH   4   6
ATOM      6  C   UNL A   1      32.256  30.493  26.111  1.00  0.00     0.215 A 
ATOM      7  C   UNL A   1      34.013  28.652  26.547  1.00  0.00     0.049 C 
ATOM      8  C   UNL A   1      32.845  29.253  25.859  1.00  0.00     0.012 A 
ATOM      9  C   UNL A   1      32.142  28.753  24.728  1.00  0.00     0.043 A 
ATOM     10  O   UNL A   1      31.111  30.632  25.392  1.00  0.00    -0.453 OA
ATOM     11  C   UNL A   1      31.065  29.609  24.551  1.00  0.00     0.114 A 
ATOM     12  C   UNL A   1      32.421  27.741  23.710  1.00  0.00     0.072 C 
ATOM     13  C   UNL A   1      30.056  29.721  23.484  1.00  0.00     0.076 C 
ATOM     14  N   UNL A   1      33.292  26.808  23.987  1.00  0.00    -0.177 NA
ATOM     15  C   UNL A   1      31.688  28.174  22.456  1.00  0.00     0.059 C 
ATOM     16  C   UNL A   1      30.218  28.537  22.578  1.00  0.00     0.014 C 
BRANCH  14  17
ATOM     17  N   UNL A   1      33.846  25.724  23.297  1.00  0.00    -0.246 N 
ATOM     18  C   UNL A   1      33.982  24.341  23.448  1.00  0.00     0.252 C 
ATOM     19  H   UNL A   1      34.264  26.024  22.457  1.00  0.00     0.193 HD
ATOM     20  O   UNL A   1      34.669  23.719  22.627  1.00  0.00    -0.272 OA
BRANCH  18  21
ATOM     21  C   UNL A   1      33.264  23.588  24.574  1.00  0.00     0.140 C 
BRANCH  21  22
ATOM     22  C   UNL A   1      31.802  24.286  24.667  1.00  0.00    -0.031 A 
ATOM     23  C   UNL A   1      30.883  24.374  23.611  1.00  0.00     0.005 A 
ATOM     24  C   UNL A   1      31.358  24.914  25.876  1.00  0.00     0.005 A 
ATOM     25  C   UNL A   1      29.704  25.164  23.733  1.00  0.00     0.000 A 
ATOM     26  C   UNL A   1      30.255  25.770  25.972  1.00  0.00     0.000 A 
ATOM     27  C   UNL A   1      29.423  25.906  24.886  1.00  0.00     0.000 A 
ENDBRANCH  21  22
BRANCH  21  28
ATOM     28  C   UNL A   1      33.626  22.018  24.304  1.00  0.00    -0.031 A 
ATOM     29  C   UNL A   1      34.775  21.349  24.771  1.00  0.00     0.005 A 
ATOM     30  C   UNL A   1      32.638  21.166  23.716  1.00  0.00     0.005 A 
ATOM     31  C   UNL A   1      34.781  19.929  24.886  1.00  0.00     0.000 A 
ATOM     32  C   UNL A   1      32.610  19.779  23.897  1.00  0.00     0.000 A 
ATOM     33  C   UNL A   1      33.672  19.157  24.521  1.00  0.00     0.000 A 
ENDBRANCH  21  28
ENDBRANCH  18  21
ENDBRANCH  14  17
ENDBRANCH   4   6
ENDBRANCH   3   4
ENDBRANCH   2   3
ENDBRANCH   1   2
BRANCH   1  34
ATOM     34  O   UNL A   1      34.264  34.656  27.809  1.00  0.00    -0.374 OA
BRANCH  34  35
ATOM     35  C   UNL A   1      34.120  35.738  28.723  1.00  0.00     0.202 C 
BRANCH  35  36
ATOM     36  C   UNL A   1      32.914  35.805  29.637  1.00  0.00     0.261 C 
BRANCH  36  37
ATOM     37  O   UNL A   1      33.012  34.863  30.687  1.00  0.00    -0.460 OA
BRANCH  37  38
ATOM     38  C   UNL A   1      33.337  35.403  31.879  1.00  0.00     0.338 C 
ATOM     39  O   UNL A   1      32.952  36.459  32.355  1.00  0.00    -0.246 OA
BRANCH  38  40
ATOM     40  C   UNL A   1      34.390  34.571  32.455  1.00  0.00     0.060 A 
ATOM     41  C   UNL A   1      35.471  35.217  33.046  1.00  0.00     0.016 A 
ATOM     42  C   UNL A   1      34.422  33.202  32.175  1.00  0.00     0.016 A 
ATOM     43  C   UNL A   1      36.695  34.587  32.971  1.00  0.00     0.010 A 
ATOM     44  C   UNL A   1      35.610  32.539  32.286  1.00  0.00     0.010 A 
ATOM     45  C   UNL A   1      36.761  33.298  32.420  1.00  0.00    -0.014 A 
BRANCH  45  46
ATOM     46  C   UNL A   1      38.025  32.611  32.227  1.00  0.00     0.031 A 
ATOM     47  C   UNL A   1      38.758  32.618  33.512  1.00  0.00     0.074 A 
ATOM     48  C   UNL A   1      38.412  31.984  31.085  1.00  0.00     0.049 A 
ATOM     49  N   UNL A   1      39.708  33.436  33.807  1.00  0.00    -0.248 NA
ATOM     50  C   UNL A   1      38.197  31.912  34.678  1.00  0.00     0.031 C 
ATOM     51  C   UNL A   1      37.719  31.819  29.797  1.00  0.00     0.029 A 
ATOM     52  N   UNL A   1      39.578  31.307  30.854  1.00  0.00    -0.354 N 
ATOM     53  C   UNL A   1      40.054  33.145  35.116  1.00  0.00     0.074 A 
ATOM     54  C   UNL A   1      38.965  32.384  35.664  1.00  0.00     0.031 C 
ATOM     55  C   UNL A   1      38.374  30.909  29.024  1.00  0.00     0.029 A 
ATOM     56  C   UNL A   1      39.608  30.529  29.686  1.00  0.00     0.049 A 
ATOM     57  H   UNL A   1      40.347  31.362  31.466  1.00  0.00     0.167 HD
ATOM     58  C   UNL A   1      41.350  33.268  35.506  1.00  0.00     0.031 A 
ATOM     59  C   UNL A   1      40.616  29.707  29.261  1.00  0.00     0.031 A 
ATOM     60  C   UNL A   1      42.099  34.041  34.543  1.00  0.00     0.049 A 
ATOM     61  C   UNL A   1      41.852  30.185  29.927  1.00  0.00     0.074 A 
ATOM     62  C   UNL A   1      42.083  35.348  34.108  1.00  0.00     0.029 A 
ATOM     63  N   UNL A   1      42.696  33.304  33.550  1.00  0.00    -0.354 N 
ATOM     64  N   UNL A   1      42.369  31.349  29.653  1.00  0.00    -0.248 NA
ATOM     65  C   UNL A   1      42.141  29.654  31.249  1.00  0.00     0.031 C 
ATOM     66  C   UNL A   1      42.295  35.274  32.699  1.00  0.00     0.029 A 
ATOM     67  C   UNL A   1      42.546  33.945  32.349  1.00  0.00     0.049 A 
ATOM     68  H   UNL A   1      43.162  32.446  33.681  1.00  0.00     0.167 HD
ATOM     69  C   UNL A   1      42.632  31.909  30.894  1.00  0.00     0.074 A 
ATOM     70  C   UNL A   1      42.515  30.794  31.842  1.00  0.00     0.031 C 
ATOM     71  C   UNL A   1      42.586  33.264  31.074  1.00  0.00     0.031 A 
BRANCH  58  72
ATOM     72  C   UNL A   1      42.023  32.261  36.403  1.00  0.00    -0.014 A 
ATOM     73  C   UNL A   1      42.650  32.733  37.568  1.00  0.00     0.009 A 
ATOM     74  C   UNL A   1      42.334  30.948  35.999  1.00  0.00     0.009 A 
ATOM     75  C   UNL A   1      43.589  31.954  38.251  1.00  0.00     0.001 A 
ATOM     76  C   UNL A   1      43.250  30.158  36.697  1.00  0.00     0.001 A 
ATOM     77  C   UNL A   1      43.896  30.671  37.810  1.00  0.00     0.000 A 
ENDBRANCH  58  72
BRANCH  59  78
ATOM     78  C   UNL A   1      40.528  28.317  28.716  1.00  0.00    -0.014 A 
ATOM     79  C   UNL A   1      39.614  27.360  29.210  1.00  0.00     0.009 A 
ATOM     80  C   UNL A   1      41.154  28.020  27.493  1.00  0.00     0.009 A 
ATOM     81  C   UNL A   1      39.347  26.167  28.506  1.00  0.00     0.001 A 
ATOM     82  C   UNL A   1      40.879  26.839  26.786  1.00  0.00     0.001 A 
ATOM     83  C   UNL A   1      39.973  25.911  27.289  1.00  0.00     0.000 A 
ENDBRANCH  59  78
BRANCH  71  84
ATOM     84  C   UNL A   1      42.418  34.130  29.843  1.00  0.00    -0.014 A 
ATOM     85  C   UNL A   1      41.197  34.705  29.437  1.00  0.00     0.009 A 
ATOM     86  C   UNL A   1      43.580  34.496  29.153  1.00  0.00     0.009 A 
ATOM     87  C   UNL A   1      41.148  35.596  28.353  1.00  0.00     0.001 A 
ATOM     88  C   UNL A   1      43.535  35.397  28.088  1.00  0.00     0.001 A 
ATOM     89  C   UNL A   1      42.319  35.942  27.682  1.00  0.00     0.000 A 
ENDBRANCH  71  84
ENDBRANCH  45  46
ENDBRANCH  38  40
ENDBRANCH  37  38
ENDBRANCH  36  37
ENDBRANCH  35  36
ENDBRANCH  34  35
ENDBRANCH   1  34
TORSDOF 18
ENDMDL
MODEL 3
REMARK VINA RESULT:     -12.4      3.234      5.115
REMARK SMILES Cc1c(C(=O)OCCOCCOC(=O)c2ccc(-c3c4nc(c(-c5ccccc5)c5ccc([nH]5)c(-c5ccccc5)c5nc(c(-c6ccccc6)c6ccc3[nH]6)C=C5)C=C4)cc2)oc2c1/C(=N/NC(=O)C(c1ccccc1)c1ccccc1)CCC2
REMARK SMILES IDX 8 1 7 2 6 3 4 4 5 5 3 6 1 7 2 8 65 9 63 10 64 11 66 12 86 13
REMARK SMILES IDX 67 14 84 15 85 16 68 17 69 18 70 20 71 21 72 22 73 23 77 24
REMARK SMILES IDX 74 25 76 26 75 27 78 28 79 29 83 30 80 31 82 32 81 33 9 34
REMARK SMILES IDX 10 35 11 36 12 37 13 38 14 39 15 40 16 41 62 42 17 43 61 44
REMARK SMILES IDX 18 45 19 46 20 47 55 48 21 49 60 50 54 51 56 52 22 53 59 54
REMARK SMILES IDX 53 55 52 56 23 58 45 59 30 60 44 61 31 62 34 63 43 64 57 65
REMARK SMILES IDX 32 66 33 67 42 69 58 70 35 71 24 72 25 73 29 74 26 75 28 76
REMARK SMILES IDX 27 77 46 78 47 79 51 80 48 81 50 82 49 83 36 84 37 85 41 86
REMARK SMILES IDX 38 87 40 88 39 89
REMARK H PARENT 68 19 56 57 34 68
REMARK Flexibility Score: inf
ROOT
ATOM      1  C   UNL A   1      33.686  31.632  27.699  1.00  0.00     0.202 C 
ENDROOT
BRANCH   1   2
ATOM      2  C   UNL A   1      32.573  30.722  27.172  1.00  0.00     0.261 C 
BRANCH   2   3
ATOM      3  O   UNL A   1      32.968  29.362  27.142  1.00  0.00    -0.457 OA
BRANCH   3   4
ATOM      4  C   UNL A   1      31.979  28.432  27.206  1.00  0.00     0.374 C 
ATOM      5  O   UNL A   1      31.134  28.331  28.100  1.00  0.00    -0.242 OA
BRANCH   4   6
ATOM      6  C   UNL A   1      32.016  27.692  25.980  1.00  0.00     0.215 A 
ATOM      7  C   UNL A   1      30.829  25.434  26.375  1.00  0.00     0.049 C 
ATOM      8  C   UNL A   1      31.584  26.429  25.575  1.00  0.00     0.012 A 
ATOM      9  C   UNL A   1      32.126  26.273  24.269  1.00  0.00     0.043 A 
ATOM     10  O   UNL A   1      32.535  28.379  24.928  1.00  0.00    -0.453 OA
ATOM     11  C   UNL A   1      32.624  27.520  23.923  1.00  0.00     0.114 A 
ATOM     12  C   UNL A   1      32.406  25.129  23.402  1.00  0.00     0.072 C 
ATOM     13  C   UNL A   1      33.426  27.980  22.776  1.00  0.00     0.076 C 
ATOM     14  N   UNL A   1      31.757  24.016  23.617  1.00  0.00    -0.177 NA
ATOM     15  C   UNL A   1      33.578  25.526  22.527  1.00  0.00     0.059 C 
ATOM     16  C   UNL A   1      33.502  26.853  21.791  1.00  0.00     0.014 C 
BRANCH  14  17
ATOM     17  N   UNL A   1      31.765  22.733  23.059  1.00  0.00    -0.246 N 
ATOM     18  C   UNL A   1      32.346  21.486  23.300  1.00  0.00     0.252 C 
ATOM     19  H   UNL A   1      31.190  22.699  22.260  1.00  0.00     0.193 HD
ATOM     20  O   UNL A   1      32.180  20.582  22.470  1.00  0.00    -0.272 OA
BRANCH  18  21
ATOM     21  C   UNL A   1      33.139  21.211  24.584  1.00  0.00     0.140 C 
BRANCH  21  22
ATOM     22  C   UNL A   1      33.274  19.595  24.644  1.00  0.00    -0.031 A 
ATOM     23  C   UNL A   1      32.272  18.719  25.088  1.00  0.00     0.005 A 
ATOM     24  C   UNL A   1      34.491  18.939  24.266  1.00  0.00     0.005 A 
ATOM     25  C   UNL A   1      32.545  17.334  25.279  1.00  0.00     0.000 A 
ATOM     26  C   UNL A   1      34.796  17.602  24.543  1.00  0.00     0.000 A 
ATOM     27  C   UNL A   1      33.817  16.791  25.064  1.00  0.00     0.000 A 
ENDBRANCH  21  22
BRANCH  21  28
ATOM     28  C   UNL A   1      34.328  22.330  24.571  1.00  0.00    -0.031 A 
ATOM     29  C   UNL A   1      34.682  23.165  25.650  1.00  0.00     0.005 A 
ATOM     30  C   UNL A   1      35.235  22.371  23.464  1.00  0.00     0.005 A 
ATOM     31  C   UNL A   1      35.978  23.754  25.707  1.00  0.00     0.000 A 
ATOM     32  C   UNL A   1      36.534  22.885  23.551  1.00  0.00     0.000 A 
ATOM     33  C   UNL A   1      36.923  23.549  24.695  1.00  0.00     0.000 A 
ENDBRANCH  21  28
ENDBRANCH  18  21
ENDBRANCH  14  17
ENDBRANCH   4   6
ENDBRANCH   3   4
ENDBRANCH   2   3
ENDBRANCH   1   2
BRANCH   1  34
ATOM     34  O   UNL A   1      33.397  33.010  27.945  1.00  0.00    -0.374 OA
BRANCH  34  35
ATOM     35  C   UNL A   1      34.218  33.782  28.815  1.00  0.00     0.202 C 
BRANCH  35  36
ATOM     36  C   UNL A   1      33.640  34.979  29.541  1.00  0.00     0.261 C 
BRANCH  36  37
ATOM     37  O   UNL A   1      32.961  34.589  30.719  1.00  0.00    -0.460 OA
BRANCH  37  38
ATOM     38  C   UNL A   1      33.321  35.286  31.815  1.00  0.00     0.338 C 
ATOM     39  O   UNL A   1      32.908  36.374  32.181  1.00  0.00    -0.246 OA
BRANCH  38  40
ATOM     40  C   UNL A   1      34.445  34.580  32.425  1.00  0.00     0.060 A 
ATOM     41  C   UNL A   1      35.565  35.327  32.770  1.00  0.00     0.016 A 
ATOM     42  C   UNL A   1      34.478  33.182  32.404  1.00  0.00     0.016 A 
ATOM     43  C   UNL A   1      36.789  34.697  32.688  1.00  0.00     0.010 A 
ATOM     44  C   UNL A   1      35.685  32.555  32.514  1.00  0.00     0.010 A 
ATOM     45  C   UNL A   1      36.826  33.327  32.385  1.00  0.00    -0.014 A 
BRANCH  45  46
ATOM     46  C   UNL A   1      38.079  32.619  32.194  1.00  0.00     0.031 A 
ATOM     47  C   UNL A   1      38.812  32.620  33.478  1.00  0.00     0.074 A 
ATOM     48  C   UNL A   1      38.454  31.980  31.055  1.00  0.00     0.049 A 
ATOM     49  N   UNL A   1      39.777  33.423  33.769  1.00  0.00    -0.248 NA
ATOM     50  C   UNL A   1      38.241  31.928  34.649  1.00  0.00     0.031 C 
ATOM     51  C   UNL A   1      37.758  31.820  29.768  1.00  0.00     0.029 A 
ATOM     52  N   UNL A   1      39.610  31.282  30.826  1.00  0.00    -0.354 N 
ATOM     53  C   UNL A   1      40.119  33.133  35.079  1.00  0.00     0.074 A 
ATOM     54  C   UNL A   1      39.017  32.392  35.631  1.00  0.00     0.031 C 
ATOM     55  C   UNL A   1      38.397  30.896  28.999  1.00  0.00     0.029 A 
ATOM     56  C   UNL A   1      39.625  30.498  29.662  1.00  0.00     0.049 A 
ATOM     57  H   UNL A   1      40.380  31.328  31.438  1.00  0.00     0.167 HD
ATOM     58  C   UNL A   1      41.416  33.237  35.468  1.00  0.00     0.031 A 
ATOM     59  C   UNL A   1      40.620  29.658  29.240  1.00  0.00     0.031 A 
ATOM     60  C   UNL A   1      42.177  33.992  34.501  1.00  0.00     0.049 A 
ATOM     61  C   UNL A   1      41.863  30.119  29.903  1.00  0.00     0.074 A 
ATOM     62  C   UNL A   1      42.183  35.298  34.060  1.00  0.00     0.029 A 
ATOM     63  N   UNL A   1      42.762  33.240  33.511  1.00  0.00    -0.354 N 
ATOM     64  N   UNL A   1      42.400  31.273  29.624  1.00  0.00    -0.248 NA
ATOM     65  C   UNL A   1      42.145  29.590  31.227  1.00  0.00     0.031 C 
ATOM     66  C   UNL A   1      42.393  35.213  32.650  1.00  0.00     0.029 A 
ATOM     67  C   UNL A   1      42.621  33.879  32.307  1.00  0.00     0.049 A 
ATOM     68  H   UNL A   1      43.213  32.376  33.646  1.00  0.00     0.167 HD
ATOM     69  C   UNL A   1      42.673  31.835  30.862  1.00  0.00     0.074 A 
ATOM     70  C   UNL A   1      42.538  30.726  31.816  1.00  0.00     0.031 C 
ATOM     71  C   UNL A   1      42.649  33.191  31.035  1.00  0.00     0.031 A 
BRANCH  58  72
ATOM     72  C   UNL A   1      42.073  32.223  36.369  1.00  0.00    -0.014 A 
ATOM     73  C   UNL A   1      42.739  32.693  37.513  1.00  0.00     0.009 A 
ATOM     74  C   UNL A   1      42.332  30.894  35.983  1.00  0.00     0.009 A 
ATOM     75  C   UNL A   1      43.665  31.895  38.192  1.00  0.00     0.001 A 
ATOM     76  C   UNL A   1      43.235  30.085  36.676  1.00  0.00     0.001 A 
ATOM     77  C   UNL A   1      43.920  30.594  37.768  1.00  0.00     0.000 A 
ENDBRANCH  58  72
BRANCH  59  78
ATOM     78  C   UNL A   1      40.508  28.267  28.702  1.00  0.00    -0.014 A 
ATOM     79  C   UNL A   1      39.763  27.256  29.348  1.00  0.00     0.009 A 
ATOM     80  C   UNL A   1      40.903  28.012  27.377  1.00  0.00     0.009 A 
ATOM     81  C   UNL A   1      39.435  26.051  28.691  1.00  0.00     0.001 A 
ATOM     82  C   UNL A   1      40.565  26.819  26.719  1.00  0.00     0.001 A 
ATOM     83  C   UNL A   1      39.828  25.838  27.373  1.00  0.00     0.000 A 
ENDBRANCH  59  78
BRANCH  71  84
ATOM     84  C   UNL A   1      42.495  34.054  29.800  1.00  0.00    -0.014 A 
ATOM     85  C   UNL A   1      41.280  34.637  29.385  1.00  0.00     0.009 A 
ATOM     86  C   UNL A   1      43.663  34.407  29.114  1.00  0.00     0.009 A 
ATOM     87  C   UNL A   1      41.245  35.525  28.299  1.00  0.00     0.001 A 
ATOM     88  C   UNL A   1      43.631  35.304  28.046  1.00  0.00     0.001 A 
ATOM     89  C   UNL A   1      42.422  35.858  27.632  1.00  0.00     0.000 A 
ENDBRANCH  71  84
ENDBRANCH  45  46
ENDBRANCH  38  40
ENDBRANCH  37  38
ENDBRANCH  36  37
ENDBRANCH  35  36
ENDBRANCH  34  35
ENDBRANCH   1  34
TORSDOF 18
ENDMDL
