MODEL 1
REMARK VINA RESULT:     -10.3      0.000      0.000
REMARK SMILES CC[N@@H+](C)Cc1cc2c(cc1Cl)C=C(C(=O)OCCOCCOC(=O)c1ccc(-c3c4nc(c(-c5ccccc5)c5ccc([nH]5)c(-c5ccccc5)c5nc(c(-c6ccccc6)c6ccc3[nH]6)C=C5)C=C4)cc1)[C@@H](C(F)(F)F)O2
REMARK SMILES IDX 19 1 18 2 17 3 15 4 16 5 14 6 6 7 7 8 11 9 8 10 10 11 12 12
REMARK SMILES IDX 9 13 79 14 13 15 74 16 5 17 3 18 4 19 2 21 1 22 75 23 76 24
REMARK SMILES IDX 77 25 78 26 20 27 21 28 22 29 23 30 24 31 25 32 26 33 27 34
REMARK SMILES IDX 73 35 28 36 72 37 29 38 30 39 31 40 66 41 32 42 71 43 65 44
REMARK SMILES IDX 67 45 33 46 70 47 64 48 63 49 34 51 56 52 41 53 55 54 42 55
REMARK SMILES IDX 45 56 54 57 68 58 43 59 44 60 53 62 69 63 46 64 35 65 36 66
REMARK SMILES IDX 40 67 37 68 39 69 38 70 57 71 58 72 62 73 59 74 61 75 60 76
REMARK SMILES IDX 47 77 48 78 52 79 49 80 51 81 50 82
REMARK H PARENT 3 20 67 50 45 61
REMARK Flexibility Score: inf
ROOT
ATOM      1  C   UNL A   1      33.275  28.769  27.332  1.00  0.00     0.202 C 
ENDROOT
BRANCH   1   2
ATOM      2  C   UNL A   1      33.801  28.052  26.086  1.00  0.00     0.261 C 
BRANCH   2   3
ATOM      3  O   UNL A   1      32.937  26.986  25.670  1.00  0.00    -0.460 OA
BRANCH   3   4
ATOM      4  C   UNL A   1      33.359  26.332  24.561  1.00  0.00     0.338 C 
ATOM      5  O   UNL A   1      33.930  26.814  23.597  1.00  0.00    -0.246 OA
BRANCH   4   6
ATOM      6  C   UNL A   1      33.153  24.884  24.736  1.00  0.00     0.087 C 
ATOM      7  C   UNL A   1      33.929  19.948  24.599  1.00  0.00     0.029 A 
ATOM      8  C   UNL A   1      32.781  20.764  24.663  1.00  0.00     0.058 A 
ATOM      9  C   UNL A   1      35.172  20.539  24.874  1.00  0.00     0.050 A 
ATOM     10  C   UNL A   1      32.884  22.143  24.827  1.00  0.00     0.128 A 
ATOM     11  C   UNL A   1      35.275  21.921  25.053  1.00  0.00     0.033 A 
ATOM     12  Cl  UNL A   1      36.637  19.628  24.976  1.00  0.00    -0.084 Cl
ATOM     13  C   UNL A   1      34.138  22.726  24.970  1.00  0.00     0.019 A 
ATOM     14  O   UNL A   1      31.716  22.846  24.798  1.00  0.00    -0.475 OA
ATOM     15  C   UNL A   1      34.267  24.169  24.938  1.00  0.00     0.027 C 
ATOM     16  C   UNL A   1      31.772  24.295  24.663  1.00  0.00     0.316 C 
BRANCH   7  17
ATOM     17  C   UNL A   1      33.775  18.507  24.153  1.00  0.00     0.300 C 
BRANCH  17  18
ATOM     18  N   UNL A   1      33.822  17.485  25.223  1.00  0.00    -0.334 N 
ATOM     19  C   UNL A   1      34.794  16.426  24.947  1.00  0.00     0.333 C 
ATOM     20  H   UNL A   1      34.132  18.024  26.033  1.00  0.00     0.348 HD
BRANCH  18  21
ATOM     21  C   UNL A   1      32.533  16.904  25.615  1.00  0.00     0.258 C 
ATOM     22  C   UNL A   1      32.549  15.381  25.682  1.00  0.00     0.071 C 
ENDBRANCH  18  21
ENDBRANCH  17  18
ENDBRANCH   7  17
BRANCH  16  23
ATOM     23  C   UNL A   1      31.024  24.688  23.381  1.00  0.00     0.430 C 
ATOM     24  F   UNL A   1      30.055  23.789  23.083  1.00  0.00    -0.167 F 
ATOM     25  F   UNL A   1      30.409  25.888  23.506  1.00  0.00    -0.167 F 
ATOM     26  F   UNL A   1      31.849  24.765  22.315  1.00  0.00    -0.167 F 
ENDBRANCH  16  23
ENDBRANCH   4   6
ENDBRANCH   3   4
ENDBRANCH   2   3
ENDBRANCH   1   2
BRANCH   1  27
ATOM     27  O   UNL A   1      32.571  29.994  27.153  1.00  0.00    -0.374 OA
BRANCH  27  28
ATOM     28  C   UNL A   1      33.269  31.222  27.358  1.00  0.00     0.202 C 
BRANCH  28  29
ATOM     29  C   UNL A   1      32.456  32.511  27.539  1.00  0.00     0.261 C 
BRANCH  29  30
ATOM     30  O   UNL A   1      33.281  33.687  27.605  1.00  0.00    -0.460 OA
BRANCH  30  31
ATOM     31  C   UNL A   1      33.428  34.214  28.847  1.00  0.00     0.338 C 
ATOM     32  O   UNL A   1      32.594  34.818  29.501  1.00  0.00    -0.246 OA
BRANCH  31  33
ATOM     33  C   UNL A   1      34.715  33.767  29.406  1.00  0.00     0.060 A 
ATOM     34  C   UNL A   1      34.763  32.984  30.559  1.00  0.00     0.016 A 
ATOM     35  C   UNL A   1      35.889  34.112  28.725  1.00  0.00     0.016 A 
ATOM     36  C   UNL A   1      36.000  32.528  31.021  1.00  0.00     0.010 A 
ATOM     37  C   UNL A   1      37.123  33.661  29.191  1.00  0.00     0.010 A 
ATOM     38  C   UNL A   1      37.185  32.848  30.331  1.00  0.00    -0.014 A 
BRANCH  38  39
ATOM     39  C   UNL A   1      38.468  32.215  30.717  1.00  0.00     0.031 A 
ATOM     40  C   UNL A   1      39.385  32.845  31.720  1.00  0.00     0.074 A 
ATOM     41  C   UNL A   1      38.812  31.058  30.119  1.00  0.00     0.049 A 
ATOM     42  N   UNL A   1      40.512  32.384  32.199  1.00  0.00    -0.248 NA
ATOM     43  C   UNL A   1      38.996  34.159  32.253  1.00  0.00     0.031 C 
ATOM     44  C   UNL A   1      38.006  30.371  29.108  1.00  0.00     0.029 A 
ATOM     45  N   UNL A   1      39.912  30.253  30.275  1.00  0.00    -0.354 N 
ATOM     46  C   UNL A   1      40.959  33.336  33.103  1.00  0.00     0.074 A 
ATOM     47  C   UNL A   1      40.007  34.427  33.072  1.00  0.00     0.031 C 
ATOM     48  C   UNL A   1      38.621  29.230  28.762  1.00  0.00     0.029 A 
ATOM     49  C   UNL A   1      39.882  29.126  29.492  1.00  0.00     0.049 A 
ATOM     50  H   UNL A   1      40.651  30.464  30.890  1.00  0.00     0.167 HD
ATOM     51  C   UNL A   1      42.055  33.291  33.897  1.00  0.00     0.031 A 
ATOM     52  C   UNL A   1      40.766  28.116  29.369  1.00  0.00     0.031 A 
ATOM     53  C   UNL A   1      43.007  32.208  33.900  1.00  0.00     0.049 A 
ATOM     54  C   UNL A   1      42.005  28.120  30.219  1.00  0.00     0.074 A 
ATOM     55  C   UNL A   1      44.126  32.058  34.703  1.00  0.00     0.029 A 
ATOM     56  N   UNL A   1      42.965  31.105  33.062  1.00  0.00    -0.354 N 
ATOM     57  N   UNL A   1      42.372  28.986  31.132  1.00  0.00    -0.248 NA
ATOM     58  C   UNL A   1      42.946  27.004  30.038  1.00  0.00     0.031 C 
ATOM     59  C   UNL A   1      44.807  30.912  34.291  1.00  0.00     0.029 A 
ATOM     60  C   UNL A   1      44.064  30.294  33.298  1.00  0.00     0.049 A 
ATOM     61  H   UNL A   1      42.262  30.925  32.397  1.00  0.00     0.167 HD
ATOM     62  C   UNL A   1      43.568  28.509  31.652  1.00  0.00     0.074 A 
ATOM     63  C   UNL A   1      43.859  27.269  30.964  1.00  0.00     0.031 C 
ATOM     64  C   UNL A   1      44.350  29.056  32.614  1.00  0.00     0.031 A 
BRANCH  51  65
ATOM     65  C   UNL A   1      42.303  34.434  34.844  1.00  0.00    -0.014 A 
ATOM     66  C   UNL A   1      41.696  34.438  36.112  1.00  0.00     0.009 A 
ATOM     67  C   UNL A   1      43.017  35.571  34.434  1.00  0.00     0.009 A 
ATOM     68  C   UNL A   1      41.777  35.563  36.936  1.00  0.00     0.001 A 
ATOM     69  C   UNL A   1      43.124  36.681  35.274  1.00  0.00     0.001 A 
ATOM     70  C   UNL A   1      42.493  36.682  36.517  1.00  0.00     0.000 A 
ENDBRANCH  51  65
BRANCH  52  71
ATOM     71  C   UNL A   1      40.471  27.005  28.424  1.00  0.00    -0.014 A 
ATOM     72  C   UNL A   1      40.951  27.044  27.103  1.00  0.00     0.009 A 
ATOM     73  C   UNL A   1      39.649  25.938  28.811  1.00  0.00     0.009 A 
ATOM     74  C   UNL A   1      40.584  26.060  26.183  1.00  0.00     0.001 A 
ATOM     75  C   UNL A   1      39.313  24.934  27.899  1.00  0.00     0.001 A 
ATOM     76  C   UNL A   1      39.768  25.003  26.583  1.00  0.00     0.000 A 
ENDBRANCH  52  71
BRANCH  64  77
ATOM     77  C   UNL A   1      45.606  28.328  33.017  1.00  0.00    -0.014 A 
ATOM     78  C   UNL A   1      46.795  28.546  32.299  1.00  0.00     0.009 A 
ATOM     79  C   UNL A   1      45.582  27.329  34.000  1.00  0.00     0.009 A 
ATOM     80  C   UNL A   1      47.921  27.756  32.531  1.00  0.00     0.001 A 
ATOM     81  C   UNL A   1      46.722  26.562  34.255  1.00  0.00     0.001 A 
ATOM     82  C   UNL A   1      47.885  26.765  33.510  1.00  0.00     0.000 A 
ENDBRANCH  64  77
ENDBRANCH  38  39
ENDBRANCH  31  33
ENDBRANCH  30  31
ENDBRANCH  29  30
ENDBRANCH  28  29
ENDBRANCH  27  28
ENDBRANCH   1  27
TORSDOF 18
ENDMDL
MODEL 2
REMARK VINA RESULT:     -10.3      0.490      5.752
REMARK SMILES CC[N@@H+](C)Cc1cc2c(cc1Cl)C=C(C(=O)OCCOCCOC(=O)c1ccc(-c3c4nc(c(-c5ccccc5)c5ccc([nH]5)c(-c5ccccc5)c5nc(c(-c6ccccc6)c6ccc3[nH]6)C=C5)C=C4)cc1)[C@@H](C(F)(F)F)O2
REMARK SMILES IDX 19 1 18 2 17 3 15 4 16 5 14 6 6 7 7 8 11 9 8 10 10 11 12 12
REMARK SMILES IDX 9 13 79 14 13 15 74 16 5 17 3 18 4 19 2 21 1 22 75 23 76 24
REMARK SMILES IDX 77 25 78 26 20 27 21 28 22 29 23 30 24 31 25 32 26 33 27 34
REMARK SMILES IDX 73 35 28 36 72 37 29 38 30 39 31 40 66 41 32 42 71 43 65 44
REMARK SMILES IDX 67 45 33 46 70 47 64 48 63 49 34 51 56 52 41 53 55 54 42 55
REMARK SMILES IDX 45 56 54 57 68 58 43 59 44 60 53 62 69 63 46 64 35 65 36 66
REMARK SMILES IDX 40 67 37 68 39 69 38 70 57 71 58 72 62 73 59 74 61 75 60 76
REMARK SMILES IDX 47 77 48 78 52 79 49 80 51 81 50 82
REMARK H PARENT 3 20 67 50 45 61
REMARK Flexibility Score: inf
ROOT
ATOM      1  C   UNL A   1      33.190  29.096  27.496  1.00  0.00     0.202 C 
ENDROOT
BRANCH   1   2
ATOM      2  C   UNL A   1      33.909  28.175  26.506  1.00  0.00     0.261 C 
BRANCH   2   3
ATOM      3  O   UNL A   1      33.146  26.997  26.212  1.00  0.00    -0.460 OA
BRANCH   3   4
ATOM      4  C   UNL A   1      33.479  26.401  25.042  1.00  0.00     0.338 C 
ATOM      5  O   UNL A   1      33.949  26.936  24.052  1.00  0.00    -0.246 OA
BRANCH   4   6
ATOM      6  C   UNL A   1      33.319  24.942  25.171  1.00  0.00     0.087 C 
ATOM      7  C   UNL A   1      34.195  20.037  24.772  1.00  0.00     0.029 A 
ATOM      8  C   UNL A   1      33.036  20.820  24.952  1.00  0.00     0.058 A 
ATOM      9  C   UNL A   1      35.442  20.648  24.982  1.00  0.00     0.050 A 
ATOM     10  C   UNL A   1      33.120  22.194  25.165  1.00  0.00     0.128 A 
ATOM     11  C   UNL A   1      35.526  22.024  25.211  1.00  0.00     0.033 A 
ATOM     12  Cl  UNL A   1      36.930  19.773  24.941  1.00  0.00    -0.084 Cl
ATOM     13  C   UNL A   1      34.367  22.803  25.243  1.00  0.00     0.019 A 
ATOM     14  O   UNL A   1      31.937  22.867  25.250  1.00  0.00    -0.475 OA
ATOM     15  C   UNL A   1      34.460  24.248  25.262  1.00  0.00     0.027 C 
ATOM     16  C   UNL A   1      31.950  24.321  25.172  1.00  0.00     0.316 C 
BRANCH   7  17
ATOM     17  C   UNL A   1      34.043  18.611  24.279  1.00  0.00     0.300 C 
BRANCH  17  18
ATOM     18  N   UNL A   1      33.976  17.564  25.323  1.00  0.00    -0.334 N 
ATOM     19  C   UNL A   1      34.933  16.480  25.094  1.00  0.00     0.333 C 
ATOM     20  H   UNL A   1      34.239  18.074  26.167  1.00  0.00     0.348 HD
BRANCH  18  21
ATOM     21  C   UNL A   1      32.643  17.016  25.600  1.00  0.00     0.258 C 
ATOM     22  C   UNL A   1      32.593  15.493  25.564  1.00  0.00     0.071 C 
ENDBRANCH  18  21
ENDBRANCH  17  18
ENDBRANCH   7  17
BRANCH  16  23
ATOM     23  C   UNL A   1      31.102  24.746  23.964  1.00  0.00     0.430 C 
ATOM     24  F   UNL A   1      30.439  25.901  24.212  1.00  0.00    -0.167 F 
ATOM     25  F   UNL A   1      31.863  24.967  22.867  1.00  0.00    -0.167 F 
ATOM     26  F   UNL A   1      30.181  23.812  23.637  1.00  0.00    -0.167 F 
ENDBRANCH  16  23
ENDBRANCH   4   6
ENDBRANCH   3   4
ENDBRANCH   2   3
ENDBRANCH   1   2
BRANCH   1  27
ATOM     27  O   UNL A   1      32.700  30.343  27.015  1.00  0.00    -0.374 OA
BRANCH  27  28
ATOM     28  C   UNL A   1      33.375  31.540  27.398  1.00  0.00     0.202 C 
BRANCH  28  29
ATOM     29  C   UNL A   1      32.575  32.848  27.474  1.00  0.00     0.261 C 
BRANCH  29  30
ATOM     30  O   UNL A   1      33.404  33.996  27.722  1.00  0.00    -0.460 OA
BRANCH  30  31
ATOM     31  C   UNL A   1      33.496  34.364  29.025  1.00  0.00     0.338 C 
ATOM     32  O   UNL A   1      32.644  34.915  29.704  1.00  0.00    -0.246 OA
BRANCH  31  33
ATOM     33  C   UNL A   1      34.735  33.807  29.592  1.00  0.00     0.060 A 
ATOM     34  C   UNL A   1      34.702  32.972  30.709  1.00  0.00     0.016 A 
ATOM     35  C   UNL A   1      35.947  34.102  28.955  1.00  0.00     0.016 A 
ATOM     36  C   UNL A   1      35.893  32.413  31.177  1.00  0.00     0.010 A 
ATOM     37  C   UNL A   1      37.136  33.548  29.427  1.00  0.00     0.010 A 
ATOM     38  C   UNL A   1      37.114  32.683  30.529  1.00  0.00    -0.014 A 
BRANCH  38  39
ATOM     39  C   UNL A   1      38.343  31.948  30.915  1.00  0.00     0.031 A 
ATOM     40  C   UNL A   1      38.740  30.673  30.237  1.00  0.00     0.074 A 
ATOM     41  C   UNL A   1      39.091  32.443  31.919  1.00  0.00     0.049 A 
ATOM     42  N   UNL A   1      39.814  29.948  30.425  1.00  0.00    -0.248 NA
ATOM     43  C   UNL A   1      37.821  30.137  29.222  1.00  0.00     0.031 C 
ATOM     44  C   UNL A   1      38.782  33.664  32.665  1.00  0.00     0.029 A 
ATOM     45  N   UNL A   1      40.261  31.995  32.478  1.00  0.00    -0.354 N 
ATOM     46  C   UNL A   1      39.713  28.882  29.544  1.00  0.00     0.074 A 
ATOM     47  C   UNL A   1      38.449  29.026  28.851  1.00  0.00     0.031 C 
ATOM     48  C   UNL A   1      39.757  33.887  33.559  1.00  0.00     0.029 A 
ATOM     49  C   UNL A   1      40.736  32.806  33.479  1.00  0.00     0.049 A 
ATOM     50  H   UNL A   1      40.716  31.172  32.188  1.00  0.00     0.167 HD
ATOM     51  C   UNL A   1      40.604  27.887  29.324  1.00  0.00     0.031 A 
ATOM     52  C   UNL A   1      41.835  32.698  34.252  1.00  0.00     0.031 A 
ATOM     53  C   UNL A   1      41.849  27.745  30.038  1.00  0.00     0.049 A 
ATOM     54  C   UNL A   1      42.779  31.551  34.027  1.00  0.00     0.074 A 
ATOM     55  C   UNL A   1      42.835  26.790  29.851  1.00  0.00     0.029 A 
ATOM     56  N   UNL A   1      42.274  28.561  31.075  1.00  0.00    -0.354 N 
ATOM     57  N   UNL A   1      42.713  30.597  33.131  1.00  0.00    -0.248 NA
ATOM     58  C   UNL A   1      43.956  31.469  34.905  1.00  0.00     0.031 C 
ATOM     59  C   UNL A   1      43.812  26.975  30.830  1.00  0.00     0.029 A 
ATOM     60  C   UNL A   1      43.486  28.103  31.566  1.00  0.00     0.049 A 
ATOM     61  H   UNL A   1      41.787  29.347  31.413  1.00  0.00     0.167 HD
ATOM     62  C   UNL A   1      43.848  29.818  33.318  1.00  0.00     0.074 A 
ATOM     63  C   UNL A   1      44.594  30.419  34.403  1.00  0.00     0.031 C 
ATOM     64  C   UNL A   1      44.230  28.706  32.645  1.00  0.00     0.031 A 
BRANCH  51  65
ATOM     65  C   UNL A   1      40.292  26.864  28.266  1.00  0.00    -0.014 A 
ATOM     66  C   UNL A   1      39.583  25.698  28.606  1.00  0.00     0.009 A 
ATOM     67  C   UNL A   1      40.817  26.980  26.970  1.00  0.00     0.009 A 
ATOM     68  C   UNL A   1      39.431  24.663  27.681  1.00  0.00     0.001 A 
ATOM     69  C   UNL A   1      40.635  25.957  26.037  1.00  0.00     0.001 A 
ATOM     70  C   UNL A   1      39.955  24.794  26.397  1.00  0.00     0.000 A 
ENDBRANCH  51  65
BRANCH  52  71
ATOM     71  C   UNL A   1      42.104  33.740  35.279  1.00  0.00    -0.014 A 
ATOM     72  C   UNL A   1      42.884  34.868  34.967  1.00  0.00     0.009 A 
ATOM     73  C   UNL A   1      41.647  33.581  36.595  1.00  0.00     0.009 A 
ATOM     74  C   UNL A   1      43.230  35.790  35.956  1.00  0.00     0.001 A 
ATOM     75  C   UNL A   1      41.964  34.524  37.575  1.00  0.00     0.001 A 
ATOM     76  C   UNL A   1      42.767  35.620  37.259  1.00  0.00     0.000 A 
ENDBRANCH  52  71
BRANCH  64  77
ATOM     77  C   UNL A   1      45.527  28.044  33.033  1.00  0.00    -0.014 A 
ATOM     78  C   UNL A   1      46.718  28.419  32.387  1.00  0.00     0.009 A 
ATOM     79  C   UNL A   1      45.551  26.961  33.923  1.00  0.00     0.009 A 
ATOM     80  C   UNL A   1      47.896  27.701  32.594  1.00  0.00     0.001 A 
ATOM     81  C   UNL A   1      46.741  26.266  34.156  1.00  0.00     0.001 A 
ATOM     82  C   UNL A   1      47.907  26.625  33.480  1.00  0.00     0.000 A 
ENDBRANCH  64  77
ENDBRANCH  38  39
ENDBRANCH  31  33
ENDBRANCH  30  31
ENDBRANCH  29  30
ENDBRANCH  28  29
ENDBRANCH  27  28
ENDBRANCH   1  27
TORSDOF 18
ENDMDL
MODEL 3
REMARK VINA RESULT:     -10.1      4.119      9.353
REMARK SMILES CC[N@@H+](C)Cc1cc2c(cc1Cl)C=C(C(=O)OCCOCCOC(=O)c1ccc(-c3c4nc(c(-c5ccccc5)c5ccc([nH]5)c(-c5ccccc5)c5nc(c(-c6ccccc6)c6ccc3[nH]6)C=C5)C=C4)cc1)[C@@H](C(F)(F)F)O2
REMARK SMILES IDX 19 1 18 2 17 3 15 4 16 5 14 6 6 7 7 8 11 9 8 10 10 11 12 12
REMARK SMILES IDX 9 13 79 14 13 15 74 16 5 17 3 18 4 19 2 21 1 22 75 23 76 24
REMARK SMILES IDX 77 25 78 26 20 27 21 28 22 29 23 30 24 31 25 32 26 33 27 34
REMARK SMILES IDX 73 35 28 36 72 37 29 38 30 39 31 40 66 41 32 42 71 43 65 44
REMARK SMILES IDX 67 45 33 46 70 47 64 48 63 49 34 51 56 52 41 53 55 54 42 55
REMARK SMILES IDX 45 56 54 57 68 58 43 59 44 60 53 62 69 63 46 64 35 65 36 66
REMARK SMILES IDX 40 67 37 68 39 69 38 70 57 71 58 72 62 73 59 74 61 75 60 76
REMARK SMILES IDX 47 77 48 78 52 79 49 80 51 81 50 82
REMARK H PARENT 3 20 67 50 45 61
REMARK Flexibility Score: inf
ROOT
ATOM      1  C   UNL A   1      34.210  23.269  24.635  1.00  0.00     0.202 C 
ENDROOT
BRANCH   1   2
ATOM      2  C   UNL A   1      32.684  23.290  24.520  1.00  0.00     0.261 C 
BRANCH   2   3
ATOM      3  O   UNL A   1      32.154  24.620  24.592  1.00  0.00    -0.460 OA
BRANCH   3   4
ATOM      4  C   UNL A   1      32.592  25.443  23.609  1.00  0.00     0.338 C 
ATOM      5  O   UNL A   1      32.740  25.167  22.431  1.00  0.00    -0.246 OA
BRANCH   4   6
ATOM      6  C   UNL A   1      32.743  26.809  24.143  1.00  0.00     0.087 C 
ATOM      7  C   UNL A   1      33.770  30.579  27.259  1.00  0.00     0.029 A 
ATOM      8  C   UNL A   1      32.919  30.424  26.145  1.00  0.00     0.058 A 
ATOM      9  C   UNL A   1      34.761  29.607  27.471  1.00  0.00     0.050 A 
ATOM     10  C   UNL A   1      32.944  29.265  25.374  1.00  0.00     0.128 A 
ATOM     11  C   UNL A   1      34.796  28.450  26.688  1.00  0.00     0.033 A 
ATOM     12  Cl  UNL A   1      35.961  29.749  28.705  1.00  0.00    -0.084 Cl
ATOM     13  C   UNL A   1      33.850  28.255  25.679  1.00  0.00     0.019 A 
ATOM     14  O   UNL A   1      32.027  29.187  24.368  1.00  0.00    -0.475 OA
ATOM     15  C   UNL A   1      33.746  26.973  25.014  1.00  0.00     0.027 C 
ATOM     16  C   UNL A   1      31.799  27.901  23.725  1.00  0.00     0.316 C 
BRANCH   7  17
ATOM     17  C   UNL A   1      33.518  31.729  28.216  1.00  0.00     0.300 C 
BRANCH  17  18
ATOM     18  N   UNL A   1      34.108  33.032  27.838  1.00  0.00    -0.334 N 
ATOM     19  C   UNL A   1      35.563  33.060  27.999  1.00  0.00     0.333 C 
ATOM     20  H   UNL A   1      33.878  33.102  26.846  1.00  0.00     0.348 HD
BRANCH  18  21
ATOM     21  C   UNL A   1      33.504  34.216  28.460  1.00  0.00     0.258 C 
ATOM     22  C   UNL A   1      34.040  34.507  29.857  1.00  0.00     0.071 C 
ENDBRANCH  18  21
ENDBRANCH  17  18
ENDBRANCH   7  17
BRANCH  16  23
ATOM     23  C   UNL A   1      30.324  27.520  23.919  1.00  0.00     0.430 C 
ATOM     24  F   UNL A   1      30.112  26.984  25.144  1.00  0.00    -0.167 F 
ATOM     25  F   UNL A   1      29.510  28.598  23.825  1.00  0.00    -0.167 F 
ATOM     26  F   UNL A   1      29.908  26.617  23.003  1.00  0.00    -0.167 F 
ENDBRANCH  16  23
ENDBRANCH   4   6
ENDBRANCH   3   4
ENDBRANCH   2   3
ENDBRANCH   1   2
BRANCH   1  27
ATOM     27  O   UNL A   1      34.959  22.776  23.528  1.00  0.00    -0.374 OA
BRANCH  27  28
ATOM     28  C   UNL A   1      36.370  22.624  23.667  1.00  0.00     0.202 C 
BRANCH  28  29
ATOM     29  C   UNL A   1      36.909  21.443  24.486  1.00  0.00     0.261 C 
BRANCH  29  30
ATOM     30  O   UNL A   1      37.349  21.829  25.799  1.00  0.00    -0.460 OA
BRANCH  30  31
ATOM     31  C   UNL A   1      38.660  21.592  26.056  1.00  0.00     0.338 C 
ATOM     32  O   UNL A   1      39.309  20.603  25.757  1.00  0.00    -0.246 OA
BRANCH  31  33
ATOM     33  C   UNL A   1      39.273  22.823  26.584  1.00  0.00     0.060 A 
ATOM     34  C   UNL A   1      40.382  22.767  27.429  1.00  0.00     0.016 A 
ATOM     35  C   UNL A   1      38.740  24.054  26.183  1.00  0.00     0.016 A 
ATOM     36  C   UNL A   1      40.972  23.958  27.857  1.00  0.00     0.010 A 
ATOM     37  C   UNL A   1      39.327  25.242  26.617  1.00  0.00     0.010 A 
ATOM     38  C   UNL A   1      40.460  25.201  27.440  1.00  0.00    -0.014 A 
BRANCH  38  39
ATOM     39  C   UNL A   1      41.194  26.452  27.747  1.00  0.00     0.031 A 
ATOM     40  C   UNL A   1      42.569  26.708  27.209  1.00  0.00     0.074 A 
ATOM     41  C   UNL A   1      40.604  27.356  28.552  1.00  0.00     0.049 A 
ATOM     42  N   UNL A   1      43.312  27.777  27.343  1.00  0.00    -0.248 NA
ATOM     43  C   UNL A   1      43.193  25.634  26.423  1.00  0.00     0.031 C 
ATOM     44  C   UNL A   1      39.279  27.196  29.153  1.00  0.00     0.029 A 
ATOM     45  N   UNL A   1      41.028  28.582  28.996  1.00  0.00    -0.354 N 
ATOM     46  C   UNL A   1      44.483  27.515  26.646  1.00  0.00     0.074 A 
ATOM     47  C   UNL A   1      44.374  26.167  26.129  1.00  0.00     0.031 C 
ATOM     48  C   UNL A   1      38.983  28.299  29.857  1.00  0.00     0.029 A 
ATOM     49  C   UNL A   1      40.112  29.223  29.793  1.00  0.00     0.049 A 
ATOM     50  H   UNL A   1      41.905  28.966  28.765  1.00  0.00     0.167 HD
ATOM     51  C   UNL A   1      45.541  28.336  26.446  1.00  0.00     0.031 A 
ATOM     52  C   UNL A   1      40.166  30.422  30.408  1.00  0.00     0.031 A 
ATOM     53  C   UNL A   1      45.646  29.668  26.986  1.00  0.00     0.049 A 
ATOM     54  C   UNL A   1      41.379  31.289  30.217  1.00  0.00     0.074 A 
ATOM     55  C   UNL A   1      46.664  30.588  26.799  1.00  0.00     0.029 A 
ATOM     56  N   UNL A   1      44.717  30.265  27.825  1.00  0.00    -0.354 N 
ATOM     57  N   UNL A   1      42.443  31.063  29.485  1.00  0.00    -0.248 NA
ATOM     58  C   UNL A   1      41.397  32.580  30.920  1.00  0.00     0.031 C 
ATOM     59  C   UNL A   1      46.395  31.704  27.592  1.00  0.00     0.029 A 
ATOM     60  C   UNL A   1      45.162  31.524  28.198  1.00  0.00     0.049 A 
ATOM     61  H   UNL A   1      43.869  29.857  28.113  1.00  0.00     0.167 HD
ATOM     62  C   UNL A   1      43.242  32.190  29.616  1.00  0.00     0.074 A 
ATOM     63  C   UNL A   1      42.536  33.107  30.486  1.00  0.00     0.031 C 
ATOM     64  C   UNL A   1      44.454  32.437  29.062  1.00  0.00     0.031 A 
BRANCH  51  65
ATOM     65  C   UNL A   1      46.684  27.840  25.600  1.00  0.00    -0.014 A 
ATOM     66  C   UNL A   1      46.670  28.051  24.210  1.00  0.00     0.009 A 
ATOM     67  C   UNL A   1      47.699  27.044  26.153  1.00  0.00     0.009 A 
ATOM     68  C   UNL A   1      47.632  27.455  23.391  1.00  0.00     0.001 A 
ATOM     69  C   UNL A   1      48.679  26.476  25.335  1.00  0.00     0.001 A 
ATOM     70  C   UNL A   1      48.636  26.670  23.955  1.00  0.00     0.000 A 
ENDBRANCH  51  65
BRANCH  52  71
ATOM     71  C   UNL A   1      39.008  30.870  31.227  1.00  0.00    -0.014 A 
ATOM     72  C   UNL A   1      38.872  30.454  32.563  1.00  0.00     0.009 A 
ATOM     73  C   UNL A   1      37.992  31.653  30.659  1.00  0.00     0.009 A 
ATOM     74  C   UNL A   1      37.732  30.781  33.298  1.00  0.00     0.001 A 
ATOM     75  C   UNL A   1      36.869  32.010  31.408  1.00  0.00     0.001 A 
ATOM     76  C   UNL A   1      36.732  31.562  32.721  1.00  0.00     0.000 A 
ENDBRANCH  52  71
BRANCH  64  77
ATOM     77  C   UNL A   1      45.119  33.757  29.351  1.00  0.00    -0.014 A 
ATOM     78  C   UNL A   1      45.000  34.811  28.428  1.00  0.00     0.009 A 
ATOM     79  C   UNL A   1      45.975  33.914  30.450  1.00  0.00     0.009 A 
ATOM     80  C   UNL A   1      45.750  35.978  28.579  1.00  0.00     0.001 A 
ATOM     81  C   UNL A   1      46.698  35.098  30.619  1.00  0.00     0.001 A 
ATOM     82  C   UNL A   1      46.597  36.121  29.676  1.00  0.00     0.000 A 
ENDBRANCH  64  77
ENDBRANCH  38  39
ENDBRANCH  31  33
ENDBRANCH  30  31
ENDBRANCH  29  30
ENDBRANCH  28  29
ENDBRANCH  27  28
ENDBRANCH   1  27
TORSDOF 18
ENDMDL
