MODEL 1
REMARK VINA RESULT:     -11.1      0.000      0.000
REMARK SMILES O=C(OCCOCCOC(=O)[C@H]1CC=CC[C@@H]1C(=O)Nc1nn(Cc2ccccc2F)cc1Br)c1ccc(-c2c3nc(c(-c4ccccc4)c4ccc([nH]4)c(-c4ccccc4)c4nc(c(-c5ccccc5)c5ccc2[nH]5)C=C4)C=C3)cc1
REMARK SMILES IDX 7 1 6 2 5 3 4 4 3 5 2 6 1 7 35 8 36 9 82 10 37 11 81 12
REMARK SMILES IDX 38 13 39 14 40 15 75 16 41 17 80 18 74 19 76 20 42 21 79 22
REMARK SMILES IDX 73 23 72 24 43 26 65 27 50 28 64 29 51 30 54 31 63 32 77 33
REMARK SMILES IDX 52 34 53 35 62 37 78 38 55 39 44 40 45 41 49 42 46 43 48 44
REMARK SMILES IDX 47 45 66 46 67 47 71 48 68 49 70 50 69 51 56 52 57 53 61 54
REMARK SMILES IDX 58 55 60 56 59 57 8 58 9 59 10 60 11 61 12 62 13 63 17 64
REMARK SMILES IDX 14 65 16 66 15 67 18 68 19 69 20 70 21 72 22 73 33 74 23 75
REMARK SMILES IDX 32 76 34 77 24 78 25 79 26 80 30 81 27 82 29 83 31 84 28 85
REMARK H PARENT 76 25 54 36 20 71
REMARK Flexibility Score: inf
ROOT
ATOM      1  C   UNL A   1      36.821  21.454  24.261  1.00  0.00     0.202 C 
ENDROOT
BRANCH   1   2
ATOM      2  O   UNL A   1      37.241  21.443  25.634  1.00  0.00    -0.374 OA
BRANCH   2   3
ATOM      3  C   UNL A   1      38.327  22.324  25.933  1.00  0.00     0.202 C 
BRANCH   3   4
ATOM      4  C   UNL A   1      39.684  21.654  26.097  1.00  0.00     0.261 C 
BRANCH   4   5
ATOM      5  O   UNL A   1      40.793  22.548  26.279  1.00  0.00    -0.460 OA
BRANCH   5   6
ATOM      6  C   UNL A   1      41.091  22.947  27.536  1.00  0.00     0.338 C 
ATOM      7  O   UNL A   1      41.423  22.180  28.429  1.00  0.00    -0.246 OA
BRANCH   6   8
ATOM      8  C   UNL A   1      41.332  24.404  27.602  1.00  0.00     0.060 A 
ATOM      9  C   UNL A   1      42.206  24.969  28.533  1.00  0.00     0.016 A 
ATOM     10  C   UNL A   1      40.532  25.222  26.794  1.00  0.00     0.016 A 
ATOM     11  C   UNL A   1      42.143  26.318  28.795  1.00  0.00     0.010 A 
ATOM     12  C   UNL A   1      40.476  26.583  27.045  1.00  0.00     0.010 A 
ATOM     13  C   UNL A   1      41.221  27.102  28.100  1.00  0.00    -0.014 A 
BRANCH  13  14
ATOM     14  C   UNL A   1      41.111  28.482  28.527  1.00  0.00     0.031 A 
ATOM     15  C   UNL A   1      42.265  29.333  28.152  1.00  0.00     0.074 A 
ATOM     16  C   UNL A   1      40.060  28.950  29.224  1.00  0.00     0.049 A 
ATOM     17  N   UNL A   1      43.129  29.878  28.942  1.00  0.00    -0.248 NA
ATOM     18  C   UNL A   1      42.572  29.479  26.723  1.00  0.00     0.031 C 
ATOM     19  C   UNL A   1      38.771  28.302  29.473  1.00  0.00     0.029 A 
ATOM     20  N   UNL A   1      39.901  30.179  29.781  1.00  0.00    -0.354 N 
ATOM     21  C   UNL A   1      43.999  30.588  28.124  1.00  0.00     0.074 A 
ATOM     22  C   UNL A   1      43.691  30.202  26.768  1.00  0.00     0.031 C 
ATOM     23  C   UNL A   1      37.886  29.234  29.900  1.00  0.00     0.029 A 
ATOM     24  C   UNL A   1      38.587  30.493  30.093  1.00  0.00     0.049 A 
ATOM     25  H   UNL A   1      40.653  30.792  29.949  1.00  0.00     0.167 HD
ATOM     26  C   UNL A   1      44.756  31.609  28.609  1.00  0.00     0.031 A 
ATOM     27  C   UNL A   1      38.110  31.720  30.413  1.00  0.00     0.031 A 
ATOM     28  C   UNL A   1      44.876  31.558  30.042  1.00  0.00     0.049 A 
ATOM     29  C   UNL A   1      39.254  32.554  30.852  1.00  0.00     0.074 A 
ATOM     30  C   UNL A   1      45.381  30.640  30.943  1.00  0.00     0.029 A 
ATOM     31  N   UNL A   1      44.088  32.411  30.776  1.00  0.00    -0.354 N 
ATOM     32  N   UNL A   1      39.889  32.363  31.971  1.00  0.00    -0.248 NA
ATOM     33  C   UNL A   1      39.978  33.316  29.846  1.00  0.00     0.031 C 
ATOM     34  C   UNL A   1      44.490  30.691  32.056  1.00  0.00     0.029 A 
ATOM     35  C   UNL A   1      43.541  31.680  31.797  1.00  0.00     0.049 A 
ATOM     36  H   UNL A   1      43.943  33.369  30.601  1.00  0.00     0.167 HD
ATOM     37  C   UNL A   1      41.224  32.567  31.655  1.00  0.00     0.074 A 
ATOM     38  C   UNL A   1      41.208  33.253  30.364  1.00  0.00     0.031 C 
ATOM     39  C   UNL A   1      42.215  31.910  32.327  1.00  0.00     0.031 A 
BRANCH  26  40
ATOM     40  C   UNL A   1      45.007  32.875  27.829  1.00  0.00    -0.014 A 
ATOM     41  C   UNL A   1      43.909  33.679  27.476  1.00  0.00     0.009 A 
ATOM     42  C   UNL A   1      46.223  33.138  27.172  1.00  0.00     0.009 A 
ATOM     43  C   UNL A   1      44.005  34.631  26.454  1.00  0.00     0.001 A 
ATOM     44  C   UNL A   1      46.334  34.116  26.181  1.00  0.00     0.001 A 
ATOM     45  C   UNL A   1      45.215  34.840  25.799  1.00  0.00     0.000 A 
ENDBRANCH  26  40
BRANCH  27  46
ATOM     46  C   UNL A   1      36.792  32.304  30.092  1.00  0.00    -0.014 A 
ATOM     47  C   UNL A   1      35.730  32.220  31.006  1.00  0.00     0.009 A 
ATOM     48  C   UNL A   1      36.657  33.191  29.008  1.00  0.00     0.009 A 
ATOM     49  C   UNL A   1      34.593  33.026  30.861  1.00  0.00     0.001 A 
ATOM     50  C   UNL A   1      35.521  33.992  28.861  1.00  0.00     0.001 A 
ATOM     51  C   UNL A   1      34.496  33.921  29.798  1.00  0.00     0.000 A 
ENDBRANCH  27  46
BRANCH  39  52
ATOM     52  C   UNL A   1      41.846  31.156  33.581  1.00  0.00    -0.014 A 
ATOM     53  C   UNL A   1      41.834  31.741  34.860  1.00  0.00     0.009 A 
ATOM     54  C   UNL A   1      41.368  29.844  33.447  1.00  0.00     0.009 A 
ATOM     55  C   UNL A   1      41.402  31.015  35.975  1.00  0.00     0.001 A 
ATOM     56  C   UNL A   1      40.914  29.128  34.556  1.00  0.00     0.001 A 
ATOM     57  C   UNL A   1      40.940  29.709  35.821  1.00  0.00     0.000 A 
ENDBRANCH  39  52
ENDBRANCH  13  14
ENDBRANCH   6   8
ENDBRANCH   5   6
ENDBRANCH   4   5
ENDBRANCH   3   4
ENDBRANCH   2   3
ENDBRANCH   1   2
BRANCH   1  58
ATOM     58  C   UNL A   1      36.538  22.798  23.566  1.00  0.00     0.261 C 
BRANCH  58  59
ATOM     59  O   UNL A   1      35.156  23.187  23.603  1.00  0.00    -0.463 OA
BRANCH  59  60
ATOM     60  C   UNL A   1      34.786  23.752  24.792  1.00  0.00     0.310 C 
ATOM     61  O   UNL A   1      35.510  24.478  25.442  1.00  0.00    -0.252 OA
BRANCH  60  62
ATOM     62  C   UNL A   1      33.332  23.411  25.129  1.00  0.00     0.116 C 
ATOM     63  C   UNL A   1      33.139  21.902  24.946  1.00  0.00     0.043 C 
ATOM     64  C   UNL A   1      32.987  23.885  26.569  1.00  0.00     0.097 C 
ATOM     65  C   UNL A   1      33.731  21.115  26.077  1.00  0.00    -0.030 C 
ATOM     66  C   UNL A   1      33.826  23.104  27.607  1.00  0.00     0.041 C 
ATOM     67  C   UNL A   1      34.069  21.665  27.252  1.00  0.00    -0.030 C 
BRANCH  64  68
ATOM     68  C   UNL A   1      31.479  23.772  26.861  1.00  0.00     0.229 C 
ATOM     69  O   UNL A   1      30.992  22.769  27.394  1.00  0.00    -0.274 OA
ATOM     70  N   UNL A   1      30.650  24.827  26.599  1.00  0.00    -0.308 N 
ATOM     71  H   UNL A   1      29.789  24.832  27.077  1.00  0.00     0.171 HD
BRANCH  70  72
ATOM     72  C   UNL A   1      30.878  25.882  25.746  1.00  0.00     0.168 A 
ATOM     73  N   UNL A   1      31.084  27.137  26.155  1.00  0.00    -0.153 NA
ATOM     74  C   UNL A   1      30.916  25.808  24.337  1.00  0.00     0.080 A 
ATOM     75  N   UNL A   1      31.272  27.843  25.016  1.00  0.00    -0.265 N 
ATOM     76  C   UNL A   1      31.115  27.086  23.887  1.00  0.00     0.127 A 
ATOM     77  Br  UNL A   1      30.574  24.286  23.304  1.00  0.00    -0.045 Br
BRANCH  75  78
ATOM     78  C   UNL A   1      31.698  29.240  25.060  1.00  0.00     0.182 C 
BRANCH  78  79
ATOM     79  C   UNL A   1      32.831  29.471  26.018  1.00  0.00     0.009 A 
ATOM     80  C   UNL A   1      33.954  28.631  26.042  1.00  0.00     0.008 A 
ATOM     81  C   UNL A   1      32.800  30.567  26.884  1.00  0.00     0.128 A 
ATOM     82  C   UNL A   1      35.021  28.904  26.901  1.00  0.00     0.001 A 
ATOM     83  C   UNL A   1      33.860  30.838  27.739  1.00  0.00     0.039 A 
ATOM     84  F   UNL A   1      31.732  31.378  26.899  1.00  0.00    -0.207 F 
ATOM     85  C   UNL A   1      34.980  30.014  27.742  1.00  0.00     0.003 A 
ENDBRANCH  78  79
ENDBRANCH  75  78
ENDBRANCH  70  72
ENDBRANCH  64  68
ENDBRANCH  60  62
ENDBRANCH  59  60
ENDBRANCH  58  59
ENDBRANCH   1  58
TORSDOF 18
ENDMDL
MODEL 2
REMARK VINA RESULT:     -10.8      3.092      7.739
REMARK SMILES O=C(OCCOCCOC(=O)[C@H]1CC=CC[C@@H]1C(=O)Nc1nn(Cc2ccccc2F)cc1Br)c1ccc(-c2c3nc(c(-c4ccccc4)c4ccc([nH]4)c(-c4ccccc4)c4nc(c(-c5ccccc5)c5ccc2[nH]5)C=C4)C=C3)cc1
REMARK SMILES IDX 7 1 6 2 5 3 4 4 3 5 2 6 1 7 35 8 36 9 82 10 37 11 81 12
REMARK SMILES IDX 38 13 39 14 40 15 75 16 41 17 80 18 74 19 76 20 42 21 79 22
REMARK SMILES IDX 73 23 72 24 43 26 65 27 50 28 64 29 51 30 54 31 63 32 77 33
REMARK SMILES IDX 52 34 53 35 62 37 78 38 55 39 44 40 45 41 49 42 46 43 48 44
REMARK SMILES IDX 47 45 66 46 67 47 71 48 68 49 70 50 69 51 56 52 57 53 61 54
REMARK SMILES IDX 58 55 60 56 59 57 8 58 9 59 10 60 11 61 12 62 13 63 17 64
REMARK SMILES IDX 14 65 16 66 15 67 18 68 19 69 20 70 21 72 22 73 33 74 23 75
REMARK SMILES IDX 32 76 34 77 24 78 25 79 26 80 30 81 27 82 29 83 31 84 28 85
REMARK H PARENT 76 25 54 36 20 71
REMARK Flexibility Score: inf
ROOT
ATOM      1  C   UNL A   1      31.752  27.985  27.053  1.00  0.00     0.202 C 
ENDROOT
BRANCH   1   2
ATOM      2  O   UNL A   1      31.714  29.357  26.631  1.00  0.00    -0.374 OA
BRANCH   2   3
ATOM      3  C   UNL A   1      32.995  29.984  26.525  1.00  0.00     0.202 C 
BRANCH   3   4
ATOM      4  C   UNL A   1      33.282  31.061  27.561  1.00  0.00     0.261 C 
BRANCH   4   5
ATOM      5  O   UNL A   1      34.585  31.660  27.482  1.00  0.00    -0.460 OA
BRANCH   5   6
ATOM      6  C   UNL A   1      35.305  31.772  28.620  1.00  0.00     0.338 C 
ATOM      7  O   UNL A   1      34.830  32.129  29.690  1.00  0.00    -0.246 OA
BRANCH   6   8
ATOM      8  C   UNL A   1      36.602  31.070  28.515  1.00  0.00     0.060 A 
ATOM      9  C   UNL A   1      36.714  29.804  27.937  1.00  0.00     0.016 A 
ATOM     10  C   UNL A   1      37.700  31.656  29.156  1.00  0.00     0.016 A 
ATOM     11  C   UNL A   1      37.841  29.049  28.165  1.00  0.00     0.010 A 
ATOM     12  C   UNL A   1      38.842  30.904  29.376  1.00  0.00     0.010 A 
ATOM     13  C   UNL A   1      38.866  29.580  28.949  1.00  0.00    -0.014 A 
BRANCH  13  14
ATOM     14  C   UNL A   1      39.956  28.678  29.264  1.00  0.00     0.031 A 
ATOM     15  C   UNL A   1      40.199  28.496  30.715  1.00  0.00     0.074 A 
ATOM     16  C   UNL A   1      40.699  28.071  28.322  1.00  0.00     0.049 A 
ATOM     17  N   UNL A   1      41.231  28.876  31.392  1.00  0.00    -0.248 NA
ATOM     18  C   UNL A   1      39.105  27.951  31.530  1.00  0.00     0.031 C 
ATOM     19  C   UNL A   1      40.446  27.978  26.882  1.00  0.00     0.029 A 
ATOM     20  N   UNL A   1      41.812  27.310  28.490  1.00  0.00    -0.354 N 
ATOM     21  C   UNL A   1      41.002  28.464  32.699  1.00  0.00     0.074 A 
ATOM     22  C   UNL A   1      39.630  28.022  32.753  1.00  0.00     0.031 C 
ATOM     23  C   UNL A   1      41.226  27.002  26.361  1.00  0.00     0.029 A 
ATOM     24  C   UNL A   1      42.126  26.518  27.396  1.00  0.00     0.049 A 
ATOM     25  H   UNL A   1      42.349  27.320  29.316  1.00  0.00     0.167 HD
ATOM     26  C   UNL A   1      42.024  28.308  33.583  1.00  0.00     0.031 A 
ATOM     27  C   UNL A   1      43.011  25.492  27.377  1.00  0.00     0.031 A 
ATOM     28  C   UNL A   1      43.210  29.008  33.167  1.00  0.00     0.049 A 
ATOM     29  C   UNL A   1      43.927  25.658  28.529  1.00  0.00     0.074 A 
ATOM     30  C   UNL A   1      43.518  30.331  32.911  1.00  0.00     0.029 A 
ATOM     31  N   UNL A   1      44.214  28.269  32.590  1.00  0.00    -0.354 N 
ATOM     32  N   UNL A   1      44.820  26.601  28.601  1.00  0.00    -0.248 NA
ATOM     33  C   UNL A   1      43.556  25.052  29.798  1.00  0.00     0.031 C 
ATOM     34  C   UNL A   1      44.401  30.291  31.792  1.00  0.00     0.029 A 
ATOM     35  C   UNL A   1      44.631  28.951  31.477  1.00  0.00     0.049 A 
ATOM     36  H   UNL A   1      44.568  27.410  32.914  1.00  0.00     0.167 HD
ATOM     37  C   UNL A   1      44.782  27.018  29.923  1.00  0.00     0.074 A 
ATOM     38  C   UNL A   1      44.066  25.961  30.635  1.00  0.00     0.031 C 
ATOM     39  C   UNL A   1      45.082  28.307  30.264  1.00  0.00     0.031 A 
BRANCH  26  40
ATOM     40  C   UNL A   1      42.070  27.175  34.578  1.00  0.00    -0.014 A 
ATOM     41  C   UNL A   1      41.555  27.389  35.868  1.00  0.00     0.009 A 
ATOM     42  C   UNL A   1      42.869  26.031  34.395  1.00  0.00     0.009 A 
ATOM     43  C   UNL A   1      41.900  26.551  36.936  1.00  0.00     0.001 A 
ATOM     44  C   UNL A   1      43.181  25.169  35.448  1.00  0.00     0.001 A 
ATOM     45  C   UNL A   1      42.723  25.449  36.727  1.00  0.00     0.000 A 
ENDBRANCH  26  40
BRANCH  27  46
ATOM     46  C   UNL A   1      42.938  24.233  26.607  1.00  0.00    -0.014 A 
ATOM     47  C   UNL A   1      43.393  24.176  25.281  1.00  0.00     0.009 A 
ATOM     48  C   UNL A   1      42.684  23.016  27.267  1.00  0.00     0.009 A 
ATOM     49  C   UNL A   1      43.624  22.946  24.653  1.00  0.00     0.001 A 
ATOM     50  C   UNL A   1      42.911  21.788  26.639  1.00  0.00     0.001 A 
ATOM     51  C   UNL A   1      43.398  21.754  25.337  1.00  0.00     0.000 A 
ENDBRANCH  27  46
BRANCH  39  52
ATOM     52  C   UNL A   1      45.697  29.196  29.212  1.00  0.00    -0.014 A 
ATOM     53  C   UNL A   1      44.941  29.907  28.263  1.00  0.00     0.009 A 
ATOM     54  C   UNL A   1      47.080  29.425  29.264  1.00  0.00     0.009 A 
ATOM     55  C   UNL A   1      45.560  30.783  27.364  1.00  0.00     0.001 A 
ATOM     56  C   UNL A   1      47.695  30.317  28.384  1.00  0.00     0.001 A 
ATOM     57  C   UNL A   1      46.937  30.988  27.428  1.00  0.00     0.000 A 
ENDBRANCH  39  52
ENDBRANCH  13  14
ENDBRANCH   6   8
ENDBRANCH   5   6
ENDBRANCH   4   5
ENDBRANCH   3   4
ENDBRANCH   2   3
ENDBRANCH   1   2
BRANCH   1  58
ATOM     58  C   UNL A   1      32.408  26.930  26.144  1.00  0.00     0.261 C 
BRANCH  58  59
ATOM     59  O   UNL A   1      31.734  25.662  26.150  1.00  0.00    -0.463 OA
BRANCH  59  60
ATOM     60  C   UNL A   1      32.559  24.612  25.854  1.00  0.00     0.310 C 
ATOM     61  O   UNL A   1      32.703  23.649  26.580  1.00  0.00    -0.252 OA
BRANCH  60  62
ATOM     62  C   UNL A   1      33.189  24.786  24.470  1.00  0.00     0.116 C 
ATOM     63  C   UNL A   1      34.437  23.901  24.396  1.00  0.00     0.043 C 
ATOM     64  C   UNL A   1      32.153  24.449  23.360  1.00  0.00     0.097 C 
ATOM     65  C   UNL A   1      34.094  22.453  24.210  1.00  0.00    -0.030 C 
ATOM     66  C   UNL A   1      31.760  22.954  23.429  1.00  0.00     0.041 C 
ATOM     67  C   UNL A   1      32.885  22.034  23.811  1.00  0.00    -0.030 C 
BRANCH  64  68
ATOM     68  C   UNL A   1      32.670  24.832  21.961  1.00  0.00     0.229 C 
ATOM     69  O   UNL A   1      33.396  24.078  21.305  1.00  0.00    -0.274 OA
ATOM     70  N   UNL A   1      32.268  26.002  21.380  1.00  0.00    -0.308 N 
ATOM     71  H   UNL A   1      32.360  26.055  20.401  1.00  0.00     0.171 HD
BRANCH  70  72
ATOM     72  C   UNL A   1      31.750  27.114  22.003  1.00  0.00     0.168 A 
ATOM     73  N   UNL A   1      30.444  27.387  22.073  1.00  0.00    -0.153 NA
ATOM     74  C   UNL A   1      32.501  28.125  22.640  1.00  0.00     0.080 A 
ATOM     75  N   UNL A   1      30.371  28.546  22.766  1.00  0.00    -0.265 N 
ATOM     76  C   UNL A   1      31.600  29.062  23.075  1.00  0.00     0.127 A 
ATOM     77  Br  UNL A   1      34.367  28.237  22.703  1.00  0.00    -0.045 Br
BRANCH  75  78
ATOM     78  C   UNL A   1      29.083  29.083  23.198  1.00  0.00     0.182 C 
BRANCH  78  79
ATOM     79  C   UNL A   1      28.749  30.390  22.539  1.00  0.00     0.009 A 
ATOM     80  C   UNL A   1      28.326  30.450  21.203  1.00  0.00     0.008 A 
ATOM     81  C   UNL A   1      28.816  31.578  23.271  1.00  0.00     0.128 A 
ATOM     82  C   UNL A   1      27.963  31.673  20.632  1.00  0.00     0.001 A 
ATOM     83  C   UNL A   1      28.457  32.795  22.703  1.00  0.00     0.039 A 
ATOM     84  F   UNL A   1      29.235  31.558  24.545  1.00  0.00    -0.207 F 
ATOM     85  C   UNL A   1      28.018  32.843  21.384  1.00  0.00     0.003 A 
ENDBRANCH  78  79
ENDBRANCH  75  78
ENDBRANCH  70  72
ENDBRANCH  64  68
ENDBRANCH  60  62
ENDBRANCH  59  60
ENDBRANCH  58  59
ENDBRANCH   1  58
TORSDOF 18
ENDMDL
MODEL 3
REMARK VINA RESULT:     -10.7      3.601      8.712
REMARK SMILES O=C(OCCOCCOC(=O)[C@H]1CC=CC[C@@H]1C(=O)Nc1nn(Cc2ccccc2F)cc1Br)c1ccc(-c2c3nc(c(-c4ccccc4)c4ccc([nH]4)c(-c4ccccc4)c4nc(c(-c5ccccc5)c5ccc2[nH]5)C=C4)C=C3)cc1
REMARK SMILES IDX 7 1 6 2 5 3 4 4 3 5 2 6 1 7 35 8 36 9 82 10 37 11 81 12
REMARK SMILES IDX 38 13 39 14 40 15 75 16 41 17 80 18 74 19 76 20 42 21 79 22
REMARK SMILES IDX 73 23 72 24 43 26 65 27 50 28 64 29 51 30 54 31 63 32 77 33
REMARK SMILES IDX 52 34 53 35 62 37 78 38 55 39 44 40 45 41 49 42 46 43 48 44
REMARK SMILES IDX 47 45 66 46 67 47 71 48 68 49 70 50 69 51 56 52 57 53 61 54
REMARK SMILES IDX 58 55 60 56 59 57 8 58 9 59 10 60 11 61 12 62 13 63 17 64
REMARK SMILES IDX 14 65 16 66 15 67 18 68 19 69 20 70 21 72 22 73 33 74 23 75
REMARK SMILES IDX 32 76 34 77 24 78 25 79 26 80 30 81 27 82 29 83 31 84 28 85
REMARK H PARENT 76 25 54 36 20 71
REMARK Flexibility Score: inf
ROOT
ATOM      1  C   UNL A   1      33.598  28.594  27.219  1.00  0.00     0.202 C 
ENDROOT
BRANCH   1   2
ATOM      2  O   UNL A   1      33.690  29.802  26.448  1.00  0.00    -0.374 OA
BRANCH   2   3
ATOM      3  C   UNL A   1      32.931  30.899  26.964  1.00  0.00     0.202 C 
BRANCH   3   4
ATOM      4  C   UNL A   1      33.716  31.897  27.802  1.00  0.00     0.261 C 
BRANCH   4   5
ATOM      5  O   UNL A   1      35.144  31.828  27.664  1.00  0.00    -0.460 OA
BRANCH   5   6
ATOM      6  C   UNL A   1      35.891  31.769  28.789  1.00  0.00     0.338 C 
ATOM      7  O   UNL A   1      35.493  32.138  29.886  1.00  0.00    -0.246 OA
BRANCH   6   8
ATOM      8  C   UNL A   1      37.064  30.886  28.619  1.00  0.00     0.060 A 
ATOM      9  C   UNL A   1      36.948  29.589  28.115  1.00  0.00     0.016 A 
ATOM     10  C   UNL A   1      38.287  31.342  29.127  1.00  0.00     0.016 A 
ATOM     11  C   UNL A   1      37.977  28.695  28.293  1.00  0.00     0.010 A 
ATOM     12  C   UNL A   1      39.331  30.448  29.296  1.00  0.00     0.010 A 
ATOM     13  C   UNL A   1      39.133  29.113  28.952  1.00  0.00    -0.014 A 
BRANCH  13  14
ATOM     14  C   UNL A   1      40.113  28.083  29.230  1.00  0.00     0.031 A 
ATOM     15  C   UNL A   1      40.530  28.002  30.650  1.00  0.00     0.074 A 
ATOM     16  C   UNL A   1      40.619  27.279  28.278  1.00  0.00     0.049 A 
ATOM     17  N   UNL A   1      41.692  28.275  31.144  1.00  0.00    -0.248 NA
ATOM     18  C   UNL A   1      39.495  27.718  31.653  1.00  0.00     0.031 C 
ATOM     19  C   UNL A   1      40.155  27.092  26.902  1.00  0.00     0.029 A 
ATOM     20  N   UNL A   1      41.622  26.369  28.392  1.00  0.00    -0.354 N 
ATOM     21  C   UNL A   1      41.592  28.030  32.509  1.00  0.00     0.074 A 
ATOM     22  C   UNL A   1      40.192  27.819  32.785  1.00  0.00     0.031 C 
ATOM     23  C   UNL A   1      40.703  25.960  26.403  1.00  0.00     0.029 A 
ATOM     24  C   UNL A   1      41.660  25.437  27.366  1.00  0.00     0.049 A 
ATOM     25  H   UNL A   1      42.266  26.372  29.137  1.00  0.00     0.167 HD
ATOM     26  C   UNL A   1      42.695  27.797  33.270  1.00  0.00     0.031 A 
ATOM     27  C   UNL A   1      42.375  24.286  27.354  1.00  0.00     0.031 A 
ATOM     28  C   UNL A   1      43.900  28.256  32.631  1.00  0.00     0.049 A 
ATOM     29  C   UNL A   1      43.459  24.412  28.356  1.00  0.00     0.074 A 
ATOM     30  C   UNL A   1      44.358  29.482  32.188  1.00  0.00     0.029 A 
ATOM     31  N   UNL A   1      44.694  27.315  32.021  1.00  0.00    -0.354 N 
ATOM     32  N   UNL A   1      44.481  25.203  28.206  1.00  0.00    -0.248 NA
ATOM     33  C   UNL A   1      43.186  23.995  29.723  1.00  0.00     0.031 C 
ATOM     34  C   UNL A   1      45.058  29.196  30.979  1.00  0.00     0.029 A 
ATOM     35  C   UNL A   1      45.044  27.814  30.794  1.00  0.00     0.049 A 
ATOM     36  H   UNL A   1      44.961  26.445  32.395  1.00  0.00     0.167 HD
ATOM     37  C   UNL A   1      44.691  25.744  29.465  1.00  0.00     0.074 A 
ATOM     38  C   UNL A   1      43.936  24.886  30.378  1.00  0.00     0.031 C 
ATOM     39  C   UNL A   1      45.220  26.994  29.616  1.00  0.00     0.031 A 
BRANCH  26  40
ATOM     40  C   UNL A   1      42.717  26.769  34.374  1.00  0.00    -0.014 A 
ATOM     41  C   UNL A   1      43.301  25.516  34.119  1.00  0.00     0.009 A 
ATOM     42  C   UNL A   1      41.921  26.875  35.530  1.00  0.00     0.009 A 
ATOM     43  C   UNL A   1      43.026  24.408  34.929  1.00  0.00     0.001 A 
ATOM     44  C   UNL A   1      41.678  25.782  36.365  1.00  0.00     0.001 A 
ATOM     45  C   UNL A   1      42.204  24.540  36.044  1.00  0.00     0.000 A 
ENDBRANCH  26  40
BRANCH  27  46
ATOM     46  C   UNL A   1      42.011  22.988  26.750  1.00  0.00    -0.014 A 
ATOM     47  C   UNL A   1      43.003  22.062  26.392  1.00  0.00     0.009 A 
ATOM     48  C   UNL A   1      40.677  22.541  26.785  1.00  0.00     0.009 A 
ATOM     49  C   UNL A   1      42.674  20.727  26.121  1.00  0.00     0.001 A 
ATOM     50  C   UNL A   1      40.349  21.211  26.511  1.00  0.00     0.001 A 
ATOM     51  C   UNL A   1      41.351  20.299  26.195  1.00  0.00     0.000 A 
ENDBRANCH  27  46
BRANCH  39  52
ATOM     52  C   UNL A   1      45.803  27.671  28.400  1.00  0.00    -0.014 A 
ATOM     53  C   UNL A   1      45.025  28.121  27.318  1.00  0.00     0.009 A 
ATOM     54  C   UNL A   1      47.171  27.981  28.407  1.00  0.00     0.009 A 
ATOM     55  C   UNL A   1      45.611  28.816  26.256  1.00  0.00     0.001 A 
ATOM     56  C   UNL A   1      47.751  28.696  27.359  1.00  0.00     0.001 A 
ATOM     57  C   UNL A   1      46.974  29.105  26.278  1.00  0.00     0.000 A 
ENDBRANCH  39  52
ENDBRANCH  13  14
ENDBRANCH   6   8
ENDBRANCH   5   6
ENDBRANCH   4   5
ENDBRANCH   3   4
ENDBRANCH   2   3
ENDBRANCH   1   2
BRANCH   1  58
ATOM     58  C   UNL A   1      32.339  27.715  27.103  1.00  0.00     0.261 C 
BRANCH  58  59
ATOM     59  O   UNL A   1      32.510  26.569  26.256  1.00  0.00    -0.463 OA
BRANCH  59  60
ATOM     60  C   UNL A   1      31.376  26.231  25.570  1.00  0.00     0.310 C 
ATOM     61  O   UNL A   1      30.255  26.405  26.003  1.00  0.00    -0.252 OA
BRANCH  60  62
ATOM     62  C   UNL A   1      31.720  25.694  24.178  1.00  0.00     0.116 C 
ATOM     63  C   UNL A   1      30.678  26.224  23.189  1.00  0.00     0.043 C 
ATOM     64  C   UNL A   1      33.170  26.098  23.789  1.00  0.00     0.097 C 
ATOM     65  C   UNL A   1      30.908  27.665  22.842  1.00  0.00    -0.030 C 
ATOM     66  C   UNL A   1      33.283  27.635  23.657  1.00  0.00     0.041 C 
ATOM     67  C   UNL A   1      32.062  28.300  23.086  1.00  0.00    -0.030 C 
BRANCH  64  68
ATOM     68  C   UNL A   1      33.635  25.387  22.504  1.00  0.00     0.229 C 
ATOM     69  O   UNL A   1      33.647  25.959  21.410  1.00  0.00    -0.274 OA
ATOM     70  N   UNL A   1      34.122  24.111  22.567  1.00  0.00    -0.308 N 
ATOM     71  H   UNL A   1      34.682  23.822  21.810  1.00  0.00     0.171 HD
BRANCH  70  72
ATOM     72  C   UNL A   1      33.919  23.183  23.562  1.00  0.00     0.168 A 
ATOM     73  N   UNL A   1      32.800  22.465  23.692  1.00  0.00    -0.153 NA
ATOM     74  C   UNL A   1      34.835  22.863  24.588  1.00  0.00     0.080 A 
ATOM     75  N   UNL A   1      33.018  21.683  24.775  1.00  0.00    -0.265 N 
ATOM     76  C   UNL A   1      34.215  21.938  25.386  1.00  0.00     0.127 A 
ATOM     77  Br  UNL A   1      36.488  23.685  24.885  1.00  0.00    -0.045 Br
BRANCH  75  78
ATOM     78  C   UNL A   1      32.078  20.625  25.138  1.00  0.00     0.182 C 
BRANCH  78  79
ATOM     79  C   UNL A   1      32.557  19.260  24.735  1.00  0.00     0.009 A 
ATOM     80  C   UNL A   1      33.004  18.330  25.684  1.00  0.00     0.008 A 
ATOM     81  C   UNL A   1      32.524  18.878  23.391  1.00  0.00     0.128 A 
ATOM     82  C   UNL A   1      33.387  17.046  25.289  1.00  0.00     0.001 A 
ATOM     83  C   UNL A   1      32.906  17.601  22.997  1.00  0.00     0.039 A 
ATOM     84  F   UNL A   1      32.120  19.750  22.457  1.00  0.00    -0.207 F 
ATOM     85  C   UNL A   1      33.328  16.677  23.947  1.00  0.00     0.003 A 
ENDBRANCH  78  79
ENDBRANCH  75  78
ENDBRANCH  70  72
ENDBRANCH  64  68
ENDBRANCH  60  62
ENDBRANCH  59  60
ENDBRANCH  58  59
ENDBRANCH   1  58
TORSDOF 18
ENDMDL
