MODEL 1
REMARK VINA RESULT:     -11.6      0.000      0.000
REMARK SMILES Cc1c(CC(=O)N[C@H](CO)C(=O)OCCOCCOC(=O)c2ccc(-c3c4nc(c(-c5ccccc5)c5ccc([nH]5)c(-c5ccccc5)c5nc(c(-c6ccccc6)c6ccc3[nH]6)C=C5)C=C4)cc2)cc(-c2ccc(S(C)(=O)=O)cc2)n1-c1ccc(F)cc1
REMARK SMILES IDX 14 1 13 2 11 3 12 4 8 5 7 6 5 7 6 8 4 10 3 11 1 12 2 13
REMARK SMILES IDX 82 14 70 15 71 16 83 17 84 18 89 19 85 20 88 21 86 22 87 23
REMARK SMILES IDX 72 24 73 25 81 26 74 27 80 28 75 29 76 30 77 31 78 32 79 33
REMARK SMILES IDX 9 34 10 35 15 37 16 38 17 39 18 40 19 41 20 42 21 43 22 44
REMARK SMILES IDX 23 45 69 46 24 47 68 48 25 49 26 50 27 51 62 52 28 53 67 54
REMARK SMILES IDX 61 55 63 56 29 57 66 58 60 59 59 60 30 62 52 63 37 64 51 65
REMARK SMILES IDX 38 66 41 67 50 68 64 69 39 70 40 71 49 73 65 74 42 75 31 76
REMARK SMILES IDX 32 77 36 78 33 79 35 80 34 81 53 82 54 83 58 84 55 85 57 86
REMARK SMILES IDX 56 87 43 88 44 89 48 90 45 91 47 92 46 93
REMARK H PARENT 7 9 10 36 63 61 41 72
REMARK Flexibility Score: inf
ROOT
ATOM      1  C   UNL A   1      38.508  21.200  25.322  1.00  0.00     0.261 C 
ENDROOT
BRANCH   1   2
ATOM      2  O   UNL A   1      37.956  22.183  26.232  1.00  0.00    -0.462 OA
BRANCH   2   3
ATOM      3  C   UNL A   1      36.817  22.822  25.850  1.00  0.00     0.331 C 
ATOM      4  O   UNL A   1      36.651  24.034  25.952  1.00  0.00    -0.250 OA
BRANCH   3   5
ATOM      5  C   UNL A   1      35.651  21.859  25.539  1.00  0.00     0.218 C 
BRANCH   5   6
ATOM      6  N   UNL A   1      34.993  22.174  24.262  1.00  0.00    -0.341 N 
ATOM      7  C   UNL A   1      33.754  22.658  23.975  1.00  0.00     0.225 C 
ATOM      8  O   UNL A   1      33.430  22.669  22.781  1.00  0.00    -0.275 OA
ATOM      9  H   UNL A   1      35.550  22.001  23.469  1.00  0.00     0.164 HD
BRANCH   7  10
ATOM     10  C   UNL A   1      32.818  23.226  25.045  1.00  0.00     0.137 C 
BRANCH  10  11
ATOM     11  C   UNL A   1      32.774  24.737  25.075  1.00  0.00    -0.017 A 
ATOM     12  C   UNL A   1      31.233  24.962  23.059  1.00  0.00     0.065 C 
ATOM     13  C   UNL A   1      32.008  25.494  24.236  1.00  0.00     0.024 A 
ATOM     14  N   UNL A   1      32.061  26.827  24.661  1.00  0.00    -0.314 N 
ATOM     15  C   UNL A   1      33.518  25.720  25.806  1.00  0.00     0.033 A 
ATOM     16  C   UNL A   1      33.045  27.050  25.658  1.00  0.00     0.053 A 
BRANCH  14  17
ATOM     17  C   UNL A   1      31.356  27.788  23.951  1.00  0.00     0.046 A 
ATOM     18  C   UNL A   1      32.082  28.516  23.023  1.00  0.00     0.029 A 
ATOM     19  C   UNL A   1      29.975  27.704  23.864  1.00  0.00     0.029 A 
ATOM     20  C   UNL A   1      31.424  29.372  22.160  1.00  0.00     0.041 A 
ATOM     21  C   UNL A   1      29.317  28.579  23.005  1.00  0.00     0.041 A 
ATOM     22  C   UNL A   1      30.050  29.460  22.218  1.00  0.00     0.123 A 
ATOM     23  F   UNL A   1      29.428  30.372  21.467  1.00  0.00    -0.207 F 
ENDBRANCH  14  17
BRANCH  16  24
ATOM     24  C   UNL A   1      33.501  28.421  26.367  1.00  0.00    -0.001 A 
ATOM     25  C   UNL A   1      32.740  29.555  26.638  1.00  0.00     0.011 A 
ATOM     26  C   UNL A   1      34.797  28.653  26.891  1.00  0.00     0.011 A 
ATOM     27  C   UNL A   1      33.274  30.716  27.383  1.00  0.00     0.021 A 
ATOM     28  C   UNL A   1      35.334  29.654  27.708  1.00  0.00     0.021 A 
ATOM     29  C   UNL A   1      34.575  30.745  27.917  1.00  0.00     0.067 A 
BRANCH  29  30
ATOM     30  S   UNL A   1      35.425  32.066  28.755  1.00  0.00     0.175 S 
ATOM     31  C   UNL A   1      34.670  33.535  28.079  1.00  0.00     0.163 C 
ATOM     32  O   UNL A   1      35.131  31.972  30.159  1.00  0.00    -0.224 OA
ATOM     33  O   UNL A   1      36.807  32.059  28.271  1.00  0.00    -0.224 OA
ENDBRANCH  29  30
ENDBRANCH  16  24
ENDBRANCH  10  11
ENDBRANCH   7  10
ENDBRANCH   5   6
BRANCH   5  34
ATOM     34  C   UNL A   1      34.674  21.466  26.647  1.00  0.00     0.193 C 
BRANCH  34  35
ATOM     35  O   UNL A   1      34.789  22.338  27.769  1.00  0.00    -0.394 OA
ATOM     36  H   UNL A   1      34.091  23.010  27.729  1.00  0.00     0.210 HD
ENDBRANCH  34  35
ENDBRANCH   5  34
ENDBRANCH   3   5
ENDBRANCH   2   3
ENDBRANCH   1   2
BRANCH   1  37
ATOM     37  C   UNL A   1      39.756  20.484  25.866  1.00  0.00     0.202 C 
BRANCH  37  38
ATOM     38  O   UNL A   1      40.182  20.895  27.150  1.00  0.00    -0.374 OA
BRANCH  38  39
ATOM     39  C   UNL A   1      41.534  20.589  27.410  1.00  0.00     0.202 C 
BRANCH  39  40
ATOM     40  C   UNL A   1      42.593  20.655  26.227  1.00  0.00     0.261 C 
BRANCH  40  41
ATOM     41  O   UNL A   1      43.021  21.909  25.211  1.00  0.00    -0.460 OA
BRANCH  41  42
ATOM     42  C   UNL A   1      43.288  23.380  25.017  1.00  0.00     0.338 C 
ATOM     43  O   UNL A   1      44.175  23.523  24.154  1.00  0.00    -0.246 OA
BRANCH  42  44
ATOM     44  C   UNL A   1      42.722  25.005  25.532  1.00  0.00     0.060 A 
ATOM     45  C   UNL A   1      42.174  25.039  26.816  1.00  0.00     0.016 A 
ATOM     46  C   UNL A   1      42.628  26.394  25.100  1.00  0.00     0.016 A 
ATOM     47  C   UNL A   1      41.837  26.283  27.609  1.00  0.00     0.010 A 
ATOM     48  C   UNL A   1      42.250  27.706  25.921  1.00  0.00     0.010 A 
ATOM     49  C   UNL A   1      41.904  27.713  27.276  1.00  0.00    -0.014 A 
BRANCH  49  50
ATOM     50  C   UNL A   1      41.289  28.898  28.453  1.00  0.00     0.031 A 
ATOM     51  C   UNL A   1      42.568  29.571  28.709  1.00  0.00     0.074 A 
ATOM     52  C   UNL A   1      40.324  29.453  29.381  1.00  0.00     0.049 A 
ATOM     53  N   UNL A   1      43.477  28.746  29.115  1.00  0.00    -0.248 NA
ATOM     54  C   UNL A   1      43.066  30.821  28.158  1.00  0.00     0.031 C 
ATOM     55  C   UNL A   1      38.973  28.973  29.785  1.00  0.00     0.029 A 
ATOM     56  N   UNL A   1      40.339  30.654  30.267  1.00  0.00    -0.354 N 
ATOM     57  C   UNL A   1      44.666  29.397  29.112  1.00  0.00     0.074 A 
ATOM     58  C   UNL A   1      44.383  30.619  28.351  1.00  0.00     0.031 C 
ATOM     59  C   UNL A   1      38.296  29.844  30.611  1.00  0.00     0.029 A 
ATOM     60  C   UNL A   1      39.088  31.031  30.966  1.00  0.00     0.049 A 
ATOM     61  H   UNL A   1      41.161  31.183  30.384  1.00  0.00     0.167 HD
ATOM     62  C   UNL A   1      45.344  29.157  30.271  1.00  0.00     0.031 A 
ATOM     63  C   UNL A   1      38.738  32.113  31.830  1.00  0.00     0.031 A 
ATOM     64  C   UNL A   1      45.106  30.242  31.186  1.00  0.00     0.049 A 
ATOM     65  C   UNL A   1      39.978  32.439  32.536  1.00  0.00     0.074 A 
ATOM     66  C   UNL A   1      45.065  31.609  30.980  1.00  0.00     0.029 A 
ATOM     67  N   UNL A   1      44.349  29.982  32.308  1.00  0.00    -0.354 N 
ATOM     68  N   UNL A   1      40.337  31.730  33.562  1.00  0.00    -0.248 NA
ATOM     69  C   UNL A   1      40.767  33.641  32.306  1.00  0.00     0.031 C 
ATOM     70  C   UNL A   1      43.883  32.019  31.624  1.00  0.00     0.029 A 
ATOM     71  C   UNL A   1      43.540  31.065  32.572  1.00  0.00     0.049 A 
ATOM     72  H   UNL A   1      44.380  29.152  32.837  1.00  0.00     0.167 HD
ATOM     73  C   UNL A   1      41.656  32.014  33.660  1.00  0.00     0.074 A 
ATOM     74  C   UNL A   1      41.790  33.356  33.117  1.00  0.00     0.031 C 
ATOM     75  C   UNL A   1      42.471  30.937  33.524  1.00  0.00     0.031 A 
BRANCH  62  76
ATOM     76  C   UNL A   1      45.294  27.659  30.622  1.00  0.00    -0.014 A 
ATOM     77  C   UNL A   1      45.367  26.721  29.587  1.00  0.00     0.009 A 
ATOM     78  C   UNL A   1      44.869  27.188  31.895  1.00  0.00     0.009 A 
ATOM     79  C   UNL A   1      44.983  25.386  29.802  1.00  0.00     0.001 A 
ATOM     80  C   UNL A   1      44.427  25.877  32.090  1.00  0.00     0.001 A 
ATOM     81  C   UNL A   1      44.485  24.973  31.039  1.00  0.00     0.000 A 
ENDBRANCH  62  76
BRANCH  63  82
ATOM     82  C   UNL A   1      37.618  32.962  32.654  1.00  0.00    -0.014 A 
ATOM     83  C   UNL A   1      37.283  34.320  32.259  1.00  0.00     0.009 A 
ATOM     84  C   UNL A   1      36.600  32.376  33.425  1.00  0.00     0.009 A 
ATOM     85  C   UNL A   1      36.037  34.966  32.486  1.00  0.00     0.001 A 
ATOM     86  C   UNL A   1      35.352  33.043  33.693  1.00  0.00     0.001 A 
ATOM     87  C   UNL A   1      35.053  34.313  33.195  1.00  0.00     0.000 A 
ENDBRANCH  63  82
BRANCH  75  88
ATOM     88  C   UNL A   1      42.049  29.653  34.228  1.00  0.00    -0.014 A 
ATOM     89  C   UNL A   1      42.117  29.410  35.621  1.00  0.00     0.009 A 
ATOM     90  C   UNL A   1      41.643  28.581  33.424  1.00  0.00     0.009 A 
ATOM     91  C   UNL A   1      41.878  28.144  36.169  1.00  0.00     0.001 A 
ATOM     92  C   UNL A   1      41.351  27.328  33.975  1.00  0.00     0.001 A 
ATOM     93  C   UNL A   1      41.492  27.101  35.340  1.00  0.00     0.000 A 
ENDBRANCH  75  88
ENDBRANCH  49  50
ENDBRANCH  42  44
ENDBRANCH  41  42
ENDBRANCH  40  41
ENDBRANCH  39  40
ENDBRANCH  38  39
ENDBRANCH  37  38
ENDBRANCH   1  37
TORSDOF 22
ENDMDL
MODEL 2
REMARK VINA RESULT:     -11.5      1.772      3.044
REMARK SMILES Cc1c(CC(=O)N[C@H](CO)C(=O)OCCOCCOC(=O)c2ccc(-c3c4nc(c(-c5ccccc5)c5ccc([nH]5)c(-c5ccccc5)c5nc(c(-c6ccccc6)c6ccc3[nH]6)C=C5)C=C4)cc2)cc(-c2ccc(S(C)(=O)=O)cc2)n1-c1ccc(F)cc1
REMARK SMILES IDX 14 1 13 2 11 3 12 4 8 5 7 6 5 7 6 8 4 10 3 11 1 12 2 13
REMARK SMILES IDX 82 14 70 15 71 16 83 17 84 18 89 19 85 20 88 21 86 22 87 23
REMARK SMILES IDX 72 24 73 25 81 26 74 27 80 28 75 29 76 30 77 31 78 32 79 33
REMARK SMILES IDX 9 34 10 35 15 37 16 38 17 39 18 40 19 41 20 42 21 43 22 44
REMARK SMILES IDX 23 45 69 46 24 47 68 48 25 49 26 50 27 51 62 52 28 53 67 54
REMARK SMILES IDX 61 55 63 56 29 57 66 58 60 59 59 60 30 62 52 63 37 64 51 65
REMARK SMILES IDX 38 66 41 67 50 68 64 69 39 70 40 71 49 73 65 74 42 75 31 76
REMARK SMILES IDX 32 77 36 78 33 79 35 80 34 81 53 82 54 83 58 84 55 85 57 86
REMARK SMILES IDX 56 87 43 88 44 89 48 90 45 91 47 92 46 93
REMARK H PARENT 7 9 10 36 63 61 41 72
REMARK Flexibility Score: inf
ROOT
ATOM      1  C   UNL A   1      32.471  20.045  24.425  1.00  0.00     0.261 C 
ENDROOT
BRANCH   1   2
ATOM      2  O   UNL A   1      32.038  21.425  24.332  1.00  0.00    -0.462 OA
BRANCH   2   3
ATOM      3  C   UNL A   1      31.413  21.961  25.417  1.00  0.00     0.331 C 
ATOM      4  O   UNL A   1      30.268  21.671  25.753  1.00  0.00    -0.250 OA
BRANCH   3   5
ATOM      5  C   UNL A   1      32.163  23.168  26.020  1.00  0.00     0.218 C 
BRANCH   5   6
ATOM      6  N   UNL A   1      33.474  22.791  26.570  1.00  0.00    -0.341 N 
ATOM      7  C   UNL A   1      34.735  22.908  26.071  1.00  0.00     0.225 C 
ATOM      8  O   UNL A   1      35.634  22.348  26.710  1.00  0.00    -0.275 OA
ATOM      9  H   UNL A   1      33.432  22.376  27.462  1.00  0.00     0.164 HD
BRANCH   7  10
ATOM     10  C   UNL A   1      35.060  23.736  24.825  1.00  0.00     0.137 C 
BRANCH  10  11
ATOM     11  C   UNL A   1      34.555  25.159  24.893  1.00  0.00    -0.017 A 
ATOM     12  C   UNL A   1      33.124  24.997  22.792  1.00  0.00     0.065 C 
ATOM     13  C   UNL A   1      33.638  25.685  24.029  1.00  0.00     0.024 A 
ATOM     14  N   UNL A   1      33.259  26.951  24.492  1.00  0.00    -0.314 N 
ATOM     15  C   UNL A   1      34.924  26.289  25.696  1.00  0.00     0.033 A 
ATOM     16  C   UNL A   1      34.076  27.417  25.555  1.00  0.00     0.053 A 
BRANCH  14  17
ATOM     17  C   UNL A   1      32.333  27.684  23.765  1.00  0.00     0.046 A 
ATOM     18  C   UNL A   1      31.037  27.690  24.256  1.00  0.00     0.029 A 
ATOM     19  C   UNL A   1      32.768  28.673  22.896  1.00  0.00     0.029 A 
ATOM     20  C   UNL A   1      30.096  28.526  23.687  1.00  0.00     0.041 A 
ATOM     21  C   UNL A   1      31.812  29.502  22.315  1.00  0.00     0.041 A 
ATOM     22  C   UNL A   1      30.473  29.365  22.661  1.00  0.00     0.123 A 
ATOM     23  F   UNL A   1      29.537  30.085  22.037  1.00  0.00    -0.207 F 
ENDBRANCH  14  17
BRANCH  16  24
ATOM     24  C   UNL A   1      34.055  28.829  26.327  1.00  0.00    -0.001 A 
ATOM     25  C   UNL A   1      32.971  29.666  26.580  1.00  0.00     0.011 A 
ATOM     26  C   UNL A   1      35.189  29.420  26.937  1.00  0.00     0.011 A 
ATOM     27  C   UNL A   1      33.085  30.899  27.388  1.00  0.00     0.021 A 
ATOM     28  C   UNL A   1      35.352  30.499  27.814  1.00  0.00     0.021 A 
ATOM     29  C   UNL A   1      34.286  31.298  28.004  1.00  0.00     0.067 A 
BRANCH  29  30
ATOM     30  S   UNL A   1      34.648  32.775  28.928  1.00  0.00     0.175 S 
ATOM     31  C   UNL A   1      33.826  34.056  27.996  1.00  0.00     0.163 C 
ATOM     32  O   UNL A   1      34.041  32.655  30.225  1.00  0.00    -0.224 OA
ATOM     33  O   UNL A   1      36.084  33.027  28.787  1.00  0.00    -0.224 OA
ENDBRANCH  29  30
ENDBRANCH  16  24
ENDBRANCH  10  11
ENDBRANCH   7  10
ENDBRANCH   5   6
BRANCH   5  34
ATOM     34  C   UNL A   1      31.408  24.178  26.884  1.00  0.00     0.193 C 
BRANCH  34  35
ATOM     35  O   UNL A   1      30.277  23.576  27.511  1.00  0.00    -0.394 OA
ATOM     36  H   UNL A   1      29.950  24.159  28.214  1.00  0.00     0.210 HD
ENDBRANCH  34  35
ENDBRANCH   5  34
ENDBRANCH   3   5
ENDBRANCH   2   3
ENDBRANCH   1   2
BRANCH   1  37
ATOM     37  C   UNL A   1      33.993  19.883  24.570  1.00  0.00     0.202 C 
BRANCH  37  38
ATOM     38  O   UNL A   1      34.474  18.556  24.484  1.00  0.00    -0.374 OA
BRANCH  38  39
ATOM     39  C   UNL A   1      35.879  18.468  24.576  1.00  0.00     0.202 C 
BRANCH  39  40
ATOM     40  C   UNL A   1      36.722  19.763  24.944  1.00  0.00     0.261 C 
BRANCH  40  41
ATOM     41  O   UNL A   1      38.291  19.928  25.491  1.00  0.00    -0.460 OA
BRANCH  41  42
ATOM     42  C   UNL A   1      39.474  20.820  25.768  1.00  0.00     0.338 C 
ATOM     43  O   UNL A   1      40.456  20.407  25.121  1.00  0.00    -0.246 OA
BRANCH  42  44
ATOM     44  C   UNL A   1      39.950  22.319  26.637  1.00  0.00     0.060 A 
ATOM     45  C   UNL A   1      38.982  23.325  26.614  1.00  0.00     0.016 A 
ATOM     46  C   UNL A   1      41.021  22.915  27.425  1.00  0.00     0.016 A 
ATOM     47  C   UNL A   1      38.989  24.590  27.445  1.00  0.00     0.010 A 
ATOM     48  C   UNL A   1      41.047  24.258  28.282  1.00  0.00     0.010 A 
ATOM     49  C   UNL A   1      39.967  25.140  28.395  1.00  0.00    -0.014 A 
BRANCH  49  50
ATOM     50  C   UNL A   1      39.673  26.750  29.093  1.00  0.00     0.031 A 
ATOM     51  C   UNL A   1      40.715  27.459  28.342  1.00  0.00     0.074 A 
ATOM     52  C   UNL A   1      39.126  27.689  30.051  1.00  0.00     0.049 A 
ATOM     53  N   UNL A   1      41.885  26.937  28.523  1.00  0.00    -0.248 NA
ATOM     54  C   UNL A   1      40.580  28.279  27.149  1.00  0.00     0.031 C 
ATOM     55  C   UNL A   1      38.271  27.470  31.251  1.00  0.00     0.029 A 
ATOM     56  N   UNL A   1      39.237  29.170  30.201  1.00  0.00    -0.354 N 
ATOM     57  C   UNL A   1      42.738  27.500  27.634  1.00  0.00     0.074 A 
ATOM     58  C   UNL A   1      41.846  28.195  26.699  1.00  0.00     0.031 C 
ATOM     59  C   UNL A   1      37.845  28.635  31.852  1.00  0.00     0.029 A 
ATOM     60  C   UNL A   1      38.386  29.843  31.210  1.00  0.00     0.049 A 
ATOM     61  H   UNL A   1      39.861  29.687  29.642  1.00  0.00     0.167 HD
ATOM     62  C   UNL A   1      43.901  27.856  28.251  1.00  0.00     0.031 A 
ATOM     63  C   UNL A   1      38.204  31.210  31.583  1.00  0.00     0.031 A 
ATOM     64  C   UNL A   1      43.838  29.251  28.601  1.00  0.00     0.049 A 
ATOM     65  C   UNL A   1      39.504  31.837  31.333  1.00  0.00     0.074 A 
ATOM     66  C   UNL A   1      43.367  30.342  27.895  1.00  0.00     0.029 A 
ATOM     67  N   UNL A   1      43.760  29.574  29.939  1.00  0.00    -0.354 N 
ATOM     68  N   UNL A   1      40.451  31.719  32.212  1.00  0.00    -0.248 NA
ATOM     69  C   UNL A   1      39.773  32.771  30.250  1.00  0.00     0.031 C 
ATOM     70  C   UNL A   1      42.542  31.017  28.813  1.00  0.00     0.029 A 
ATOM     71  C   UNL A   1      42.915  30.649  30.099  1.00  0.00     0.049 A 
ATOM     72  H   UNL A   1      44.234  29.109  30.666  1.00  0.00     0.167 HD
ATOM     73  C   UNL A   1      41.554  32.012  31.485  1.00  0.00     0.074 A 
ATOM     74  C   UNL A   1      41.087  32.918  30.447  1.00  0.00     0.031 C 
ATOM     75  C   UNL A   1      42.461  31.005  31.415  1.00  0.00     0.031 A 
BRANCH  62  76
ATOM     76  C   UNL A   1      44.393  26.721  29.167  1.00  0.00    -0.014 A 
ATOM     77  C   UNL A   1      44.806  25.517  28.587  1.00  0.00     0.009 A 
ATOM     78  C   UNL A   1      44.158  26.719  30.569  1.00  0.00     0.009 A 
ATOM     79  C   UNL A   1      44.926  24.353  29.365  1.00  0.00     0.001 A 
ATOM     80  C   UNL A   1      44.217  25.547  31.328  1.00  0.00     0.001 A 
ATOM     81  C   UNL A   1      44.603  24.360  30.723  1.00  0.00     0.000 A 
ENDBRANCH  62  76
BRANCH  63  82
ATOM     82  C   UNL A   1      37.404  32.356  32.420  1.00  0.00    -0.014 A 
ATOM     83  C   UNL A   1      37.489  33.752  32.025  1.00  0.00     0.009 A 
ATOM     84  C   UNL A   1      36.266  32.103  33.204  1.00  0.00     0.009 A 
ATOM     85  C   UNL A   1      36.500  34.744  32.267  1.00  0.00     0.001 A 
ATOM     86  C   UNL A   1      35.282  33.115  33.488  1.00  0.00     0.001 A 
ATOM     87  C   UNL A   1      35.374  34.417  32.991  1.00  0.00     0.000 A 
ENDBRANCH  63  82
BRANCH  75  88
ATOM     88  C   UNL A   1      42.739  30.230  32.697  1.00  0.00    -0.014 A 
ATOM     89  C   UNL A   1      43.621  30.627  33.731  1.00  0.00     0.009 A 
ATOM     90  C   UNL A   1      42.145  28.969  32.830  1.00  0.00     0.009 A 
ATOM     91  C   UNL A   1      43.956  29.776  34.792  1.00  0.00     0.001 A 
ATOM     92  C   UNL A   1      42.436  28.137  33.917  1.00  0.00     0.001 A 
ATOM     93  C   UNL A   1      43.358  28.528  34.883  1.00  0.00     0.000 A 
ENDBRANCH  75  88
ENDBRANCH  49  50
ENDBRANCH  42  44
ENDBRANCH  41  42
ENDBRANCH  40  41
ENDBRANCH  39  40
ENDBRANCH  38  39
ENDBRANCH  37  38
ENDBRANCH   1  37
TORSDOF 22
ENDMDL
MODEL 3
REMARK VINA RESULT:     -10.5      3.026      7.071
REMARK SMILES Cc1c(CC(=O)N[C@H](CO)C(=O)OCCOCCOC(=O)c2ccc(-c3c4nc(c(-c5ccccc5)c5ccc([nH]5)c(-c5ccccc5)c5nc(c(-c6ccccc6)c6ccc3[nH]6)C=C5)C=C4)cc2)cc(-c2ccc(S(C)(=O)=O)cc2)n1-c1ccc(F)cc1
REMARK SMILES IDX 14 1 13 2 11 3 12 4 8 5 7 6 5 7 6 8 4 10 3 11 1 12 2 13
REMARK SMILES IDX 82 14 70 15 71 16 83 17 84 18 89 19 85 20 88 21 86 22 87 23
REMARK SMILES IDX 72 24 73 25 81 26 74 27 80 28 75 29 76 30 77 31 78 32 79 33
REMARK SMILES IDX 9 34 10 35 15 37 16 38 17 39 18 40 19 41 20 42 21 43 22 44
REMARK SMILES IDX 23 45 69 46 24 47 68 48 25 49 26 50 27 51 62 52 28 53 67 54
REMARK SMILES IDX 61 55 63 56 29 57 66 58 60 59 59 60 30 62 52 63 37 64 51 65
REMARK SMILES IDX 38 66 41 67 50 68 64 69 39 70 40 71 49 73 65 74 42 75 31 76
REMARK SMILES IDX 32 77 36 78 33 79 35 80 34 81 53 82 54 83 58 84 55 85 57 86
REMARK SMILES IDX 56 87 43 88 44 89 48 90 45 91 47 92 46 93
REMARK H PARENT 7 9 10 36 63 61 41 72
REMARK Flexibility Score: inf
ROOT
ATOM      1  C   UNL A   1      33.779  23.130  26.873  1.00  0.00     0.261 C 
ENDROOT
BRANCH   1   2
ATOM      2  O   UNL A   1      33.767  24.383  26.144  1.00  0.00    -0.462 OA
BRANCH   2   3
ATOM      3  C   UNL A   1      32.567  25.009  25.992  1.00  0.00     0.331 C 
ATOM      4  O   UNL A   1      31.684  25.001  26.844  1.00  0.00    -0.250 OA
BRANCH   3   5
ATOM      5  C   UNL A   1      32.308  25.490  24.548  1.00  0.00     0.218 C 
BRANCH   5   6
ATOM      6  N   UNL A   1      33.221  26.572  24.148  1.00  0.00    -0.341 N 
ATOM      7  C   UNL A   1      33.407  27.829  24.636  1.00  0.00     0.225 C 
ATOM      8  O   UNL A   1      34.149  28.569  23.980  1.00  0.00    -0.275 OA
ATOM      9  H   UNL A   1      33.803  26.346  23.388  1.00  0.00     0.164 HD
BRANCH   7  10
ATOM     10  C   UNL A   1      32.795  28.304  25.956  1.00  0.00     0.137 C 
BRANCH  10  11
ATOM     11  C   UNL A   1      33.694  29.229  26.745  1.00  0.00    -0.017 A 
ATOM     12  C   UNL A   1      32.037  31.162  26.809  1.00  0.00     0.065 C 
ATOM     13  C   UNL A   1      33.319  30.466  27.182  1.00  0.00     0.024 A 
ATOM     14  N   UNL A   1      34.315  30.962  28.033  1.00  0.00    -0.314 N 
ATOM     15  C   UNL A   1      35.077  29.161  27.120  1.00  0.00     0.033 A 
ATOM     16  C   UNL A   1      35.497  30.178  28.014  1.00  0.00     0.053 A 
BRANCH  14  17
ATOM     17  C   UNL A   1      34.152  32.219  28.598  1.00  0.00     0.046 A 
ATOM     18  C   UNL A   1      34.430  32.321  29.951  1.00  0.00     0.029 A 
ATOM     19  C   UNL A   1      34.152  33.343  27.786  1.00  0.00     0.029 A 
ATOM     20  C   UNL A   1      34.454  33.565  30.551  1.00  0.00     0.041 A 
ATOM     21  C   UNL A   1      34.160  34.593  28.397  1.00  0.00     0.041 A 
ATOM     22  C   UNL A   1      34.233  34.687  29.782  1.00  0.00     0.123 A 
ATOM     23  F   UNL A   1      34.140  35.876  30.384  1.00  0.00    -0.207 F 
ENDBRANCH  14  17
BRANCH  16  24
ATOM     24  C   UNL A   1      36.902  30.416  28.763  1.00  0.00    -0.001 A 
ATOM     25  C   UNL A   1      37.643  31.590  28.870  1.00  0.00     0.011 A 
ATOM     26  C   UNL A   1      37.588  29.422  29.503  1.00  0.00     0.011 A 
ATOM     27  C   UNL A   1      38.882  31.683  29.671  1.00  0.00     0.021 A 
ATOM     28  C   UNL A   1      38.677  29.461  30.381  1.00  0.00     0.021 A 
ATOM     29  C   UNL A   1      39.382  30.607  30.428  1.00  0.00     0.067 A 
BRANCH  29  30
ATOM     30  S   UNL A   1      40.885  30.490  31.374  1.00  0.00     0.175 S 
ATOM     31  C   UNL A   1      40.904  28.787  31.909  1.00  0.00     0.163 C 
ATOM     32  O   UNL A   1      41.993  30.733  30.492  1.00  0.00    -0.224 OA
ATOM     33  O   UNL A   1      40.693  31.294  32.583  1.00  0.00    -0.224 OA
ENDBRANCH  29  30
ENDBRANCH  16  24
ENDBRANCH  10  11
ENDBRANCH   7  10
ENDBRANCH   5   6
BRANCH   5  34
ATOM     34  C   UNL A   1      30.874  25.692  24.060  1.00  0.00     0.193 C 
BRANCH  34  35
ATOM     35  O   UNL A   1      30.120  26.472  24.987  1.00  0.00    -0.394 OA
ATOM     36  H   UNL A   1      30.600  27.292  25.185  1.00  0.00     0.210 HD
ENDBRANCH  34  35
ENDBRANCH   5  34
ENDBRANCH   3   5
ENDBRANCH   2   3
ENDBRANCH   1   2
BRANCH   1  37
ATOM     37  C   UNL A   1      33.102  21.971  26.123  1.00  0.00     0.202 C 
BRANCH  37  38
ATOM     38  O   UNL A   1      33.673  21.639  24.873  1.00  0.00    -0.374 OA
BRANCH  38  39
ATOM     39  C   UNL A   1      34.740  20.721  24.978  1.00  0.00     0.202 C 
BRANCH  39  40
ATOM     40  C   UNL A   1      36.228  21.220  24.737  1.00  0.00     0.261 C 
BRANCH  40  41
ATOM     41  O   UNL A   1      37.684  20.408  24.842  1.00  0.00    -0.460 OA
BRANCH  41  42
ATOM     42  C   UNL A   1      39.034  20.258  25.496  1.00  0.00     0.338 C 
ATOM     43  O   UNL A   1      39.352  19.053  25.502  1.00  0.00    -0.246 OA
BRANCH  42  44
ATOM     44  C   UNL A   1      40.386  21.211  26.196  1.00  0.00     0.060 A 
ATOM     45  C   UNL A   1      39.979  22.237  27.051  1.00  0.00     0.016 A 
ATOM     46  C   UNL A   1      41.839  21.316  26.228  1.00  0.00     0.016 A 
ATOM     47  C   UNL A   1      40.875  23.044  27.965  1.00  0.00     0.010 A 
ATOM     48  C   UNL A   1      42.791  22.182  27.170  1.00  0.00     0.010 A 
ATOM     49  C   UNL A   1      42.332  23.051  28.164  1.00  0.00    -0.014 A 
BRANCH  49  50
ATOM     50  C   UNL A   1      43.042  24.258  29.262  1.00  0.00     0.031 A 
ATOM     51  C   UNL A   1      42.810  25.429  28.408  1.00  0.00     0.074 A 
ATOM     52  C   UNL A   1      43.827  24.707  30.395  1.00  0.00     0.049 A 
ATOM     53  N   UNL A   1      43.351  25.294  27.241  1.00  0.00    -0.248 NA
ATOM     54  C   UNL A   1      41.748  26.419  28.488  1.00  0.00     0.031 C 
ATOM     55  C   UNL A   1      44.596  23.939  31.413  1.00  0.00     0.029 A 
ATOM     56  N   UNL A   1      44.166  26.061  30.924  1.00  0.00    -0.354 N 
ATOM     57  C   UNL A   1      42.907  26.303  26.453  1.00  0.00     0.074 A 
ATOM     58  C   UNL A   1      41.790  26.866  27.219  1.00  0.00     0.031 C 
ATOM     59  C   UNL A   1      45.119  24.719  32.421  1.00  0.00     0.029 A 
ATOM     60  C   UNL A   1      44.857  26.154  32.232  1.00  0.00     0.049 A 
ATOM     61  H   UNL A   1      43.937  26.872  30.416  1.00  0.00     0.167 HD
ATOM     62  C   UNL A   1      43.944  26.864  25.767  1.00  0.00     0.031 A 
ATOM     63  C   UNL A   1      45.281  27.254  33.038  1.00  0.00     0.031 A 
ATOM     64  C   UNL A   1      44.395  28.033  26.475  1.00  0.00     0.049 A 
ATOM     65  C   UNL A   1      45.598  28.314  32.080  1.00  0.00     0.074 A 
ATOM     66  C   UNL A   1      43.687  29.044  27.100  1.00  0.00     0.029 A 
ATOM     67  N   UNL A   1      45.636  27.983  27.072  1.00  0.00    -0.354 N 
ATOM     68  N   UNL A   1      46.746  28.310  31.475  1.00  0.00    -0.248 NA
ATOM     69  C   UNL A   1      44.799  29.515  31.886  1.00  0.00     0.031 C 
ATOM     70  C   UNL A   1      44.304  29.169  28.358  1.00  0.00     0.029 A 
ATOM     71  C   UNL A   1      45.588  28.649  28.277  1.00  0.00     0.049 A 
ATOM     72  H   UNL A   1      46.432  27.541  26.697  1.00  0.00     0.167 HD
ATOM     73  C   UNL A   1      46.513  29.114  30.413  1.00  0.00     0.074 A 
ATOM     74  C   UNL A   1      45.481  30.035  30.861  1.00  0.00     0.031 C 
ATOM     75  C   UNL A   1      46.674  28.510  29.208  1.00  0.00     0.031 A 
BRANCH  62  76
ATOM     76  C   UNL A   1      44.848  25.771  25.171  1.00  0.00    -0.014 A 
ATOM     77  C   UNL A   1      44.271  24.559  24.776  1.00  0.00     0.009 A 
ATOM     78  C   UNL A   1      46.265  25.807  25.287  1.00  0.00     0.009 A 
ATOM     79  C   UNL A   1      45.069  23.423  24.560  1.00  0.00     0.001 A 
ATOM     80  C   UNL A   1      47.050  24.661  25.133  1.00  0.00     0.001 A 
ATOM     81  C   UNL A   1      46.449  23.465  24.768  1.00  0.00     0.000 A 
ENDBRANCH  62  76
BRANCH  63  82
ATOM     82  C   UNL A   1      45.883  27.837  34.435  1.00  0.00    -0.014 A 
ATOM     83  C   UNL A   1      45.078  27.827  35.646  1.00  0.00     0.009 A 
ATOM     84  C   UNL A   1      47.256  27.927  34.721  1.00  0.00     0.009 A 
ATOM     85  C   UNL A   1      45.581  27.778  36.975  1.00  0.00     0.001 A 
ATOM     86  C   UNL A   1      47.767  27.920  36.067  1.00  0.00     0.001 A 
ATOM     87  C   UNL A   1      46.942  27.806  37.187  1.00  0.00     0.000 A 
ENDBRANCH  63  82
BRANCH  75  88
ATOM     88  C   UNL A   1      47.877  27.587  29.048  1.00  0.00    -0.014 A 
ATOM     89  C   UNL A   1      47.838  26.172  29.031  1.00  0.00     0.009 A 
ATOM     90  C   UNL A   1      49.144  28.180  29.007  1.00  0.00     0.009 A 
ATOM     91  C   UNL A   1      49.003  25.395  29.059  1.00  0.00     0.001 A 
ATOM     92  C   UNL A   1      50.310  27.406  28.981  1.00  0.00     0.001 A 
ATOM     93  C   UNL A   1      50.242  26.017  29.032  1.00  0.00     0.000 A 
ENDBRANCH  75  88
ENDBRANCH  49  50
ENDBRANCH  42  44
ENDBRANCH  41  42
ENDBRANCH  40  41
ENDBRANCH  39  40
ENDBRANCH  38  39
ENDBRANCH  37  38
ENDBRANCH   1  37
TORSDOF 22
ENDMDL
