MODEL 1
REMARK VINA RESULT:      -9.2      0.000      0.000
REMARK SMILES CSCC[C@H](NC(=O)Cc1c(C)c2ccc(O)cc2oc1=O)C(=O)OCCOCCOC(=O)c1ccc(-c2c3nc(c(-c4ccccc4)c4ccc([nH]4)c(-c4ccccc4)c4nc(c(-c5ccccc5)c5ccc2[nH]5)C=C4)C=C3)cc1
REMARK SMILES IDX 27 1 26 2 25 3 23 4 24 5 5 6 4 7 3 8 2 9 1 10 6 11 7 12 8 14
REMARK SMILES IDX 9 15 10 16 11 17 21 18 12 19 13 20 20 21 22 22 14 23 19 24
REMARK SMILES IDX 15 25 18 26 16 27 17 28 28 30 29 31 30 32 31 33 32 34 33 35
REMARK SMILES IDX 34 36 35 37 81 38 36 39 80 40 37 41 38 42 39 43 74 44 40 45
REMARK SMILES IDX 79 46 73 47 75 48 41 49 78 50 72 51 71 52 42 54 64 55 49 56
REMARK SMILES IDX 63 57 50 58 53 59 62 60 76 61 51 62 52 63 61 65 77 66 54 67
REMARK SMILES IDX 43 68 44 69 48 70 45 71 47 72 46 73 65 74 66 75 70 76 67 77
REMARK SMILES IDX 69 78 68 79 55 80 56 81 60 82 57 83 59 84 58 85
REMARK H PARENT 6 13 17 29 75 53 53 64
REMARK Flexibility Score: inf
ROOT
ATOM      1  C   UNL A   1      49.953  25.229  31.323  1.00  0.00     0.202 C 
ENDROOT
BRANCH   1   2
ATOM      2  C   UNL A   1      49.495  26.670  30.788  1.00  0.00     0.261 C 
BRANCH   2   3
ATOM      3  O   UNL A   1      48.179  27.074  31.109  1.00  0.00    -0.462 OA
BRANCH   3   4
ATOM      4  C   UNL A   1      47.345  26.746  30.109  1.00  0.00     0.328 C 
ATOM      5  O   UNL A   1      46.745  25.680  30.104  1.00  0.00    -0.250 OA
BRANCH   4   6
ATOM      6  C   UNL A   1      47.335  27.793  28.978  1.00  0.00     0.193 C 
BRANCH   6   7
ATOM      7  C   UNL A   1      46.517  28.948  29.610  1.00  0.00     0.048 C 
BRANCH   7   8
ATOM      8  C   UNL A   1      46.230  30.055  28.542  1.00  0.00     0.072 C 
BRANCH   8   9
ATOM      9  S   UNL A   1      46.759  31.712  29.092  1.00  0.00    -0.165 SA
ATOM     10  C   UNL A   1      48.101  31.257  30.218  1.00  0.00     0.085 C 
ENDBRANCH   8   9
ENDBRANCH   7   8
ENDBRANCH   6   7
BRANCH   6  11
ATOM     11  N   UNL A   1      46.880  27.211  27.554  1.00  0.00    -0.342 N 
ATOM     12  C   UNL A   1      45.971  26.332  26.908  1.00  0.00     0.225 C 
ATOM     13  H   UNL A   1      47.450  27.620  26.863  1.00  0.00     0.164 HD
ATOM     14  O   UNL A   1      45.966  26.622  25.687  1.00  0.00    -0.275 OA
BRANCH  12  15
ATOM     15  C   UNL A   1      44.719  25.010  27.340  1.00  0.00     0.143 C 
BRANCH  15  16
ATOM     16  C   UNL A   1      43.931  23.572  26.870  1.00  0.00     0.051 A 
ATOM     17  C   UNL A   1      42.812  22.963  27.412  1.00  0.00    -0.029 A 
ATOM     18  C   UNL A   1      44.454  22.746  25.670  1.00  0.00     0.340 A 
ATOM     19  C   UNL A   1      41.990  23.405  28.597  1.00  0.00     0.046 C 
ATOM     20  C   UNL A   1      42.414  21.587  26.953  1.00  0.00     0.021 A 
ATOM     21  O   UNL A   1      43.510  22.079  24.934  1.00  0.00    -0.422 OA
ATOM     22  O   UNL A   1      45.622  22.549  25.389  1.00  0.00    -0.246 OA
ATOM     23  C   UNL A   1      41.594  20.688  27.653  1.00  0.00     0.016 A 
ATOM     24  C   UNL A   1      42.996  21.123  25.786  1.00  0.00     0.142 A 
ATOM     25  C   UNL A   1      41.553  19.333  27.307  1.00  0.00     0.047 A 
ATOM     26  C   UNL A   1      43.022  19.767  25.448  1.00  0.00     0.094 A 
ATOM     27  C   UNL A   1      42.340  18.872  26.262  1.00  0.00     0.119 A 
BRANCH  27  28
ATOM     28  O   UNL A   1      42.457  17.535  26.020  1.00  0.00    -0.508 OA
ATOM     29  H   UNL A   1      41.927  17.130  25.363  1.00  0.00     0.293 HD
ENDBRANCH  27  28
ENDBRANCH  15  16
ENDBRANCH  12  15
ENDBRANCH   6  11
ENDBRANCH   4   6
ENDBRANCH   3   4
ENDBRANCH   2   3
ENDBRANCH   1   2
BRANCH   1  30
ATOM     30  O   UNL A   1      50.149  24.830  32.710  1.00  0.00    -0.374 OA
BRANCH  30  31
ATOM     31  C   UNL A   1      49.831  23.823  33.762  1.00  0.00     0.202 C 
BRANCH  31  32
ATOM     32  C   UNL A   1      48.847  23.741  35.216  1.00  0.00     0.261 C 
BRANCH  32  33
ATOM     33  O   UNL A   1      47.439  24.250  35.369  1.00  0.00    -0.460 OA
BRANCH  33  34
ATOM     34  C   UNL A   1      46.817  25.129  36.241  1.00  0.00     0.338 C 
ATOM     35  O   UNL A   1      47.161  25.452  37.342  1.00  0.00    -0.246 OA
BRANCH  34  36
ATOM     36  C   UNL A   1      45.745  25.907  35.472  1.00  0.00     0.060 A 
ATOM     37  C   UNL A   1      44.407  25.428  35.428  1.00  0.00     0.016 A 
ATOM     38  C   UNL A   1      46.005  27.147  34.899  1.00  0.00     0.016 A 
ATOM     39  C   UNL A   1      43.353  26.222  34.904  1.00  0.00     0.010 A 
ATOM     40  C   UNL A   1      44.961  27.919  34.346  1.00  0.00     0.010 A 
ATOM     41  C   UNL A   1      43.623  27.480  34.336  1.00  0.00    -0.014 A 
BRANCH  41  42
ATOM     42  C   UNL A   1      42.610  28.164  33.454  1.00  0.00     0.031 A 
ATOM     43  C   UNL A   1      41.690  29.157  34.132  1.00  0.00     0.074 A 
ATOM     44  C   UNL A   1      42.432  27.952  32.130  1.00  0.00     0.049 A 
ATOM     45  N   UNL A   1      40.688  29.849  33.647  1.00  0.00    -0.248 NA
ATOM     46  C   UNL A   1      41.940  29.384  35.564  1.00  0.00     0.031 C 
ATOM     47  C   UNL A   1      43.219  27.062  31.280  1.00  0.00     0.029 A 
ATOM     48  N   UNL A   1      41.494  28.485  31.261  1.00  0.00    -0.354 N 
ATOM     49  C   UNL A   1      40.186  30.581  34.718  1.00  0.00     0.074 A 
ATOM     50  C   UNL A   1      40.964  30.217  35.881  1.00  0.00     0.031 C 
ATOM     51  C   UNL A   1      42.730  27.106  30.023  1.00  0.00     0.029 A 
ATOM     52  C   UNL A   1      41.577  28.010  29.971  1.00  0.00     0.049 A 
ATOM     53  H   UNL A   1      40.823  29.149  31.543  1.00  0.00     0.167 HD
ATOM     54  C   UNL A   1      39.181  31.486  34.753  1.00  0.00     0.031 A 
ATOM     55  C   UNL A   1      40.816  28.261  28.879  1.00  0.00     0.031 A 
ATOM     56  C   UNL A   1      38.365  31.864  33.634  1.00  0.00     0.049 A 
ATOM     57  C   UNL A   1      39.643  29.218  28.954  1.00  0.00     0.074 A 
ATOM     58  C   UNL A   1      37.334  32.788  33.595  1.00  0.00     0.029 A 
ATOM     59  N   UNL A   1      38.476  31.334  32.362  1.00  0.00    -0.354 N 
ATOM     60  N   UNL A   1      39.218  29.936  29.965  1.00  0.00    -0.248 NA
ATOM     61  C   UNL A   1      38.849  29.404  27.724  1.00  0.00     0.031 C 
ATOM     62  C   UNL A   1      36.785  32.778  32.309  1.00  0.00     0.029 A 
ATOM     63  C   UNL A   1      37.515  31.893  31.534  1.00  0.00     0.049 A 
ATOM     64  H   UNL A   1      39.137  30.659  32.087  1.00  0.00     0.167 HD
ATOM     65  C   UNL A   1      38.142  30.680  29.482  1.00  0.00     0.074 A 
ATOM     66  C   UNL A   1      37.984  30.340  28.087  1.00  0.00     0.031 C 
ATOM     67  C   UNL A   1      37.357  31.567  30.143  1.00  0.00     0.031 A 
BRANCH  54  68
ATOM     68  C   UNL A   1      38.895  32.119  36.086  1.00  0.00    -0.014 A 
ATOM     69  C   UNL A   1      38.003  31.525  36.993  1.00  0.00     0.009 A 
ATOM     70  C   UNL A   1      39.518  33.327  36.431  1.00  0.00     0.009 A 
ATOM     71  C   UNL A   1      37.706  32.154  38.202  1.00  0.00     0.001 A 
ATOM     72  C   UNL A   1      39.244  33.937  37.656  1.00  0.00     0.001 A 
ATOM     73  C   UNL A   1      38.328  33.356  38.534  1.00  0.00     0.000 A 
ENDBRANCH  54  68
BRANCH  55  74
ATOM     74  C   UNL A   1      41.104  27.597  27.570  1.00  0.00    -0.014 A 
ATOM     75  C   UNL A   1      40.459  26.398  27.218  1.00  0.00     0.009 A 
ATOM     76  C   UNL A   1      42.097  28.098  26.714  1.00  0.00     0.009 A 
ATOM     77  C   UNL A   1      40.823  25.703  26.059  1.00  0.00     0.001 A 
ATOM     78  C   UNL A   1      42.438  27.416  25.540  1.00  0.00     0.001 A 
ATOM     79  C   UNL A   1      41.809  26.215  25.220  1.00  0.00     0.000 A 
ENDBRANCH  55  74
BRANCH  67  80
ATOM     80  C   UNL A   1      36.283  32.281  29.364  1.00  0.00    -0.014 A 
ATOM     81  C   UNL A   1      36.481  33.569  28.841  1.00  0.00     0.009 A 
ATOM     82  C   UNL A   1      35.063  31.632  29.106  1.00  0.00     0.009 A 
ATOM     83  C   UNL A   1      35.471  34.204  28.113  1.00  0.00     0.001 A 
ATOM     84  C   UNL A   1      34.066  32.256  28.352  1.00  0.00     0.001 A 
ATOM     85  C   UNL A   1      34.267  33.546  27.866  1.00  0.00     0.000 A 
ENDBRANCH  67  80
ENDBRANCH  41  42
ENDBRANCH  34  36
ENDBRANCH  33  34
ENDBRANCH  32  33
ENDBRANCH  31  32
ENDBRANCH  30  31
ENDBRANCH   1  30
TORSDOF 21
ENDMDL
MODEL 2
REMARK VINA RESULT:      -8.5      3.353      9.387
REMARK SMILES CSCC[C@H](NC(=O)Cc1c(C)c2ccc(O)cc2oc1=O)C(=O)OCCOCCOC(=O)c1ccc(-c2c3nc(c(-c4ccccc4)c4ccc([nH]4)c(-c4ccccc4)c4nc(c(-c5ccccc5)c5ccc2[nH]5)C=C4)C=C3)cc1
REMARK SMILES IDX 27 1 26 2 25 3 23 4 24 5 5 6 4 7 3 8 2 9 1 10 6 11 7 12 8 14
REMARK SMILES IDX 9 15 10 16 11 17 21 18 12 19 13 20 20 21 22 22 14 23 19 24
REMARK SMILES IDX 15 25 18 26 16 27 17 28 28 30 29 31 30 32 31 33 32 34 33 35
REMARK SMILES IDX 34 36 35 37 81 38 36 39 80 40 37 41 38 42 39 43 74 44 40 45
REMARK SMILES IDX 79 46 73 47 75 48 41 49 78 50 72 51 71 52 42 54 64 55 49 56
REMARK SMILES IDX 63 57 50 58 53 59 62 60 76 61 51 62 52 63 61 65 77 66 54 67
REMARK SMILES IDX 43 68 44 69 48 70 45 71 47 72 46 73 65 74 66 75 70 76 67 77
REMARK SMILES IDX 69 78 68 79 55 80 56 81 60 82 57 83 59 84 58 85
REMARK H PARENT 6 13 17 29 75 53 53 64
REMARK Flexibility Score: inf
ROOT
ATOM      1  C   UNL A   1      47.215  23.860  24.221  1.00  0.00     0.202 C 
ENDROOT
BRANCH   1   2
ATOM      2  C   UNL A   1      47.521  25.275  24.911  1.00  0.00     0.261 C 
BRANCH   2   3
ATOM      3  O   UNL A   1      46.515  25.798  25.754  1.00  0.00    -0.462 OA
BRANCH   3   4
ATOM      4  C   UNL A   1      47.069  26.293  26.872  1.00  0.00     0.328 C 
ATOM      5  O   UNL A   1      48.055  25.775  27.377  1.00  0.00    -0.250 OA
BRANCH   4   6
ATOM      6  C   UNL A   1      46.268  27.472  27.459  1.00  0.00     0.193 C 
BRANCH   6   7
ATOM      7  C   UNL A   1      45.443  27.947  26.235  1.00  0.00     0.048 C 
BRANCH   7   8
ATOM      8  C   UNL A   1      43.952  28.182  26.646  1.00  0.00     0.072 C 
BRANCH   8   9
ATOM      9  S   UNL A   1      42.776  27.599  25.379  1.00  0.00    -0.165 SA
ATOM     10  C   UNL A   1      41.427  28.777  25.635  1.00  0.00     0.085 C 
ENDBRANCH   8   9
ENDBRANCH   7   8
ENDBRANCH   6   7
BRANCH   6  11
ATOM     11  N   UNL A   1      47.165  28.541  28.250  1.00  0.00    -0.342 N 
ATOM     12  C   UNL A   1      47.147  29.806  28.894  1.00  0.00     0.225 C 
ATOM     13  H   UNL A   1      48.080  28.181  28.313  1.00  0.00     0.164 HD
ATOM     14  O   UNL A   1      48.178  29.884  29.605  1.00  0.00    -0.275 OA
BRANCH  12  15
ATOM     15  C   UNL A   1      46.015  31.282  29.100  1.00  0.00     0.143 C 
BRANCH  15  16
ATOM     16  C   UNL A   1      45.419  32.737  28.435  1.00  0.00     0.051 A 
ATOM     17  C   UNL A   1      45.443  34.018  28.958  1.00  0.00    -0.029 A 
ATOM     18  C   UNL A   1      44.736  32.744  27.046  1.00  0.00     0.340 A 
ATOM     19  C   UNL A   1      45.991  34.475  30.287  1.00  0.00     0.046 C 
ATOM     20  C   UNL A   1      44.675  35.117  28.277  1.00  0.00     0.021 A 
ATOM     21  O   UNL A   1      44.902  33.877  26.294  1.00  0.00    -0.422 OA
ATOM     22  O   UNL A   1      43.985  31.889  26.612  1.00  0.00    -0.246 OA
ATOM     23  C   UNL A   1      44.264  36.324  28.865  1.00  0.00     0.016 A 
ATOM     24  C   UNL A   1      44.239  34.870  26.986  1.00  0.00     0.142 A 
ATOM     25  C   UNL A   1      43.286  37.122  28.260  1.00  0.00     0.047 A 
ATOM     26  C   UNL A   1      43.221  35.614  26.383  1.00  0.00     0.094 A 
ATOM     27  C   UNL A   1      42.710  36.709  27.067  1.00  0.00     0.119 A 
BRANCH  27  28
ATOM     28  O   UNL A   1      41.634  37.369  26.552  1.00  0.00    -0.508 OA
ATOM     29  H   UNL A   1      40.866  37.492  27.074  1.00  0.00     0.293 HD
ENDBRANCH  27  28
ENDBRANCH  15  16
ENDBRANCH  12  15
ENDBRANCH   6  11
ENDBRANCH   4   6
ENDBRANCH   3   4
ENDBRANCH   2   3
ENDBRANCH   1   2
BRANCH   1  30
ATOM     30  O   UNL A   1      46.168  22.914  24.587  1.00  0.00    -0.374 OA
BRANCH  30  31
ATOM     31  C   UNL A   1      45.471  21.645  24.232  1.00  0.00     0.202 C 
BRANCH  31  32
ATOM     32  C   UNL A   1      44.791  20.265  25.081  1.00  0.00     0.261 C 
BRANCH  32  33
ATOM     33  O   UNL A   1      43.387  19.739  24.946  1.00  0.00    -0.460 OA
BRANCH  33  34
ATOM     34  C   UNL A   1      42.207  19.936  25.644  1.00  0.00     0.338 C 
ATOM     35  O   UNL A   1      41.340  19.144  25.878  1.00  0.00    -0.246 OA
BRANCH  34  36
ATOM     36  C   UNL A   1      42.290  21.278  26.378  1.00  0.00     0.060 A 
ATOM     37  C   UNL A   1      42.189  21.326  27.795  1.00  0.00     0.016 A 
ATOM     38  C   UNL A   1      42.579  22.464  25.712  1.00  0.00     0.016 A 
ATOM     39  C   UNL A   1      42.464  22.516  28.518  1.00  0.00     0.010 A 
ATOM     40  C   UNL A   1      42.817  23.654  26.431  1.00  0.00     0.010 A 
ATOM     41  C   UNL A   1      42.766  23.709  27.837  1.00  0.00    -0.014 A 
BRANCH  41  42
ATOM     42  C   UNL A   1      42.693  25.040  28.540  1.00  0.00     0.031 A 
ATOM     43  C   UNL A   1      43.898  25.430  29.371  1.00  0.00     0.074 A 
ATOM     44  C   UNL A   1      41.647  25.898  28.518  1.00  0.00     0.049 A 
ATOM     45  N   UNL A   1      44.098  26.478  30.131  1.00  0.00    -0.248 NA
ATOM     46  C   UNL A   1      45.026  24.486  29.339  1.00  0.00     0.031 C 
ATOM     47  C   UNL A   1      40.405  25.733  27.767  1.00  0.00     0.029 A 
ATOM     48  N   UNL A   1      41.471  27.104  29.178  1.00  0.00    -0.354 N 
ATOM     49  C   UNL A   1      45.368  26.310  30.673  1.00  0.00     0.074 A 
ATOM     50  C   UNL A   1      45.870  25.044  30.190  1.00  0.00     0.031 C 
ATOM     51  C   UNL A   1      39.599  26.787  28.011  1.00  0.00     0.029 A 
ATOM     52  C   UNL A   1      40.249  27.701  28.956  1.00  0.00     0.049 A 
ATOM     53  H   UNL A   1      42.161  27.501  29.757  1.00  0.00     0.167 HD
ATOM     54  C   UNL A   1      46.075  27.125  31.490  1.00  0.00     0.031 A 
ATOM     55  C   UNL A   1      39.710  28.839  29.456  1.00  0.00     0.031 A 
ATOM     56  C   UNL A   1      45.613  28.378  32.014  1.00  0.00     0.049 A 
ATOM     57  C   UNL A   1      40.486  29.700  30.432  1.00  0.00     0.074 A 
ATOM     58  C   UNL A   1      46.286  29.265  32.840  1.00  0.00     0.029 A 
ATOM     59  N   UNL A   1      44.363  28.919  31.780  1.00  0.00    -0.354 N 
ATOM     60  N   UNL A   1      41.705  29.548  30.892  1.00  0.00    -0.248 NA
ATOM     61  C   UNL A   1      39.807  30.904  30.951  1.00  0.00     0.031 C 
ATOM     62  C   UNL A   1      45.420  30.320  33.147  1.00  0.00     0.029 A 
ATOM     63  C   UNL A   1      44.234  30.118  32.463  1.00  0.00     0.049 A 
ATOM     64  H   UNL A   1      43.669  28.513  31.213  1.00  0.00     0.167 HD
ATOM     65  C   UNL A   1      41.945  30.647  31.715  1.00  0.00     0.074 A 
ATOM     66  C   UNL A   1      40.757  31.468  31.684  1.00  0.00     0.031 C 
ATOM     67  C   UNL A   1      43.058  30.946  32.431  1.00  0.00     0.031 A 
BRANCH  54  68
ATOM     68  C   UNL A   1      47.445  26.650  31.886  1.00  0.00    -0.014 A 
ATOM     69  C   UNL A   1      48.573  26.966  31.111  1.00  0.00     0.009 A 
ATOM     70  C   UNL A   1      47.605  25.871  33.041  1.00  0.00     0.009 A 
ATOM     71  C   UNL A   1      49.829  26.469  31.461  1.00  0.00     0.001 A 
ATOM     72  C   UNL A   1      48.868  25.404  33.407  1.00  0.00     0.001 A 
ATOM     73  C   UNL A   1      49.976  25.693  32.610  1.00  0.00     0.000 A 
ENDBRANCH  54  68
BRANCH  55  74
ATOM     74  C   UNL A   1      38.334  29.275  29.067  1.00  0.00    -0.014 A 
ATOM     75  C   UNL A   1      38.114  29.967  27.863  1.00  0.00     0.009 A 
ATOM     76  C   UNL A   1      37.250  29.096  29.942  1.00  0.00     0.009 A 
ATOM     77  C   UNL A   1      36.855  30.495  27.561  1.00  0.00     0.001 A 
ATOM     78  C   UNL A   1      35.984  29.598  29.622  1.00  0.00     0.001 A 
ATOM     79  C   UNL A   1      35.790  30.307  28.438  1.00  0.00     0.000 A 
ENDBRANCH  55  74
BRANCH  67  80
ATOM     80  C   UNL A   1      43.078  32.238  33.205  1.00  0.00    -0.014 A 
ATOM     81  C   UNL A   1      42.697  32.296  34.556  1.00  0.00     0.009 A 
ATOM     82  C   UNL A   1      43.532  33.414  32.583  1.00  0.00     0.009 A 
ATOM     83  C   UNL A   1      42.735  33.507  35.253  1.00  0.00     0.001 A 
ATOM     84  C   UNL A   1      43.598  34.617  33.291  1.00  0.00     0.001 A 
ATOM     85  C   UNL A   1      43.189  34.665  34.622  1.00  0.00     0.000 A 
ENDBRANCH  67  80
ENDBRANCH  41  42
ENDBRANCH  34  36
ENDBRANCH  33  34
ENDBRANCH  32  33
ENDBRANCH  31  32
ENDBRANCH  30  31
ENDBRANCH   1  30
TORSDOF 21
ENDMDL
MODEL 3
REMARK VINA RESULT:      -8.5      3.908      9.447
REMARK SMILES CSCC[C@H](NC(=O)Cc1c(C)c2ccc(O)cc2oc1=O)C(=O)OCCOCCOC(=O)c1ccc(-c2c3nc(c(-c4ccccc4)c4ccc([nH]4)c(-c4ccccc4)c4nc(c(-c5ccccc5)c5ccc2[nH]5)C=C4)C=C3)cc1
REMARK SMILES IDX 27 1 26 2 25 3 23 4 24 5 5 6 4 7 3 8 2 9 1 10 6 11 7 12 8 14
REMARK SMILES IDX 9 15 10 16 11 17 21 18 12 19 13 20 20 21 22 22 14 23 19 24
REMARK SMILES IDX 15 25 18 26 16 27 17 28 28 30 29 31 30 32 31 33 32 34 33 35
REMARK SMILES IDX 34 36 35 37 81 38 36 39 80 40 37 41 38 42 39 43 74 44 40 45
REMARK SMILES IDX 79 46 73 47 75 48 41 49 78 50 72 51 71 52 42 54 64 55 49 56
REMARK SMILES IDX 63 57 50 58 53 59 62 60 76 61 51 62 52 63 61 65 77 66 54 67
REMARK SMILES IDX 43 68 44 69 48 70 45 71 47 72 46 73 65 74 66 75 70 76 67 77
REMARK SMILES IDX 69 78 68 79 55 80 56 81 60 82 57 83 59 84 58 85
REMARK H PARENT 6 13 17 29 75 53 53 64
REMARK Flexibility Score: inf
ROOT
ATOM      1  C   UNL A   1      46.321  22.600  24.500  1.00  0.00     0.202 C 
ENDROOT
BRANCH   1   2
ATOM      2  C   UNL A   1      46.268  24.173  24.808  1.00  0.00     0.261 C 
BRANCH   2   3
ATOM      3  O   UNL A   1      47.491  24.876  24.718  1.00  0.00    -0.462 OA
BRANCH   3   4
ATOM      4  C   UNL A   1      47.258  26.198  24.712  1.00  0.00     0.328 C 
ATOM      5  O   UNL A   1      46.811  26.762  23.722  1.00  0.00    -0.250 OA
BRANCH   4   6
ATOM      6  C   UNL A   1      47.710  26.886  26.016  1.00  0.00     0.193 C 
BRANCH   6   7
ATOM      7  C   UNL A   1      48.538  25.769  26.703  1.00  0.00     0.048 C 
BRANCH   7   8
ATOM      8  C   UNL A   1      50.067  26.053  26.539  1.00  0.00     0.072 C 
BRANCH   8   9
ATOM      9  S   UNL A   1      50.432  27.829  26.336  1.00  0.00    -0.165 SA
ATOM     10  C   UNL A   1      50.975  27.844  24.610  1.00  0.00     0.085 C 
ENDBRANCH   8   9
ENDBRANCH   7   8
ENDBRANCH   6   7
BRANCH   6  11
ATOM     11  N   UNL A   1      46.518  27.581  26.833  1.00  0.00    -0.342 N 
ATOM     12  C   UNL A   1      46.083  28.798  27.422  1.00  0.00     0.225 C 
ATOM     13  H   UNL A   1      45.819  26.903  26.985  1.00  0.00     0.164 HD
ATOM     14  O   UNL A   1      44.849  28.700  27.628  1.00  0.00    -0.275 OA
BRANCH  12  15
ATOM     15  C   UNL A   1      46.752  30.495  27.839  1.00  0.00     0.143 C 
BRANCH  15  16
ATOM     16  C   UNL A   1      46.745  32.165  27.491  1.00  0.00     0.051 A 
ATOM     17  C   UNL A   1      47.204  33.226  28.252  1.00  0.00    -0.029 A 
ATOM     18  C   UNL A   1      46.169  32.686  26.151  1.00  0.00     0.340 A 
ATOM     19  C   UNL A   1      47.822  33.189  29.628  1.00  0.00     0.046 C 
ATOM     20  C   UNL A   1      46.909  34.637  27.823  1.00  0.00     0.021 A 
ATOM     21  O   UNL A   1      46.761  33.806  25.630  1.00  0.00    -0.422 OA
ATOM     22  O   UNL A   1      45.181  32.259  25.581  1.00  0.00    -0.246 OA
ATOM     23  C   UNL A   1      46.933  35.773  28.647  1.00  0.00     0.016 A 
ATOM     24  C   UNL A   1      46.469  34.818  26.522  1.00  0.00     0.142 A 
ATOM     25  C   UNL A   1      46.333  36.969  28.241  1.00  0.00     0.047 A 
ATOM     26  C   UNL A   1      45.811  35.979  26.107  1.00  0.00     0.094 A 
ATOM     27  C   UNL A   1      45.698  37.030  27.008  1.00  0.00     0.119 A 
BRANCH  27  28
ATOM     28  O   UNL A   1      44.953  38.118  26.664  1.00  0.00    -0.508 OA
ATOM     29  H   UNL A   1      45.145  38.588  25.876  1.00  0.00     0.293 HD
ENDBRANCH  27  28
ENDBRANCH  15  16
ENDBRANCH  12  15
ENDBRANCH   6  11
ENDBRANCH   4   6
ENDBRANCH   3   4
ENDBRANCH   2   3
ENDBRANCH   1   2
BRANCH   1  30
ATOM     30  O   UNL A   1      45.205  21.664  24.524  1.00  0.00    -0.374 OA
BRANCH  30  31
ATOM     31  C   UNL A   1      44.763  20.277  24.844  1.00  0.00     0.202 C 
BRANCH  31  32
ATOM     32  C   UNL A   1      43.396  19.508  25.637  1.00  0.00     0.261 C 
BRANCH  32  33
ATOM     33  O   UNL A   1      41.943  19.690  25.286  1.00  0.00    -0.460 OA
BRANCH  33  34
ATOM     34  C   UNL A   1      40.882  20.358  25.874  1.00  0.00     0.338 C 
ATOM     35  O   UNL A   1      39.762  19.969  26.044  1.00  0.00    -0.246 OA
BRANCH  34  36
ATOM     36  C   UNL A   1      41.419  21.601  26.587  1.00  0.00     0.060 A 
ATOM     37  C   UNL A   1      41.442  21.658  28.007  1.00  0.00     0.016 A 
ATOM     38  C   UNL A   1      42.004  22.654  25.891  1.00  0.00     0.016 A 
ATOM     39  C   UNL A   1      42.116  22.700  28.697  1.00  0.00     0.010 A 
ATOM     40  C   UNL A   1      42.642  23.707  26.580  1.00  0.00     0.010 A 
ATOM     41  C   UNL A   1      42.714  23.756  27.985  1.00  0.00    -0.014 A 
BRANCH  41  42
ATOM     42  C   UNL A   1      43.098  25.037  28.680  1.00  0.00     0.031 A 
ATOM     43  C   UNL A   1      42.015  26.088  28.798  1.00  0.00     0.074 A 
ATOM     44  C   UNL A   1      44.319  25.339  29.178  1.00  0.00     0.049 A 
ATOM     45  N   UNL A   1      42.067  27.303  29.287  1.00  0.00    -0.248 NA
ATOM     46  C   UNL A   1      40.694  25.706  28.276  1.00  0.00     0.031 C 
ATOM     47  C   UNL A   1      45.491  24.467  29.192  1.00  0.00     0.029 A 
ATOM     48  N   UNL A   1      44.774  26.505  29.772  1.00  0.00    -0.354 N 
ATOM     49  C   UNL A   1      40.790  27.828  29.119  1.00  0.00     0.074 A 
ATOM     50  C   UNL A   1      40.003  26.819  28.447  1.00  0.00     0.031 C 
ATOM     51  C   UNL A   1      46.525  25.126  29.757  1.00  0.00     0.029 A 
ATOM     52  C   UNL A   1      46.105  26.481  30.129  1.00  0.00     0.049 A 
ATOM     53  H   UNL A   1      44.194  27.286  29.926  1.00  0.00     0.167 HD
ATOM     54  C   UNL A   1      40.291  29.030  29.491  1.00  0.00     0.031 A 
ATOM     55  C   UNL A   1      46.896  27.432  30.679  1.00  0.00     0.031 A 
ATOM     56  C   UNL A   1      41.036  30.072  30.138  1.00  0.00     0.049 A 
ATOM     57  C   UNL A   1      46.341  28.802  31.017  1.00  0.00     0.074 A 
ATOM     58  C   UNL A   1      40.589  31.315  30.557  1.00  0.00     0.029 A 
ATOM     59  N   UNL A   1      42.381  30.004  30.450  1.00  0.00    -0.354 N 
ATOM     60  N   UNL A   1      45.119  29.259  30.896  1.00  0.00    -0.248 NA
ATOM     61  C   UNL A   1      47.285  29.787  31.582  1.00  0.00     0.031 C 
ATOM     62  C   UNL A   1      41.679  32.021  31.076  1.00  0.00     0.029 A 
ATOM     63  C   UNL A   1      42.788  31.193  31.036  1.00  0.00     0.049 A 
ATOM     64  H   UNL A   1      42.962  29.228  30.281  1.00  0.00     0.167 HD
ATOM     65  C   UNL A   1      45.142  30.558  31.401  1.00  0.00     0.074 A 
ATOM     66  C   UNL A   1      46.493  30.816  31.844  1.00  0.00     0.031 C 
ATOM     67  C   UNL A   1      44.128  31.455  31.488  1.00  0.00     0.031 A 
BRANCH  54  68
ATOM     68  C   UNL A   1      38.845  29.284  29.171  1.00  0.00    -0.014 A 
ATOM     69  C   UNL A   1      37.852  29.156  30.157  1.00  0.00     0.009 A 
ATOM     70  C   UNL A   1      38.473  29.642  27.867  1.00  0.00     0.009 A 
ATOM     71  C   UNL A   1      36.509  29.339  29.829  1.00  0.00     0.001 A 
ATOM     72  C   UNL A   1      37.131  29.858  27.552  1.00  0.00     0.001 A 
ATOM     73  C   UNL A   1      36.150  29.693  28.530  1.00  0.00     0.000 A 
ENDBRANCH  54  68
BRANCH  55  74
ATOM     74  C   UNL A   1      48.340  27.165  30.962  1.00  0.00    -0.014 A 
ATOM     75  C   UNL A   1      49.337  27.594  30.069  1.00  0.00     0.009 A 
ATOM     76  C   UNL A   1      48.722  26.390  32.069  1.00  0.00     0.009 A 
ATOM     77  C   UNL A   1      50.674  27.228  30.260  1.00  0.00     0.001 A 
ATOM     78  C   UNL A   1      50.065  26.052  32.274  1.00  0.00     0.001 A 
ATOM     79  C   UNL A   1      51.037  26.462  31.364  1.00  0.00     0.000 A 
ENDBRANCH  55  74
BRANCH  67  80
ATOM     80  C   UNL A   1      44.412  32.787  32.132  1.00  0.00    -0.014 A 
ATOM     81  C   UNL A   1      44.311  32.974  33.520  1.00  0.00     0.009 A 
ATOM     82  C   UNL A   1      44.838  33.866  31.337  1.00  0.00     0.009 A 
ATOM     83  C   UNL A   1      44.592  34.218  34.092  1.00  0.00     0.001 A 
ATOM     84  C   UNL A   1      45.147  35.100  31.914  1.00  0.00     0.001 A 
ATOM     85  C   UNL A   1      45.013  35.279  33.290  1.00  0.00     0.000 A 
ENDBRANCH  67  80
ENDBRANCH  41  42
ENDBRANCH  34  36
ENDBRANCH  33  34
ENDBRANCH  32  33
ENDBRANCH  31  32
ENDBRANCH  30  31
ENDBRANCH   1  30
TORSDOF 21
ENDMDL
