MODEL 1
REMARK VINA RESULT:      -9.6      0.000      0.000
REMARK SMILES Cc1nc(C(=O)N[C@H](CCC(N)=O)C(=O)OCCOCCOC(=O)c2ccc(-c3c4nc(c(-c5ccccc5)c5ccc([nH]5)c(-c5ccccc5)c5nc(c(-c6ccccc6)c6ccc3[nH]6)C=C5)C=C4)cc2)ccc1C#N
REMARK SMILES IDX 18 1 17 2 16 3 14 4 15 5 8 6 7 7 5 8 6 9 4 11 1 12 2 13 3 14
REMARK SMILES IDX 75 15 74 16 73 17 76 18 77 19 9 20 10 21 11 22 12 23 13 24
REMARK SMILES IDX 19 27 20 28 21 29 22 30 23 31 24 32 25 33 26 34 72 35 27 36
REMARK SMILES IDX 71 37 28 38 29 39 30 40 65 41 31 42 70 43 64 44 66 45 32 46
REMARK SMILES IDX 69 47 63 48 62 49 33 51 55 52 40 53 54 54 41 55 44 56 53 57
REMARK SMILES IDX 67 58 42 59 43 60 52 62 68 63 45 64 34 65 35 66 39 67 36 68
REMARK SMILES IDX 38 69 37 70 56 71 57 72 61 73 58 74 60 75 59 76 46 77 47 78
REMARK SMILES IDX 51 79 48 80 50 81 49 82
REMARK H PARENT 7 10 12 25 12 26 66 50 44 61
REMARK Flexibility Score: inf
ROOT
ATOM      1  C   UNL A   1      32.654  30.727  26.967  1.00  0.00     0.202 C 
ENDROOT
BRANCH   1   2
ATOM      2  C   UNL A   1      32.605  29.268  26.483  1.00  0.00     0.261 C 
BRANCH   2   3
ATOM      3  O   UNL A   1      31.502  28.951  25.610  1.00  0.00    -0.462 OA
BRANCH   3   4
ATOM      4  C   UNL A   1      31.833  28.374  24.434  1.00  0.00     0.328 C 
ATOM      5  O   UNL A   1      32.717  28.777  23.687  1.00  0.00    -0.250 OA
BRANCH   4   6
ATOM      6  C   UNL A   1      31.025  27.130  24.080  1.00  0.00     0.193 C 
BRANCH   6   7
ATOM      7  N   UNL A   1      30.623  26.330  25.248  1.00  0.00    -0.337 N 
ATOM      8  C   UNL A   1      31.330  25.393  25.964  1.00  0.00     0.270 C 
ATOM      9  O   UNL A   1      30.869  25.016  27.044  1.00  0.00    -0.267 OA
ATOM     10  H   UNL A   1      29.706  26.491  25.566  1.00  0.00     0.164 HD
BRANCH   8  11
ATOM     11  C   UNL A   1      32.545  24.716  25.414  1.00  0.00     0.128 A 
ATOM     12  C   UNL A   1      33.379  21.454  23.897  1.00  0.00     0.068 C 
ATOM     13  C   UNL A   1      33.556  22.831  24.484  1.00  0.00     0.056 A 
ATOM     14  N   UNL A   1      32.416  23.526  24.778  1.00  0.00    -0.247 NA
ATOM     15  C   UNL A   1      34.831  23.336  24.758  1.00  0.00     0.073 A 
ATOM     16  C   UNL A   1      34.933  24.597  25.349  1.00  0.00     0.024 A 
ATOM     17  C   UNL A   1      33.777  25.297  25.685  1.00  0.00     0.035 A 
BRANCH  15  18
ATOM     18  C   UNL A   1      36.018  22.585  24.489  1.00  0.00     0.101 C 
ATOM     19  N   UNL A   1      36.974  21.962  24.263  1.00  0.00    -0.192 NA
ENDBRANCH  15  18
ENDBRANCH   8  11
ENDBRANCH   6   7
BRANCH   6  20
ATOM     20  C   UNL A   1      31.699  26.186  23.054  1.00  0.00     0.047 C 
BRANCH  20  21
ATOM     21  C   UNL A   1      31.514  26.450  21.558  1.00  0.00     0.102 C 
BRANCH  21  22
ATOM     22  C   UNL A   1      32.421  25.575  20.712  1.00  0.00     0.217 C 
ATOM     23  N   UNL A   1      32.154  25.578  19.379  1.00  0.00    -0.370 N 
ATOM     24  O   UNL A   1      33.342  24.901  21.155  1.00  0.00    -0.275 OA
ATOM     25  H   UNL A   1      31.413  26.121  19.026  1.00  0.00     0.159 HD
ATOM     26  H   UNL A   1      32.702  25.036  18.765  1.00  0.00     0.159 HD
ENDBRANCH  21  22
ENDBRANCH  20  21
ENDBRANCH   6  20
ENDBRANCH   4   6
ENDBRANCH   3   4
ENDBRANCH   2   3
ENDBRANCH   1   2
BRANCH   1  27
ATOM     27  O   UNL A   1      33.699  31.071  27.883  1.00  0.00    -0.374 OA
BRANCH  27  28
ATOM     28  C   UNL A   1      34.017  32.464  27.952  1.00  0.00     0.202 C 
BRANCH  28  29
ATOM     29  C   UNL A   1      34.433  32.997  29.322  1.00  0.00     0.261 C 
BRANCH  29  30
ATOM     30  O   UNL A   1      34.924  31.929  30.146  1.00  0.00    -0.460 OA
BRANCH  30  31
ATOM     31  C   UNL A   1      36.163  32.146  30.645  1.00  0.00     0.338 C 
ATOM     32  O   UNL A   1      36.480  32.949  31.505  1.00  0.00    -0.246 OA
BRANCH  31  33
ATOM     33  C   UNL A   1      37.090  31.117  30.131  1.00  0.00     0.060 A 
ATOM     34  C   UNL A   1      37.728  30.304  31.076  1.00  0.00     0.016 A 
ATOM     35  C   UNL A   1      37.365  30.971  28.770  1.00  0.00     0.016 A 
ATOM     36  C   UNL A   1      38.694  29.388  30.677  1.00  0.00     0.010 A 
ATOM     37  C   UNL A   1      38.340  30.055  28.365  1.00  0.00     0.010 A 
ATOM     38  C   UNL A   1      39.054  29.314  29.327  1.00  0.00    -0.014 A 
BRANCH  38  39
ATOM     39  C   UNL A   1      40.379  28.745  28.985  1.00  0.00     0.031 A 
ATOM     40  C   UNL A   1      41.578  29.648  29.127  1.00  0.00     0.074 A 
ATOM     41  C   UNL A   1      40.547  27.454  28.649  1.00  0.00     0.049 A 
ATOM     42  N   UNL A   1      42.835  29.408  28.861  1.00  0.00    -0.248 NA
ATOM     43  C   UNL A   1      41.323  31.008  29.638  1.00  0.00     0.031 C 
ATOM     44  C   UNL A   1      39.489  26.452  28.560  1.00  0.00     0.029 A 
ATOM     45  N   UNL A   1      41.695  26.770  28.329  1.00  0.00    -0.354 N 
ATOM     46  C   UNL A   1      43.510  30.584  29.158  1.00  0.00     0.074 A 
ATOM     47  C   UNL A   1      42.528  31.552  29.588  1.00  0.00     0.031 C 
ATOM     48  C   UNL A   1      40.039  25.274  28.213  1.00  0.00     0.029 A 
ATOM     49  C   UNL A   1      41.479  25.450  28.024  1.00  0.00     0.049 A 
ATOM     50  H   UNL A   1      42.585  27.187  28.320  1.00  0.00     0.167 HD
ATOM     51  C   UNL A   1      44.835  30.836  29.100  1.00  0.00     0.031 A 
ATOM     52  C   UNL A   1      42.344  24.496  27.625  1.00  0.00     0.031 A 
ATOM     53  C   UNL A   1      45.824  29.877  28.701  1.00  0.00     0.049 A 
ATOM     54  C   UNL A   1      43.807  24.825  27.475  1.00  0.00     0.074 A 
ATOM     55  C   UNL A   1      47.194  30.046  28.623  1.00  0.00     0.029 A 
ATOM     56  N   UNL A   1      45.552  28.573  28.327  1.00  0.00    -0.354 N 
ATOM     57  N   UNL A   1      44.432  25.948  27.738  1.00  0.00    -0.248 NA
ATOM     58  C   UNL A   1      44.682  23.755  26.971  1.00  0.00     0.031 C 
ATOM     59  C   UNL A   1      47.749  28.857  28.145  1.00  0.00     0.029 A 
ATOM     60  C   UNL A   1      46.729  27.934  27.982  1.00  0.00     0.049 A 
ATOM     61  H   UNL A   1      44.657  28.164  28.307  1.00  0.00     0.167 HD
ATOM     62  C   UNL A   1      45.770  25.716  27.444  1.00  0.00     0.074 A 
ATOM     63  C   UNL A   1      45.872  24.342  26.999  1.00  0.00     0.031 C 
ATOM     64  C   UNL A   1      46.819  26.569  27.532  1.00  0.00     0.031 A 
BRANCH  51  65
ATOM     65  C   UNL A   1      45.302  32.212  29.468  1.00  0.00    -0.014 A 
ATOM     66  C   UNL A   1      45.706  32.512  30.778  1.00  0.00     0.009 A 
ATOM     67  C   UNL A   1      45.421  33.193  28.472  1.00  0.00     0.009 A 
ATOM     68  C   UNL A   1      46.219  33.773  31.083  1.00  0.00     0.001 A 
ATOM     69  C   UNL A   1      45.958  34.444  28.775  1.00  0.00     0.001 A 
ATOM     70  C   UNL A   1      46.355  34.733  30.080  1.00  0.00     0.000 A 
ENDBRANCH  51  65
BRANCH  52  71
ATOM     71  C   UNL A   1      41.840  23.130  27.330  1.00  0.00    -0.014 A 
ATOM     72  C   UNL A   1      41.670  22.197  28.362  1.00  0.00     0.009 A 
ATOM     73  C   UNL A   1      41.496  22.766  26.018  1.00  0.00     0.009 A 
ATOM     74  C   UNL A   1      41.163  20.925  28.086  1.00  0.00     0.001 A 
ATOM     75  C   UNL A   1      40.968  21.502  25.751  1.00  0.00     0.001 A 
ATOM     76  C   UNL A   1      40.803  20.582  26.783  1.00  0.00     0.000 A 
ENDBRANCH  52  71
BRANCH  64  77
ATOM     77  C   UNL A   1      48.179  26.067  27.139  1.00  0.00    -0.014 A 
ATOM     78  C   UNL A   1      48.694  26.320  25.859  1.00  0.00     0.009 A 
ATOM     79  C   UNL A   1      48.996  25.439  28.091  1.00  0.00     0.009 A 
ATOM     80  C   UNL A   1      50.000  25.942  25.537  1.00  0.00     0.001 A 
ATOM     81  C   UNL A   1      50.310  25.086  27.775  1.00  0.00     0.001 A 
ATOM     82  C   UNL A   1      50.809  25.335  26.498  1.00  0.00     0.000 A 
ENDBRANCH  64  77
ENDBRANCH  38  39
ENDBRANCH  31  33
ENDBRANCH  30  31
ENDBRANCH  29  30
ENDBRANCH  28  29
ENDBRANCH  27  28
ENDBRANCH   1  27
TORSDOF 20
ENDMDL
MODEL 2
REMARK VINA RESULT:      -9.3      7.327     11.655
REMARK SMILES Cc1nc(C(=O)N[C@H](CCC(N)=O)C(=O)OCCOCCOC(=O)c2ccc(-c3c4nc(c(-c5ccccc5)c5ccc([nH]5)c(-c5ccccc5)c5nc(c(-c6ccccc6)c6ccc3[nH]6)C=C5)C=C4)cc2)ccc1C#N
REMARK SMILES IDX 18 1 17 2 16 3 14 4 15 5 8 6 7 7 5 8 6 9 4 11 1 12 2 13 3 14
REMARK SMILES IDX 75 15 74 16 73 17 76 18 77 19 9 20 10 21 11 22 12 23 13 24
REMARK SMILES IDX 19 27 20 28 21 29 22 30 23 31 24 32 25 33 26 34 72 35 27 36
REMARK SMILES IDX 71 37 28 38 29 39 30 40 65 41 31 42 70 43 64 44 66 45 32 46
REMARK SMILES IDX 69 47 63 48 62 49 33 51 55 52 40 53 54 54 41 55 44 56 53 57
REMARK SMILES IDX 67 58 42 59 43 60 52 62 68 63 45 64 34 65 35 66 39 67 36 68
REMARK SMILES IDX 38 69 37 70 56 71 57 72 61 73 58 74 60 75 59 76 46 77 47 78
REMARK SMILES IDX 51 79 48 80 50 81 49 82
REMARK H PARENT 7 10 12 25 12 26 66 50 44 61
REMARK Flexibility Score: inf
ROOT
ATOM      1  C   UNL A   1      35.364  31.667  27.750  1.00  0.00     0.202 C 
ENDROOT
BRANCH   1   2
ATOM      2  C   UNL A   1      33.917  31.149  27.807  1.00  0.00     0.261 C 
BRANCH   2   3
ATOM      3  O   UNL A   1      33.330  30.834  26.527  1.00  0.00    -0.462 OA
BRANCH   3   4
ATOM      4  C   UNL A   1      32.441  29.818  26.525  1.00  0.00     0.328 C 
ATOM      5  O   UNL A   1      31.954  29.318  27.532  1.00  0.00    -0.250 OA
BRANCH   4   6
ATOM      6  C   UNL A   1      32.045  29.316  25.141  1.00  0.00     0.193 C 
BRANCH   6   7
ATOM      7  N   UNL A   1      33.134  29.372  24.153  1.00  0.00    -0.337 N 
ATOM      8  C   UNL A   1      33.765  28.358  23.472  1.00  0.00     0.270 C 
ATOM      9  O   UNL A   1      34.495  28.659  22.525  1.00  0.00    -0.267 OA
ATOM     10  H   UNL A   1      33.463  30.278  23.949  1.00  0.00     0.164 HD
BRANCH   8  11
ATOM     11  C   UNL A   1      33.712  26.935  23.929  1.00  0.00     0.128 A 
ATOM     12  C   UNL A   1      32.343  23.737  22.687  1.00  0.00     0.068 C 
ATOM     13  C   UNL A   1      32.995  24.739  23.606  1.00  0.00     0.056 A 
ATOM     14  N   UNL A   1      33.236  25.982  23.090  1.00  0.00    -0.247 NA
ATOM     15  C   UNL A   1      33.281  24.413  24.935  1.00  0.00     0.073 A 
ATOM     16  C   UNL A   1      33.838  25.396  25.755  1.00  0.00     0.024 A 
ATOM     17  C   UNL A   1      34.055  26.675  25.249  1.00  0.00     0.035 A 
BRANCH  15  18
ATOM     18  C   UNL A   1      32.985  23.124  25.481  1.00  0.00     0.101 C 
ATOM     19  N   UNL A   1      32.734  22.074  25.912  1.00  0.00    -0.192 NA
ENDBRANCH  15  18
ENDBRANCH   8  11
ENDBRANCH   6   7
BRANCH   6  20
ATOM     20  C   UNL A   1      30.799  30.005  24.529  1.00  0.00     0.047 C 
BRANCH  20  21
ATOM     21  C   UNL A   1      29.848  29.191  23.650  1.00  0.00     0.102 C 
BRANCH  21  22
ATOM     22  C   UNL A   1      30.422  28.951  22.266  1.00  0.00     0.217 C 
ATOM     23  N   UNL A   1      30.730  30.072  21.561  1.00  0.00    -0.370 N 
ATOM     24  O   UNL A   1      30.614  27.844  21.779  1.00  0.00    -0.275 OA
ATOM     25  H   UNL A   1      30.573  30.960  21.955  1.00  0.00     0.159 HD
ATOM     26  H   UNL A   1      31.109  29.996  20.655  1.00  0.00     0.159 HD
ENDBRANCH  21  22
ENDBRANCH  20  21
ENDBRANCH   6  20
ENDBRANCH   4   6
ENDBRANCH   3   4
ENDBRANCH   2   3
ENDBRANCH   1   2
BRANCH   1  27
ATOM     27  O   UNL A   1      35.549  33.083  27.850  1.00  0.00    -0.374 OA
BRANCH  27  28
ATOM     28  C   UNL A   1      35.600  33.600  29.184  1.00  0.00     0.202 C 
BRANCH  28  29
ATOM     29  C   UNL A   1      36.356  32.757  30.209  1.00  0.00     0.261 C 
BRANCH  29  30
ATOM     30  O   UNL A   1      35.434  32.035  31.039  1.00  0.00    -0.460 OA
BRANCH  30  31
ATOM     31  C   UNL A   1      34.833  32.796  31.983  1.00  0.00     0.338 C 
ATOM     32  O   UNL A   1      33.709  33.268  31.942  1.00  0.00    -0.246 OA
BRANCH  31  33
ATOM     33  C   UNL A   1      35.670  32.831  33.198  1.00  0.00     0.060 A 
ATOM     34  C   UNL A   1      35.429  33.867  34.111  1.00  0.00     0.016 A 
ATOM     35  C   UNL A   1      36.691  31.908  33.430  1.00  0.00     0.016 A 
ATOM     36  C   UNL A   1      36.247  34.028  35.223  1.00  0.00     0.010 A 
ATOM     37  C   UNL A   1      37.520  32.070  34.544  1.00  0.00     0.010 A 
ATOM     38  C   UNL A   1      37.340  33.173  35.401  1.00  0.00    -0.014 A 
BRANCH  38  39
ATOM     39  C   UNL A   1      38.461  33.637  36.252  1.00  0.00     0.031 A 
ATOM     40  C   UNL A   1      38.450  33.218  37.700  1.00  0.00     0.074 A 
ATOM     41  C   UNL A   1      39.505  34.327  35.760  1.00  0.00     0.049 A 
ATOM     42  N   UNL A   1      39.289  33.517  38.657  1.00  0.00    -0.248 NA
ATOM     43  C   UNL A   1      37.342  32.343  38.126  1.00  0.00     0.031 C 
ATOM     44  C   UNL A   1      39.685  34.720  34.365  1.00  0.00     0.029 A 
ATOM     45  N   UNL A   1      40.622  34.807  36.398  1.00  0.00    -0.354 N 
ATOM     46  C   UNL A   1      38.803  32.881  39.791  1.00  0.00     0.074 A 
ATOM     47  C   UNL A   1      37.578  32.211  39.421  1.00  0.00     0.031 C 
ATOM     48  C   UNL A   1      40.852  35.380  34.251  1.00  0.00     0.029 A 
ATOM     49  C   UNL A   1      41.481  35.482  35.568  1.00  0.00     0.049 A 
ATOM     50  H   UNL A   1      40.790  34.678  37.359  1.00  0.00     0.167 HD
ATOM     51  C   UNL A   1      39.336  32.838  41.031  1.00  0.00     0.031 A 
ATOM     52  C   UNL A   1      42.635  36.121  35.844  1.00  0.00     0.031 A 
ATOM     53  C   UNL A   1      40.565  33.476  41.405  1.00  0.00     0.049 A 
ATOM     54  C   UNL A   1      43.164  36.142  37.254  1.00  0.00     0.074 A 
ATOM     55  C   UNL A   1      41.184  33.476  42.641  1.00  0.00     0.029 A 
ATOM     56  N   UNL A   1      41.362  34.215  40.550  1.00  0.00    -0.354 N 
ATOM     57  N   UNL A   1      42.683  35.555  38.324  1.00  0.00    -0.248 NA
ATOM     58  C   UNL A   1      44.393  36.914  37.494  1.00  0.00     0.031 C 
ATOM     59  C   UNL A   1      42.333  34.264  42.549  1.00  0.00     0.029 A 
ATOM     60  C   UNL A   1      42.455  34.705  41.241  1.00  0.00     0.049 A 
ATOM     61  H   UNL A   1      41.178  34.369  39.594  1.00  0.00     0.167 HD
ATOM     62  C   UNL A   1      43.555  35.877  39.358  1.00  0.00     0.074 A 
ATOM     63  C   UNL A   1      44.604  36.695  38.786  1.00  0.00     0.031 C 
ATOM     64  C   UNL A   1      43.488  35.526  40.665  1.00  0.00     0.031 A 
BRANCH  51  65
ATOM     65  C   UNL A   1      38.589  32.081  42.087  1.00  0.00    -0.014 A 
ATOM     66  C   UNL A   1      37.587  32.700  42.850  1.00  0.00     0.009 A 
ATOM     67  C   UNL A   1      38.833  30.710  42.260  1.00  0.00     0.009 A 
ATOM     68  C   UNL A   1      36.844  31.959  43.768  1.00  0.00     0.001 A 
ATOM     69  C   UNL A   1      38.071  29.966  43.160  1.00  0.00     0.001 A 
ATOM     70  C   UNL A   1      37.078  30.590  43.914  1.00  0.00     0.000 A 
ENDBRANCH  51  65
BRANCH  52  71
ATOM     71  C   UNL A   1      43.369  36.806  34.748  1.00  0.00    -0.014 A 
ATOM     72  C   UNL A   1      43.096  38.145  34.438  1.00  0.00     0.009 A 
ATOM     73  C   UNL A   1      44.370  36.130  34.031  1.00  0.00     0.009 A 
ATOM     74  C   UNL A   1      43.813  38.796  33.431  1.00  0.00     0.001 A 
ATOM     75  C   UNL A   1      45.099  36.791  33.041  1.00  0.00     0.001 A 
ATOM     76  C   UNL A   1      44.820  38.122  32.740  1.00  0.00     0.000 A 
ENDBRANCH  52  71
BRANCH  64  77
ATOM     77  C   UNL A   1      44.564  36.020  41.590  1.00  0.00    -0.014 A 
ATOM     78  C   UNL A   1      44.397  37.211  42.312  1.00  0.00     0.009 A 
ATOM     79  C   UNL A   1      45.700  35.231  41.828  1.00  0.00     0.009 A 
ATOM     80  C   UNL A   1      45.355  37.607  43.248  1.00  0.00     0.001 A 
ATOM     81  C   UNL A   1      46.642  35.616  42.783  1.00  0.00     0.001 A 
ATOM     82  C   UNL A   1      46.471  36.805  43.489  1.00  0.00     0.000 A 
ENDBRANCH  64  77
ENDBRANCH  38  39
ENDBRANCH  31  33
ENDBRANCH  30  31
ENDBRANCH  29  30
ENDBRANCH  28  29
ENDBRANCH  27  28
ENDBRANCH   1  27
TORSDOF 20
ENDMDL
MODEL 3
REMARK VINA RESULT:      -9.2      2.967      7.676
REMARK SMILES Cc1nc(C(=O)N[C@H](CCC(N)=O)C(=O)OCCOCCOC(=O)c2ccc(-c3c4nc(c(-c5ccccc5)c5ccc([nH]5)c(-c5ccccc5)c5nc(c(-c6ccccc6)c6ccc3[nH]6)C=C5)C=C4)cc2)ccc1C#N
REMARK SMILES IDX 18 1 17 2 16 3 14 4 15 5 8 6 7 7 5 8 6 9 4 11 1 12 2 13 3 14
REMARK SMILES IDX 75 15 74 16 73 17 76 18 77 19 9 20 10 21 11 22 12 23 13 24
REMARK SMILES IDX 19 27 20 28 21 29 22 30 23 31 24 32 25 33 26 34 72 35 27 36
REMARK SMILES IDX 71 37 28 38 29 39 30 40 65 41 31 42 70 43 64 44 66 45 32 46
REMARK SMILES IDX 69 47 63 48 62 49 33 51 55 52 40 53 54 54 41 55 44 56 53 57
REMARK SMILES IDX 67 58 42 59 43 60 52 62 68 63 45 64 34 65 35 66 39 67 36 68
REMARK SMILES IDX 38 69 37 70 56 71 57 72 61 73 58 74 60 75 59 76 46 77 47 78
REMARK SMILES IDX 51 79 48 80 50 81 49 82
REMARK H PARENT 7 10 12 25 12 26 66 50 44 61
REMARK Flexibility Score: inf
ROOT
ATOM      1  C   UNL A   1      34.214  26.121  25.694  1.00  0.00     0.202 C 
ENDROOT
BRANCH   1   2
ATOM      2  C   UNL A   1      32.712  26.201  26.010  1.00  0.00     0.261 C 
BRANCH   2   3
ATOM      3  O   UNL A   1      31.967  27.139  25.206  1.00  0.00    -0.462 OA
BRANCH   3   4
ATOM      4  C   UNL A   1      30.791  26.688  24.719  1.00  0.00     0.328 C 
ATOM      5  O   UNL A   1      29.857  26.297  25.410  1.00  0.00    -0.250 OA
BRANCH   4   6
ATOM      6  C   UNL A   1      30.675  26.712  23.199  1.00  0.00     0.193 C 
BRANCH   6   7
ATOM      7  N   UNL A   1      31.966  26.601  22.502  1.00  0.00    -0.337 N 
ATOM      8  C   UNL A   1      32.662  25.484  22.101  1.00  0.00     0.270 C 
ATOM      9  O   UNL A   1      33.614  25.637  21.332  1.00  0.00    -0.267 OA
ATOM     10  H   UNL A   1      32.399  27.459  22.291  1.00  0.00     0.164 HD
BRANCH   8  11
ATOM     11  C   UNL A   1      32.399  24.129  22.677  1.00  0.00     0.128 A 
ATOM     12  C   UNL A   1      30.741  22.727  25.664  1.00  0.00     0.068 C 
ATOM     13  C   UNL A   1      31.545  22.798  24.390  1.00  0.00     0.056 A 
ATOM     14  N   UNL A   1      31.589  24.009  23.757  1.00  0.00    -0.247 NA
ATOM     15  C   UNL A   1      32.248  21.683  23.924  1.00  0.00     0.073 A 
ATOM     16  C   UNL A   1      33.017  21.821  22.766  1.00  0.00     0.024 A 
ATOM     17  C   UNL A   1      33.098  23.058  22.134  1.00  0.00     0.035 A 
BRANCH  15  18
ATOM     18  C   UNL A   1      32.232  20.431  24.615  1.00  0.00     0.101 C 
ATOM     19  N   UNL A   1      32.202  19.413  25.175  1.00  0.00    -0.192 NA
ENDBRANCH  15  18
ENDBRANCH   8  11
ENDBRANCH   6   7
BRANCH   6  20
ATOM     20  C   UNL A   1      29.916  27.933  22.622  1.00  0.00     0.047 C 
BRANCH  20  21
ATOM     21  C   UNL A   1      29.257  28.927  23.579  1.00  0.00     0.102 C 
BRANCH  21  22
ATOM     22  C   UNL A   1      28.546  30.044  22.836  1.00  0.00     0.217 C 
ATOM     23  N   UNL A   1      27.572  29.642  21.976  1.00  0.00    -0.370 N 
ATOM     24  O   UNL A   1      28.796  31.234  22.973  1.00  0.00    -0.275 OA
ATOM     25  H   UNL A   1      27.375  28.684  21.869  1.00  0.00     0.159 HD
ATOM     26  H   UNL A   1      27.065  30.310  21.460  1.00  0.00     0.159 HD
ENDBRANCH  21  22
ENDBRANCH  20  21
ENDBRANCH   6  20
ENDBRANCH   4   6
ENDBRANCH   3   4
ENDBRANCH   2   3
ENDBRANCH   1   2
BRANCH   1  27
ATOM     27  O   UNL A   1      34.670  24.955  25.001  1.00  0.00    -0.374 OA
BRANCH  27  28
ATOM     28  C   UNL A   1      34.733  23.761  25.787  1.00  0.00     0.202 C 
BRANCH  28  29
ATOM     29  C   UNL A   1      36.079  23.039  25.816  1.00  0.00     0.261 C 
BRANCH  29  30
ATOM     30  O   UNL A   1      37.156  23.989  25.809  1.00  0.00    -0.460 OA
BRANCH  30  31
ATOM     31  C   UNL A   1      38.357  23.459  26.132  1.00  0.00     0.338 C 
ATOM     32  O   UNL A   1      38.795  22.371  25.799  1.00  0.00    -0.246 OA
BRANCH  31  33
ATOM     33  C   UNL A   1      39.182  24.478  26.810  1.00  0.00     0.060 A 
ATOM     34  C   UNL A   1      38.992  24.638  28.190  1.00  0.00     0.016 A 
ATOM     35  C   UNL A   1      40.087  25.288  26.122  1.00  0.00     0.016 A 
ATOM     36  C   UNL A   1      39.653  25.650  28.877  1.00  0.00     0.010 A 
ATOM     37  C   UNL A   1      40.749  26.310  26.809  1.00  0.00     0.010 A 
ATOM     38  C   UNL A   1      40.476  26.535  28.172  1.00  0.00    -0.014 A 
BRANCH  38  39
ATOM     39  C   UNL A   1      40.754  27.861  28.772  1.00  0.00     0.031 A 
ATOM     40  C   UNL A   1      42.176  28.151  29.181  1.00  0.00     0.074 A 
ATOM     41  C   UNL A   1      39.818  28.819  28.876  1.00  0.00     0.049 A 
ATOM     42  N   UNL A   1      42.674  29.214  29.756  1.00  0.00    -0.248 NA
ATOM     43  C   UNL A   1      43.171  27.098  28.902  1.00  0.00     0.031 C 
ATOM     44  C   UNL A   1      38.429  28.704  28.440  1.00  0.00     0.029 A 
ATOM     45  N   UNL A   1      39.914  30.094  29.379  1.00  0.00    -0.354 N 
ATOM     46  C   UNL A   1      44.028  28.949  29.918  1.00  0.00     0.074 A 
ATOM     47  C   UNL A   1      44.273  27.616  29.419  1.00  0.00     0.031 C 
ATOM     48  C   UNL A   1      37.801  29.867  28.690  1.00  0.00     0.029 A 
ATOM     49  C   UNL A   1      38.734  30.793  29.332  1.00  0.00     0.049 A 
ATOM     50  H   UNL A   1      40.749  30.469  29.738  1.00  0.00     0.167 HD
ATOM     51  C   UNL A   1      44.992  29.751  30.420  1.00  0.00     0.031 A 
ATOM     52  C   UNL A   1      38.439  32.032  29.771  1.00  0.00     0.031 A 
ATOM     53  C   UNL A   1      44.768  31.086  30.893  1.00  0.00     0.049 A 
ATOM     54  C   UNL A   1      39.508  32.876  30.414  1.00  0.00     0.074 A 
ATOM     55  C   UNL A   1      45.693  31.974  31.411  1.00  0.00     0.029 A 
ATOM     56  N   UNL A   1      43.541  31.725  30.899  1.00  0.00    -0.354 N 
ATOM     57  N   UNL A   1      40.781  32.607  30.583  1.00  0.00    -0.248 NA
ATOM     58  C   UNL A   1      39.100  34.191  30.930  1.00  0.00     0.031 C 
ATOM     59  C   UNL A   1      45.014  33.136  31.782  1.00  0.00     0.029 A 
ATOM     60  C   UNL A   1      43.679  32.989  31.443  1.00  0.00     0.049 A 
ATOM     61  H   UNL A   1      42.698  31.339  30.566  1.00  0.00     0.167 HD
ATOM     62  C   UNL A   1      41.325  33.721  31.211  1.00  0.00     0.074 A 
ATOM     63  C   UNL A   1      40.251  34.677  31.378  1.00  0.00     0.031 C 
ATOM     64  C   UNL A   1      42.602  33.929  31.614  1.00  0.00     0.031 A 
BRANCH  51  65
ATOM     65  C   UNL A   1      46.386  29.206  30.494  1.00  0.00    -0.014 A 
ATOM     66  C   UNL A   1      46.838  28.527  31.635  1.00  0.00     0.009 A 
ATOM     67  C   UNL A   1      47.226  29.298  29.373  1.00  0.00     0.009 A 
ATOM     68  C   UNL A   1      48.109  27.951  31.653  1.00  0.00     0.001 A 
ATOM     69  C   UNL A   1      48.486  28.700  29.386  1.00  0.00     0.001 A 
ATOM     70  C   UNL A   1      48.927  28.028  30.525  1.00  0.00     0.000 A 
ENDBRANCH  51  65
BRANCH  52  71
ATOM     71  C   UNL A   1      37.054  32.550  29.619  1.00  0.00    -0.014 A 
ATOM     72  C   UNL A   1      36.100  32.333  30.623  1.00  0.00     0.009 A 
ATOM     73  C   UNL A   1      36.692  33.291  28.483  1.00  0.00     0.009 A 
ATOM     74  C   UNL A   1      34.809  32.851  30.493  1.00  0.00     0.001 A 
ATOM     75  C   UNL A   1      35.408  33.827  28.367  1.00  0.00     0.001 A 
ATOM     76  C   UNL A   1      34.467  33.605  29.370  1.00  0.00     0.000 A 
ENDBRANCH  52  71
BRANCH  64  77
ATOM     77  C   UNL A   1      42.932  35.232  32.286  1.00  0.00    -0.014 A 
ATOM     78  C   UNL A   1      42.814  35.371  33.677  1.00  0.00     0.009 A 
ATOM     79  C   UNL A   1      43.473  36.289  31.538  1.00  0.00     0.009 A 
ATOM     80  C   UNL A   1      43.223  36.549  34.304  1.00  0.00     0.001 A 
ATOM     81  C   UNL A   1      43.906  37.456  32.171  1.00  0.00     0.001 A 
ATOM     82  C   UNL A   1      43.777  37.586  33.553  1.00  0.00     0.000 A 
ENDBRANCH  64  77
ENDBRANCH  38  39
ENDBRANCH  31  33
ENDBRANCH  30  31
ENDBRANCH  29  30
ENDBRANCH  28  29
ENDBRANCH  27  28
ENDBRANCH   1  27
TORSDOF 20
ENDMDL
