MODEL 1
REMARK VINA RESULT:     -10.3      0.000      0.000
REMARK SMILES Cc1c(Cl)cccc1S(=O)(=O)N[C@H]1C=C[C@@H](C(=O)OCCOCCOC(=O)c2ccc(-c3c4nc(c(-c5ccccc5)c5ccc([nH]5)c(-c5ccccc5)c5nc(c(-c6ccccc6)c6ccc3[nH]6)C=C5)C=C4)cc2)C1
REMARK SMILES IDX 21 1 20 2 19 3 17 4 18 5 16 6 13 7 14 8 76 9 15 10 12 11
REMARK SMILES IDX 9 13 10 14 11 15 8 16 1 17 2 18 3 19 4 20 5 21 7 22 6 23
REMARK SMILES IDX 22 24 23 25 24 26 25 27 26 28 27 29 28 30 29 31 75 32 30 33
REMARK SMILES IDX 74 34 31 35 32 36 33 37 68 38 34 39 73 40 67 41 69 42 35 43
REMARK SMILES IDX 72 44 66 45 65 46 36 48 58 49 43 50 57 51 44 52 47 53 56 54
REMARK SMILES IDX 70 55 45 56 46 57 55 59 71 60 48 61 37 62 38 63 42 64 39 65
REMARK SMILES IDX 41 66 40 67 59 68 60 69 64 70 61 71 63 72 62 73 49 74 50 75
REMARK SMILES IDX 54 76 51 77 53 78 52 79
REMARK H PARENT 12 12 69 47 47 58
REMARK Flexibility Score: inf
ROOT
ATOM      1  C   UNL A   1      40.942  20.989  27.266  1.00  0.00     0.202 C 
ENDROOT
BRANCH   1   2
ATOM      2  C   UNL A   1      40.132  21.403  26.025  1.00  0.00     0.261 C 
BRANCH   2   3
ATOM      3  O   UNL A   1      38.715  21.142  26.049  1.00  0.00    -0.463 OA
BRANCH   3   4
ATOM      4  C   UNL A   1      37.938  22.223  25.754  1.00  0.00     0.312 C 
ATOM      5  O   UNL A   1      38.129  23.353  26.199  1.00  0.00    -0.252 OA
BRANCH   4   6
ATOM      6  C   UNL A   1      36.712  21.911  24.899  1.00  0.00     0.123 C 
ATOM      7  C   UNL A   1      34.793  23.170  23.965  1.00  0.00     0.093 C 
ATOM      8  C   UNL A   1      35.918  23.026  22.989  1.00  0.00    -0.011 C 
ATOM      9  C   UNL A   1      35.359  22.543  25.253  1.00  0.00     0.043 C 
ATOM     10  C   UNL A   1      36.957  22.353  23.490  1.00  0.00    -0.015 C 
BRANCH   7  11
ATOM     11  N   UNL A   1      34.543  24.597  24.118  1.00  0.00    -0.204 NA
ATOM     12  H   UNL A   1      34.335  24.751  25.104  1.00  0.00     0.142 HD
BRANCH  11  13
ATOM     13  S   UNL A   1      33.329  25.363  23.249  1.00  0.00     0.241 S 
ATOM     14  O   UNL A   1      32.168  24.511  23.251  1.00  0.00    -0.207 OA
ATOM     15  O   UNL A   1      33.950  25.805  22.014  1.00  0.00    -0.207 OA
BRANCH  13  16
ATOM     16  C   UNL A   1      32.924  26.853  24.151  1.00  0.00     0.086 A 
ATOM     17  C   UNL A   1      32.249  25.563  26.218  1.00  0.00     0.047 C 
ATOM     18  C   UNL A   1      32.438  26.850  25.474  1.00  0.00    -0.012 A 
ATOM     19  C   UNL A   1      32.160  28.106  26.060  1.00  0.00     0.045 A 
ATOM     20  Cl  UNL A   1      31.506  28.316  27.642  1.00  0.00    -0.084 Cl
ATOM     21  C   UNL A   1      32.416  29.304  25.386  1.00  0.00     0.021 A 
ATOM     22  C   UNL A   1      33.189  28.065  23.486  1.00  0.00     0.022 A 
ATOM     23  C   UNL A   1      32.947  29.286  24.107  1.00  0.00     0.003 A 
ENDBRANCH  13  16
ENDBRANCH  11  13
ENDBRANCH   7  11
ENDBRANCH   4   6
ENDBRANCH   3   4
ENDBRANCH   2   3
ENDBRANCH   1   2
BRANCH   1  24
ATOM     24  O   UNL A   1      41.997  20.051  27.132  1.00  0.00    -0.374 OA
BRANCH  24  25
ATOM     25  C   UNL A   1      42.707  20.010  25.905  1.00  0.00     0.202 C 
BRANCH  25  26
ATOM     26  C   UNL A   1      43.689  21.137  25.561  1.00  0.00     0.261 C 
BRANCH  26  27
ATOM     27  O   UNL A   1      43.668  22.292  26.422  1.00  0.00    -0.460 OA
BRANCH  27  28
ATOM     28  C   UNL A   1      43.553  23.485  25.773  1.00  0.00     0.338 C 
ATOM     29  O   UNL A   1      43.816  23.714  24.605  1.00  0.00    -0.246 OA
BRANCH  28  30
ATOM     30  C   UNL A   1      42.967  24.518  26.654  1.00  0.00     0.060 A 
ATOM     31  C   UNL A   1      43.467  25.818  26.588  1.00  0.00     0.016 A 
ATOM     32  C   UNL A   1      42.034  24.194  27.641  1.00  0.00     0.016 A 
ATOM     33  C   UNL A   1      43.041  26.770  27.519  1.00  0.00     0.010 A 
ATOM     34  C   UNL A   1      41.531  25.164  28.503  1.00  0.00     0.010 A 
ATOM     35  C   UNL A   1      42.075  26.447  28.490  1.00  0.00    -0.014 A 
BRANCH  35  36
ATOM     36  C   UNL A   1      41.695  27.426  29.537  1.00  0.00     0.031 A 
ATOM     37  C   UNL A   1      40.455  28.269  29.382  1.00  0.00     0.074 A 
ATOM     38  C   UNL A   1      42.464  27.547  30.633  1.00  0.00     0.049 A 
ATOM     39  N   UNL A   1      39.903  29.086  30.243  1.00  0.00    -0.248 NA
ATOM     40  C   UNL A   1      39.750  28.200  28.091  1.00  0.00     0.031 C 
ATOM     41  C   UNL A   1      43.720  26.832  30.866  1.00  0.00     0.029 A 
ATOM     42  N   UNL A   1      42.290  28.301  31.765  1.00  0.00    -0.354 N 
ATOM     43  C   UNL A   1      38.792  29.621  29.602  1.00  0.00     0.074 A 
ATOM     44  C   UNL A   1      38.780  29.088  28.260  1.00  0.00     0.031 C 
ATOM     45  C   UNL A   1      44.176  27.140  32.091  1.00  0.00     0.029 A 
ATOM     46  C   UNL A   1      43.261  28.092  32.714  1.00  0.00     0.049 A 
ATOM     47  H   UNL A   1      41.543  28.930  31.886  1.00  0.00     0.167 HD
ATOM     48  C   UNL A   1      37.849  30.461  30.093  1.00  0.00     0.031 A 
ATOM     49  C   UNL A   1      43.387  28.596  33.954  1.00  0.00     0.031 A 
ATOM     50  C   UNL A   1      37.863  30.993  31.430  1.00  0.00     0.049 A 
ATOM     51  C   UNL A   1      42.328  29.523  34.479  1.00  0.00     0.074 A 
ATOM     52  C   UNL A   1      36.929  31.808  32.044  1.00  0.00     0.029 A 
ATOM     53  N   UNL A   1      38.870  30.767  32.355  1.00  0.00    -0.354 N 
ATOM     54  N   UNL A   1      41.234  29.943  33.892  1.00  0.00    -0.248 NA
ATOM     55  C   UNL A   1      42.513  30.027  35.845  1.00  0.00     0.031 C 
ATOM     56  C   UNL A   1      37.398  32.117  33.326  1.00  0.00     0.029 A 
ATOM     57  C   UNL A   1      38.594  31.447  33.528  1.00  0.00     0.049 A 
ATOM     58  H   UNL A   1      39.664  30.206  32.200  1.00  0.00     0.167 HD
ATOM     59  C   UNL A   1      40.588  30.743  34.825  1.00  0.00     0.074 A 
ATOM     60  C   UNL A   1      41.403  30.729  36.023  1.00  0.00     0.031 C 
ATOM     61  C   UNL A   1      39.423  31.428  34.705  1.00  0.00     0.031 A 
BRANCH  48  62
ATOM     62  C   UNL A   1      36.722  30.856  29.177  1.00  0.00    -0.014 A 
ATOM     63  C   UNL A   1      35.730  29.932  28.804  1.00  0.00     0.009 A 
ATOM     64  C   UNL A   1      36.625  32.176  28.712  1.00  0.00     0.009 A 
ATOM     65  C   UNL A   1      34.686  30.316  27.959  1.00  0.00     0.001 A 
ATOM     66  C   UNL A   1      35.565  32.564  27.891  1.00  0.00     0.001 A 
ATOM     67  C   UNL A   1      34.601  31.631  27.507  1.00  0.00     0.000 A 
ENDBRANCH  48  62
BRANCH  49  68
ATOM     68  C   UNL A   1      44.546  28.202  34.797  1.00  0.00    -0.014 A 
ATOM     69  C   UNL A   1      44.473  27.077  35.631  1.00  0.00     0.009 A 
ATOM     70  C   UNL A   1      45.734  28.947  34.762  1.00  0.00     0.009 A 
ATOM     71  C   UNL A   1      45.560  26.722  36.434  1.00  0.00     0.001 A 
ATOM     72  C   UNL A   1      46.829  28.573  35.544  1.00  0.00     0.001 A 
ATOM     73  C   UNL A   1      46.738  27.466  36.386  1.00  0.00     0.000 A 
ENDBRANCH  49  68
BRANCH  61  74
ATOM     74  C   UNL A   1      38.956  32.196  35.908  1.00  0.00    -0.014 A 
ATOM     75  C   UNL A   1      38.121  31.608  36.870  1.00  0.00     0.009 A 
ATOM     76  C   UNL A   1      39.381  33.522  36.094  1.00  0.00     0.009 A 
ATOM     77  C   UNL A   1      37.686  32.345  37.973  1.00  0.00     0.001 A 
ATOM     78  C   UNL A   1      38.969  34.246  37.213  1.00  0.00     0.001 A 
ATOM     79  C   UNL A   1      38.113  33.661  38.144  1.00  0.00     0.000 A 
ENDBRANCH  61  74
ENDBRANCH  35  36
ENDBRANCH  28  30
ENDBRANCH  27  28
ENDBRANCH  26  27
ENDBRANCH  25  26
ENDBRANCH  24  25
ENDBRANCH   1  24
TORSDOF 17
ENDMDL
MODEL 2
REMARK VINA RESULT:     -10.2      2.825      8.191
REMARK SMILES Cc1c(Cl)cccc1S(=O)(=O)N[C@H]1C=C[C@@H](C(=O)OCCOCCOC(=O)c2ccc(-c3c4nc(c(-c5ccccc5)c5ccc([nH]5)c(-c5ccccc5)c5nc(c(-c6ccccc6)c6ccc3[nH]6)C=C5)C=C4)cc2)C1
REMARK SMILES IDX 21 1 20 2 19 3 17 4 18 5 16 6 13 7 14 8 76 9 15 10 12 11
REMARK SMILES IDX 9 13 10 14 11 15 8 16 1 17 2 18 3 19 4 20 5 21 7 22 6 23
REMARK SMILES IDX 22 24 23 25 24 26 25 27 26 28 27 29 28 30 29 31 75 32 30 33
REMARK SMILES IDX 74 34 31 35 32 36 33 37 68 38 34 39 73 40 67 41 69 42 35 43
REMARK SMILES IDX 72 44 66 45 65 46 36 48 58 49 43 50 57 51 44 52 47 53 56 54
REMARK SMILES IDX 70 55 45 56 46 57 55 59 71 60 48 61 37 62 38 63 42 64 39 65
REMARK SMILES IDX 41 66 40 67 59 68 60 69 64 70 61 71 63 72 62 73 49 74 50 75
REMARK SMILES IDX 54 76 51 77 53 78 52 79
REMARK H PARENT 12 12 69 47 47 58
REMARK Flexibility Score: inf
ROOT
ATOM      1  C   UNL A   1      33.961  28.208  24.556  1.00  0.00     0.202 C 
ENDROOT
BRANCH   1   2
ATOM      2  C   UNL A   1      33.597  27.551  23.213  1.00  0.00     0.261 C 
BRANCH   2   3
ATOM      3  O   UNL A   1      33.681  26.115  23.141  1.00  0.00    -0.463 OA
BRANCH   3   4
ATOM      4  C   UNL A   1      33.175  25.576  21.995  1.00  0.00     0.312 C 
ATOM      5  O   UNL A   1      33.350  26.050  20.875  1.00  0.00    -0.252 OA
BRANCH   4   6
ATOM      6  C   UNL A   1      32.256  24.376  22.209  1.00  0.00     0.123 C 
ATOM      7  C   UNL A   1      32.016  22.560  23.878  1.00  0.00     0.093 C 
ATOM      8  C   UNL A   1      31.110  23.718  24.152  1.00  0.00    -0.011 C 
ATOM      9  C   UNL A   1      32.851  23.040  22.675  1.00  0.00     0.043 C 
ATOM     10  C   UNL A   1      31.240  24.702  23.258  1.00  0.00    -0.015 C 
BRANCH   7  11
ATOM     11  N   UNL A   1      32.836  22.370  25.067  1.00  0.00    -0.204 NA
ATOM     12  H   UNL A   1      33.562  23.085  25.036  1.00  0.00     0.142 HD
BRANCH  11  13
ATOM     13  S   UNL A   1      33.614  20.912  25.359  1.00  0.00     0.241 S 
ATOM     14  O   UNL A   1      33.329  20.022  24.264  1.00  0.00    -0.207 OA
ATOM     15  O   UNL A   1      33.292  20.564  26.732  1.00  0.00    -0.207 OA
BRANCH  13  16
ATOM     16  C   UNL A   1      35.368  21.264  25.346  1.00  0.00     0.086 A 
ATOM     17  C   UNL A   1      35.035  23.572  26.322  1.00  0.00     0.047 C 
ATOM     18  C   UNL A   1      35.917  22.484  25.788  1.00  0.00    -0.012 A 
ATOM     19  C   UNL A   1      37.322  22.621  25.717  1.00  0.00     0.045 A 
ATOM     20  Cl  UNL A   1      38.181  24.051  26.152  1.00  0.00    -0.084 Cl
ATOM     21  C   UNL A   1      38.141  21.571  25.292  1.00  0.00     0.021 A 
ATOM     22  C   UNL A   1      36.203  20.209  24.932  1.00  0.00     0.022 A 
ATOM     23  C   UNL A   1      37.585  20.359  24.917  1.00  0.00     0.003 A 
ENDBRANCH  13  16
ENDBRANCH  11  13
ENDBRANCH   7  11
ENDBRANCH   4   6
ENDBRANCH   3   4
ENDBRANCH   2   3
ENDBRANCH   1   2
BRANCH   1  24
ATOM     24  O   UNL A   1      32.930  28.610  25.442  1.00  0.00    -0.374 OA
BRANCH  24  25
ATOM     25  C   UNL A   1      32.002  29.585  24.993  1.00  0.00     0.202 C 
BRANCH  25  26
ATOM     26  C   UNL A   1      31.603  30.736  25.927  1.00  0.00     0.261 C 
BRANCH  26  27
ATOM     27  O   UNL A   1      32.280  30.795  27.198  1.00  0.00    -0.460 OA
BRANCH  27  28
ATOM     28  C   UNL A   1      33.105  31.869  27.355  1.00  0.00     0.338 C 
ATOM     29  O   UNL A   1      32.813  33.045  27.217  1.00  0.00    -0.246 OA
BRANCH  28  30
ATOM     30  C   UNL A   1      34.445  31.450  27.816  1.00  0.00     0.060 A 
ATOM     31  C   UNL A   1      34.668  30.101  28.092  1.00  0.00     0.016 A 
ATOM     32  C   UNL A   1      35.440  32.381  28.116  1.00  0.00     0.016 A 
ATOM     33  C   UNL A   1      35.873  29.706  28.680  1.00  0.00     0.010 A 
ATOM     34  C   UNL A   1      36.680  31.980  28.603  1.00  0.00     0.010 A 
ATOM     35  C   UNL A   1      36.887  30.645  28.948  1.00  0.00    -0.014 A 
BRANCH  35  36
ATOM     36  C   UNL A   1      38.124  30.243  29.658  1.00  0.00     0.031 A 
ATOM     37  C   UNL A   1      38.339  30.629  31.100  1.00  0.00     0.074 A 
ATOM     38  C   UNL A   1      39.051  29.519  29.005  1.00  0.00     0.049 A 
ATOM     39  N   UNL A   1      39.299  30.267  31.914  1.00  0.00    -0.248 NA
ATOM     40  C   UNL A   1      37.363  31.553  31.703  1.00  0.00     0.031 C 
ATOM     41  C   UNL A   1      38.984  29.139  27.594  1.00  0.00     0.029 A 
ATOM     42  N   UNL A   1      40.220  28.958  29.450  1.00  0.00    -0.354 N 
ATOM     43  C   UNL A   1      39.039  30.912  33.118  1.00  0.00     0.074 A 
ATOM     44  C   UNL A   1      37.872  31.737  32.913  1.00  0.00     0.031 C 
ATOM     45  C   UNL A   1      40.038  28.361  27.301  1.00  0.00     0.029 A 
ATOM     46  C   UNL A   1      40.864  28.212  28.495  1.00  0.00     0.049 A 
ATOM     47  H   UNL A   1      40.563  29.079  30.365  1.00  0.00     0.167 HD
ATOM     48  C   UNL A   1      39.697  30.807  34.297  1.00  0.00     0.031 A 
ATOM     49  C   UNL A   1      41.985  27.473  28.578  1.00  0.00     0.031 A 
ATOM     50  C   UNL A   1      40.862  29.987  34.498  1.00  0.00     0.049 A 
ATOM     51  C   UNL A   1      42.697  27.370  29.897  1.00  0.00     0.074 A 
ATOM     52  C   UNL A   1      41.572  29.768  35.665  1.00  0.00     0.029 A 
ATOM     53  N   UNL A   1      41.490  29.256  33.502  1.00  0.00    -0.354 N 
ATOM     54  N   UNL A   1      42.383  27.910  31.049  1.00  0.00    -0.248 NA
ATOM     55  C   UNL A   1      43.906  26.537  29.928  1.00  0.00     0.031 C 
ATOM     56  C   UNL A   1      42.663  28.945  35.363  1.00  0.00     0.029 A 
ATOM     57  C   UNL A   1      42.596  28.606  34.021  1.00  0.00     0.049 A 
ATOM     58  H   UNL A   1      41.194  29.208  32.565  1.00  0.00     0.167 HD
ATOM     59  C   UNL A   1      43.342  27.464  31.949  1.00  0.00     0.074 A 
ATOM     60  C   UNL A   1      44.234  26.591  31.212  1.00  0.00     0.031 C 
ATOM     61  C   UNL A   1      43.476  27.750  33.268  1.00  0.00     0.031 A 
BRANCH  48  62
ATOM     62  C   UNL A   1      39.171  31.602  35.462  1.00  0.00    -0.014 A 
ATOM     63  C   UNL A   1      38.211  31.063  36.336  1.00  0.00     0.009 A 
ATOM     64  C   UNL A   1      39.669  32.889  35.715  1.00  0.00     0.009 A 
ATOM     65  C   UNL A   1      37.737  31.810  37.417  1.00  0.00     0.001 A 
ATOM     66  C   UNL A   1      39.214  33.623  36.813  1.00  0.00     0.001 A 
ATOM     67  C   UNL A   1      38.242  33.087  37.657  1.00  0.00     0.000 A 
ENDBRANCH  48  62
BRANCH  49  68
ATOM     68  C   UNL A   1      42.481  26.745  27.381  1.00  0.00    -0.014 A 
ATOM     69  C   UNL A   1      42.083  25.423  27.133  1.00  0.00     0.009 A 
ATOM     70  C   UNL A   1      43.349  27.375  26.476  1.00  0.00     0.009 A 
ATOM     71  C   UNL A   1      42.566  24.738  26.016  1.00  0.00     0.001 A 
ATOM     72  C   UNL A   1      43.806  26.697  25.344  1.00  0.00     0.001 A 
ATOM     73  C   UNL A   1      43.422  25.377  25.120  1.00  0.00     0.000 A 
ENDBRANCH  49  68
BRANCH  61  74
ATOM     74  C   UNL A   1      44.612  27.091  33.997  1.00  0.00    -0.014 A 
ATOM     75  C   UNL A   1      45.864  27.712  34.110  1.00  0.00     0.009 A 
ATOM     76  C   UNL A   1      44.416  25.839  34.602  1.00  0.00     0.009 A 
ATOM     77  C   UNL A   1      46.911  27.075  34.779  1.00  0.00     0.001 A 
ATOM     78  C   UNL A   1      45.454  25.218  35.296  1.00  0.00     0.001 A 
ATOM     79  C   UNL A   1      46.704  25.831  35.374  1.00  0.00     0.000 A 
ENDBRANCH  61  74
ENDBRANCH  35  36
ENDBRANCH  28  30
ENDBRANCH  27  28
ENDBRANCH  26  27
ENDBRANCH  25  26
ENDBRANCH  24  25
ENDBRANCH   1  24
TORSDOF 17
ENDMDL
MODEL 3
REMARK VINA RESULT:     -10.2      2.160      3.020
REMARK SMILES Cc1c(Cl)cccc1S(=O)(=O)N[C@H]1C=C[C@@H](C(=O)OCCOCCOC(=O)c2ccc(-c3c4nc(c(-c5ccccc5)c5ccc([nH]5)c(-c5ccccc5)c5nc(c(-c6ccccc6)c6ccc3[nH]6)C=C5)C=C4)cc2)C1
REMARK SMILES IDX 21 1 20 2 19 3 17 4 18 5 16 6 13 7 14 8 76 9 15 10 12 11
REMARK SMILES IDX 9 13 10 14 11 15 8 16 1 17 2 18 3 19 4 20 5 21 7 22 6 23
REMARK SMILES IDX 22 24 23 25 24 26 25 27 26 28 27 29 28 30 29 31 75 32 30 33
REMARK SMILES IDX 74 34 31 35 32 36 33 37 68 38 34 39 73 40 67 41 69 42 35 43
REMARK SMILES IDX 72 44 66 45 65 46 36 48 58 49 43 50 57 51 44 52 47 53 56 54
REMARK SMILES IDX 70 55 45 56 46 57 55 59 71 60 48 61 37 62 38 63 42 64 39 65
REMARK SMILES IDX 41 66 40 67 59 68 60 69 64 70 61 71 63 72 62 73 49 74 50 75
REMARK SMILES IDX 54 76 51 77 53 78 52 79
REMARK H PARENT 12 12 69 47 47 58
REMARK Flexibility Score: inf
ROOT
ATOM      1  C   UNL A   1      43.276  19.287  25.349  1.00  0.00     0.202 C 
ENDROOT
BRANCH   1   2
ATOM      2  C   UNL A   1      42.345  19.941  26.385  1.00  0.00     0.261 C 
BRANCH   2   3
ATOM      3  O   UNL A   1      40.953  20.058  26.035  1.00  0.00    -0.463 OA
BRANCH   3   4
ATOM      4  C   UNL A   1      40.302  21.089  26.647  1.00  0.00     0.312 C 
ATOM      5  O   UNL A   1      40.355  21.320  27.853  1.00  0.00    -0.252 OA
BRANCH   4   6
ATOM      6  C   UNL A   1      39.387  21.896  25.730  1.00  0.00     0.123 C 
ATOM      7  C   UNL A   1      36.953  22.310  25.519  1.00  0.00     0.093 C 
ATOM      8  C   UNL A   1      37.653  23.375  26.302  1.00  0.00    -0.011 C 
ATOM      9  C   UNL A   1      38.066  21.281  25.245  1.00  0.00     0.043 C 
ATOM     10  C   UNL A   1      38.964  23.153  26.423  1.00  0.00    -0.015 C 
BRANCH   7  11
ATOM     11  N   UNL A   1      35.909  21.766  26.378  1.00  0.00    -0.204 NA
ATOM     12  H   UNL A   1      35.787  20.792  26.105  1.00  0.00     0.142 HD
BRANCH  11  13
ATOM     13  S   UNL A   1      34.375  22.447  26.415  1.00  0.00     0.241 S 
ATOM     14  O   UNL A   1      34.517  23.880  26.374  1.00  0.00    -0.207 OA
ATOM     15  O   UNL A   1      33.676  21.779  27.497  1.00  0.00    -0.207 OA
BRANCH  13  16
ATOM     16  C   UNL A   1      33.555  21.928  24.912  1.00  0.00     0.086 A 
ATOM     17  C   UNL A   1      33.498  19.507  25.638  1.00  0.00     0.047 C 
ATOM     18  C   UNL A   1      33.207  20.589  24.643  1.00  0.00    -0.012 A 
ATOM     19  C   UNL A   1      32.563  20.327  23.411  1.00  0.00     0.045 A 
ATOM     20  Cl  UNL A   1      32.109  18.755  22.869  1.00  0.00    -0.084 Cl
ATOM     21  C   UNL A   1      32.225  21.355  22.526  1.00  0.00     0.021 A 
ATOM     22  C   UNL A   1      33.199  22.957  24.020  1.00  0.00     0.022 A 
ATOM     23  C   UNL A   1      32.526  22.671  22.837  1.00  0.00     0.003 A 
ENDBRANCH  13  16
ENDBRANCH  11  13
ENDBRANCH   7  11
ENDBRANCH   4   6
ENDBRANCH   3   4
ENDBRANCH   2   3
ENDBRANCH   1   2
BRANCH   1  24
ATOM     24  O   UNL A   1      44.667  19.557  25.387  1.00  0.00    -0.374 OA
BRANCH  24  25
ATOM     25  C   UNL A   1      45.121  20.809  24.896  1.00  0.00     0.202 C 
BRANCH  25  26
ATOM     26  C   UNL A   1      45.366  21.963  25.877  1.00  0.00     0.261 C 
BRANCH  26  27
ATOM     27  O   UNL A   1      44.981  23.278  25.430  1.00  0.00    -0.460 OA
BRANCH  27  28
ATOM     28  C   UNL A   1      43.653  23.422  25.160  1.00  0.00     0.338 C 
ATOM     29  O   UNL A   1      43.006  22.826  24.316  1.00  0.00    -0.246 OA
BRANCH  28  30
ATOM     30  C   UNL A   1      43.016  24.369  26.100  1.00  0.00     0.060 A 
ATOM     31  C   UNL A   1      43.086  25.734  25.826  1.00  0.00     0.016 A 
ATOM     32  C   UNL A   1      42.479  23.943  27.316  1.00  0.00     0.016 A 
ATOM     33  C   UNL A   1      42.633  26.653  26.778  1.00  0.00     0.010 A 
ATOM     34  C   UNL A   1      41.934  24.849  28.220  1.00  0.00     0.010 A 
ATOM     35  C   UNL A   1      42.061  26.217  27.987  1.00  0.00    -0.014 A 
BRANCH  35  36
ATOM     36  C   UNL A   1      41.671  27.189  29.035  1.00  0.00     0.031 A 
ATOM     37  C   UNL A   1      40.378  27.958  28.923  1.00  0.00     0.074 A 
ATOM     38  C   UNL A   1      42.477  27.371  30.096  1.00  0.00     0.049 A 
ATOM     39  N   UNL A   1      39.818  28.757  29.797  1.00  0.00    -0.248 NA
ATOM     40  C   UNL A   1      39.625  27.830  27.665  1.00  0.00     0.031 C 
ATOM     41  C   UNL A   1      43.780  26.732  30.284  1.00  0.00     0.029 A 
ATOM     42  N   UNL A   1      42.309  28.132  31.224  1.00  0.00    -0.354 N 
ATOM     43  C   UNL A   1      38.652  29.218  29.197  1.00  0.00     0.074 A 
ATOM     44  C   UNL A   1      38.614  28.664  27.864  1.00  0.00     0.031 C 
ATOM     45  C   UNL A   1      44.270  27.085  31.483  1.00  0.00     0.029 A 
ATOM     46  C   UNL A   1      43.329  27.993  32.132  1.00  0.00     0.049 A 
ATOM     47  H   UNL A   1      41.533  28.720  31.368  1.00  0.00     0.167 HD
ATOM     48  C   UNL A   1      37.684  30.011  29.717  1.00  0.00     0.031 A 
ATOM     49  C   UNL A   1      43.480  28.523  33.359  1.00  0.00     0.031 A 
ATOM     50  C   UNL A   1      37.726  30.564  31.044  1.00  0.00     0.049 A 
ATOM     51  C   UNL A   1      42.392  29.397  33.917  1.00  0.00     0.074 A 
ATOM     52  C   UNL A   1      36.773  31.335  31.688  1.00  0.00     0.029 A 
ATOM     53  N   UNL A   1      38.782  30.410  31.928  1.00  0.00    -0.354 N 
ATOM     54  N   UNL A   1      41.252  29.746  33.373  1.00  0.00    -0.248 NA
ATOM     55  C   UNL A   1      42.607  29.933  35.267  1.00  0.00     0.031 C 
ATOM     56  C   UNL A   1      37.278  31.691  32.944  1.00  0.00     0.029 A 
ATOM     57  C   UNL A   1      38.518  31.093  33.102  1.00  0.00     0.049 A 
ATOM     58  H   UNL A   1      39.599  29.892  31.747  1.00  0.00     0.167 HD
ATOM     59  C   UNL A   1      40.601  30.523  34.322  1.00  0.00     0.074 A 
ATOM     60  C   UNL A   1      41.466  30.574  35.484  1.00  0.00     0.031 C 
ATOM     61  C   UNL A   1      39.396  31.139  34.243  1.00  0.00     0.031 A 
BRANCH  48  62
ATOM     62  C   UNL A   1      36.499  30.327  28.846  1.00  0.00    -0.014 A 
ATOM     63  C   UNL A   1      35.750  29.305  28.237  1.00  0.00     0.009 A 
ATOM     64  C   UNL A   1      36.099  31.660  28.661  1.00  0.00     0.009 A 
ATOM     65  C   UNL A   1      34.648  29.613  27.437  1.00  0.00     0.001 A 
ATOM     66  C   UNL A   1      34.979  31.963  27.883  1.00  0.00     0.001 A 
ATOM     67  C   UNL A   1      34.261  30.941  27.264  1.00  0.00     0.000 A 
ENDBRANCH  48  62
BRANCH  49  68
ATOM     68  C   UNL A   1      44.693  28.209  34.156  1.00  0.00    -0.014 A 
ATOM     69  C   UNL A   1      44.738  27.068  34.970  1.00  0.00     0.009 A 
ATOM     70  C   UNL A   1      45.817  29.047  34.097  1.00  0.00     0.009 A 
ATOM     71  C   UNL A   1      45.877  26.787  35.731  1.00  0.00     0.001 A 
ATOM     72  C   UNL A   1      46.964  28.749  34.836  1.00  0.00     0.001 A 
ATOM     73  C   UNL A   1      46.989  27.624  35.659  1.00  0.00     0.000 A 
ENDBRANCH  49  68
BRANCH  61  74
ATOM     74  C   UNL A   1      38.937  31.899  35.455  1.00  0.00    -0.014 A 
ATOM     75  C   UNL A   1      39.165  33.277  35.581  1.00  0.00     0.009 A 
ATOM     76  C   UNL A   1      38.243  31.227  36.474  1.00  0.00     0.009 A 
ATOM     77  C   UNL A   1      38.744  33.961  36.723  1.00  0.00     0.001 A 
ATOM     78  C   UNL A   1      37.797  31.918  37.599  1.00  0.00     0.001 A 
ATOM     79  C   UNL A   1      38.058  33.281  37.729  1.00  0.00     0.000 A 
ENDBRANCH  61  74
ENDBRANCH  35  36
ENDBRANCH  28  30
ENDBRANCH  27  28
ENDBRANCH  26  27
ENDBRANCH  25  26
ENDBRANCH  24  25
ENDBRANCH   1  24
TORSDOF 17
ENDMDL
