MODEL 1
REMARK VINA RESULT:     -12.6      0.000      0.000
REMARK SMILES Cc1cccc(C(=O)Nc2cc(C(=O)OCCOCCOC(=O)c3ccc(-c4c5nc(c(-c6ccccc6)c6ccc([nH]6)c(-c6ccccc6)c6nc(c(-c7ccccc7)c7ccc4[nH]7)C=C6)C=C5)cc3)ccc2N2CC[NH+](CC(=O)NC(C)(C)C)CC2)c1
REMARK SMILES IDX 17 1 16 2 15 3 13 4 14 5 12 6 10 7 11 8 74 9 73 10 72 11
REMARK SMILES IDX 9 12 7 13 8 14 6 16 1 17 2 18 3 19 89 20 4 21 5 22 75 23
REMARK SMILES IDX 76 24 88 25 77 26 87 27 78 28 79 30 80 31 81 32 82 33 83 35
REMARK SMILES IDX 84 36 85 37 86 38 18 39 19 40 20 41 21 42 22 43 23 44 24 45
REMARK SMILES IDX 25 46 71 47 26 48 70 49 27 50 28 51 29 52 64 53 30 54 69 55
REMARK SMILES IDX 63 56 65 57 31 58 68 59 62 60 61 61 32 63 54 64 39 65 53 66
REMARK SMILES IDX 40 67 43 68 52 69 66 70 41 71 42 72 51 74 67 75 44 76 33 77
REMARK SMILES IDX 34 78 38 79 35 80 37 81 36 82 55 83 56 84 60 85 57 86 59 87
REMARK SMILES IDX 58 88 45 89 46 90 50 91 47 92 49 93 48 94
REMARK H PARENT 9 15 78 29 82 34 65 62 43 73
REMARK Flexibility Score: inf
ROOT
ATOM      1  C   UNL A   1      34.496  32.525  28.495  1.00  0.00     0.202 C 
ENDROOT
BRANCH   1   2
ATOM      2  C   UNL A   1      34.017  31.121  28.273  1.00  0.00     0.261 C 
BRANCH   2   3
ATOM      3  O   UNL A   1      33.475  30.976  26.975  1.00  0.00    -0.460 OA
BRANCH   3   4
ATOM      4  C   UNL A   1      32.142  30.868  26.778  1.00  0.00     0.338 C 
ATOM      5  O   UNL A   1      31.289  31.722  26.725  1.00  0.00    -0.246 OA
BRANCH   4   6
ATOM      6  C   UNL A   1      31.978  29.425  26.526  1.00  0.00     0.062 A 
ATOM      7  C   UNL A   1      31.679  27.701  24.893  1.00  0.00     0.065 A 
ATOM      8  C   UNL A   1      31.802  29.020  25.202  1.00  0.00     0.044 A 
ATOM      9  C   UNL A   1      31.572  26.733  25.925  1.00  0.00     0.061 A 
ATOM     10  C   UNL A   1      31.739  27.151  27.257  1.00  0.00     0.029 A 
ATOM     11  C   UNL A   1      31.982  28.495  27.560  1.00  0.00     0.018 A 
BRANCH   7  12
ATOM     12  N   UNL A   1      31.823  27.357  23.532  1.00  0.00    -0.320 N 
ATOM     13  C   UNL A   1      30.941  27.616  22.476  1.00  0.00     0.255 C 
ATOM     14  O   UNL A   1      31.226  27.164  21.364  1.00  0.00    -0.269 OA
ATOM     15  H   UNL A   1      32.647  26.875  23.296  1.00  0.00     0.170 HD
BRANCH  13  16
ATOM     16  C   UNL A   1      29.731  28.526  22.577  1.00  0.00     0.040 A 
ATOM     17  C   UNL A   1      28.794  32.197  22.466  1.00  0.00     0.044 C 
ATOM     18  C   UNL A   1      28.610  30.705  22.448  1.00  0.00    -0.050 A 
ATOM     19  C   UNL A   1      27.405  30.121  22.844  1.00  0.00     0.003 A 
ATOM     20  C   UNL A   1      29.727  29.886  22.234  1.00  0.00     0.017 A 
ATOM     21  C   UNL A   1      27.353  28.751  23.100  1.00  0.00     0.001 A 
ATOM     22  C   UNL A   1      28.509  27.966  22.982  1.00  0.00     0.014 A 
ENDBRANCH  13  16
ENDBRANCH   7  12
BRANCH   9  23
ATOM     23  N   UNL A   1      31.566  25.394  25.577  1.00  0.00    -0.359 N 
ATOM     24  C   UNL A   1      30.654  24.356  26.077  1.00  0.00     0.178 C 
ATOM     25  C   UNL A   1      32.925  24.894  25.476  1.00  0.00     0.178 C 
ATOM     26  C   UNL A   1      30.831  23.062  25.202  1.00  0.00     0.284 C 
ATOM     27  C   UNL A   1      32.949  23.840  24.380  1.00  0.00     0.284 C 
ATOM     28  N   UNL A   1      32.205  22.654  24.790  1.00  0.00    -0.324 N 
ATOM     29  H   UNL A   1      32.071  22.017  24.004  1.00  0.00     0.348 HD
BRANCH  28  30
ATOM     30  C   UNL A   1      32.973  21.781  25.710  1.00  0.00     0.363 C 
BRANCH  30  31
ATOM     31  C   UNL A   1      34.254  21.124  25.181  1.00  0.00     0.275 C 
ATOM     32  O   UNL A   1      35.298  21.793  25.136  1.00  0.00    -0.268 OA
ATOM     33  N   UNL A   1      34.362  19.842  24.717  1.00  0.00    -0.347 N 
ATOM     34  H   UNL A   1      35.308  19.639  24.532  1.00  0.00     0.164 HD
BRANCH  33  35
ATOM     35  C   UNL A   1      33.524  18.643  24.394  1.00  0.00     0.032 C 
ATOM     36  C   UNL A   1      34.369  17.381  24.145  1.00  0.00     0.034 C 
ATOM     37  C   UNL A   1      32.723  18.312  25.672  1.00  0.00     0.034 C 
ATOM     38  C   UNL A   1      32.532  18.834  23.249  1.00  0.00     0.034 C 
ENDBRANCH  33  35
ENDBRANCH  30  31
ENDBRANCH  28  30
ENDBRANCH   9  23
ENDBRANCH   4   6
ENDBRANCH   3   4
ENDBRANCH   2   3
ENDBRANCH   1   2
BRANCH   1  39
ATOM     39  O   UNL A   1      35.885  32.480  28.211  1.00  0.00    -0.374 OA
BRANCH  39  40
ATOM     40  C   UNL A   1      36.753  32.524  29.318  1.00  0.00     0.202 C 
BRANCH  40  41
ATOM     41  C   UNL A   1      38.123  31.956  28.949  1.00  0.00     0.261 C 
BRANCH  41  42
ATOM     42  O   UNL A   1      38.368  30.772  29.749  1.00  0.00    -0.460 OA
BRANCH  42  43
ATOM     43  C   UNL A   1      37.640  29.661  29.435  1.00  0.00     0.338 C 
ATOM     44  O   UNL A   1      36.513  29.423  29.841  1.00  0.00    -0.246 OA
BRANCH  43  45
ATOM     45  C   UNL A   1      38.509  28.627  28.775  1.00  0.00     0.060 A 
ATOM     46  C   UNL A   1      39.022  27.550  29.530  1.00  0.00     0.016 A 
ATOM     47  C   UNL A   1      39.084  28.926  27.546  1.00  0.00     0.016 A 
ATOM     48  C   UNL A   1      40.202  26.886  29.132  1.00  0.00     0.010 A 
ATOM     49  C   UNL A   1      40.298  28.344  27.216  1.00  0.00     0.010 A 
ATOM     50  C   UNL A   1      40.905  27.348  28.015  1.00  0.00    -0.014 A 
BRANCH  50  51
ATOM     51  C   UNL A   1      42.358  27.157  27.752  1.00  0.00     0.031 A 
ATOM     52  C   UNL A   1      43.313  28.270  27.993  1.00  0.00     0.074 A 
ATOM     53  C   UNL A   1      42.878  25.913  27.825  1.00  0.00     0.049 A 
ATOM     54  N   UNL A   1      44.588  28.153  28.150  1.00  0.00    -0.248 NA
ATOM     55  C   UNL A   1      42.868  29.652  28.018  1.00  0.00     0.031 C 
ATOM     56  C   UNL A   1      44.047  25.549  28.636  1.00  0.00     0.029 A 
ATOM     57  N   UNL A   1      42.388  24.688  27.432  1.00  0.00    -0.354 N 
ATOM     58  C   UNL A   1      45.104  29.375  28.503  1.00  0.00     0.074 A 
ATOM     59  C   UNL A   1      43.989  30.283  28.370  1.00  0.00     0.031 C 
ATOM     60  C   UNL A   1      44.196  24.225  28.590  1.00  0.00     0.029 A 
ATOM     61  C   UNL A   1      43.332  23.687  27.601  1.00  0.00     0.049 A 
ATOM     62  H   UNL A   1      41.481  24.541  27.078  1.00  0.00     0.167 HD
ATOM     63  C   UNL A   1      46.412  29.473  28.881  1.00  0.00     0.031 A 
ATOM     64  C   UNL A   1      43.759  22.846  26.628  1.00  0.00     0.031 A 
ATOM     65  C   UNL A   1      47.180  28.227  28.627  1.00  0.00     0.049 A 
ATOM     66  C   UNL A   1      45.101  23.338  26.072  1.00  0.00     0.074 A 
ATOM     67  C   UNL A   1      48.071  27.435  29.332  1.00  0.00     0.029 A 
ATOM     68  N   UNL A   1      46.971  27.539  27.424  1.00  0.00    -0.354 N 
ATOM     69  N   UNL A   1      45.883  24.231  26.648  1.00  0.00    -0.248 NA
ATOM     70  C   UNL A   1      45.643  22.915  24.787  1.00  0.00     0.031 C 
ATOM     71  C   UNL A   1      48.416  26.304  28.518  1.00  0.00     0.029 A 
ATOM     72  C   UNL A   1      47.703  26.370  27.334  1.00  0.00     0.049 A 
ATOM     73  H   UNL A   1      46.365  27.856  26.716  1.00  0.00     0.167 HD
ATOM     74  C   UNL A   1      46.891  24.619  25.799  1.00  0.00     0.074 A 
ATOM     75  C   UNL A   1      46.699  23.739  24.651  1.00  0.00     0.031 C 
ATOM     76  C   UNL A   1      47.767  25.651  26.053  1.00  0.00     0.031 A 
BRANCH  63  77
ATOM     77  C   UNL A   1      47.006  30.729  29.521  1.00  0.00    -0.014 A 
ATOM     78  C   UNL A   1      48.177  31.315  29.007  1.00  0.00     0.009 A 
ATOM     79  C   UNL A   1      46.494  31.365  30.673  1.00  0.00     0.009 A 
ATOM     80  C   UNL A   1      48.783  32.440  29.600  1.00  0.00     0.001 A 
ATOM     81  C   UNL A   1      47.066  32.509  31.252  1.00  0.00     0.001 A 
ATOM     82  C   UNL A   1      48.222  33.043  30.720  1.00  0.00     0.000 A 
ENDBRANCH  63  77
BRANCH  64  83
ATOM     83  C   UNL A   1      42.571  22.127  26.051  1.00  0.00    -0.014 A 
ATOM     84  C   UNL A   1      42.870  20.776  25.722  1.00  0.00     0.009 A 
ATOM     85  C   UNL A   1      41.300  22.392  26.590  1.00  0.00     0.009 A 
ATOM     86  C   UNL A   1      42.112  19.727  26.259  1.00  0.00     0.001 A 
ATOM     87  C   UNL A   1      40.536  21.331  27.120  1.00  0.00     0.001 A 
ATOM     88  C   UNL A   1      40.983  20.012  27.021  1.00  0.00     0.000 A 
ENDBRANCH  64  83
BRANCH  76  89
ATOM     89  C   UNL A   1      48.778  26.191  25.049  1.00  0.00    -0.014 A 
ATOM     90  C   UNL A   1      48.455  26.734  23.802  1.00  0.00     0.009 A 
ATOM     91  C   UNL A   1      50.162  26.118  25.350  1.00  0.00     0.009 A 
ATOM     92  C   UNL A   1      49.436  27.310  22.979  1.00  0.00     0.001 A 
ATOM     93  C   UNL A   1      51.147  26.652  24.517  1.00  0.00     0.001 A 
ATOM     94  C   UNL A   1      50.778  27.284  23.344  1.00  0.00     0.000 A 
ENDBRANCH  76  89
ENDBRANCH  50  51
ENDBRANCH  43  45
ENDBRANCH  42  43
ENDBRANCH  41  42
ENDBRANCH  40  41
ENDBRANCH  39  40
ENDBRANCH   1  39
TORSDOF 20
ENDMDL
MODEL 2
REMARK VINA RESULT:     -12.2      3.214      6.815
REMARK SMILES Cc1cccc(C(=O)Nc2cc(C(=O)OCCOCCOC(=O)c3ccc(-c4c5nc(c(-c6ccccc6)c6ccc([nH]6)c(-c6ccccc6)c6nc(c(-c7ccccc7)c7ccc4[nH]7)C=C6)C=C5)cc3)ccc2N2CC[NH+](CC(=O)NC(C)(C)C)CC2)c1
REMARK SMILES IDX 17 1 16 2 15 3 13 4 14 5 12 6 10 7 11 8 74 9 73 10 72 11
REMARK SMILES IDX 9 12 7 13 8 14 6 16 1 17 2 18 3 19 89 20 4 21 5 22 75 23
REMARK SMILES IDX 76 24 88 25 77 26 87 27 78 28 79 30 80 31 81 32 82 33 83 35
REMARK SMILES IDX 84 36 85 37 86 38 18 39 19 40 20 41 21 42 22 43 23 44 24 45
REMARK SMILES IDX 25 46 71 47 26 48 70 49 27 50 28 51 29 52 64 53 30 54 69 55
REMARK SMILES IDX 63 56 65 57 31 58 68 59 62 60 61 61 32 63 54 64 39 65 53 66
REMARK SMILES IDX 40 67 43 68 52 69 66 70 41 71 42 72 51 74 67 75 44 76 33 77
REMARK SMILES IDX 34 78 38 79 35 80 37 81 36 82 55 83 56 84 60 85 57 86 59 87
REMARK SMILES IDX 58 88 45 89 46 90 50 91 47 92 49 93 48 94
REMARK H PARENT 9 15 78 29 82 34 65 62 43 73
REMARK Flexibility Score: inf
ROOT
ATOM      1  C   UNL A   1      33.324  32.120  28.499  1.00  0.00     0.202 C 
ENDROOT
BRANCH   1   2
ATOM      2  C   UNL A   1      34.142  31.219  27.623  1.00  0.00     0.261 C 
BRANCH   2   3
ATOM      3  O   UNL A   1      33.423  30.865  26.458  1.00  0.00    -0.460 OA
BRANCH   3   4
ATOM      4  C   UNL A   1      32.092  30.632  26.498  1.00  0.00     0.338 C 
ATOM      5  O   UNL A   1      31.166  31.404  26.573  1.00  0.00    -0.246 OA
BRANCH   4   6
ATOM      6  C   UNL A   1      32.024  29.172  26.312  1.00  0.00     0.062 A 
ATOM      7  C   UNL A   1      31.734  27.362  24.771  1.00  0.00     0.065 A 
ATOM      8  C   UNL A   1      31.776  28.699  25.021  1.00  0.00     0.044 A 
ATOM      9  C   UNL A   1      31.787  26.433  25.842  1.00  0.00     0.061 A 
ATOM     10  C   UNL A   1      32.025  26.918  27.140  1.00  0.00     0.029 A 
ATOM     11  C   UNL A   1      32.183  28.288  27.374  1.00  0.00     0.018 A 
BRANCH   7  12
ATOM     12  N   UNL A   1      31.797  26.973  23.416  1.00  0.00    -0.320 N 
ATOM     13  C   UNL A   1      30.888  27.259  22.391  1.00  0.00     0.255 C 
ATOM     14  O   UNL A   1      31.095  26.761  21.282  1.00  0.00    -0.269 OA
ATOM     15  H   UNL A   1      32.579  26.433  23.160  1.00  0.00     0.170 HD
BRANCH  13  16
ATOM     16  C   UNL A   1      29.743  28.247  22.515  1.00  0.00     0.040 A 
ATOM     17  C   UNL A   1      28.970  31.928  22.054  1.00  0.00     0.044 C 
ATOM     18  C   UNL A   1      28.717  30.459  22.244  1.00  0.00    -0.050 A 
ATOM     19  C   UNL A   1      27.543  30.001  22.847  1.00  0.00     0.003 A 
ATOM     20  C   UNL A   1      29.760  29.554  22.007  1.00  0.00     0.017 A 
ATOM     21  C   UNL A   1      27.459  28.677  23.277  1.00  0.00     0.001 A 
ATOM     22  C   UNL A   1      28.554  27.814  23.126  1.00  0.00     0.014 A 
ENDBRANCH  13  16
ENDBRANCH   7  12
BRANCH   9  23
ATOM     23  N   UNL A   1      31.859  25.084  25.545  1.00  0.00    -0.359 N 
ATOM     24  C   UNL A   1      31.031  24.009  26.107  1.00  0.00     0.178 C 
ATOM     25  C   UNL A   1      33.245  24.669  25.424  1.00  0.00     0.178 C 
ATOM     26  C   UNL A   1      31.270  22.697  25.276  1.00  0.00     0.284 C 
ATOM     27  C   UNL A   1      33.311  23.578  24.367  1.00  0.00     0.284 C 
ATOM     28  N   UNL A   1      32.657  22.362  24.841  1.00  0.00    -0.324 N 
ATOM     29  H   UNL A   1      32.544  21.688  24.083  1.00  0.00     0.348 HD
BRANCH  28  30
ATOM     30  C   UNL A   1      33.504  21.577  25.770  1.00  0.00     0.363 C 
BRANCH  30  31
ATOM     31  C   UNL A   1      34.608  20.697  25.173  1.00  0.00     0.275 C 
ATOM     32  O   UNL A   1      35.745  21.173  25.032  1.00  0.00    -0.268 OA
ATOM     33  N   UNL A   1      34.458  19.407  24.743  1.00  0.00    -0.347 N 
ATOM     34  H   UNL A   1      35.337  19.039  24.498  1.00  0.00     0.164 HD
BRANCH  33  35
ATOM     35  C   UNL A   1      33.403  18.366  24.519  1.00  0.00     0.032 C 
ATOM     36  C   UNL A   1      32.520  18.674  23.297  1.00  0.00     0.034 C 
ATOM     37  C   UNL A   1      34.145  17.070  24.128  1.00  0.00     0.034 C 
ATOM     38  C   UNL A   1      32.524  18.063  25.730  1.00  0.00     0.034 C 
ENDBRANCH  33  35
ENDBRANCH  30  31
ENDBRANCH  28  30
ENDBRANCH   9  23
ENDBRANCH   4   6
ENDBRANCH   3   4
ENDBRANCH   2   3
ENDBRANCH   1   2
BRANCH   1  39
ATOM     39  O   UNL A   1      33.664  33.433  28.081  1.00  0.00    -0.374 OA
BRANCH  39  40
ATOM     40  C   UNL A   1      33.701  34.420  29.084  1.00  0.00     0.202 C 
BRANCH  40  41
ATOM     41  C   UNL A   1      35.104  35.013  29.201  1.00  0.00     0.261 C 
BRANCH  41  42
ATOM     42  O   UNL A   1      36.070  33.931  29.193  1.00  0.00    -0.460 OA
BRANCH  42  43
ATOM     43  C   UNL A   1      36.204  33.224  30.353  1.00  0.00     0.338 C 
ATOM     44  O   UNL A   1      36.120  33.697  31.476  1.00  0.00    -0.246 OA
BRANCH  43  45
ATOM     45  C   UNL A   1      36.766  31.858  30.080  1.00  0.00     0.060 A 
ATOM     46  C   UNL A   1      36.446  30.779  30.932  1.00  0.00     0.016 A 
ATOM     47  C   UNL A   1      37.857  31.745  29.226  1.00  0.00     0.016 A 
ATOM     48  C   UNL A   1      37.308  29.667  31.044  1.00  0.00     0.010 A 
ATOM     49  C   UNL A   1      38.751  30.703  29.417  1.00  0.00     0.010 A 
ATOM     50  C   UNL A   1      38.524  29.669  30.354  1.00  0.00    -0.014 A 
BRANCH  50  51
ATOM     51  C   UNL A   1      39.745  28.902  30.725  1.00  0.00     0.031 A 
ATOM     52  C   UNL A   1      40.209  27.779  29.871  1.00  0.00     0.074 A 
ATOM     53  C   UNL A   1      40.698  29.508  31.466  1.00  0.00     0.049 A 
ATOM     54  N   UNL A   1      41.396  27.273  29.863  1.00  0.00    -0.248 NA
ATOM     55  C   UNL A   1      39.300  27.091  28.970  1.00  0.00     0.031 C 
ATOM     56  C   UNL A   1      42.119  29.566  31.100  1.00  0.00     0.029 A 
ATOM     57  N   UNL A   1      40.620  30.385  32.523  1.00  0.00    -0.354 N 
ATOM     58  C   UNL A   1      41.483  26.364  28.839  1.00  0.00     0.074 A 
ATOM     59  C   UNL A   1      40.133  26.264  28.337  1.00  0.00     0.031 C 
ATOM     60  C   UNL A   1      42.746  30.357  31.972  1.00  0.00     0.029 A 
ATOM     61  C   UNL A   1      41.873  30.655  33.050  1.00  0.00     0.049 A 
ATOM     62  H   UNL A   1      39.781  30.772  32.862  1.00  0.00     0.167 HD
ATOM     63  C   UNL A   1      42.692  25.812  28.526  1.00  0.00     0.031 A 
ATOM     64  C   UNL A   1      42.225  30.492  34.349  1.00  0.00     0.031 A 
ATOM     65  C   UNL A   1      43.743  26.119  29.529  1.00  0.00     0.049 A 
ATOM     66  C   UNL A   1      42.984  29.169  34.516  1.00  0.00     0.074 A 
ATOM     67  C   UNL A   1      45.058  26.556  29.506  1.00  0.00     0.029 A 
ATOM     68  N   UNL A   1      43.413  26.064  30.890  1.00  0.00    -0.354 N 
ATOM     69  N   UNL A   1      43.503  28.459  33.534  1.00  0.00    -0.248 NA
ATOM     70  C   UNL A   1      43.161  28.502  35.799  1.00  0.00     0.031 C 
ATOM     71  C   UNL A   1      45.508  26.714  30.860  1.00  0.00     0.029 A 
ATOM     72  C   UNL A   1      44.461  26.424  31.717  1.00  0.00     0.049 A 
ATOM     73  H   UNL A   1      42.525  25.797  31.223  1.00  0.00     0.167 HD
ATOM     74  C   UNL A   1      43.915  27.228  33.983  1.00  0.00     0.074 A 
ATOM     75  C   UNL A   1      43.692  27.323  35.423  1.00  0.00     0.031 C 
ATOM     76  C   UNL A   1      44.347  26.207  33.167  1.00  0.00     0.031 A 
BRANCH  63  77
ATOM     77  C   UNL A   1      42.933  24.989  27.259  1.00  0.00    -0.014 A 
ATOM     78  C   UNL A   1      42.454  23.670  27.154  1.00  0.00     0.009 A 
ATOM     79  C   UNL A   1      43.672  25.430  26.140  1.00  0.00     0.009 A 
ATOM     80  C   UNL A   1      42.701  22.863  26.026  1.00  0.00     0.001 A 
ATOM     81  C   UNL A   1      43.892  24.651  24.994  1.00  0.00     0.001 A 
ATOM     82  C   UNL A   1      43.414  23.357  24.940  1.00  0.00     0.000 A 
ENDBRANCH  63  77
BRANCH  64  83
ATOM     83  C   UNL A   1      41.291  31.297  35.210  1.00  0.00    -0.014 A 
ATOM     84  C   UNL A   1      41.573  32.689  35.150  1.00  0.00     0.009 A 
ATOM     85  C   UNL A   1      39.939  30.915  35.272  1.00  0.00     0.009 A 
ATOM     86  C   UNL A   1      40.577  33.603  34.780  1.00  0.00     0.001 A 
ATOM     87  C   UNL A   1      38.940  31.842  34.908  1.00  0.00     0.001 A 
ATOM     88  C   UNL A   1      39.272  33.160  34.588  1.00  0.00     0.000 A 
ENDBRANCH  64  83
BRANCH  76  89
ATOM     89  C   UNL A   1      44.648  24.792  33.643  1.00  0.00    -0.014 A 
ATOM     90  C   UNL A   1      45.923  24.223  33.710  1.00  0.00     0.009 A 
ATOM     91  C   UNL A   1      43.576  23.943  34.019  1.00  0.00     0.009 A 
ATOM     92  C   UNL A   1      46.130  22.950  34.263  1.00  0.00     0.001 A 
ATOM     93  C   UNL A   1      43.769  22.659  34.531  1.00  0.00     0.001 A 
ATOM     94  C   UNL A   1      45.055  22.175  34.689  1.00  0.00     0.000 A 
ENDBRANCH  76  89
ENDBRANCH  50  51
ENDBRANCH  43  45
ENDBRANCH  42  43
ENDBRANCH  41  42
ENDBRANCH  40  41
ENDBRANCH  39  40
ENDBRANCH   1  39
TORSDOF 20
ENDMDL
MODEL 3
REMARK VINA RESULT:     -11.9      3.860      7.631
REMARK SMILES Cc1cccc(C(=O)Nc2cc(C(=O)OCCOCCOC(=O)c3ccc(-c4c5nc(c(-c6ccccc6)c6ccc([nH]6)c(-c6ccccc6)c6nc(c(-c7ccccc7)c7ccc4[nH]7)C=C6)C=C5)cc3)ccc2N2CC[NH+](CC(=O)NC(C)(C)C)CC2)c1
REMARK SMILES IDX 17 1 16 2 15 3 13 4 14 5 12 6 10 7 11 8 74 9 73 10 72 11
REMARK SMILES IDX 9 12 7 13 8 14 6 16 1 17 2 18 3 19 89 20 4 21 5 22 75 23
REMARK SMILES IDX 76 24 88 25 77 26 87 27 78 28 79 30 80 31 81 32 82 33 83 35
REMARK SMILES IDX 84 36 85 37 86 38 18 39 19 40 20 41 21 42 22 43 23 44 24 45
REMARK SMILES IDX 25 46 71 47 26 48 70 49 27 50 28 51 29 52 64 53 30 54 69 55
REMARK SMILES IDX 63 56 65 57 31 58 68 59 62 60 61 61 32 63 54 64 39 65 53 66
REMARK SMILES IDX 40 67 43 68 52 69 66 70 41 71 42 72 51 74 67 75 44 76 33 77
REMARK SMILES IDX 34 78 38 79 35 80 37 81 36 82 55 83 56 84 60 85 57 86 59 87
REMARK SMILES IDX 58 88 45 89 46 90 50 91 47 92 49 93 48 94
REMARK H PARENT 9 15 78 29 82 34 65 62 43 73
REMARK Flexibility Score: inf
ROOT
ATOM      1  C   UNL A   1      34.045  32.288  28.794  1.00  0.00     0.202 C 
ENDROOT
BRANCH   1   2
ATOM      2  C   UNL A   1      33.810  31.915  27.360  1.00  0.00     0.261 C 
BRANCH   2   3
ATOM      3  O   UNL A   1      33.231  30.630  27.265  1.00  0.00    -0.460 OA
BRANCH   3   4
ATOM      4  C   UNL A   1      32.181  30.391  26.448  1.00  0.00     0.338 C 
ATOM      5  O   UNL A   1      31.337  31.143  26.021  1.00  0.00    -0.246 OA
BRANCH   4   6
ATOM      6  C   UNL A   1      32.372  28.972  26.098  1.00  0.00     0.062 A 
ATOM      7  C   UNL A   1      31.330  26.898  25.511  1.00  0.00     0.065 A 
ATOM      8  C   UNL A   1      31.227  28.206  25.871  1.00  0.00     0.044 A 
ATOM      9  C   UNL A   1      32.595  26.255  25.511  1.00  0.00     0.061 A 
ATOM     10  C   UNL A   1      33.743  27.031  25.751  1.00  0.00     0.029 A 
ATOM     11  C   UNL A   1      33.638  28.403  26.008  1.00  0.00     0.018 A 
BRANCH   7  12
ATOM     12  N   UNL A   1      30.164  26.293  24.998  1.00  0.00    -0.320 N 
ATOM     13  C   UNL A   1      29.223  26.837  24.116  1.00  0.00     0.255 C 
ATOM     14  O   UNL A   1      28.228  26.160  23.844  1.00  0.00    -0.269 OA
ATOM     15  H   UNL A   1      29.989  25.373  25.299  1.00  0.00     0.170 HD
BRANCH  13  16
ATOM     16  C   UNL A   1      29.410  28.144  23.366  1.00  0.00     0.040 A 
ATOM     17  C   UNL A   1      27.596  31.382  22.599  1.00  0.00     0.044 C 
ATOM     18  C   UNL A   1      28.738  30.410  22.708  1.00  0.00    -0.050 A 
ATOM     19  C   UNL A   1      29.857  30.513  21.879  1.00  0.00     0.003 A 
ATOM     20  C   UNL A   1      28.583  29.267  23.505  1.00  0.00     0.017 A 
ATOM     21  C   UNL A   1      30.753  29.448  21.792  1.00  0.00     0.001 A 
ATOM     22  C   UNL A   1      30.523  28.270  22.517  1.00  0.00     0.014 A 
ENDBRANCH  13  16
ENDBRANCH   7  12
BRANCH   9  23
ATOM     23  N   UNL A   1      32.679  24.962  25.028  1.00  0.00    -0.359 N 
ATOM     24  C   UNL A   1      32.169  23.743  25.671  1.00  0.00     0.178 C 
ATOM     25  C   UNL A   1      33.982  24.732  24.429  1.00  0.00     0.178 C 
ATOM     26  C   UNL A   1      32.235  22.560  24.639  1.00  0.00     0.284 C 
ATOM     27  C   UNL A   1      33.792  23.768  23.268  1.00  0.00     0.284 C 
ATOM     28  N   UNL A   1      33.430  22.441  23.755  1.00  0.00    -0.324 N 
ATOM     29  H   UNL A   1      33.135  21.837  22.987  1.00  0.00     0.348 HD
BRANCH  28  30
ATOM     30  C   UNL A   1      34.593  21.675  24.262  1.00  0.00     0.363 C 
BRANCH  30  31
ATOM     31  C   UNL A   1      34.432  20.903  25.577  1.00  0.00     0.275 C 
ATOM     32  O   UNL A   1      34.768  21.450  26.639  1.00  0.00    -0.268 OA
ATOM     33  N   UNL A   1      33.963  19.624  25.702  1.00  0.00    -0.347 N 
ATOM     34  H   UNL A   1      33.865  19.403  26.656  1.00  0.00     0.164 HD
BRANCH  33  35
ATOM     35  C   UNL A   1      33.549  18.447  24.873  1.00  0.00     0.032 C 
ATOM     36  C   UNL A   1      32.642  17.471  25.644  1.00  0.00     0.034 C 
ATOM     37  C   UNL A   1      32.639  18.998  23.754  1.00  0.00     0.034 C 
ATOM     38  C   UNL A   1      34.695  17.680  24.218  1.00  0.00     0.034 C 
ENDBRANCH  33  35
ENDBRANCH  30  31
ENDBRANCH  28  30
ENDBRANCH   9  23
ENDBRANCH   4   6
ENDBRANCH   3   4
ENDBRANCH   2   3
ENDBRANCH   1   2
BRANCH   1  39
ATOM     39  O   UNL A   1      33.266  33.458  28.993  1.00  0.00    -0.374 OA
BRANCH  39  40
ATOM     40  C   UNL A   1      33.966  34.679  29.019  1.00  0.00     0.202 C 
BRANCH  40  41
ATOM     41  C   UNL A   1      33.638  35.457  30.293  1.00  0.00     0.261 C 
BRANCH  41  42
ATOM     42  O   UNL A   1      33.732  34.558  31.426  1.00  0.00    -0.460 OA
BRANCH  42  43
ATOM     43  C   UNL A   1      34.963  34.425  32.000  1.00  0.00     0.338 C 
ATOM     44  O   UNL A   1      35.545  35.301  32.622  1.00  0.00    -0.246 OA
BRANCH  43  45
ATOM     45  C   UNL A   1      35.642  33.174  31.517  1.00  0.00     0.060 A 
ATOM     46  C   UNL A   1      35.372  31.937  32.142  1.00  0.00     0.016 A 
ATOM     47  C   UNL A   1      36.774  33.296  30.720  1.00  0.00     0.016 A 
ATOM     48  C   UNL A   1      36.312  30.886  32.100  1.00  0.00     0.010 A 
ATOM     49  C   UNL A   1      37.738  32.302  30.771  1.00  0.00     0.010 A 
ATOM     50  C   UNL A   1      37.553  31.100  31.491  1.00  0.00    -0.014 A 
BRANCH  50  51
ATOM     51  C   UNL A   1      38.814  30.365  31.787  1.00  0.00     0.031 A 
ATOM     52  C   UNL A   1      39.241  29.237  30.919  1.00  0.00     0.074 A 
ATOM     53  C   UNL A   1      39.804  31.003  32.448  1.00  0.00     0.049 A 
ATOM     54  N   UNL A   1      40.435  28.756  30.835  1.00  0.00    -0.248 NA
ATOM     55  C   UNL A   1      38.285  28.516  30.096  1.00  0.00     0.031 C 
ATOM     56  C   UNL A   1      41.194  31.083  31.982  1.00  0.00     0.029 A 
ATOM     57  N   UNL A   1      39.781  31.895  33.495  1.00  0.00    -0.354 N 
ATOM     58  C   UNL A   1      40.469  27.831  29.822  1.00  0.00     0.074 A 
ATOM     59  C   UNL A   1      39.089  27.695  29.418  1.00  0.00     0.031 C 
ATOM     60  C   UNL A   1      41.863  31.902  32.794  1.00  0.00     0.029 A 
ATOM     61  C   UNL A   1      41.062  32.200  33.928  1.00  0.00     0.049 A 
ATOM     62  H   UNL A   1      38.960  32.271  33.887  1.00  0.00     0.167 HD
ATOM     63  C   UNL A   1      41.664  27.299  29.431  1.00  0.00     0.031 A 
ATOM     64  C   UNL A   1      41.509  32.066  35.200  1.00  0.00     0.031 A 
ATOM     65  C   UNL A   1      42.776  27.645  30.353  1.00  0.00     0.049 A 
ATOM     66  C   UNL A   1      42.306  30.762  35.334  1.00  0.00     0.074 A 
ATOM     67  C   UNL A   1      44.076  28.108  30.230  1.00  0.00     0.029 A 
ATOM     68  N   UNL A   1      42.545  27.606  31.735  1.00  0.00    -0.354 N 
ATOM     69  N   UNL A   1      42.769  30.047  34.328  1.00  0.00    -0.248 NA
ATOM     70  C   UNL A   1      42.588  30.120  36.611  1.00  0.00     0.031 C 
ATOM     71  C   UNL A   1      44.618  28.298  31.545  1.00  0.00     0.029 A 
ATOM     72  C   UNL A   1      43.640  28.001  32.479  1.00  0.00     0.049 A 
ATOM     73  H   UNL A   1      41.689  27.326  32.134  1.00  0.00     0.167 HD
ATOM     74  C   UNL A   1      43.239  28.832  34.766  1.00  0.00     0.074 A 
ATOM     75  C   UNL A   1      43.117  28.947  36.216  1.00  0.00     0.031 C 
ATOM     76  C   UNL A   1      43.634  27.806  33.936  1.00  0.00     0.031 A 
BRANCH  63  77
ATOM     77  C   UNL A   1      41.832  26.459  28.164  1.00  0.00    -0.014 A 
ATOM     78  C   UNL A   1      42.522  25.234  28.197  1.00  0.00     0.009 A 
ATOM     79  C   UNL A   1      41.380  26.838  26.881  1.00  0.00     0.009 A 
ATOM     80  C   UNL A   1      42.743  24.459  27.041  1.00  0.00     0.001 A 
ATOM     81  C   UNL A   1      41.560  26.057  25.729  1.00  0.00     0.001 A 
ATOM     82  C   UNL A   1      42.254  24.866  25.806  1.00  0.00     0.000 A 
ENDBRANCH  63  77
BRANCH  64  83
ATOM     83  C   UNL A   1      40.621  32.866  36.113  1.00  0.00    -0.014 A 
ATOM     84  C   UNL A   1      40.426  34.193  35.643  1.00  0.00     0.009 A 
ATOM     85  C   UNL A   1      39.520  32.225  36.709  1.00  0.00     0.009 A 
ATOM     86  C   UNL A   1      39.133  34.690  35.426  1.00  0.00     0.001 A 
ATOM     87  C   UNL A   1      38.223  32.735  36.496  1.00  0.00     0.001 A 
ATOM     88  C   UNL A   1      38.030  33.923  35.788  1.00  0.00     0.000 A 
ENDBRANCH  64  83
BRANCH  76  89
ATOM     89  C   UNL A   1      43.999  26.405  34.412  1.00  0.00    -0.014 A 
ATOM     90  C   UNL A   1      43.084  25.451  34.864  1.00  0.00     0.009 A 
ATOM     91  C   UNL A   1      45.362  26.017  34.448  1.00  0.00     0.009 A 
ATOM     92  C   UNL A   1      43.486  24.144  35.183  1.00  0.00     0.001 A 
ATOM     93  C   UNL A   1      45.775  24.731  34.803  1.00  0.00     0.001 A 
ATOM     94  C   UNL A   1      44.828  23.780  35.136  1.00  0.00     0.000 A 
ENDBRANCH  76  89
ENDBRANCH  50  51
ENDBRANCH  43  45
ENDBRANCH  42  43
ENDBRANCH  41  42
ENDBRANCH  40  41
ENDBRANCH  39  40
ENDBRANCH   1  39
TORSDOF 20
ENDMDL
