MODEL 1
REMARK VINA RESULT:      -9.2      0.000      0.000
REMARK SMILES Cc1cc(C(=O)OCCOCCOC(=O)c2ccc(-c3c4nc(c(-c5ccccc5)c5ccc([nH]5)c(-c5ccccc5)c5nc(c(-c6ccccc6)c6ccc3[nH]6)C=C5)C=C4)cc2)c(C)n1[C@@H]1C[N@H+]2CC[C@@H]1CC2
REMARK SMILES IDX 11 1 10 2 9 3 8 4 7 5 5 6 6 7 4 8 1 9 2 10 3 11 66 12 64 13
REMARK SMILES IDX 65 14 67 15 68 16 72 17 69 18 73 19 71 20 74 21 70 22 12 24
REMARK SMILES IDX 13 25 14 26 15 27 16 28 17 29 63 30 18 31 62 32 19 33 20 34
REMARK SMILES IDX 21 35 56 36 22 37 61 38 55 39 57 40 23 41 60 42 54 43 53 44
REMARK SMILES IDX 24 46 46 47 31 48 45 49 32 50 35 51 44 52 58 53 33 54 34 55
REMARK SMILES IDX 43 57 59 58 36 59 25 60 26 61 30 62 27 63 29 64 28 65 47 66
REMARK SMILES IDX 48 67 52 68 49 69 51 70 50 71 37 72 38 73 42 74 39 75 41 76
REMARK SMILES IDX 40 77
REMARK H PARENT 69 23 57 45 35 56
REMARK Flexibility Score: inf
ROOT
ATOM      1  C   UNL A   1      32.851  36.046  29.686  1.00  0.00     0.202 C 
ENDROOT
BRANCH   1   2
ATOM      2  O   UNL A   1      32.474  36.747  30.883  1.00  0.00    -0.374 OA
BRANCH   2   3
ATOM      3  C   UNL A   1      33.532  37.303  31.661  1.00  0.00     0.202 C 
BRANCH   3   4
ATOM      4  C   UNL A   1      33.510  36.942  33.157  1.00  0.00     0.261 C 
BRANCH   4   5
ATOM      5  O   UNL A   1      34.728  36.308  33.560  1.00  0.00    -0.460 OA
BRANCH   5   6
ATOM      6  C   UNL A   1      34.784  34.955  33.406  1.00  0.00     0.340 C 
ATOM      7  O   UNL A   1      33.796  34.217  33.311  1.00  0.00    -0.246 OA
BRANCH   6   8
ATOM      8  C   UNL A   1      36.161  34.483  33.311  1.00  0.00     0.081 A 
ATOM      9  C   UNL A   1      39.392  34.239  31.557  1.00  0.00     0.064 C 
ATOM     10  C   UNL A   1      38.237  34.104  32.483  1.00  0.00     0.016 A 
ATOM     11  C   UNL A   1      36.965  34.523  32.155  1.00  0.00     0.038 A 
ATOM     12  N   UNL A   1      38.212  33.629  33.794  1.00  0.00    -0.339 N 
ATOM     13  C   UNL A   1      36.921  33.863  34.301  1.00  0.00     0.030 A 
ATOM     14  C   UNL A   1      36.420  33.493  35.665  1.00  0.00     0.065 C 
BRANCH  12  15
ATOM     15  C   UNL A   1      39.324  33.095  34.593  1.00  0.00     0.145 C 
ATOM     16  C   UNL A   1      38.952  32.001  35.619  1.00  0.00     0.288 C 
ATOM     17  C   UNL A   1      40.309  34.101  35.260  1.00  0.00     0.029 C 
ATOM     18  N   UNL A   1      39.621  32.214  36.932  1.00  0.00    -0.333 N 
ATOM     19  C   UNL A   1      41.539  33.278  35.730  1.00  0.00     0.067 C 
ATOM     20  C   UNL A   1      39.733  34.687  36.554  1.00  0.00     0.067 C 
ATOM     21  C   UNL A   1      41.086  32.194  36.730  1.00  0.00     0.262 C 
ATOM     22  C   UNL A   1      39.246  33.544  37.463  1.00  0.00     0.262 C 
ATOM     23  H   UNL A   1      39.336  31.482  37.582  1.00  0.00     0.348 HD
ENDBRANCH  12  15
ENDBRANCH   6   8
ENDBRANCH   5   6
ENDBRANCH   4   5
ENDBRANCH   3   4
ENDBRANCH   2   3
ENDBRANCH   1   2
BRANCH   1  24
ATOM     24  C   UNL A   1      34.092  35.116  29.783  1.00  0.00     0.261 C 
BRANCH  24  25
ATOM     25  O   UNL A   1      33.864  33.695  30.130  1.00  0.00    -0.460 OA
BRANCH  25  26
ATOM     26  C   UNL A   1      34.427  32.756  29.293  1.00  0.00     0.338 C 
ATOM     27  O   UNL A   1      33.900  32.384  28.252  1.00  0.00    -0.246 OA
BRANCH  26  28
ATOM     28  C   UNL A   1      35.773  32.162  29.738  1.00  0.00     0.060 A 
ATOM     29  C   UNL A   1      36.885  32.241  28.911  1.00  0.00     0.016 A 
ATOM     30  C   UNL A   1      35.916  31.260  30.818  1.00  0.00     0.016 A 
ATOM     31  C   UNL A   1      38.097  31.508  29.204  1.00  0.00     0.010 A 
ATOM     32  C   UNL A   1      37.138  30.469  31.078  1.00  0.00     0.010 A 
ATOM     33  C   UNL A   1      38.296  30.563  30.283  1.00  0.00    -0.014 A 
BRANCH  33  34
ATOM     34  C   UNL A   1      39.531  29.478  30.124  1.00  0.00     0.031 A 
ATOM     35  C   UNL A   1      40.394  29.831  31.286  1.00  0.00     0.074 A 
ATOM     36  C   UNL A   1      40.126  28.512  29.292  1.00  0.00     0.049 A 
ATOM     37  N   UNL A   1      40.876  31.038  31.359  1.00  0.00    -0.248 NA
ATOM     38  C   UNL A   1      40.429  29.075  32.536  1.00  0.00     0.031 C 
ATOM     39  C   UNL A   1      39.724  28.102  27.933  1.00  0.00     0.029 A 
ATOM     40  N   UNL A   1      41.264  27.632  29.457  1.00  0.00    -0.354 N 
ATOM     41  C   UNL A   1      41.514  31.129  32.571  1.00  0.00     0.074 A 
ATOM     42  C   UNL A   1      41.017  29.983  33.325  1.00  0.00     0.031 C 
ATOM     43  C   UNL A   1      40.436  27.022  27.483  1.00  0.00     0.029 A 
ATOM     44  C   UNL A   1      41.448  26.599  28.452  1.00  0.00     0.049 A 
ATOM     45  H   UNL A   1      41.885  27.730  30.215  1.00  0.00     0.167 HD
ATOM     46  C   UNL A   1      42.787  31.616  32.528  1.00  0.00     0.031 A 
ATOM     47  C   UNL A   1      42.365  25.545  28.343  1.00  0.00     0.031 A 
ATOM     48  C   UNL A   1      43.755  30.551  32.524  1.00  0.00     0.049 A 
ATOM     49  C   UNL A   1      43.560  25.958  29.087  1.00  0.00     0.074 A 
ATOM     50  C   UNL A   1      43.872  29.390  33.263  1.00  0.00     0.029 A 
ATOM     51  N   UNL A   1      44.481  30.364  31.366  1.00  0.00    -0.354 N 
ATOM     52  N   UNL A   1      44.423  26.776  28.565  1.00  0.00    -0.248 NA
ATOM     53  C   UNL A   1      43.946  25.366  30.362  1.00  0.00     0.031 C 
ATOM     54  C   UNL A   1      44.203  28.400  32.316  1.00  0.00     0.029 A 
ATOM     55  C   UNL A   1      44.678  29.015  31.165  1.00  0.00     0.049 A 
ATOM     56  H   UNL A   1      44.805  31.081  30.775  1.00  0.00     0.167 HD
ATOM     57  C   UNL A   1      45.103  27.216  29.658  1.00  0.00     0.074 A 
ATOM     58  C   UNL A   1      44.996  26.145  30.632  1.00  0.00     0.031 C 
ATOM     59  C   UNL A   1      45.083  28.556  29.860  1.00  0.00     0.031 A 
BRANCH  46  60
ATOM     60  C   UNL A   1      42.952  32.883  31.729  1.00  0.00    -0.014 A 
ATOM     61  C   UNL A   1      43.026  34.107  32.402  1.00  0.00     0.009 A 
ATOM     62  C   UNL A   1      42.935  32.900  30.318  1.00  0.00     0.009 A 
ATOM     63  C   UNL A   1      43.006  35.308  31.683  1.00  0.00     0.001 A 
ATOM     64  C   UNL A   1      42.873  34.095  29.606  1.00  0.00     0.001 A 
ATOM     65  C   UNL A   1      42.899  35.302  30.291  1.00  0.00     0.000 A 
ENDBRANCH  46  60
BRANCH  47  66
ATOM     66  C   UNL A   1      42.746  24.222  27.594  1.00  0.00    -0.014 A 
ATOM     67  C   UNL A   1      42.409  22.947  28.177  1.00  0.00     0.009 A 
ATOM     68  C   UNL A   1      42.980  24.165  26.213  1.00  0.00     0.009 A 
ATOM     69  C   UNL A   1      42.194  21.761  27.439  1.00  0.00     0.001 A 
ATOM     70  C   UNL A   1      42.803  22.957  25.470  1.00  0.00     0.001 A 
ATOM     71  C   UNL A   1      42.373  21.771  26.070  1.00  0.00     0.000 A 
ENDBRANCH  47  66
BRANCH  59  72
ATOM     72  C   UNL A   1      45.243  29.447  28.641  1.00  0.00    -0.014 A 
ATOM     73  C   UNL A   1      46.468  29.758  28.011  1.00  0.00     0.009 A 
ATOM     74  C   UNL A   1      44.090  30.058  28.131  1.00  0.00     0.009 A 
ATOM     75  C   UNL A   1      46.542  30.681  26.959  1.00  0.00     0.001 A 
ATOM     76  C   UNL A   1      44.155  30.946  27.053  1.00  0.00     0.001 A 
ATOM     77  C   UNL A   1      45.381  31.270  26.477  1.00  0.00     0.000 A 
ENDBRANCH  59  72
ENDBRANCH  33  34
ENDBRANCH  26  28
ENDBRANCH  25  26
ENDBRANCH  24  25
ENDBRANCH   1  24
TORSDOF 15
ENDMDL
MODEL 2
REMARK VINA RESULT:      -9.0      3.984      7.430
REMARK SMILES Cc1cc(C(=O)OCCOCCOC(=O)c2ccc(-c3c4nc(c(-c5ccccc5)c5ccc([nH]5)c(-c5ccccc5)c5nc(c(-c6ccccc6)c6ccc3[nH]6)C=C5)C=C4)cc2)c(C)n1[C@@H]1C[N@H+]2CC[C@@H]1CC2
REMARK SMILES IDX 11 1 10 2 9 3 8 4 7 5 5 6 6 7 4 8 1 9 2 10 3 11 66 12 64 13
REMARK SMILES IDX 65 14 67 15 68 16 72 17 69 18 73 19 71 20 74 21 70 22 12 24
REMARK SMILES IDX 13 25 14 26 15 27 16 28 17 29 63 30 18 31 62 32 19 33 20 34
REMARK SMILES IDX 21 35 56 36 22 37 61 38 55 39 57 40 23 41 60 42 54 43 53 44
REMARK SMILES IDX 24 46 46 47 31 48 45 49 32 50 35 51 44 52 58 53 33 54 34 55
REMARK SMILES IDX 43 57 59 58 36 59 25 60 26 61 30 62 27 63 29 64 28 65 47 66
REMARK SMILES IDX 48 67 52 68 49 69 51 70 50 71 37 72 38 73 42 74 39 75 41 76
REMARK SMILES IDX 40 77
REMARK H PARENT 69 23 57 45 35 56
REMARK Flexibility Score: inf
ROOT
ATOM      1  C   UNL A   1      33.511  35.421  29.419  1.00  0.00     0.202 C 
ENDROOT
BRANCH   1   2
ATOM      2  O   UNL A   1      33.073  34.052  29.441  1.00  0.00    -0.374 OA
BRANCH   2   3
ATOM      3  C   UNL A   1      34.069  33.055  29.224  1.00  0.00     0.202 C 
BRANCH   3   4
ATOM      4  C   UNL A   1      34.113  32.465  27.803  1.00  0.00     0.261 C 
BRANCH   4   5
ATOM      5  O   UNL A   1      33.529  31.159  27.761  1.00  0.00    -0.460 OA
BRANCH   5   6
ATOM      6  C   UNL A   1      32.464  31.001  26.925  1.00  0.00     0.340 C 
ATOM      7  O   UNL A   1      31.573  31.842  26.757  1.00  0.00    -0.246 OA
BRANCH   6   8
ATOM      8  C   UNL A   1      32.531  29.735  26.205  1.00  0.00     0.081 A 
ATOM      9  C   UNL A   1      33.675  27.665  23.379  1.00  0.00     0.064 C 
ATOM     10  C   UNL A   1      33.023  28.213  24.598  1.00  0.00     0.016 A 
ATOM     11  C   UNL A   1      32.997  29.561  24.888  1.00  0.00     0.038 A 
ATOM     12  N   UNL A   1      32.414  27.533  25.651  1.00  0.00    -0.339 N 
ATOM     13  C   UNL A   1      32.107  28.481  26.643  1.00  0.00     0.030 A 
ATOM     14  C   UNL A   1      31.418  28.212  27.948  1.00  0.00     0.065 C 
BRANCH  12  15
ATOM     15  C   UNL A   1      32.220  26.085  25.810  1.00  0.00     0.145 C 
ATOM     16  C   UNL A   1      33.296  25.184  25.162  1.00  0.00     0.288 C 
ATOM     17  C   UNL A   1      30.813  25.487  25.511  1.00  0.00     0.029 C 
ATOM     18  N   UNL A   1      32.698  24.026  24.443  1.00  0.00    -0.333 N 
ATOM     19  C   UNL A   1      30.808  24.043  26.082  1.00  0.00     0.067 C 
ATOM     20  C   UNL A   1      30.585  25.296  24.007  1.00  0.00     0.067 C 
ATOM     21  C   UNL A   1      31.921  23.215  25.406  1.00  0.00     0.262 C 
ATOM     22  C   UNL A   1      31.770  24.521  23.402  1.00  0.00     0.262 C 
ATOM     23  H   UNL A   1      33.439  23.469  24.018  1.00  0.00     0.348 HD
ENDBRANCH  12  15
ENDBRANCH   6   8
ENDBRANCH   5   6
ENDBRANCH   4   5
ENDBRANCH   3   4
ENDBRANCH   2   3
ENDBRANCH   1   2
BRANCH   1  24
ATOM     24  C   UNL A   1      32.738  36.415  30.330  1.00  0.00     0.261 C 
BRANCH  24  25
ATOM     25  O   UNL A   1      32.277  35.927  31.650  1.00  0.00    -0.460 OA
BRANCH  25  26
ATOM     26  C   UNL A   1      33.143  36.094  32.708  1.00  0.00     0.338 C 
ATOM     27  O   UNL A   1      33.066  37.029  33.495  1.00  0.00    -0.246 OA
BRANCH  26  28
ATOM     28  C   UNL A   1      34.254  35.043  32.857  1.00  0.00     0.060 A 
ATOM     29  C   UNL A   1      35.563  35.348  32.510  1.00  0.00     0.016 A 
ATOM     30  C   UNL A   1      34.011  33.662  33.045  1.00  0.00     0.016 A 
ATOM     31  C   UNL A   1      36.582  34.325  32.432  1.00  0.00     0.010 A 
ATOM     32  C   UNL A   1      35.045  32.614  32.906  1.00  0.00     0.010 A 
ATOM     33  C   UNL A   1      36.390  32.899  32.600  1.00  0.00    -0.014 A 
BRANCH  33  34
ATOM     34  C   UNL A   1      37.539  31.897  31.966  1.00  0.00     0.031 A 
ATOM     35  C   UNL A   1      38.401  31.637  33.153  1.00  0.00     0.074 A 
ATOM     36  C   UNL A   1      38.075  31.347  30.787  1.00  0.00     0.049 A 
ATOM     37  N   UNL A   1      38.974  32.648  33.739  1.00  0.00    -0.248 NA
ATOM     38  C   UNL A   1      38.349  30.411  33.946  1.00  0.00     0.031 C 
ATOM     39  C   UNL A   1      37.673  31.607  29.391  1.00  0.00     0.029 A 
ATOM     40  N   UNL A   1      39.137  30.396  30.534  1.00  0.00    -0.354 N 
ATOM     41  C   UNL A   1      39.590  32.149  34.860  1.00  0.00     0.074 A 
ATOM     42  C   UNL A   1      38.989  30.833  35.044  1.00  0.00     0.031 C 
ATOM     43  C   UNL A   1      38.308  30.778  28.504  1.00  0.00     0.029 A 
ATOM     44  C   UNL A   1      39.262  29.895  29.176  1.00  0.00     0.049 A 
ATOM     45  H   UNL A   1      39.747  30.103  31.250  1.00  0.00     0.167 HD
ATOM     46  C   UNL A   1      40.898  32.503  35.015  1.00  0.00     0.031 A 
ATOM     47  C   UNL A   1      40.096  28.925  28.605  1.00  0.00     0.031 A 
ATOM     48  C   UNL A   1      41.780  31.472  34.533  1.00  0.00     0.049 A 
ATOM     49  C   UNL A   1      41.302  28.874  29.437  1.00  0.00     0.074 A 
ATOM     50  C   UNL A   1      41.789  30.100  34.688  1.00  0.00     0.029 A 
ATOM     51  N   UNL A   1      42.514  31.753  33.399  1.00  0.00    -0.354 N 
ATOM     52  N   UNL A   1      42.239  29.766  29.313  1.00  0.00    -0.248 NA
ATOM     53  C   UNL A   1      41.613  27.756  30.319  1.00  0.00     0.031 C 
ATOM     54  C   UNL A   1      42.062  29.600  33.399  1.00  0.00     0.029 A 
ATOM     55  C   UNL A   1      42.610  30.615  32.626  1.00  0.00     0.049 A 
ATOM     56  H   UNL A   1      42.907  32.628  33.177  1.00  0.00     0.167 HD
ATOM     57  C   UNL A   1      42.927  29.629  30.479  1.00  0.00     0.074 A 
ATOM     58  C   UNL A   1      42.714  28.252  30.888  1.00  0.00     0.031 C 
ATOM     59  C   UNL A   1      43.006  30.743  31.246  1.00  0.00     0.031 A 
BRANCH  46  60
ATOM     60  C   UNL A   1      41.180  33.974  34.848  1.00  0.00    -0.014 A 
ATOM     61  C   UNL A   1      42.088  34.386  33.868  1.00  0.00     0.009 A 
ATOM     62  C   UNL A   1      40.640  34.953  35.709  1.00  0.00     0.009 A 
ATOM     63  C   UNL A   1      42.498  35.723  33.805  1.00  0.00     0.001 A 
ATOM     64  C   UNL A   1      41.080  36.274  35.673  1.00  0.00     0.001 A 
ATOM     65  C   UNL A   1      42.018  36.658  34.724  1.00  0.00     0.000 A 
ENDBRANCH  46  60
BRANCH  47  66
ATOM     66  C   UNL A   1      40.389  28.036  27.347  1.00  0.00    -0.014 A 
ATOM     67  C   UNL A   1      41.297  28.509  26.331  1.00  0.00     0.009 A 
ATOM     68  C   UNL A   1      40.202  26.647  27.332  1.00  0.00     0.009 A 
ATOM     69  C   UNL A   1      42.046  27.671  25.476  1.00  0.00     0.001 A 
ATOM     70  C   UNL A   1      40.930  25.800  26.440  1.00  0.00     0.001 A 
ATOM     71  C   UNL A   1      41.877  26.303  25.544  1.00  0.00     0.000 A 
ENDBRANCH  47  66
BRANCH  59  72
ATOM     72  C   UNL A   1      43.263  32.060  30.537  1.00  0.00    -0.014 A 
ATOM     73  C   UNL A   1      42.276  33.010  30.194  1.00  0.00     0.009 A 
ATOM     74  C   UNL A   1      44.578  32.334  30.139  1.00  0.00     0.009 A 
ATOM     75  C   UNL A   1      42.581  34.149  29.437  1.00  0.00     0.001 A 
ATOM     76  C   UNL A   1      44.893  33.492  29.421  1.00  0.00     0.001 A 
ATOM     77  C   UNL A   1      43.893  34.392  29.057  1.00  0.00     0.000 A 
ENDBRANCH  59  72
ENDBRANCH  33  34
ENDBRANCH  26  28
ENDBRANCH  25  26
ENDBRANCH  24  25
ENDBRANCH   1  24
TORSDOF 15
ENDMDL
MODEL 3
REMARK VINA RESULT:      -8.9      4.458      7.739
REMARK SMILES Cc1cc(C(=O)OCCOCCOC(=O)c2ccc(-c3c4nc(c(-c5ccccc5)c5ccc([nH]5)c(-c5ccccc5)c5nc(c(-c6ccccc6)c6ccc3[nH]6)C=C5)C=C4)cc2)c(C)n1[C@@H]1C[N@H+]2CC[C@@H]1CC2
REMARK SMILES IDX 11 1 10 2 9 3 8 4 7 5 5 6 6 7 4 8 1 9 2 10 3 11 66 12 64 13
REMARK SMILES IDX 65 14 67 15 68 16 72 17 69 18 73 19 71 20 74 21 70 22 12 24
REMARK SMILES IDX 13 25 14 26 15 27 16 28 17 29 63 30 18 31 62 32 19 33 20 34
REMARK SMILES IDX 21 35 56 36 22 37 61 38 55 39 57 40 23 41 60 42 54 43 53 44
REMARK SMILES IDX 24 46 46 47 31 48 45 49 32 50 35 51 44 52 58 53 33 54 34 55
REMARK SMILES IDX 43 57 59 58 36 59 25 60 26 61 30 62 27 63 29 64 28 65 47 66
REMARK SMILES IDX 48 67 52 68 49 69 51 70 50 71 37 72 38 73 42 74 39 75 41 76
REMARK SMILES IDX 40 77
REMARK H PARENT 69 23 57 45 35 56
REMARK Flexibility Score: inf
ROOT
ATOM      1  C   UNL A   1      33.886  31.245  28.057  1.00  0.00     0.202 C 
ENDROOT
BRANCH   1   2
ATOM      2  O   UNL A   1      33.167  31.161  26.816  1.00  0.00    -0.374 OA
BRANCH   2   3
ATOM      3  C   UNL A   1      33.269  29.935  26.096  1.00  0.00     0.202 C 
BRANCH   3   4
ATOM      4  C   UNL A   1      32.096  29.626  25.148  1.00  0.00     0.261 C 
BRANCH   4   5
ATOM      5  O   UNL A   1      31.274  28.573  25.660  1.00  0.00    -0.460 OA
BRANCH   5   6
ATOM      6  C   UNL A   1      30.887  27.620  24.765  1.00  0.00     0.340 C 
ATOM      7  O   UNL A   1      30.269  27.848  23.718  1.00  0.00    -0.246 OA
BRANCH   6   8
ATOM      8  C   UNL A   1      31.342  26.293  25.165  1.00  0.00     0.081 A 
ATOM      9  C   UNL A   1      30.711  22.897  26.450  1.00  0.00     0.064 C 
ATOM     10  C   UNL A   1      31.304  24.171  25.963  1.00  0.00     0.016 A 
ATOM     11  C   UNL A   1      30.585  25.344  25.879  1.00  0.00     0.038 A 
ATOM     12  N   UNL A   1      32.583  24.411  25.465  1.00  0.00    -0.339 N 
ATOM     13  C   UNL A   1      32.603  25.729  24.975  1.00  0.00     0.030 A 
ATOM     14  C   UNL A   1      33.779  26.436  24.369  1.00  0.00     0.065 C 
BRANCH  12  15
ATOM     15  C   UNL A   1      33.702  23.468  25.330  1.00  0.00     0.145 C 
ATOM     16  C   UNL A   1      33.336  22.057  24.815  1.00  0.00     0.288 C 
ATOM     17  C   UNL A   1      34.704  23.330  26.514  1.00  0.00     0.029 C 
ATOM     18  N   UNL A   1      34.025  20.985  25.583  1.00  0.00    -0.333 N 
ATOM     19  C   UNL A   1      35.935  22.553  25.972  1.00  0.00     0.067 C 
ATOM     20  C   UNL A   1      34.151  22.429  27.624  1.00  0.00     0.067 C 
ATOM     21  C   UNL A   1      35.487  21.169  25.455  1.00  0.00     0.262 C 
ATOM     22  C   UNL A   1      33.668  21.101  27.015  1.00  0.00     0.262 C 
ATOM     23  H   UNL A   1      33.744  20.073  25.223  1.00  0.00     0.348 HD
ENDBRANCH  12  15
ENDBRANCH   6   8
ENDBRANCH   5   6
ENDBRANCH   4   5
ENDBRANCH   3   4
ENDBRANCH   2   3
ENDBRANCH   1   2
BRANCH   1  24
ATOM     24  C   UNL A   1      34.322  32.664  28.516  1.00  0.00     0.261 C 
BRANCH  24  25
ATOM     25  O   UNL A   1      34.722  32.840  29.931  1.00  0.00    -0.460 OA
BRANCH  25  26
ATOM     26  C   UNL A   1      36.047  32.613  30.232  1.00  0.00     0.338 C 
ATOM     27  O   UNL A   1      36.731  33.398  30.877  1.00  0.00    -0.246 OA
BRANCH  26  28
ATOM     28  C   UNL A   1      36.658  31.309  29.695  1.00  0.00     0.060 A 
ATOM     29  C   UNL A   1      36.639  30.154  30.464  1.00  0.00     0.016 A 
ATOM     30  C   UNL A   1      37.521  31.247  28.576  1.00  0.00     0.016 A 
ATOM     31  C   UNL A   1      37.392  28.979  30.081  1.00  0.00     0.010 A 
ATOM     32  C   UNL A   1      38.333  30.063  28.223  1.00  0.00     0.010 A 
ATOM     33  C   UNL A   1      38.300  28.863  28.959  1.00  0.00    -0.014 A 
BRANCH  33  34
ATOM     34  C   UNL A   1      39.421  27.651  29.011  1.00  0.00     0.031 A 
ATOM     35  C   UNL A   1      40.334  28.133  30.085  1.00  0.00     0.074 A 
ATOM     36  C   UNL A   1      39.905  26.491  28.379  1.00  0.00     0.049 A 
ATOM     37  N   UNL A   1      40.932  29.279  29.927  1.00  0.00    -0.248 NA
ATOM     38  C   UNL A   1      40.319  27.628  31.456  1.00  0.00     0.031 C 
ATOM     39  C   UNL A   1      39.440  25.873  27.123  1.00  0.00     0.029 A 
ATOM     40  N   UNL A   1      40.956  25.551  28.710  1.00  0.00    -0.354 N 
ATOM     41  C   UNL A   1      41.598  29.535  31.099  1.00  0.00     0.074 A 
ATOM     42  C   UNL A   1      41.006  28.608  32.057  1.00  0.00     0.031 C 
ATOM     43  C   UNL A   1      40.036  24.662  26.887  1.00  0.00     0.029 A 
ATOM     44  C   UNL A   1      41.021  24.334  27.920  1.00  0.00     0.049 A 
ATOM     45  H   UNL A   1      41.597  25.730  29.435  1.00  0.00     0.167 HD
ATOM     46  C   UNL A   1      42.911  29.877  30.964  1.00  0.00     0.031 A 
ATOM     47  C   UNL A   1      41.830  23.194  28.015  1.00  0.00     0.031 A 
ATOM     48  C   UNL A   1      43.772  28.741  31.165  1.00  0.00     0.049 A 
ATOM     49  C   UNL A   1      43.072  23.621  28.667  1.00  0.00     0.074 A 
ATOM     50  C   UNL A   1      43.790  27.736  32.112  1.00  0.00     0.029 A 
ATOM     51  N   UNL A   1      44.455  28.267  30.064  1.00  0.00    -0.354 N 
ATOM     52  N   UNL A   1      44.001  24.236  27.999  1.00  0.00    -0.248 NA
ATOM     53  C   UNL A   1      43.423  23.247  30.032  1.00  0.00     0.031 C 
ATOM     54  C   UNL A   1      44.006  26.557  31.372  1.00  0.00     0.029 A 
ATOM     55  C   UNL A   1      44.517  26.892  30.125  1.00  0.00     0.049 A 
ATOM     56  H   UNL A   1      44.836  28.824  29.347  1.00  0.00     0.167 HD
ATOM     57  C   UNL A   1      44.740  24.807  28.988  1.00  0.00     0.074 A 
ATOM     58  C   UNL A   1      44.547  23.956  30.149  1.00  0.00     0.031 C 
ATOM     59  C   UNL A   1      44.852  26.156  28.931  1.00  0.00     0.031 A 
BRANCH  46  60
ATOM     60  C   UNL A   1      43.183  30.947  29.939  1.00  0.00    -0.014 A 
ATOM     61  C   UNL A   1      43.734  30.583  28.706  1.00  0.00     0.009 A 
ATOM     62  C   UNL A   1      42.999  32.320  30.205  1.00  0.00     0.009 A 
ATOM     63  C   UNL A   1      44.156  31.568  27.804  1.00  0.00     0.001 A 
ATOM     64  C   UNL A   1      43.458  33.299  29.327  1.00  0.00     0.001 A 
ATOM     65  C   UNL A   1      44.046  32.922  28.127  1.00  0.00     0.000 A 
ENDBRANCH  46  60
BRANCH  47  66
ATOM     66  C   UNL A   1      42.068  21.721  27.532  1.00  0.00    -0.014 A 
ATOM     67  C   UNL A   1      40.997  20.758  27.617  1.00  0.00     0.009 A 
ATOM     68  C   UNL A   1      43.071  21.367  26.620  1.00  0.00     0.009 A 
ATOM     69  C   UNL A   1      40.871  19.627  26.780  1.00  0.00     0.001 A 
ATOM     70  C   UNL A   1      42.965  20.201  25.801  1.00  0.00     0.001 A 
ATOM     71  C   UNL A   1      41.854  19.356  25.850  1.00  0.00     0.000 A 
ENDBRANCH  47  66
BRANCH  59  72
ATOM     72  C   UNL A   1      45.076  26.779  27.565  1.00  0.00    -0.014 A 
ATOM     73  C   UNL A   1      44.059  27.116  26.643  1.00  0.00     0.009 A 
ATOM     74  C   UNL A   1      46.400  26.986  27.158  1.00  0.00     0.009 A 
ATOM     75  C   UNL A   1      44.357  27.581  25.356  1.00  0.00     0.001 A 
ATOM     76  C   UNL A   1      46.699  27.493  25.889  1.00  0.00     0.001 A 
ATOM     77  C   UNL A   1      45.680  27.775  24.982  1.00  0.00     0.000 A 
ENDBRANCH  59  72
ENDBRANCH  33  34
ENDBRANCH  26  28
ENDBRANCH  25  26
ENDBRANCH  24  25
ENDBRANCH   1  24
TORSDOF 15
ENDMDL
