MODEL 1
REMARK VINA RESULT:     -12.1      0.000      0.000
REMARK SMILES O=C(OCCOCCOC(=O)[C@H](c1c[nH]c2ccc(Cl)cc12)[NH+]1CCN(c2cccc(Cl)c2)CC1)c1ccc(-c2c3nc(c(-c4ccccc4)c4ccc([nH]4)c(-c4ccccc4)c4nc(c(-c5ccccc5)c5ccc2[nH]5)C=C4)C=C3)cc1
REMARK SMILES IDX 6 1 5 2 4 3 3 4 2 5 1 6 36 7 37 8 83 9 38 10 82 11 39 12
REMARK SMILES IDX 40 13 41 14 76 15 42 16 81 17 75 18 77 19 43 20 80 21 74 22
REMARK SMILES IDX 73 23 44 25 66 26 51 27 65 28 52 29 55 30 64 31 78 32 53 33
REMARK SMILES IDX 54 34 63 36 79 37 56 38 45 39 46 40 50 41 47 42 49 43 48 44
REMARK SMILES IDX 67 45 68 46 72 47 69 48 71 49 70 50 57 51 58 52 62 53 59 54
REMARK SMILES IDX 61 55 60 56 7 57 8 58 9 59 10 60 11 61 12 62 23 63 24 64
REMARK SMILES IDX 35 65 25 67 34 68 26 69 27 70 28 71 33 72 29 73 31 74 30 75
REMARK SMILES IDX 32 76 13 77 14 78 22 79 15 80 16 81 21 82 17 84 19 85 18 86
REMARK SMILES IDX 20 87
REMARK H PARENT 77 24 55 35 23 66 15 83
REMARK Flexibility Score: inf
ROOT
ATOM      1  O   UNL A   1      36.623  20.719  25.002  1.00  0.00    -0.374 OA
ENDROOT
BRANCH   1   2
ATOM      2  C   UNL A   1      37.645  19.728  24.965  1.00  0.00     0.202 C 
BRANCH   2   3
ATOM      3  C   UNL A   1      38.975  20.267  25.490  1.00  0.00     0.261 C 
BRANCH   3   4
ATOM      4  O   UNL A   1      39.908  19.198  25.697  1.00  0.00    -0.460 OA
BRANCH   4   5
ATOM      5  C   UNL A   1      41.205  19.358  26.055  1.00  0.00     0.338 C 
ATOM      6  O   UNL A   1      41.991  18.427  25.892  1.00  0.00    -0.246 OA
BRANCH   5   7
ATOM      7  C   UNL A   1      41.759  20.667  26.523  1.00  0.00     0.060 A 
ATOM      8  C   UNL A   1      41.903  21.068  27.856  1.00  0.00     0.016 A 
ATOM      9  C   UNL A   1      42.245  21.520  25.519  1.00  0.00     0.016 A 
ATOM     10  C   UNL A   1      42.486  22.273  28.194  1.00  0.00     0.010 A 
ATOM     11  C   UNL A   1      42.823  22.747  25.846  1.00  0.00     0.010 A 
ATOM     12  C   UNL A   1      42.919  23.125  27.189  1.00  0.00    -0.014 A 
BRANCH  12  13
ATOM     13  C   UNL A   1      43.237  24.496  27.599  1.00  0.00     0.031 A 
ATOM     14  C   UNL A   1      44.664  24.926  27.476  1.00  0.00     0.074 A 
ATOM     15  C   UNL A   1      42.243  25.356  27.868  1.00  0.00     0.049 A 
ATOM     16  N   UNL A   1      45.213  26.070  27.770  1.00  0.00    -0.248 NA
ATOM     17  C   UNL A   1      45.602  23.931  26.921  1.00  0.00     0.031 C 
ATOM     18  C   UNL A   1      40.811  25.040  27.812  1.00  0.00     0.029 A 
ATOM     19  N   UNL A   1      42.281  26.682  28.188  1.00  0.00    -0.354 N 
ATOM     20  C   UNL A   1      46.564  25.915  27.486  1.00  0.00     0.074 A 
ATOM     21  C   UNL A   1      46.753  24.575  26.986  1.00  0.00     0.031 C 
ATOM     22  C   UNL A   1      40.109  26.156  28.064  1.00  0.00     0.029 A 
ATOM     23  C   UNL A   1      41.038  27.237  28.369  1.00  0.00     0.049 A 
ATOM     24  H   UNL A   1      43.119  27.192  28.281  1.00  0.00     0.167 HD
ATOM     25  C   UNL A   1      47.555  26.818  27.655  1.00  0.00     0.031 A 
ATOM     26  C   UNL A   1      40.711  28.477  28.771  1.00  0.00     0.031 A 
ATOM     27  C   UNL A   1      47.317  28.138  28.166  1.00  0.00     0.049 A 
ATOM     28  C   UNL A   1      41.841  29.426  29.063  1.00  0.00     0.074 A 
ATOM     29  C   UNL A   1      48.226  29.133  28.463  1.00  0.00     0.029 A 
ATOM     30  N   UNL A   1      46.053  28.641  28.453  1.00  0.00    -0.354 N 
ATOM     31  N   UNL A   1      43.133  29.251  28.897  1.00  0.00    -0.248 NA
ATOM     32  C   UNL A   1      41.475  30.737  29.610  1.00  0.00     0.031 C 
ATOM     33  C   UNL A   1      47.513  30.219  28.985  1.00  0.00     0.029 A 
ATOM     34  C   UNL A   1      46.156  29.928  28.944  1.00  0.00     0.049 A 
ATOM     35  H   UNL A   1      45.207  28.152  28.325  1.00  0.00     0.167 HD
ATOM     36  C   UNL A   1      43.733  30.438  29.290  1.00  0.00     0.074 A 
ATOM     37  C   UNL A   1      42.658  31.328  29.690  1.00  0.00     0.031 C 
ATOM     38  C   UNL A   1      45.048  30.771  29.320  1.00  0.00     0.031 A 
BRANCH  25  39
ATOM     39  C   UNL A   1      48.956  26.339  27.400  1.00  0.00    -0.014 A 
ATOM     40  C   UNL A   1      49.760  25.799  28.418  1.00  0.00     0.009 A 
ATOM     41  C   UNL A   1      49.508  26.509  26.120  1.00  0.00     0.009 A 
ATOM     42  C   UNL A   1      51.101  25.490  28.170  1.00  0.00     0.001 A 
ATOM     43  C   UNL A   1      50.838  26.169  25.868  1.00  0.00     0.001 A 
ATOM     44  C   UNL A   1      51.638  25.676  26.896  1.00  0.00     0.000 A 
ENDBRANCH  25  39
BRANCH  26  45
ATOM     45  C   UNL A   1      39.289  28.862  28.972  1.00  0.00    -0.014 A 
ATOM     46  C   UNL A   1      38.650  28.651  30.203  1.00  0.00     0.009 A 
ATOM     47  C   UNL A   1      38.552  29.436  27.923  1.00  0.00     0.009 A 
ATOM     48  C   UNL A   1      37.302  28.981  30.369  1.00  0.00     0.001 A 
ATOM     49  C   UNL A   1      37.215  29.795  28.100  1.00  0.00     0.001 A 
ATOM     50  C   UNL A   1      36.587  29.557  29.320  1.00  0.00     0.000 A 
ENDBRANCH  26  45
BRANCH  38  51
ATOM     51  C   UNL A   1      45.374  32.174  29.741  1.00  0.00    -0.014 A 
ATOM     52  C   UNL A   1      45.422  33.227  28.815  1.00  0.00     0.009 A 
ATOM     53  C   UNL A   1      45.594  32.444  31.101  1.00  0.00     0.009 A 
ATOM     54  C   UNL A   1      45.723  34.520  29.242  1.00  0.00     0.001 A 
ATOM     55  C   UNL A   1      45.859  33.743  31.528  1.00  0.00     0.001 A 
ATOM     56  C   UNL A   1      45.936  34.777  30.596  1.00  0.00     0.000 A 
ENDBRANCH  38  51
ENDBRANCH  12  13
ENDBRANCH   5   7
ENDBRANCH   4   5
ENDBRANCH   3   4
ENDBRANCH   2   3
ENDBRANCH   1   2
BRANCH   1  57
ATOM     57  C   UNL A   1      36.914  21.950  25.653  1.00  0.00     0.202 C 
BRANCH  57  58
ATOM     58  C   UNL A   1      36.983  23.047  24.600  1.00  0.00     0.261 C 
BRANCH  58  59
ATOM     59  O   UNL A   1      35.729  23.739  24.597  1.00  0.00    -0.459 OA
BRANCH  59  60
ATOM     60  C   UNL A   1      34.854  23.387  23.598  1.00  0.00     0.370 C 
ATOM     61  O   UNL A   1      35.155  23.235  22.416  1.00  0.00    -0.245 OA
BRANCH  60  62
ATOM     62  C   UNL A   1      33.446  23.275  24.197  1.00  0.00     0.328 C 
BRANCH  62  63
ATOM     63  N   UNL A   1      32.361  23.529  23.199  1.00  0.00    -0.316 N 
ATOM     64  C   UNL A   1      30.985  23.678  23.763  1.00  0.00     0.284 C 
ATOM     65  C   UNL A   1      32.570  24.625  22.241  1.00  0.00     0.284 C 
ATOM     66  H   UNL A   1      32.429  22.651  22.685  1.00  0.00     0.349 HD
ATOM     67  C   UNL A   1      30.588  25.087  24.318  1.00  0.00     0.178 C 
ATOM     68  C   UNL A   1      32.328  26.030  22.809  1.00  0.00     0.178 C 
ATOM     69  N   UNL A   1      30.977  26.142  23.374  1.00  0.00    -0.360 N 
BRANCH  69  70
ATOM     70  C   UNL A   1      30.629  27.468  23.625  1.00  0.00     0.038 A 
ATOM     71  C   UNL A   1      29.727  28.078  22.743  1.00  0.00     0.026 A 
ATOM     72  C   UNL A   1      31.227  28.254  24.618  1.00  0.00     0.046 A 
ATOM     73  C   UNL A   1      29.418  29.433  22.839  1.00  0.00     0.004 A 
ATOM     74  C   UNL A   1      30.922  29.615  24.711  1.00  0.00     0.043 A 
ATOM     75  C   UNL A   1      30.019  30.207  23.827  1.00  0.00     0.020 A 
ATOM     76  Cl  UNL A   1      31.691  30.590  25.904  1.00  0.00    -0.084 Cl
ENDBRANCH  69  70
ENDBRANCH  62  63
BRANCH  62  77
ATOM     77  C   UNL A   1      33.287  22.007  25.049  1.00  0.00     0.046 A 
ATOM     78  C   UNL A   1      33.217  21.930  26.434  1.00  0.00     0.094 A 
ATOM     79  C   UNL A   1      33.019  20.657  24.596  1.00  0.00     0.011 A 
ATOM     80  N   UNL A   1      33.199  20.621  26.818  1.00  0.00    -0.361 N 
ATOM     81  C   UNL A   1      33.015  19.823  25.721  1.00  0.00     0.046 A 
ATOM     82  C   UNL A   1      32.742  20.062  23.346  1.00  0.00     0.031 A 
ATOM     83  H   UNL A   1      33.303  20.300  27.743  1.00  0.00     0.166 HD
ATOM     84  C   UNL A   1      32.823  18.438  25.663  1.00  0.00     0.028 A 
ATOM     85  C   UNL A   1      32.478  18.684  23.284  1.00  0.00     0.041 A 
ATOM     86  C   UNL A   1      32.539  17.880  24.419  1.00  0.00     0.022 A 
ATOM     87  Cl  UNL A   1      32.036  17.973  21.779  1.00  0.00    -0.084 Cl
ENDBRANCH  62  77
ENDBRANCH  60  62
ENDBRANCH  59  60
ENDBRANCH  58  59
ENDBRANCH  57  58
ENDBRANCH   1  57
TORSDOF 17
ENDMDL
MODEL 2
REMARK VINA RESULT:     -11.9      1.167      4.808
REMARK SMILES O=C(OCCOCCOC(=O)[C@H](c1c[nH]c2ccc(Cl)cc12)[NH+]1CCN(c2cccc(Cl)c2)CC1)c1ccc(-c2c3nc(c(-c4ccccc4)c4ccc([nH]4)c(-c4ccccc4)c4nc(c(-c5ccccc5)c5ccc2[nH]5)C=C4)C=C3)cc1
REMARK SMILES IDX 6 1 5 2 4 3 3 4 2 5 1 6 36 7 37 8 83 9 38 10 82 11 39 12
REMARK SMILES IDX 40 13 41 14 76 15 42 16 81 17 75 18 77 19 43 20 80 21 74 22
REMARK SMILES IDX 73 23 44 25 66 26 51 27 65 28 52 29 55 30 64 31 78 32 53 33
REMARK SMILES IDX 54 34 63 36 79 37 56 38 45 39 46 40 50 41 47 42 49 43 48 44
REMARK SMILES IDX 67 45 68 46 72 47 69 48 71 49 70 50 57 51 58 52 62 53 59 54
REMARK SMILES IDX 61 55 60 56 7 57 8 58 9 59 10 60 11 61 12 62 23 63 24 64
REMARK SMILES IDX 35 65 25 67 34 68 26 69 27 70 28 71 33 72 29 73 31 74 30 75
REMARK SMILES IDX 32 76 13 77 14 78 22 79 15 80 16 81 21 82 17 84 19 85 18 86
REMARK SMILES IDX 20 87
REMARK H PARENT 77 24 55 35 23 66 15 83
REMARK Flexibility Score: inf
ROOT
ATOM      1  O   UNL A   1      37.037  21.095  24.606  1.00  0.00    -0.374 OA
ENDROOT
BRANCH   1   2
ATOM      2  C   UNL A   1      37.843  19.938  24.809  1.00  0.00     0.202 C 
BRANCH   2   3
ATOM      3  C   UNL A   1      38.971  20.201  25.804  1.00  0.00     0.261 C 
BRANCH   3   4
ATOM      4  O   UNL A   1      39.977  19.184  25.710  1.00  0.00    -0.460 OA
BRANCH   4   5
ATOM      5  C   UNL A   1      41.283  19.351  26.033  1.00  0.00     0.338 C 
ATOM      6  O   UNL A   1      42.069  18.424  25.845  1.00  0.00    -0.246 OA
BRANCH   5   7
ATOM      7  C   UNL A   1      41.842  20.662  26.487  1.00  0.00     0.060 A 
ATOM      8  C   UNL A   1      42.036  21.055  27.817  1.00  0.00     0.016 A 
ATOM      9  C   UNL A   1      42.280  21.527  25.471  1.00  0.00     0.016 A 
ATOM     10  C   UNL A   1      42.620  22.263  28.140  1.00  0.00     0.010 A 
ATOM     11  C   UNL A   1      42.858  22.757  25.784  1.00  0.00     0.010 A 
ATOM     12  C   UNL A   1      43.004  23.127  27.125  1.00  0.00    -0.014 A 
BRANCH  12  13
ATOM     13  C   UNL A   1      43.325  24.498  27.532  1.00  0.00     0.031 A 
ATOM     14  C   UNL A   1      44.747  24.935  27.378  1.00  0.00     0.074 A 
ATOM     15  C   UNL A   1      42.333  25.353  27.825  1.00  0.00     0.049 A 
ATOM     16  N   UNL A   1      45.297  26.081  27.664  1.00  0.00    -0.248 NA
ATOM     17  C   UNL A   1      45.676  23.946  26.799  1.00  0.00     0.031 C 
ATOM     18  C   UNL A   1      40.902  25.029  27.800  1.00  0.00     0.029 A 
ATOM     19  N   UNL A   1      42.373  26.678  28.149  1.00  0.00    -0.354 N 
ATOM     20  C   UNL A   1      46.642  25.932  27.349  1.00  0.00     0.074 A 
ATOM     21  C   UNL A   1      46.826  24.595  26.841  1.00  0.00     0.031 C 
ATOM     22  C   UNL A   1      40.201  26.142  28.071  1.00  0.00     0.029 A 
ATOM     23  C   UNL A   1      41.131  27.226  28.359  1.00  0.00     0.049 A 
ATOM     24  H   UNL A   1      43.210  27.191  28.224  1.00  0.00     0.167 HD
ATOM     25  C   UNL A   1      47.632  26.839  27.499  1.00  0.00     0.031 A 
ATOM     26  C   UNL A   1      40.808  28.464  28.772  1.00  0.00     0.031 A 
ATOM     27  C   UNL A   1      47.400  28.157  28.019  1.00  0.00     0.049 A 
ATOM     28  C   UNL A   1      41.940  29.417  29.042  1.00  0.00     0.074 A 
ATOM     29  C   UNL A   1      48.311  29.155  28.299  1.00  0.00     0.029 A 
ATOM     30  N   UNL A   1      46.140  28.653  28.336  1.00  0.00    -0.354 N 
ATOM     31  N   UNL A   1      43.228  29.248  28.847  1.00  0.00    -0.248 NA
ATOM     32  C   UNL A   1      41.579  30.724  29.601  1.00  0.00     0.031 C 
ATOM     33  C   UNL A   1      47.604  30.237  28.840  1.00  0.00     0.029 A 
ATOM     34  C   UNL A   1      46.248  29.939  28.828  1.00  0.00     0.049 A 
ATOM     35  H   UNL A   1      45.294  28.160  28.225  1.00  0.00     0.167 HD
ATOM     36  C   UNL A   1      43.831  30.437  29.230  1.00  0.00     0.074 A 
ATOM     37  C   UNL A   1      42.761  31.320  29.656  1.00  0.00     0.031 C 
ATOM     38  C   UNL A   1      45.145  30.776  29.232  1.00  0.00     0.031 A 
BRANCH  25  39
ATOM     39  C   UNL A   1      49.030  26.368  27.212  1.00  0.00    -0.014 A 
ATOM     40  C   UNL A   1      49.863  25.843  28.212  1.00  0.00     0.009 A 
ATOM     41  C   UNL A   1      49.546  26.530  25.916  1.00  0.00     0.009 A 
ATOM     42  C   UNL A   1      51.200  25.540  27.932  1.00  0.00     0.001 A 
ATOM     43  C   UNL A   1      50.872  26.197  25.632  1.00  0.00     0.001 A 
ATOM     44  C   UNL A   1      51.702  25.718  26.643  1.00  0.00     0.000 A 
ENDBRANCH  25  39
BRANCH  26  45
ATOM     45  C   UNL A   1      39.388  28.841  29.006  1.00  0.00    -0.014 A 
ATOM     46  C   UNL A   1      38.777  28.620  30.249  1.00  0.00     0.009 A 
ATOM     47  C   UNL A   1      38.627  29.419  27.976  1.00  0.00     0.009 A 
ATOM     48  C   UNL A   1      37.431  28.943  30.446  1.00  0.00     0.001 A 
ATOM     49  C   UNL A   1      37.292  29.772  28.184  1.00  0.00     0.001 A 
ATOM     50  C   UNL A   1      36.692  29.523  29.416  1.00  0.00     0.000 A 
ENDBRANCH  26  45
BRANCH  38  51
ATOM     51  C   UNL A   1      45.474  32.179  29.649  1.00  0.00    -0.014 A 
ATOM     52  C   UNL A   1      45.498  33.234  28.726  1.00  0.00     0.009 A 
ATOM     53  C   UNL A   1      45.721  32.446  31.005  1.00  0.00     0.009 A 
ATOM     54  C   UNL A   1      45.803  34.528  29.150  1.00  0.00     0.001 A 
ATOM     55  C   UNL A   1      45.989  33.745  31.431  1.00  0.00     0.001 A 
ATOM     56  C   UNL A   1      46.043  34.783  30.500  1.00  0.00     0.000 A 
ENDBRANCH  38  51
ENDBRANCH  12  13
ENDBRANCH   5   7
ENDBRANCH   4   5
ENDBRANCH   3   4
ENDBRANCH   2   3
ENDBRANCH   1   2
BRANCH   1  57
ATOM     57  C   UNL A   1      37.067  22.109  25.605  1.00  0.00     0.202 C 
BRANCH  57  58
ATOM     58  C   UNL A   1      37.163  23.461  24.914  1.00  0.00     0.261 C 
BRANCH  58  59
ATOM     59  O   UNL A   1      35.956  23.668  24.171  1.00  0.00    -0.459 OA
BRANCH  59  60
ATOM     60  C   UNL A   1      34.991  24.421  24.796  1.00  0.00     0.370 C 
ATOM     61  O   UNL A   1      35.140  25.020  25.858  1.00  0.00    -0.245 OA
BRANCH  60  62
ATOM     62  C   UNL A   1      33.697  24.335  23.977  1.00  0.00     0.328 C 
BRANCH  62  63
ATOM     63  N   UNL A   1      32.642  23.499  24.631  1.00  0.00    -0.316 N 
ATOM     64  C   UNL A   1      31.726  22.772  23.701  1.00  0.00     0.284 C 
ATOM     65  C   UNL A   1      33.079  22.546  25.661  1.00  0.00     0.284 C 
ATOM     66  H   UNL A   1      32.133  24.250  25.099  1.00  0.00     0.349 HD
ATOM     67  C   UNL A   1      32.229  21.405  23.125  1.00  0.00     0.178 C 
ATOM     68  C   UNL A   1      33.714  21.258  25.117  1.00  0.00     0.178 C 
ATOM     69  N   UNL A   1      32.800  20.575  24.192  1.00  0.00    -0.360 N 
BRANCH  69  70
ATOM     70  C   UNL A   1      33.221  19.275  23.917  1.00  0.00     0.038 A 
ATOM     71  C   UNL A   1      32.545  18.577  22.905  1.00  0.00     0.026 A 
ATOM     72  C   UNL A   1      34.177  18.590  24.676  1.00  0.00     0.046 A 
ATOM     73  C   UNL A   1      32.810  17.235  22.645  1.00  0.00     0.004 A 
ATOM     74  C   UNL A   1      34.439  17.241  24.419  1.00  0.00     0.043 A 
ATOM     75  C   UNL A   1      33.760  16.561  23.407  1.00  0.00     0.020 A 
ATOM     76  Cl  UNL A   1      35.583  16.387  25.383  1.00  0.00    -0.084 Cl
ENDBRANCH  69  70
ENDBRANCH  62  63
BRANCH  62  77
ATOM     77  C   UNL A   1      33.243  25.716  23.481  1.00  0.00     0.046 A 
ATOM     78  C   UNL A   1      33.095  26.127  22.162  1.00  0.00     0.094 A 
ATOM     79  C   UNL A   1      32.727  26.820  24.265  1.00  0.00     0.011 A 
ATOM     80  N   UNL A   1      32.792  27.457  22.130  1.00  0.00    -0.361 N 
ATOM     81  C   UNL A   1      32.501  27.893  23.395  1.00  0.00     0.046 A 
ATOM     82  C   UNL A   1      32.393  27.006  25.625  1.00  0.00     0.031 A 
ATOM     83  H   UNL A   1      32.785  28.017  21.321  1.00  0.00     0.166 HD
ATOM     84  C   UNL A   1      32.034  29.146  23.807  1.00  0.00     0.028 A 
ATOM     85  C   UNL A   1      31.858  28.236  26.039  1.00  0.00     0.041 A 
ATOM     86  C   UNL A   1      31.700  29.297  25.151  1.00  0.00     0.022 A 
ATOM     87  Cl  UNL A   1      31.351  28.432  27.673  1.00  0.00    -0.084 Cl
ENDBRANCH  62  77
ENDBRANCH  60  62
ENDBRANCH  59  60
ENDBRANCH  58  59
ENDBRANCH  57  58
ENDBRANCH   1  57
TORSDOF 17
ENDMDL
MODEL 3
REMARK VINA RESULT:     -11.9      1.202      5.822
REMARK SMILES O=C(OCCOCCOC(=O)[C@H](c1c[nH]c2ccc(Cl)cc12)[NH+]1CCN(c2cccc(Cl)c2)CC1)c1ccc(-c2c3nc(c(-c4ccccc4)c4ccc([nH]4)c(-c4ccccc4)c4nc(c(-c5ccccc5)c5ccc2[nH]5)C=C4)C=C3)cc1
REMARK SMILES IDX 6 1 5 2 4 3 3 4 2 5 1 6 36 7 37 8 83 9 38 10 82 11 39 12
REMARK SMILES IDX 40 13 41 14 76 15 42 16 81 17 75 18 77 19 43 20 80 21 74 22
REMARK SMILES IDX 73 23 44 25 66 26 51 27 65 28 52 29 55 30 64 31 78 32 53 33
REMARK SMILES IDX 54 34 63 36 79 37 56 38 45 39 46 40 50 41 47 42 49 43 48 44
REMARK SMILES IDX 67 45 68 46 72 47 69 48 71 49 70 50 57 51 58 52 62 53 59 54
REMARK SMILES IDX 61 55 60 56 7 57 8 58 9 59 10 60 11 61 12 62 23 63 24 64
REMARK SMILES IDX 35 65 25 67 34 68 26 69 27 70 28 71 33 72 29 73 31 74 30 75
REMARK SMILES IDX 32 76 13 77 14 78 22 79 15 80 16 81 21 82 17 84 19 85 18 86
REMARK SMILES IDX 20 87
REMARK H PARENT 77 24 55 35 23 66 15 83
REMARK Flexibility Score: inf
ROOT
ATOM      1  O   UNL A   1      38.210  21.704  25.886  1.00  0.00    -0.374 OA
ENDROOT
BRANCH   1   2
ATOM      2  C   UNL A   1      38.526  20.615  25.023  1.00  0.00     0.202 C 
BRANCH   2   3
ATOM      3  C   UNL A   1      39.112  19.433  25.795  1.00  0.00     0.261 C 
BRANCH   3   4
ATOM      4  O   UNL A   1      40.464  19.185  25.390  1.00  0.00    -0.460 OA
BRANCH   4   5
ATOM      5  C   UNL A   1      41.565  19.562  26.086  1.00  0.00     0.338 C 
ATOM      6  O   UNL A   1      42.461  18.743  26.279  1.00  0.00    -0.246 OA
BRANCH   5   7
ATOM      7  C   UNL A   1      41.800  20.973  26.522  1.00  0.00     0.060 A 
ATOM      8  C   UNL A   1      42.107  22.051  25.684  1.00  0.00     0.016 A 
ATOM      9  C   UNL A   1      41.611  21.232  27.889  1.00  0.00     0.016 A 
ATOM     10  C   UNL A   1      42.244  23.336  26.171  1.00  0.00     0.010 A 
ATOM     11  C   UNL A   1      41.761  22.523  28.398  1.00  0.00     0.010 A 
ATOM     12  C   UNL A   1      42.100  23.567  27.531  1.00  0.00    -0.014 A 
BRANCH  12  13
ATOM     13  C   UNL A   1      42.557  24.873  28.015  1.00  0.00     0.031 A 
ATOM     14  C   UNL A   1      41.506  25.899  28.290  1.00  0.00     0.074 A 
ATOM     15  C   UNL A   1      43.839  25.034  28.379  1.00  0.00     0.049 A 
ATOM     16  N   UNL A   1      41.634  27.124  28.715  1.00  0.00    -0.248 NA
ATOM     17  C   UNL A   1      40.108  25.478  28.075  1.00  0.00     0.031 C 
ATOM     18  C   UNL A   1      44.874  23.997  28.316  1.00  0.00     0.029 A 
ATOM     19  N   UNL A   1      44.476  26.112  28.924  1.00  0.00    -0.354 N 
ATOM     20  C   UNL A   1      40.343  27.633  28.767  1.00  0.00     0.074 A 
ATOM     21  C   UNL A   1      39.443  26.587  28.344  1.00  0.00     0.031 C 
ATOM     22  C   UNL A   1      46.013  24.487  28.832  1.00  0.00     0.029 A 
ATOM     23  C   UNL A   1      45.804  25.885  29.188  1.00  0.00     0.049 A 
ATOM     24  H   UNL A   1      44.026  26.968  29.109  1.00  0.00     0.167 HD
ATOM     25  C   UNL A   1      39.957  28.879  29.121  1.00  0.00     0.031 A 
ATOM     26  C   UNL A   1      46.739  26.740  29.636  1.00  0.00     0.031 A 
ATOM     27  C   UNL A   1      40.893  29.890  29.527  1.00  0.00     0.049 A 
ATOM     28  C   UNL A   1      46.304  28.154  29.912  1.00  0.00     0.074 A 
ATOM     29  C   UNL A   1      40.662  31.215  29.838  1.00  0.00     0.029 A 
ATOM     30  N   UNL A   1      42.257  29.667  29.676  1.00  0.00    -0.354 N 
ATOM     31  N   UNL A   1      45.098  28.673  29.862  1.00  0.00    -0.248 NA
ATOM     32  C   UNL A   1      47.355  29.103  30.290  1.00  0.00     0.031 C 
ATOM     33  C   UNL A   1      41.899  31.807  30.122  1.00  0.00     0.029 A 
ATOM     34  C   UNL A   1      42.888  30.835  30.058  1.00  0.00     0.049 A 
ATOM     35  H   UNL A   1      42.708  28.803  29.531  1.00  0.00     0.167 HD
ATOM     36  C   UNL A   1      45.239  30.002  30.232  1.00  0.00     0.074 A 
ATOM     37  C   UNL A   1      46.649  30.201  30.515  1.00  0.00     0.031 C 
ATOM     38  C   UNL A   1      44.297  30.973  30.333  1.00  0.00     0.031 A 
BRANCH  25  39
ATOM     39  C   UNL A   1      38.502  29.210  28.952  1.00  0.00    -0.014 A 
ATOM     40  C   UNL A   1      37.972  29.656  27.731  1.00  0.00     0.009 A 
ATOM     41  C   UNL A   1      37.658  29.146  30.073  1.00  0.00     0.009 A 
ATOM     42  C   UNL A   1      36.642  30.081  27.650  1.00  0.00     0.001 A 
ATOM     43  C   UNL A   1      36.322  29.541  29.982  1.00  0.00     0.001 A 
ATOM     44  C   UNL A   1      35.819  30.022  28.776  1.00  0.00     0.000 A 
ENDBRANCH  25  39
BRANCH  26  45
ATOM     45  C   UNL A   1      48.154  26.308  29.792  1.00  0.00    -0.014 A 
ATOM     46  C   UNL A   1      49.059  26.400  28.725  1.00  0.00     0.009 A 
ATOM     47  C   UNL A   1      48.607  25.785  31.015  1.00  0.00     0.009 A 
ATOM     48  C   UNL A   1      50.377  25.956  28.871  1.00  0.00     0.001 A 
ATOM     49  C   UNL A   1      49.932  25.371  31.169  1.00  0.00     0.001 A 
ATOM     50  C   UNL A   1      50.813  25.446  30.094  1.00  0.00     0.000 A 
ENDBRANCH  26  45
BRANCH  38  51
ATOM     51  C   UNL A   1      44.764  32.311  30.827  1.00  0.00    -0.014 A 
ATOM     52  C   UNL A   1      45.216  33.304  29.945  1.00  0.00     0.009 A 
ATOM     53  C   UNL A   1      44.707  32.587  32.202  1.00  0.00     0.009 A 
ATOM     54  C   UNL A   1      45.639  34.538  30.439  1.00  0.00     0.001 A 
ATOM     55  C   UNL A   1      45.096  33.834  32.687  1.00  0.00     0.001 A 
ATOM     56  C   UNL A   1      45.573  34.803  31.806  1.00  0.00     0.000 A 
ENDBRANCH  38  51
ENDBRANCH  12  13
ENDBRANCH   5   7
ENDBRANCH   4   5
ENDBRANCH   3   4
ENDBRANCH   2   3
ENDBRANCH   1   2
BRANCH   1  57
ATOM     57  C   UNL A   1      36.909  22.271  25.791  1.00  0.00     0.202 C 
BRANCH  57  58
ATOM     58  C   UNL A   1      37.011  23.586  25.033  1.00  0.00     0.261 C 
BRANCH  58  59
ATOM     59  O   UNL A   1      35.683  24.070  24.801  1.00  0.00    -0.459 OA
BRANCH  59  60
ATOM     60  C   UNL A   1      34.969  23.413  23.829  1.00  0.00     0.370 C 
ATOM     61  O   UNL A   1      35.417  23.057  22.741  1.00  0.00    -0.245 OA
BRANCH  60  62
ATOM     62  C   UNL A   1      33.520  23.255  24.307  1.00  0.00     0.328 C 
BRANCH  62  63
ATOM     63  N   UNL A   1      32.514  23.479  23.222  1.00  0.00    -0.316 N 
ATOM     64  C   UNL A   1      31.105  23.673  23.678  1.00  0.00     0.284 C 
ATOM     65  C   UNL A   1      32.812  24.526  22.234  1.00  0.00     0.284 C 
ATOM     66  H   UNL A   1      32.604  22.576  22.755  1.00  0.00     0.349 HD
ATOM     67  C   UNL A   1      30.694  25.113  24.138  1.00  0.00     0.178 C 
ATOM     68  C   UNL A   1      32.555  25.959  22.720  1.00  0.00     0.178 C 
ATOM     69  N   UNL A   1      31.169  26.117  23.179  1.00  0.00    -0.360 N 
BRANCH  69  70
ATOM     70  C   UNL A   1      30.829  27.458  23.345  1.00  0.00     0.038 A 
ATOM     71  C   UNL A   1      31.488  28.173  24.355  1.00  0.00     0.026 A 
ATOM     72  C   UNL A   1      29.784  28.085  22.656  1.00  0.00     0.046 A 
ATOM     73  C   UNL A   1      31.126  29.479  24.677  1.00  0.00     0.004 A 
ATOM     74  C   UNL A   1      29.417  29.394  22.983  1.00  0.00     0.043 A 
ATOM     75  C   UNL A   1      30.084  30.093  23.989  1.00  0.00     0.020 A 
ATOM     76  Cl  UNL A   1      28.102  30.149  22.165  1.00  0.00    -0.084 Cl
ENDBRANCH  69  70
ENDBRANCH  62  63
BRANCH  62  77
ATOM     77  C   UNL A   1      33.330  21.979  25.142  1.00  0.00     0.046 A 
ATOM     78  C   UNL A   1      33.237  21.886  26.524  1.00  0.00     0.094 A 
ATOM     79  C   UNL A   1      33.051  20.638  24.669  1.00  0.00     0.011 A 
ATOM     80  N   UNL A   1      33.195  20.573  26.892  1.00  0.00    -0.361 N 
ATOM     81  C   UNL A   1      33.017  19.791  25.782  1.00  0.00     0.046 A 
ATOM     82  C   UNL A   1      32.786  20.062  23.407  1.00  0.00     0.031 A 
ATOM     83  H   UNL A   1      33.280  20.240  27.814  1.00  0.00     0.166 HD
ATOM     84  C   UNL A   1      32.808  18.410  25.705  1.00  0.00     0.028 A 
ATOM     85  C   UNL A   1      32.504  18.688  23.324  1.00  0.00     0.041 A 
ATOM     86  C   UNL A   1      32.536  17.871  24.450  1.00  0.00     0.022 A 
ATOM     87  Cl  UNL A   1      32.077  18.001  21.804  1.00  0.00    -0.084 Cl
ENDBRANCH  62  77
ENDBRANCH  60  62
ENDBRANCH  59  60
ENDBRANCH  58  59
ENDBRANCH  57  58
ENDBRANCH   1  57
TORSDOF 17
ENDMDL
