MODEL 1
REMARK VINA RESULT:     -11.8      0.000      0.000
REMARK SMILES CCn1nc(C(=O)OCCOCCOC(=O)c2ccc(-c3c4nc(c(-c5ccccc5)c5ccc([nH]5)c(-c5ccccc5)c5nc(c(-c6ccccc6)c6ccc3[nH]6)C=C5)C=C4)cc2)c2c1CC[C@H]([NH2+]Cc1nn(CC)c3ccccc13)C2
REMARK SMILES IDX 10 1 9 2 8 3 6 4 7 5 5 6 3 7 4 8 66 9 65 10 67 11 83 12
REMARK SMILES IDX 68 13 69 14 2 15 1 16 70 17 71 20 72 21 73 22 82 23 74 24
REMARK SMILES IDX 77 25 81 26 78 27 80 28 79 29 75 30 76 31 11 32 12 33 13 34
REMARK SMILES IDX 14 35 15 36 16 37 17 38 18 39 64 40 19 41 63 42 20 43 21 44
REMARK SMILES IDX 22 45 57 46 23 47 62 48 56 49 58 50 24 51 61 52 55 53 54 54
REMARK SMILES IDX 25 56 47 57 32 58 46 59 33 60 36 61 45 62 59 63 34 64 35 65
REMARK SMILES IDX 44 67 60 68 37 69 26 70 27 71 31 72 28 73 30 74 29 75 48 76
REMARK SMILES IDX 49 77 53 78 50 79 52 80 51 81 38 82 39 83 43 84 40 85 42 86
REMARK SMILES IDX 41 87
REMARK H PARENT 70 18 70 19 58 55 36 66
REMARK Flexibility Score: inf
ROOT
ATOM      1  C   UNL A   1      39.839  21.758  26.485  1.00  0.00     0.202 C 
ENDROOT
BRANCH   1   2
ATOM      2  C   UNL A   1      38.831  21.202  25.489  1.00  0.00     0.261 C 
BRANCH   2   3
ATOM      3  O   UNL A   1      37.465  21.597  25.770  1.00  0.00    -0.458 OA
BRANCH   3   4
ATOM      4  C   UNL A   1      36.710  21.892  24.656  1.00  0.00     0.359 C 
ATOM      5  O   UNL A   1      37.203  22.322  23.620  1.00  0.00    -0.244 OA
BRANCH   4   6
ATOM      6  C   UNL A   1      35.260  21.628  24.795  1.00  0.00     0.174 A 
ATOM      7  N   UNL A   1      33.492  20.414  24.910  1.00  0.00    -0.269 N 
ATOM      8  N   UNL A   1      34.833  20.369  25.001  1.00  0.00    -0.165 NA
ATOM      9  C   UNL A   1      33.018  21.676  24.704  1.00  0.00     0.043 A 
ATOM     10  C   UNL A   1      34.133  22.481  24.639  1.00  0.00     0.014 A 
ATOM     11  C   UNL A   1      31.616  22.114  24.470  1.00  0.00     0.062 C 
ATOM     12  C   UNL A   1      34.063  23.880  24.186  1.00  0.00     0.105 C 
ATOM     13  C   UNL A   1      31.578  23.479  23.737  1.00  0.00     0.072 C 
ATOM     14  C   UNL A   1      32.651  24.513  24.208  1.00  0.00     0.187 C 
BRANCH   7  15
ATOM     15  C   UNL A   1      32.777  19.151  24.926  1.00  0.00     0.141 C 
ATOM     16  C   UNL A   1      33.381  18.143  23.962  1.00  0.00     0.029 C 
ENDBRANCH   7  15
BRANCH  14  17
ATOM     17  N   UNL A   1      32.526  25.710  23.328  1.00  0.00    -0.338 N 
ATOM     18  H   UNL A   1      32.981  25.490  22.443  1.00  0.00     0.346 HD
ATOM     19  H   UNL A   1      32.954  26.472  23.853  1.00  0.00     0.346 HD
BRANCH  17  20
ATOM     20  C   UNL A   1      31.152  26.176  23.022  1.00  0.00     0.320 C 
BRANCH  20  21
ATOM     21  C   UNL A   1      30.796  27.512  23.644  1.00  0.00     0.124 A 
ATOM     22  N   UNL A   1      30.035  28.418  23.007  1.00  0.00    -0.171 NA
ATOM     23  C   UNL A   1      31.170  28.019  24.920  1.00  0.00     0.029 A 
ATOM     24  N   UNL A   1      30.247  29.569  23.677  1.00  0.00    -0.265 N 
ATOM     25  C   UNL A   1      31.046  29.400  24.784  1.00  0.00     0.069 A 
ATOM     26  C   UNL A   1      31.621  27.503  26.147  1.00  0.00     0.012 A 
ATOM     27  C   UNL A   1      31.563  30.305  25.716  1.00  0.00     0.028 A 
ATOM     28  C   UNL A   1      31.958  28.402  27.169  1.00  0.00     0.001 A 
ATOM     29  C   UNL A   1      31.998  29.776  26.931  1.00  0.00     0.002 A 
BRANCH  24  30
ATOM     30  C   UNL A   1      29.336  30.681  23.470  1.00  0.00     0.141 C 
ATOM     31  C   UNL A   1      27.872  30.338  23.268  1.00  0.00     0.029 C 
ENDBRANCH  24  30
ENDBRANCH  20  21
ENDBRANCH  17  20
ENDBRANCH  14  17
ENDBRANCH   4   6
ENDBRANCH   3   4
ENDBRANCH   2   3
ENDBRANCH   1   2
BRANCH   1  32
ATOM     32  O   UNL A   1      40.387  20.835  27.426  1.00  0.00    -0.374 OA
BRANCH  32  33
ATOM     33  C   UNL A   1      41.784  20.567  27.385  1.00  0.00     0.202 C 
BRANCH  33  34
ATOM     34  C   UNL A   1      42.297  19.705  26.236  1.00  0.00     0.261 C 
BRANCH  34  35
ATOM     35  O   UNL A   1      42.885  20.456  25.183  1.00  0.00    -0.460 OA
BRANCH  35  36
ATOM     36  C   UNL A   1      44.186  20.136  24.965  1.00  0.00     0.338 C 
ATOM     37  O   UNL A   1      44.742  19.092  25.254  1.00  0.00    -0.246 OA
BRANCH  36  38
ATOM     38  C   UNL A   1      44.914  21.337  24.494  1.00  0.00     0.060 A 
ATOM     39  C   UNL A   1      46.013  21.636  25.303  1.00  0.00     0.016 A 
ATOM     40  C   UNL A   1      44.105  22.343  23.947  1.00  0.00     0.016 A 
ATOM     41  C   UNL A   1      45.999  22.849  25.946  1.00  0.00     0.010 A 
ATOM     42  C   UNL A   1      44.076  23.547  24.602  1.00  0.00     0.010 A 
ATOM     43  C   UNL A   1      44.942  23.723  25.676  1.00  0.00    -0.014 A 
BRANCH  43  44
ATOM     44  C   UNL A   1      44.745  24.823  26.588  1.00  0.00     0.031 A 
ATOM     45  C   UNL A   1      45.815  25.828  26.541  1.00  0.00     0.074 A 
ATOM     46  C   UNL A   1      43.635  24.958  27.334  1.00  0.00     0.049 A 
ATOM     47  N   UNL A   1      46.687  26.098  27.451  1.00  0.00    -0.248 NA
ATOM     48  C   UNL A   1      46.030  26.508  25.256  1.00  0.00     0.031 C 
ATOM     49  C   UNL A   1      42.369  24.229  27.240  1.00  0.00     0.029 A 
ATOM     50  N   UNL A   1      43.381  25.908  28.270  1.00  0.00    -0.354 N 
ATOM     51  C   UNL A   1      47.481  27.100  26.911  1.00  0.00     0.074 A 
ATOM     52  C   UNL A   1      47.151  27.178  25.511  1.00  0.00     0.031 C 
ATOM     53  C   UNL A   1      41.415  24.930  27.898  1.00  0.00     0.029 A 
ATOM     54  C   UNL A   1      42.037  26.074  28.549  1.00  0.00     0.049 A 
ATOM     55  H   UNL A   1      44.089  26.429  28.711  1.00  0.00     0.167 HD
ATOM     56  C   UNL A   1      48.187  27.958  27.693  1.00  0.00     0.031 A 
ATOM     57  C   UNL A   1      41.487  27.150  29.164  1.00  0.00     0.031 A 
ATOM     58  C   UNL A   1      48.292  27.497  29.051  1.00  0.00     0.049 A 
ATOM     59  C   UNL A   1      42.577  27.871  29.877  1.00  0.00     0.074 A 
ATOM     60  C   UNL A   1      48.833  26.380  29.659  1.00  0.00     0.029 A 
ATOM     61  N   UNL A   1      47.441  28.054  29.979  1.00  0.00    -0.354 N 
ATOM     62  N   UNL A   1      43.207  27.383  30.908  1.00  0.00    -0.248 NA
ATOM     63  C   UNL A   1      43.285  28.927  29.164  1.00  0.00     0.031 C 
ATOM     64  C   UNL A   1      47.928  26.059  30.714  1.00  0.00     0.029 A 
ATOM     65  C   UNL A   1      46.915  27.021  30.713  1.00  0.00     0.049 A 
ATOM     66  H   UNL A   1      47.246  29.012  30.093  1.00  0.00     0.167 HD
ATOM     67  C   UNL A   1      44.535  27.752  30.729  1.00  0.00     0.074 A 
ATOM     68  C   UNL A   1      44.505  28.783  29.693  1.00  0.00     0.031 C 
ATOM     69  C   UNL A   1      45.559  26.990  31.218  1.00  0.00     0.031 A 
BRANCH  56  70
ATOM     70  C   UNL A   1      48.446  29.387  27.303  1.00  0.00    -0.014 A 
ATOM     71  C   UNL A   1      49.773  29.808  27.129  1.00  0.00     0.009 A 
ATOM     72  C   UNL A   1      47.458  30.390  27.353  1.00  0.00     0.009 A 
ATOM     73  C   UNL A   1      50.095  31.169  27.066  1.00  0.00     0.001 A 
ATOM     74  C   UNL A   1      47.771  31.745  27.240  1.00  0.00     0.001 A 
ATOM     75  C   UNL A   1      49.094  32.136  27.124  1.00  0.00     0.000 A 
ENDBRANCH  56  70
BRANCH  57  76
ATOM     76  C   UNL A   1      40.176  27.763  28.857  1.00  0.00    -0.014 A 
ATOM     77  C   UNL A   1      39.146  27.800  29.807  1.00  0.00     0.009 A 
ATOM     78  C   UNL A   1      40.010  28.530  27.686  1.00  0.00     0.009 A 
ATOM     79  C   UNL A   1      38.002  28.585  29.596  1.00  0.00     0.001 A 
ATOM     80  C   UNL A   1      38.868  29.307  27.472  1.00  0.00     0.001 A 
ATOM     81  C   UNL A   1      37.867  29.343  28.434  1.00  0.00     0.000 A 
ENDBRANCH  57  76
BRANCH  69  82
ATOM     82  C   UNL A   1      45.213  25.833  32.125  1.00  0.00    -0.014 A 
ATOM     83  C   UNL A   1      45.133  25.966  33.522  1.00  0.00     0.009 A 
ATOM     84  C   UNL A   1      44.781  24.629  31.548  1.00  0.00     0.009 A 
ATOM     85  C   UNL A   1      44.664  24.918  34.320  1.00  0.00     0.001 A 
ATOM     86  C   UNL A   1      44.293  23.588  32.343  1.00  0.00     0.001 A 
ATOM     87  C   UNL A   1      44.239  23.731  33.728  1.00  0.00     0.000 A 
ENDBRANCH  69  82
ENDBRANCH  43  44
ENDBRANCH  36  38
ENDBRANCH  35  36
ENDBRANCH  34  35
ENDBRANCH  33  34
ENDBRANCH  32  33
ENDBRANCH   1  32
TORSDOF 19
ENDMDL
MODEL 2
REMARK VINA RESULT:     -11.3      5.291     10.458
REMARK SMILES CCn1nc(C(=O)OCCOCCOC(=O)c2ccc(-c3c4nc(c(-c5ccccc5)c5ccc([nH]5)c(-c5ccccc5)c5nc(c(-c6ccccc6)c6ccc3[nH]6)C=C5)C=C4)cc2)c2c1CC[C@H]([NH2+]Cc1nn(CC)c3ccccc13)C2
REMARK SMILES IDX 10 1 9 2 8 3 6 4 7 5 5 6 3 7 4 8 66 9 65 10 67 11 83 12
REMARK SMILES IDX 68 13 69 14 2 15 1 16 70 17 71 20 72 21 73 22 82 23 74 24
REMARK SMILES IDX 77 25 81 26 78 27 80 28 79 29 75 30 76 31 11 32 12 33 13 34
REMARK SMILES IDX 14 35 15 36 16 37 17 38 18 39 64 40 19 41 63 42 20 43 21 44
REMARK SMILES IDX 22 45 57 46 23 47 62 48 56 49 58 50 24 51 61 52 55 53 54 54
REMARK SMILES IDX 25 56 47 57 32 58 46 59 33 60 36 61 45 62 59 63 34 64 35 65
REMARK SMILES IDX 44 67 60 68 37 69 26 70 27 71 31 72 28 73 30 74 29 75 48 76
REMARK SMILES IDX 49 77 53 78 50 79 52 80 51 81 38 82 39 83 43 84 40 85 42 86
REMARK SMILES IDX 41 87
REMARK H PARENT 70 18 70 19 58 55 36 66
REMARK Flexibility Score: inf
ROOT
ATOM      1  C   UNL A   1      34.354  31.341  28.131  1.00  0.00     0.202 C 
ENDROOT
BRANCH   1   2
ATOM      2  C   UNL A   1      34.106  30.198  27.156  1.00  0.00     0.261 C 
BRANCH   2   3
ATOM      3  O   UNL A   1      32.762  29.660  27.229  1.00  0.00    -0.458 OA
BRANCH   3   4
ATOM      4  C   UNL A   1      31.858  30.250  26.373  1.00  0.00     0.359 C 
ATOM      5  O   UNL A   1      31.520  31.424  26.480  1.00  0.00    -0.244 OA
BRANCH   4   6
ATOM      6  C   UNL A   1      31.343  29.371  25.301  1.00  0.00     0.174 A 
ATOM      7  N   UNL A   1      30.194  28.877  23.555  1.00  0.00    -0.269 N 
ATOM      8  N   UNL A   1      30.684  29.912  24.260  1.00  0.00    -0.165 NA
ATOM      9  C   UNL A   1      30.556  27.667  24.069  1.00  0.00     0.043 A 
ATOM     10  C   UNL A   1      31.308  27.954  25.186  1.00  0.00     0.014 A 
ATOM     11  C   UNL A   1      30.146  26.308  23.624  1.00  0.00     0.062 C 
ATOM     12  C   UNL A   1      31.686  26.918  26.162  1.00  0.00     0.105 C 
ATOM     13  C   UNL A   1      30.300  25.280  24.773  1.00  0.00     0.072 C 
ATOM     14  C   UNL A   1      31.576  25.460  25.656  1.00  0.00     0.187 C 
BRANCH   7  15
ATOM     15  C   UNL A   1      29.289  29.181  22.461  1.00  0.00     0.141 C 
ATOM     16  C   UNL A   1      27.958  29.723  22.957  1.00  0.00     0.029 C 
ENDBRANCH   7  15
BRANCH  14  17
ATOM     17  N   UNL A   1      31.497  24.457  26.755  1.00  0.00    -0.338 N 
ATOM     18  H   UNL A   1      30.912  23.688  26.429  1.00  0.00     0.346 HD
ATOM     19  H   UNL A   1      31.126  24.968  27.556  1.00  0.00     0.346 HD
BRANCH  17  20
ATOM     20  C   UNL A   1      32.778  23.877  27.227  1.00  0.00     0.320 C 
BRANCH  20  21
ATOM     21  C   UNL A   1      33.328  22.779  26.337  1.00  0.00     0.124 A 
ATOM     22  N   UNL A   1      32.679  21.618  26.148  1.00  0.00    -0.171 NA
ATOM     23  C   UNL A   1      34.540  22.773  25.591  1.00  0.00     0.029 A 
ATOM     24  N   UNL A   1      33.611  20.789  25.636  1.00  0.00    -0.265 N 
ATOM     25  C   UNL A   1      34.811  21.420  25.399  1.00  0.00     0.069 A 
ATOM     26  C   UNL A   1      35.449  23.718  25.087  1.00  0.00     0.012 A 
ATOM     27  C   UNL A   1      36.045  20.949  24.939  1.00  0.00     0.028 A 
ATOM     28  C   UNL A   1      36.606  23.256  24.441  1.00  0.00     0.001 A 
ATOM     29  C   UNL A   1      36.931  21.900  24.434  1.00  0.00     0.002 A 
BRANCH  24  30
ATOM     30  C   UNL A   1      33.182  19.553  25.004  1.00  0.00     0.141 C 
ATOM     31  C   UNL A   1      32.554  19.671  23.628  1.00  0.00     0.029 C 
ENDBRANCH  24  30
ENDBRANCH  20  21
ENDBRANCH  17  20
ENDBRANCH  14  17
ENDBRANCH   4   6
ENDBRANCH   3   4
ENDBRANCH   2   3
ENDBRANCH   1   2
BRANCH   1  32
ATOM     32  O   UNL A   1      34.465  32.649  27.572  1.00  0.00    -0.374 OA
BRANCH  32  33
ATOM     33  C   UNL A   1      34.987  33.696  28.383  1.00  0.00     0.202 C 
BRANCH  33  34
ATOM     34  C   UNL A   1      33.991  34.491  29.221  1.00  0.00     0.261 C 
BRANCH  34  35
ATOM     35  O   UNL A   1      33.811  33.973  30.532  1.00  0.00    -0.460 OA
BRANCH  35  36
ATOM     36  C   UNL A   1      33.858  34.930  31.494  1.00  0.00     0.338 C 
ATOM     37  O   UNL A   1      33.564  36.105  31.371  1.00  0.00    -0.246 OA
BRANCH  36  38
ATOM     38  C   UNL A   1      34.525  34.383  32.698  1.00  0.00     0.060 A 
ATOM     39  C   UNL A   1      35.649  35.129  33.060  1.00  0.00     0.016 A 
ATOM     40  C   UNL A   1      34.500  32.986  32.806  1.00  0.00     0.016 A 
ATOM     41  C   UNL A   1      36.857  34.477  33.045  1.00  0.00     0.010 A 
ATOM     42  C   UNL A   1      35.706  32.334  32.769  1.00  0.00     0.010 A 
ATOM     43  C   UNL A   1      36.861  33.109  32.760  1.00  0.00    -0.014 A 
BRANCH  43  44
ATOM     44  C   UNL A   1      38.126  32.510  32.410  1.00  0.00     0.031 A 
ATOM     45  C   UNL A   1      39.056  32.390  33.541  1.00  0.00     0.074 A 
ATOM     46  C   UNL A   1      38.384  32.020  31.185  1.00  0.00     0.049 A 
ATOM     47  N   UNL A   1      40.163  33.025  33.726  1.00  0.00    -0.248 NA
ATOM     48  C   UNL A   1      38.614  31.571  34.678  1.00  0.00     0.031 C 
ATOM     49  C   UNL A   1      37.456  31.774  30.079  1.00  0.00     0.029 A 
ATOM     50  N   UNL A   1      39.555  31.506  30.731  1.00  0.00    -0.354 N 
ATOM     51  C   UNL A   1      40.645  32.572  34.945  1.00  0.00     0.074 A 
ATOM     52  C   UNL A   1      39.574  31.831  35.562  1.00  0.00     0.031 C 
ATOM     53  C   UNL A   1      38.047  30.933  29.197  1.00  0.00     0.029 A 
ATOM     54  C   UNL A   1      39.419  30.692  29.622  1.00  0.00     0.049 A 
ATOM     55  H   UNL A   1      40.423  31.697  31.154  1.00  0.00     0.167 HD
ATOM     56  C   UNL A   1      41.963  32.635  35.266  1.00  0.00     0.031 A 
ATOM     57  C   UNL A   1      40.339  29.800  29.181  1.00  0.00     0.031 A 
ATOM     58  C   UNL A   1      42.696  33.509  34.389  1.00  0.00     0.049 A 
ATOM     59  C   UNL A   1      41.650  30.165  29.784  1.00  0.00     0.074 A 
ATOM     60  C   UNL A   1      42.629  34.855  34.080  1.00  0.00     0.029 A 
ATOM     61  N   UNL A   1      43.427  32.928  33.378  1.00  0.00    -0.354 N 
ATOM     62  N   UNL A   1      42.302  31.252  29.483  1.00  0.00    -0.248 NA
ATOM     63  C   UNL A   1      42.012  29.562  31.060  1.00  0.00     0.031 C 
ATOM     64  C   UNL A   1      42.898  34.926  32.682  1.00  0.00     0.029 A 
ATOM     65  C   UNL A   1      43.153  33.629  32.230  1.00  0.00     0.049 A 
ATOM     66  H   UNL A   1      44.030  32.154  33.462  1.00  0.00     0.167 HD
ATOM     67  C   UNL A   1      42.832  31.702  30.687  1.00  0.00     0.074 A 
ATOM     68  C   UNL A   1      42.705  30.570  31.602  1.00  0.00     0.031 C 
ATOM     69  C   UNL A   1      43.055  33.031  30.916  1.00  0.00     0.031 A 
BRANCH  56  70
ATOM     70  C   UNL A   1      42.639  31.610  36.133  1.00  0.00    -0.014 A 
ATOM     71  C   UNL A   1      43.500  32.048  37.150  1.00  0.00     0.009 A 
ATOM     72  C   UNL A   1      42.663  30.235  35.824  1.00  0.00     0.009 A 
ATOM     73  C   UNL A   1      44.379  31.161  37.783  1.00  0.00     0.001 A 
ATOM     74  C   UNL A   1      43.502  29.340  36.487  1.00  0.00     0.001 A 
ATOM     75  C   UNL A   1      44.381  29.809  37.449  1.00  0.00     0.000 A 
ENDBRANCH  56  70
BRANCH  57  76
ATOM     76  C   UNL A   1      40.063  28.474  28.584  1.00  0.00    -0.014 A 
ATOM     77  C   UNL A   1      40.572  28.119  27.327  1.00  0.00     0.009 A 
ATOM     78  C   UNL A   1      39.479  27.455  29.363  1.00  0.00     0.009 A 
ATOM     79  C   UNL A   1      40.508  26.791  26.877  1.00  0.00     0.001 A 
ATOM     80  C   UNL A   1      39.410  26.134  28.913  1.00  0.00     0.001 A 
ATOM     81  C   UNL A   1      39.935  25.799  27.672  1.00  0.00     0.000 A 
ENDBRANCH  57  76
BRANCH  69  82
ATOM     82  C   UNL A   1      42.889  33.988  29.760  1.00  0.00    -0.014 A 
ATOM     83  C   UNL A   1      41.673  34.639  29.487  1.00  0.00     0.009 A 
ATOM     84  C   UNL A   1      44.028  34.382  29.040  1.00  0.00     0.009 A 
ATOM     85  C   UNL A   1      41.592  35.631  28.506  1.00  0.00     0.001 A 
ATOM     86  C   UNL A   1      43.951  35.388  28.074  1.00  0.00     0.001 A 
ATOM     87  C   UNL A   1      42.733  36.009  27.803  1.00  0.00     0.000 A 
ENDBRANCH  69  82
ENDBRANCH  43  44
ENDBRANCH  36  38
ENDBRANCH  35  36
ENDBRANCH  34  35
ENDBRANCH  33  34
ENDBRANCH  32  33
ENDBRANCH   1  32
TORSDOF 19
ENDMDL
MODEL 3
REMARK VINA RESULT:     -11.1      4.128     10.307
REMARK SMILES CCn1nc(C(=O)OCCOCCOC(=O)c2ccc(-c3c4nc(c(-c5ccccc5)c5ccc([nH]5)c(-c5ccccc5)c5nc(c(-c6ccccc6)c6ccc3[nH]6)C=C5)C=C4)cc2)c2c1CC[C@H]([NH2+]Cc1nn(CC)c3ccccc13)C2
REMARK SMILES IDX 10 1 9 2 8 3 6 4 7 5 5 6 3 7 4 8 66 9 65 10 67 11 83 12
REMARK SMILES IDX 68 13 69 14 2 15 1 16 70 17 71 20 72 21 73 22 82 23 74 24
REMARK SMILES IDX 77 25 81 26 78 27 80 28 79 29 75 30 76 31 11 32 12 33 13 34
REMARK SMILES IDX 14 35 15 36 16 37 17 38 18 39 64 40 19 41 63 42 20 43 21 44
REMARK SMILES IDX 22 45 57 46 23 47 62 48 56 49 58 50 24 51 61 52 55 53 54 54
REMARK SMILES IDX 25 56 47 57 32 58 46 59 33 60 36 61 45 62 59 63 34 64 35 65
REMARK SMILES IDX 44 67 60 68 37 69 26 70 27 71 31 72 28 73 30 74 29 75 48 76
REMARK SMILES IDX 49 77 53 78 50 79 52 80 51 81 38 82 39 83 43 84 40 85 42 86
REMARK SMILES IDX 41 87
REMARK H PARENT 70 18 70 19 58 55 36 66
REMARK Flexibility Score: inf
ROOT
ATOM      1  C   UNL A   1      32.312  27.758  25.979  1.00  0.00     0.202 C 
ENDROOT
BRANCH   1   2
ATOM      2  C   UNL A   1      33.647  27.036  25.852  1.00  0.00     0.261 C 
BRANCH   2   3
ATOM      3  O   UNL A   1      33.517  25.595  25.772  1.00  0.00    -0.458 OA
BRANCH   3   4
ATOM      4  C   UNL A   1      33.801  25.057  24.536  1.00  0.00     0.359 C 
ATOM      5  O   UNL A   1      33.916  25.747  23.529  1.00  0.00    -0.244 OA
BRANCH   4   6
ATOM      6  C   UNL A   1      33.983  23.589  24.517  1.00  0.00     0.174 A 
ATOM      7  N   UNL A   1      33.377  21.537  24.699  1.00  0.00    -0.269 N 
ATOM      8  N   UNL A   1      32.904  22.787  24.552  1.00  0.00    -0.165 NA
ATOM      9  C   UNL A   1      34.739  21.485  24.708  1.00  0.00     0.043 A 
ATOM     10  C   UNL A   1      35.158  22.789  24.579  1.00  0.00     0.014 A 
ATOM     11  C   UNL A   1      35.622  20.308  24.932  1.00  0.00     0.062 C 
ATOM     12  C   UNL A   1      36.560  23.186  24.787  1.00  0.00     0.105 C 
ATOM     13  C   UNL A   1      37.024  20.753  25.420  1.00  0.00     0.072 C 
ATOM     14  C   UNL A   1      37.591  22.033  24.726  1.00  0.00     0.187 C 
BRANCH   7  15
ATOM     15  C   UNL A   1      32.411  20.480  24.937  1.00  0.00     0.141 C 
ATOM     16  C   UNL A   1      32.553  19.342  23.939  1.00  0.00     0.029 C 
ENDBRANCH   7  15
BRANCH  14  17
ATOM     17  N   UNL A   1      38.883  22.359  25.392  1.00  0.00    -0.338 N 
ATOM     18  H   UNL A   1      38.707  23.115  26.053  1.00  0.00     0.346 HD
ATOM     19  H   UNL A   1      39.522  22.595  24.632  1.00  0.00     0.346 HD
BRANCH  17  20
ATOM     20  C   UNL A   1      39.552  21.263  26.132  1.00  0.00     0.320 C 
BRANCH  20  21
ATOM     21  C   UNL A   1      41.067  21.316  26.090  1.00  0.00     0.124 A 
ATOM     22  N   UNL A   1      41.738  22.475  25.972  1.00  0.00    -0.171 NA
ATOM     23  C   UNL A   1      41.991  20.237  26.161  1.00  0.00     0.029 A 
ATOM     24  N   UNL A   1      42.981  22.108  25.599  1.00  0.00    -0.265 N 
ATOM     25  C   UNL A   1      43.147  20.743  25.572  1.00  0.00     0.069 A 
ATOM     26  C   UNL A   1      41.993  18.906  26.612  1.00  0.00     0.012 A 
ATOM     27  C   UNL A   1      44.225  19.935  25.197  1.00  0.00     0.028 A 
ATOM     28  C   UNL A   1      43.149  18.136  26.418  1.00  0.00     0.001 A 
ATOM     29  C   UNL A   1      44.215  18.620  25.660  1.00  0.00     0.002 A 
BRANCH  24  30
ATOM     30  C   UNL A   1      44.060  23.076  25.701  1.00  0.00     0.141 C 
ATOM     31  C   UNL A   1      43.888  24.187  26.719  1.00  0.00     0.029 C 
ENDBRANCH  24  30
ENDBRANCH  20  21
ENDBRANCH  17  20
ENDBRANCH  14  17
ENDBRANCH   4   6
ENDBRANCH   3   4
ENDBRANCH   2   3
ENDBRANCH   1   2
BRANCH   1  32
ATOM     32  O   UNL A   1      32.302  28.957  26.753  1.00  0.00    -0.374 OA
BRANCH  32  33
ATOM     33  C   UNL A   1      33.272  29.959  26.472  1.00  0.00     0.202 C 
BRANCH  33  34
ATOM     34  C   UNL A   1      33.881  30.695  27.661  1.00  0.00     0.261 C 
BRANCH  34  35
ATOM     35  O   UNL A   1      34.281  32.025  27.362  1.00  0.00    -0.460 OA
BRANCH  35  36
ATOM     36  C   UNL A   1      33.511  32.962  27.971  1.00  0.00     0.338 C 
ATOM     37  O   UNL A   1      32.420  33.360  27.609  1.00  0.00    -0.246 OA
BRANCH  36  38
ATOM     38  C   UNL A   1      34.286  33.601  29.060  1.00  0.00     0.060 A 
ATOM     39  C   UNL A   1      35.277  34.454  28.568  1.00  0.00     0.016 A 
ATOM     40  C   UNL A   1      34.499  32.795  30.186  1.00  0.00     0.016 A 
ATOM     41  C   UNL A   1      36.577  34.140  28.878  1.00  0.00     0.010 A 
ATOM     42  C   UNL A   1      35.796  32.464  30.483  1.00  0.00     0.010 A 
ATOM     43  C   UNL A   1      36.805  33.053  29.728  1.00  0.00    -0.014 A 
BRANCH  43  44
ATOM     44  C   UNL A   1      38.144  32.520  29.775  1.00  0.00     0.031 A 
ATOM     45  C   UNL A   1      38.223  31.090  29.448  1.00  0.00     0.074 A 
ATOM     46  C   UNL A   1      39.224  33.288  30.000  1.00  0.00     0.049 A 
ATOM     47  N   UNL A   1      38.519  30.114  30.235  1.00  0.00    -0.248 NA
ATOM     48  C   UNL A   1      37.763  30.690  28.110  1.00  0.00     0.031 C 
ATOM     49  C   UNL A   1      39.328  34.748  30.011  1.00  0.00     0.029 A 
ATOM     50  N   UNL A   1      40.512  32.881  30.137  1.00  0.00    -0.354 N 
ATOM     51  C   UNL A   1      38.432  28.972  29.452  1.00  0.00     0.074 A 
ATOM     52  C   UNL A   1      37.790  29.364  28.223  1.00  0.00     0.031 C 
ATOM     53  C   UNL A   1      40.633  35.091  29.889  1.00  0.00     0.029 A 
ATOM     54  C   UNL A   1      41.442  33.880  29.917  1.00  0.00     0.049 A 
ATOM     55  H   UNL A   1      40.760  31.959  30.372  1.00  0.00     0.167 HD
ATOM     56  C   UNL A   1      39.099  27.831  29.765  1.00  0.00     0.031 A 
ATOM     57  C   UNL A   1      42.758  33.688  29.655  1.00  0.00     0.031 A 
ATOM     58  C   UNL A   1      39.584  27.839  31.119  1.00  0.00     0.049 A 
ATOM     59  C   UNL A   1      43.110  32.309  30.090  1.00  0.00     0.074 A 
ATOM     60  C   UNL A   1      38.990  27.921  32.364  1.00  0.00     0.029 A 
ATOM     61  N   UNL A   1      40.912  28.142  31.317  1.00  0.00    -0.354 N 
ATOM     62  N   UNL A   1      43.124  31.930  31.336  1.00  0.00    -0.248 NA
ATOM     63  C   UNL A   1      42.993  31.230  29.118  1.00  0.00     0.031 C 
ATOM     64  C   UNL A   1      39.871  28.729  33.141  1.00  0.00     0.029 A 
ATOM     65  C   UNL A   1      40.968  29.055  32.340  1.00  0.00     0.049 A 
ATOM     66  H   UNL A   1      41.677  27.775  30.818  1.00  0.00     0.167 HD
ATOM     67  C   UNL A   1      42.597  30.644  31.329  1.00  0.00     0.074 A 
ATOM     68  C   UNL A   1      42.629  30.230  29.928  1.00  0.00     0.031 C 
ATOM     69  C   UNL A   1      41.917  30.145  32.406  1.00  0.00     0.031 A 
BRANCH  56  70
ATOM     70  C   UNL A   1      39.631  26.888  28.722  1.00  0.00    -0.014 A 
ATOM     71  C   UNL A   1      40.540  27.375  27.772  1.00  0.00     0.009 A 
ATOM     72  C   UNL A   1      39.077  25.615  28.481  1.00  0.00     0.009 A 
ATOM     73  C   UNL A   1      40.834  26.647  26.614  1.00  0.00     0.001 A 
ATOM     74  C   UNL A   1      39.406  24.864  27.353  1.00  0.00     0.001 A 
ATOM     75  C   UNL A   1      40.265  25.393  26.404  1.00  0.00     0.000 A 
ENDBRANCH  56  70
BRANCH  57  76
ATOM     76  C   UNL A   1      43.595  34.486  28.732  1.00  0.00    -0.014 A 
ATOM     77  C   UNL A   1      44.925  34.803  29.042  1.00  0.00     0.009 A 
ATOM     78  C   UNL A   1      43.153  34.745  27.419  1.00  0.00     0.009 A 
ATOM     79  C   UNL A   1      45.779  35.348  28.070  1.00  0.00     0.001 A 
ATOM     80  C   UNL A   1      44.000  35.293  26.452  1.00  0.00     0.001 A 
ATOM     81  C   UNL A   1      45.319  35.585  26.775  1.00  0.00     0.000 A 
ENDBRANCH  57  76
BRANCH  69  82
ATOM     82  C   UNL A   1      41.912  30.956  33.680  1.00  0.00    -0.014 A 
ATOM     83  C   UNL A   1      42.662  30.588  34.812  1.00  0.00     0.009 A 
ATOM     84  C   UNL A   1      41.285  32.211  33.679  1.00  0.00     0.009 A 
ATOM     85  C   UNL A   1      42.755  31.436  35.919  1.00  0.00     0.001 A 
ATOM     86  C   UNL A   1      41.395  33.067  34.778  1.00  0.00     0.001 A 
ATOM     87  C   UNL A   1      42.126  32.678  35.899  1.00  0.00     0.000 A 
ENDBRANCH  69  82
ENDBRANCH  43  44
ENDBRANCH  36  38
ENDBRANCH  35  36
ENDBRANCH  34  35
ENDBRANCH  33  34
ENDBRANCH  32  33
ENDBRANCH   1  32
TORSDOF 19
ENDMDL
