MODEL 1
REMARK VINA RESULT:     -11.4      0.000      0.000
REMARK SMILES CN(C)S(=O)(=O)c1ccc(-n2c(CCC(=O)OCCOCCOC(=O)c3ccc(-c4c5nc(c(-c6ccccc6)c6ccc([nH]6)c(-c6ccccc6)c6nc(c(-c7ccccc7)c7ccc4[nH]7)C=C6)C=C5)cc3)ccc2-c2ccc(F)cc2)cc1
REMARK SMILES IDX 18 1 17 2 15 3 16 4 14 5 13 6 12 7 11 8 76 9 74 10 75 11
REMARK SMILES IDX 10 12 7 13 8 14 85 15 9 16 84 17 4 18 5 19 6 20 2 21 1 22
REMARK SMILES IDX 3 23 77 24 78 25 83 26 79 27 82 28 80 29 81 30 19 31 20 32
REMARK SMILES IDX 21 33 22 34 23 35 24 36 25 37 26 38 27 39 73 40 28 41 72 42
REMARK SMILES IDX 29 43 30 44 31 45 66 46 32 47 71 48 65 49 67 50 33 51 70 52
REMARK SMILES IDX 64 53 63 54 34 56 56 57 41 58 55 59 42 60 45 61 54 62 68 63
REMARK SMILES IDX 43 64 44 65 53 67 69 68 46 69 35 70 36 71 40 72 37 73 39 74
REMARK SMILES IDX 38 75 57 76 58 77 62 78 59 79 61 80 60 81 47 82 48 83 52 84
REMARK SMILES IDX 49 85 51 86 50 87
REMARK H PARENT 67 55 45 66
REMARK Flexibility Score: inf
ROOT
ATOM      1  C   UNL A   1      31.147  28.857  24.662  1.00  0.00     0.261 C 
ENDROOT
BRANCH   1   2
ATOM      2  O   UNL A   1      30.996  28.485  23.260  1.00  0.00    -0.463 OA
BRANCH   2   3
ATOM      3  C   UNL A   1      30.971  27.152  22.970  1.00  0.00     0.306 C 
ATOM      4  O   UNL A   1      31.482  26.667  21.964  1.00  0.00    -0.252 OA
BRANCH   3   5
ATOM      5  C   UNL A   1      30.348  26.267  24.058  1.00  0.00     0.129 C 
BRANCH   5   6
ATOM      6  C   UNL A   1      31.005  24.938  24.466  1.00  0.00     0.066 C 
BRANCH   6   7
ATOM      7  C   UNL A   1      32.364  25.111  25.037  1.00  0.00     0.024 A 
ATOM      8  N   UNL A   1      33.276  24.081  25.241  1.00  0.00    -0.314 N 
ATOM      9  C   UNL A   1      34.519  24.696  25.532  1.00  0.00     0.053 A 
ATOM     10  C   UNL A   1      32.930  26.296  25.462  1.00  0.00     0.024 A 
ATOM     11  C   UNL A   1      34.275  26.041  25.758  1.00  0.00     0.029 A 
BRANCH   8  12
ATOM     12  C   UNL A   1      33.027  22.671  25.092  1.00  0.00     0.046 A 
ATOM     13  C   UNL A   1      32.778  19.072  24.924  1.00  0.00     0.082 A 
ATOM     14  C   UNL A   1      33.265  19.877  26.431  1.00  0.00     0.024 A 
ATOM     15  C   UNL A   1      32.473  20.021  23.424  1.00  0.00     0.024 A 
ATOM     16  C   UNL A   1      33.367  21.653  26.533  1.00  0.00     0.028 A 
ATOM     17  C   UNL A   1      32.536  21.850  23.517  1.00  0.00     0.028 A 
BRANCH  13  18
ATOM     18  S   UNL A   1      32.620  17.316  24.935  1.00  0.00     0.242 S 
ATOM     19  O   UNL A   1      31.681  16.967  23.870  1.00  0.00    -0.207 OA
ATOM     20  O   UNL A   1      32.377  16.926  26.291  1.00  0.00    -0.207 OA
BRANCH  18  21
ATOM     21  N   UNL A   1      34.163  16.739  24.465  1.00  0.00    -0.204 NA
ATOM     22  C   UNL A   1      34.591  15.530  25.201  1.00  0.00     0.124 C 
ATOM     23  C   UNL A   1      34.352  16.539  23.010  1.00  0.00     0.124 C 
ENDBRANCH  18  21
ENDBRANCH  13  18
ENDBRANCH   8  12
BRANCH   9  24
ATOM     24  C   UNL A   1      35.863  24.089  25.506  1.00  0.00    -0.001 A 
ATOM     25  C   UNL A   1      36.849  24.528  26.405  1.00  0.00     0.013 A 
ATOM     26  C   UNL A   1      36.194  23.083  24.584  1.00  0.00     0.013 A 
ATOM     27  C   UNL A   1      38.104  23.914  26.440  1.00  0.00     0.040 A 
ATOM     28  C   UNL A   1      37.445  22.459  24.628  1.00  0.00     0.040 A 
ATOM     29  C   UNL A   1      38.383  22.874  25.564  1.00  0.00     0.123 A 
ATOM     30  F   UNL A   1      39.575  22.263  25.623  1.00  0.00    -0.207 F 
ENDBRANCH   9  24
ENDBRANCH   6   7
ENDBRANCH   5   6
ENDBRANCH   3   5
ENDBRANCH   2   3
ENDBRANCH   1   2
BRANCH   1  31
ATOM     31  C   UNL A   1      32.517  29.809  25.180  1.00  0.00     0.202 C 
BRANCH  31  32
ATOM     32  O   UNL A   1      33.264  30.173  27.002  1.00  0.00    -0.374 OA
BRANCH  32  33
ATOM     33  C   UNL A   1      34.279  31.037  27.840  1.00  0.00     0.202 C 
BRANCH  33  34
ATOM     34  C   UNL A   1      35.754  30.761  27.525  1.00  0.00     0.261 C 
BRANCH  34  35
ATOM     35  O   UNL A   1      36.343  29.833  28.404  1.00  0.00    -0.460 OA
BRANCH  35  36
ATOM     36  C   UNL A   1      37.555  30.231  28.813  1.00  0.00     0.338 C 
ATOM     37  O   UNL A   1      37.892  31.329  29.235  1.00  0.00    -0.246 OA
BRANCH  36  38
ATOM     38  C   UNL A   1      38.509  29.188  28.494  1.00  0.00     0.060 A 
ATOM     39  C   UNL A   1      39.154  28.561  29.562  1.00  0.00     0.016 A 
ATOM     40  C   UNL A   1      38.960  29.123  27.171  1.00  0.00     0.016 A 
ATOM     41  C   UNL A   1      40.380  27.996  29.325  1.00  0.00     0.010 A 
ATOM     42  C   UNL A   1      40.216  28.633  26.949  1.00  0.00     0.010 A 
ATOM     43  C   UNL A   1      40.922  28.115  28.039  1.00  0.00    -0.014 A 
BRANCH  43  44
ATOM     44  C   UNL A   1      42.236  27.542  27.793  1.00  0.00     0.031 A 
ATOM     45  C   UNL A   1      43.203  28.721  27.491  1.00  0.00     0.074 A 
ATOM     46  C   UNL A   1      42.242  26.166  27.847  1.00  0.00     0.049 A 
ATOM     47  N   UNL A   1      44.246  28.771  26.729  1.00  0.00    -0.248 NA
ATOM     48  C   UNL A   1      42.913  30.088  28.049  1.00  0.00     0.031 C 
ATOM     49  C   UNL A   1      41.080  25.304  28.218  1.00  0.00     0.029 A 
ATOM     50  N   UNL A   1      43.181  25.189  27.619  1.00  0.00    -0.354 N 
ATOM     51  C   UNL A   1      44.839  30.048  26.894  1.00  0.00     0.074 A 
ATOM     52  C   UNL A   1      43.911  30.855  27.609  1.00  0.00     0.031 C 
ATOM     53  C   UNL A   1      41.355  23.986  28.055  1.00  0.00     0.029 A 
ATOM     54  C   UNL A   1      42.715  23.838  27.591  1.00  0.00     0.049 A 
ATOM     55  H   UNL A   1      44.131  25.410  27.482  1.00  0.00     0.167 HD
ATOM     56  C   UNL A   1      46.150  30.279  26.607  1.00  0.00     0.031 A 
ATOM     57  C   UNL A   1      43.374  22.716  27.134  1.00  0.00     0.031 A 
ATOM     58  C   UNL A   1      46.696  29.119  26.013  1.00  0.00     0.049 A 
ATOM     59  C   UNL A   1      44.681  23.232  26.713  1.00  0.00     0.074 A 
ATOM     60  C   UNL A   1      46.687  28.611  24.750  1.00  0.00     0.029 A 
ATOM     61  N   UNL A   1      47.133  28.165  26.893  1.00  0.00    -0.354 N 
ATOM     62  N   UNL A   1      45.601  23.716  27.486  1.00  0.00    -0.248 NA
ATOM     63  C   UNL A   1      44.791  23.524  25.293  1.00  0.00     0.031 C 
ATOM     64  C   UNL A   1      46.820  27.222  24.950  1.00  0.00     0.029 A 
ATOM     65  C   UNL A   1      46.881  26.948  26.322  1.00  0.00     0.049 A 
ATOM     66  H   UNL A   1      47.549  28.325  27.771  1.00  0.00     0.167 HD
ATOM     67  C   UNL A   1      46.197  24.678  26.700  1.00  0.00     0.074 A 
ATOM     68  C   UNL A   1      45.756  24.426  25.340  1.00  0.00     0.031 C 
ATOM     69  C   UNL A   1      46.665  25.840  27.224  1.00  0.00     0.031 A 
BRANCH  56  70
ATOM     70  C   UNL A   1      47.140  31.299  27.098  1.00  0.00    -0.014 A 
ATOM     71  C   UNL A   1      47.810  30.984  28.309  1.00  0.00     0.009 A 
ATOM     72  C   UNL A   1      47.136  32.637  26.698  1.00  0.00     0.009 A 
ATOM     73  C   UNL A   1      48.277  31.972  29.172  1.00  0.00     0.001 A 
ATOM     74  C   UNL A   1      47.661  33.628  27.542  1.00  0.00     0.001 A 
ATOM     75  C   UNL A   1      48.181  33.302  28.795  1.00  0.00     0.000 A 
ENDBRANCH  56  70
BRANCH  57  76
ATOM     76  C   UNL A   1      43.045  21.304  26.683  1.00  0.00    -0.014 A 
ATOM     77  C   UNL A   1      43.575  20.645  25.575  1.00  0.00     0.009 A 
ATOM     78  C   UNL A   1      42.162  20.515  27.486  1.00  0.00     0.009 A 
ATOM     79  C   UNL A   1      43.321  19.268  25.356  1.00  0.00     0.001 A 
ATOM     80  C   UNL A   1      41.961  19.141  27.316  1.00  0.00     0.001 A 
ATOM     81  C   UNL A   1      42.557  18.508  26.246  1.00  0.00     0.000 A 
ENDBRANCH  57  76
BRANCH  69  82
ATOM     82  C   UNL A   1      46.563  25.946  28.763  1.00  0.00    -0.014 A 
ATOM     83  C   UNL A   1      45.406  26.462  29.363  1.00  0.00     0.009 A 
ATOM     84  C   UNL A   1      47.647  25.680  29.632  1.00  0.00     0.009 A 
ATOM     85  C   UNL A   1      45.335  26.710  30.747  1.00  0.00     0.001 A 
ATOM     86  C   UNL A   1      47.585  25.933  31.018  1.00  0.00     0.001 A 
ATOM     87  C   UNL A   1      46.423  26.451  31.576  1.00  0.00     0.000 A 
ENDBRANCH  69  82
ENDBRANCH  43  44
ENDBRANCH  36  38
ENDBRANCH  35  36
ENDBRANCH  34  35
ENDBRANCH  33  34
ENDBRANCH  32  33
ENDBRANCH  31  32
ENDBRANCH   1  31
TORSDOF 20
ENDMDL
MODEL 2
REMARK VINA RESULT:     -11.1      4.912      9.025
REMARK SMILES CN(C)S(=O)(=O)c1ccc(-n2c(CCC(=O)OCCOCCOC(=O)c3ccc(-c4c5nc(c(-c6ccccc6)c6ccc([nH]6)c(-c6ccccc6)c6nc(c(-c7ccccc7)c7ccc4[nH]7)C=C6)C=C5)cc3)ccc2-c2ccc(F)cc2)cc1
REMARK SMILES IDX 18 1 17 2 15 3 16 4 14 5 13 6 12 7 11 8 76 9 74 10 75 11
REMARK SMILES IDX 10 12 7 13 8 14 85 15 9 16 84 17 4 18 5 19 6 20 2 21 1 22
REMARK SMILES IDX 3 23 77 24 78 25 83 26 79 27 82 28 80 29 81 30 19 31 20 32
REMARK SMILES IDX 21 33 22 34 23 35 24 36 25 37 26 38 27 39 73 40 28 41 72 42
REMARK SMILES IDX 29 43 30 44 31 45 66 46 32 47 71 48 65 49 67 50 33 51 70 52
REMARK SMILES IDX 64 53 63 54 34 56 56 57 41 58 55 59 42 60 45 61 54 62 68 63
REMARK SMILES IDX 43 64 44 65 53 67 69 68 46 69 35 70 36 71 40 72 37 73 39 74
REMARK SMILES IDX 38 75 57 76 58 77 62 78 59 79 61 80 60 81 47 82 48 83 52 84
REMARK SMILES IDX 49 85 51 86 50 87
REMARK H PARENT 67 55 45 66
REMARK Flexibility Score: inf
ROOT
ATOM      1  C   UNL A   1      35.225  24.289  25.517  1.00  0.00     0.261 C 
ENDROOT
BRANCH   1   2
ATOM      2  O   UNL A   1      36.200  23.650  24.641  1.00  0.00    -0.463 OA
BRANCH   2   3
ATOM      3  C   UNL A   1      37.194  22.930  25.237  1.00  0.00     0.306 C 
ATOM      4  O   UNL A   1      37.536  21.811  24.866  1.00  0.00    -0.252 OA
BRANCH   3   5
ATOM      5  C   UNL A   1      37.946  23.670  26.352  1.00  0.00     0.129 C 
BRANCH   5   6
ATOM      6  C   UNL A   1      39.148  24.572  26.028  1.00  0.00     0.066 C 
BRANCH   6   7
ATOM      7  C   UNL A   1      39.856  25.058  27.238  1.00  0.00     0.024 A 
ATOM      8  N   UNL A   1      41.057  24.544  27.716  1.00  0.00    -0.314 N 
ATOM      9  C   UNL A   1      41.518  25.450  28.702  1.00  0.00     0.053 A 
ATOM     10  C   UNL A   1      39.441  26.071  28.079  1.00  0.00     0.024 A 
ATOM     11  C   UNL A   1      40.481  26.325  28.982  1.00  0.00     0.029 A 
BRANCH   8  12
ATOM     12  C   UNL A   1      41.741  23.373  27.234  1.00  0.00     0.046 A 
ATOM     13  C   UNL A   1      43.383  20.587  25.625  1.00  0.00     0.082 A 
ATOM     14  C   UNL A   1      43.687  22.252  25.085  1.00  0.00     0.024 A 
ATOM     15  C   UNL A   1      42.192  20.240  26.932  1.00  0.00     0.024 A 
ATOM     16  C   UNL A   1      42.902  23.637  25.888  1.00  0.00     0.028 A 
ATOM     17  C   UNL A   1      41.403  21.651  27.794  1.00  0.00     0.028 A 
BRANCH  13  18
ATOM     18  S   UNL A   1      44.266  19.284  24.832  1.00  0.00     0.242 S 
ATOM     19  O   UNL A   1      44.219  19.551  23.396  1.00  0.00    -0.207 OA
ATOM     20  O   UNL A   1      43.770  18.052  25.370  1.00  0.00    -0.207 OA
BRANCH  18  21
ATOM     21  N   UNL A   1      45.889  19.491  25.337  1.00  0.00    -0.204 NA
ATOM     22  C   UNL A   1      46.550  18.228  25.735  1.00  0.00     0.124 C 
ATOM     23  C   UNL A   1      46.757  20.242  24.402  1.00  0.00     0.124 C 
ENDBRANCH  18  21
ENDBRANCH  13  18
ENDBRANCH   8  12
BRANCH   9  24
ATOM     24  C   UNL A   1      42.872  25.557  29.277  1.00  0.00    -0.001 A 
ATOM     25  C   UNL A   1      43.668  24.409  29.418  1.00  0.00     0.013 A 
ATOM     26  C   UNL A   1      43.387  26.791  29.710  1.00  0.00     0.013 A 
ATOM     27  C   UNL A   1      44.979  24.506  29.896  1.00  0.00     0.040 A 
ATOM     28  C   UNL A   1      44.703  26.889  30.176  1.00  0.00     0.040 A 
ATOM     29  C   UNL A   1      45.489  25.747  30.252  1.00  0.00     0.123 A 
ATOM     30  F   UNL A   1      46.756  25.842  30.677  1.00  0.00    -0.207 F 
ENDBRANCH   9  24
ENDBRANCH   6   7
ENDBRANCH   5   6
ENDBRANCH   3   5
ENDBRANCH   2   3
ENDBRANCH   1   2
BRANCH   1  31
ATOM     31  C   UNL A   1      33.780  25.012  24.853  1.00  0.00     0.202 C 
BRANCH  31  32
ATOM     32  O   UNL A   1      32.519  26.378  25.598  1.00  0.00    -0.374 OA
BRANCH  32  33
ATOM     33  C   UNL A   1      32.353  27.582  26.599  1.00  0.00     0.202 C 
BRANCH  33  34
ATOM     34  C   UNL A   1      33.362  28.718  26.394  1.00  0.00     0.261 C 
BRANCH  34  35
ATOM     35  O   UNL A   1      34.111  29.007  27.549  1.00  0.00    -0.460 OA
BRANCH  35  36
ATOM     36  C   UNL A   1      34.400  30.311  27.644  1.00  0.00     0.338 C 
ATOM     37  O   UNL A   1      33.692  31.270  27.368  1.00  0.00    -0.246 OA
BRANCH  36  38
ATOM     38  C   UNL A   1      35.809  30.444  27.955  1.00  0.00     0.060 A 
ATOM     39  C   UNL A   1      36.451  29.333  28.507  1.00  0.00     0.016 A 
ATOM     40  C   UNL A   1      36.331  31.742  28.002  1.00  0.00     0.016 A 
ATOM     41  C   UNL A   1      37.562  29.555  29.279  1.00  0.00     0.010 A 
ATOM     42  C   UNL A   1      37.388  31.974  28.836  1.00  0.00     0.010 A 
ATOM     43  C   UNL A   1      37.960  30.881  29.492  1.00  0.00    -0.014 A 
BRANCH  43  44
ATOM     44  C   UNL A   1      39.122  31.120  30.335  1.00  0.00     0.031 A 
ATOM     45  C   UNL A   1      38.632  31.912  31.580  1.00  0.00     0.074 A 
ATOM     46  C   UNL A   1      40.291  30.640  29.789  1.00  0.00     0.049 A 
ATOM     47  N   UNL A   1      39.243  32.793  32.303  1.00  0.00    -0.248 NA
ATOM     48  C   UNL A   1      37.206  31.775  32.040  1.00  0.00     0.031 C 
ATOM     49  C   UNL A   1      40.404  29.854  28.523  1.00  0.00     0.029 A 
ATOM     50  N   UNL A   1      41.618  30.682  30.144  1.00  0.00    -0.354 N 
ATOM     51  C   UNL A   1      38.393  33.123  33.389  1.00  0.00     0.074 A 
ATOM     52  C   UNL A   1      37.113  32.572  33.104  1.00  0.00     0.031 C 
ATOM     53  C   UNL A   1      41.696  29.634  28.177  1.00  0.00     0.029 A 
ATOM     54  C   UNL A   1      42.562  30.218  29.176  1.00  0.00     0.049 A 
ATOM     55  H   UNL A   1      41.905  31.016  31.025  1.00  0.00     0.167 HD
ATOM     56  C   UNL A   1      38.874  33.653  34.547  1.00  0.00     0.031 A 
ATOM     57  C   UNL A   1      43.929  30.390  29.165  1.00  0.00     0.031 A 
ATOM     58  C   UNL A   1      40.250  33.925  34.386  1.00  0.00     0.049 A 
ATOM     59  C   UNL A   1      44.193  31.134  30.402  1.00  0.00     0.074 A 
ATOM     60  C   UNL A   1      40.952  34.950  33.828  1.00  0.00     0.029 A 
ATOM     61  N   UNL A   1      41.084  32.862  34.612  1.00  0.00    -0.354 N 
ATOM     62  N   UNL A   1      44.046  30.692  31.610  1.00  0.00    -0.248 NA
ATOM     63  C   UNL A   1      44.299  32.574  30.234  1.00  0.00     0.031 C 
ATOM     64  C   UNL A   1      42.160  34.346  33.427  1.00  0.00     0.029 A 
ATOM     65  C   UNL A   1      42.130  32.981  33.738  1.00  0.00     0.049 A 
ATOM     66  H   UNL A   1      40.955  32.148  35.277  1.00  0.00     0.167 HD
ATOM     67  C   UNL A   1      43.671  31.817  32.312  1.00  0.00     0.074 A 
ATOM     68  C   UNL A   1      43.970  32.951  31.457  1.00  0.00     0.031 C 
ATOM     69  C   UNL A   1      42.784  31.756  33.339  1.00  0.00     0.031 A 
BRANCH  56  70
ATOM     70  C   UNL A   1      38.361  33.654  35.961  1.00  0.00    -0.014 A 
ATOM     71  C   UNL A   1      38.994  34.559  36.853  1.00  0.00     0.009 A 
ATOM     72  C   UNL A   1      37.643  32.597  36.525  1.00  0.00     0.009 A 
ATOM     73  C   UNL A   1      39.072  34.314  38.221  1.00  0.00     0.001 A 
ATOM     74  C   UNL A   1      37.674  32.383  37.912  1.00  0.00     0.001 A 
ATOM     75  C   UNL A   1      38.427  33.208  38.749  1.00  0.00     0.000 A 
ENDBRANCH  56  70
BRANCH  57  76
ATOM     76  C   UNL A   1      45.081  30.323  28.177  1.00  0.00    -0.014 A 
ATOM     77  C   UNL A   1      46.298  30.994  28.279  1.00  0.00     0.009 A 
ATOM     78  C   UNL A   1      44.971  29.444  27.053  1.00  0.00     0.009 A 
ATOM     79  C   UNL A   1      47.360  30.717  27.382  1.00  0.00     0.001 A 
ATOM     80  C   UNL A   1      46.034  29.116  26.205  1.00  0.00     0.001 A 
ATOM     81  C   UNL A   1      47.245  29.750  26.380  1.00  0.00     0.000 A 
ENDBRANCH  57  76
BRANCH  69  82
ATOM     82  C   UNL A   1      42.316  30.330  33.709  1.00  0.00    -0.014 A 
ATOM     83  C   UNL A   1      41.199  29.764  33.078  1.00  0.00     0.009 A 
ATOM     84  C   UNL A   1      42.870  29.585  34.776  1.00  0.00     0.009 A 
ATOM     85  C   UNL A   1      40.658  28.532  33.493  1.00  0.00     0.001 A 
ATOM     86  C   UNL A   1      42.328  28.354  35.201  1.00  0.00     0.001 A 
ATOM     87  C   UNL A   1      41.216  27.828  34.555  1.00  0.00     0.000 A 
ENDBRANCH  69  82
ENDBRANCH  43  44
ENDBRANCH  36  38
ENDBRANCH  35  36
ENDBRANCH  34  35
ENDBRANCH  33  34
ENDBRANCH  32  33
ENDBRANCH  31  32
ENDBRANCH   1  31
TORSDOF 20
ENDMDL
MODEL 3
REMARK VINA RESULT:     -10.9      5.275      9.504
REMARK SMILES CN(C)S(=O)(=O)c1ccc(-n2c(CCC(=O)OCCOCCOC(=O)c3ccc(-c4c5nc(c(-c6ccccc6)c6ccc([nH]6)c(-c6ccccc6)c6nc(c(-c7ccccc7)c7ccc4[nH]7)C=C6)C=C5)cc3)ccc2-c2ccc(F)cc2)cc1
REMARK SMILES IDX 18 1 17 2 15 3 16 4 14 5 13 6 12 7 11 8 76 9 74 10 75 11
REMARK SMILES IDX 10 12 7 13 8 14 85 15 9 16 84 17 4 18 5 19 6 20 2 21 1 22
REMARK SMILES IDX 3 23 77 24 78 25 83 26 79 27 82 28 80 29 81 30 19 31 20 32
REMARK SMILES IDX 21 33 22 34 23 35 24 36 25 37 26 38 27 39 73 40 28 41 72 42
REMARK SMILES IDX 29 43 30 44 31 45 66 46 32 47 71 48 65 49 67 50 33 51 70 52
REMARK SMILES IDX 64 53 63 54 34 56 56 57 41 58 55 59 42 60 45 61 54 62 68 63
REMARK SMILES IDX 43 64 44 65 53 67 69 68 46 69 35 70 36 71 40 72 37 73 39 74
REMARK SMILES IDX 38 75 57 76 58 77 62 78 59 79 61 80 60 81 47 82 48 83 52 84
REMARK SMILES IDX 49 85 51 86 50 87
REMARK H PARENT 67 55 45 66
REMARK Flexibility Score: inf
ROOT
ATOM      1  C   UNL A   1      35.467  24.141  25.760  1.00  0.00     0.261 C 
ENDROOT
BRANCH   1   2
ATOM      2  O   UNL A   1      36.514  23.453  25.011  1.00  0.00    -0.463 OA
BRANCH   2   3
ATOM      3  C   UNL A   1      37.588  22.998  25.719  1.00  0.00     0.306 C 
ATOM      4  O   UNL A   1      38.075  21.881  25.568  1.00  0.00    -0.252 OA
BRANCH   3   5
ATOM      5  C   UNL A   1      38.229  24.033  26.654  1.00  0.00     0.129 C 
BRANCH   5   6
ATOM      6  C   UNL A   1      39.405  24.903  26.179  1.00  0.00     0.066 C 
BRANCH   6   7
ATOM      7  C   UNL A   1      40.216  25.448  27.296  1.00  0.00     0.024 A 
ATOM      8  N   UNL A   1      41.435  24.929  27.719  1.00  0.00    -0.314 N 
ATOM      9  C   UNL A   1      41.995  25.885  28.601  1.00  0.00     0.053 A 
ATOM     10  C   UNL A   1      39.894  26.529  28.091  1.00  0.00     0.024 A 
ATOM     11  C   UNL A   1      41.007  26.810  28.895  1.00  0.00     0.029 A 
BRANCH   8  12
ATOM     12  C   UNL A   1      42.048  23.706  27.272  1.00  0.00     0.046 A 
ATOM     13  C   UNL A   1      43.485  20.762  25.748  1.00  0.00     0.082 A 
ATOM     14  C   UNL A   1      43.793  22.376  25.071  1.00  0.00     0.024 A 
ATOM     15  C   UNL A   1      42.387  20.545  27.160  1.00  0.00     0.024 A 
ATOM     16  C   UNL A   1      43.111  23.837  25.829  1.00  0.00     0.028 A 
ATOM     17  C   UNL A   1      41.705  22.037  27.976  1.00  0.00     0.028 A 
BRANCH  13  18
ATOM     18  S   UNL A   1      44.269  19.379  24.986  1.00  0.00     0.242 S 
ATOM     19  O   UNL A   1      44.150  19.566  23.541  1.00  0.00    -0.207 OA
ATOM     20  O   UNL A   1      43.756  18.204  25.624  1.00  0.00    -0.207 OA
BRANCH  18  21
ATOM     21  N   UNL A   1      45.925  19.545  25.389  1.00  0.00    -0.204 NA
ATOM     22  C   UNL A   1      46.570  18.271  25.777  1.00  0.00     0.124 C 
ATOM     23  C   UNL A   1      46.758  20.247  24.385  1.00  0.00     0.124 C 
ENDBRANCH  18  21
ENDBRANCH  13  18
ENDBRANCH   8  12
BRANCH   9  24
ATOM     24  C   UNL A   1      43.391  25.987  29.066  1.00  0.00    -0.001 A 
ATOM     25  C   UNL A   1      44.415  26.285  28.152  1.00  0.00     0.013 A 
ATOM     26  C   UNL A   1      43.731  25.774  30.412  1.00  0.00     0.013 A 
ATOM     27  C   UNL A   1      45.733  26.455  28.590  1.00  0.00     0.040 A 
ATOM     28  C   UNL A   1      45.046  25.957  30.852  1.00  0.00     0.040 A 
ATOM     29  C   UNL A   1      46.031  26.308  29.938  1.00  0.00     0.123 A 
ATOM     30  F   UNL A   1      47.287  26.505  30.361  1.00  0.00    -0.207 F 
ENDBRANCH   9  24
ENDBRANCH   6   7
ENDBRANCH   5   6
ENDBRANCH   3   5
ENDBRANCH   2   3
ENDBRANCH   1   2
BRANCH   1  31
ATOM     31  C   UNL A   1      34.443  25.314  24.971  1.00  0.00     0.202 C 
BRANCH  31  32
ATOM     32  O   UNL A   1      33.406  26.867  25.695  1.00  0.00    -0.374 OA
BRANCH  32  33
ATOM     33  C   UNL A   1      33.335  27.971  26.815  1.00  0.00     0.202 C 
BRANCH  33  34
ATOM     34  C   UNL A   1      34.462  29.009  26.752  1.00  0.00     0.261 C 
BRANCH  34  35
ATOM     35  O   UNL A   1      35.263  29.027  27.908  1.00  0.00    -0.460 OA
BRANCH  35  36
ATOM     36  C   UNL A   1      35.498  30.274  28.335  1.00  0.00     0.338 C 
ATOM     37  O   UNL A   1      34.765  31.251  28.270  1.00  0.00    -0.246 OA
BRANCH  36  38
ATOM     38  C   UNL A   1      36.888  30.363  28.736  1.00  0.00     0.060 A 
ATOM     39  C   UNL A   1      37.410  29.304  29.481  1.00  0.00     0.016 A 
ATOM     40  C   UNL A   1      37.495  31.622  28.648  1.00  0.00     0.016 A 
ATOM     41  C   UNL A   1      38.477  29.564  30.301  1.00  0.00     0.010 A 
ATOM     42  C   UNL A   1      38.506  31.904  29.524  1.00  0.00     0.010 A 
ATOM     43  C   UNL A   1      38.952  30.881  30.365  1.00  0.00    -0.014 A 
BRANCH  43  44
ATOM     44  C   UNL A   1      40.066  31.164  31.256  1.00  0.00     0.031 A 
ATOM     45  C   UNL A   1      41.351  30.612  30.576  1.00  0.00     0.074 A 
ATOM     46  C   UNL A   1      39.677  31.774  32.428  1.00  0.00     0.049 A 
ATOM     47  N   UNL A   1      42.429  30.127  31.099  1.00  0.00    -0.248 NA
ATOM     48  C   UNL A   1      41.412  30.493  29.078  1.00  0.00     0.031 C 
ATOM     49  C   UNL A   1      38.290  32.218  32.760  1.00  0.00     0.029 A 
ATOM     50  N   UNL A   1      40.317  32.161  33.581  1.00  0.00    -0.354 N 
ATOM     51  C   UNL A   1      43.343  29.875  30.044  1.00  0.00     0.074 A 
ATOM     52  C   UNL A   1      42.621  29.992  28.824  1.00  0.00     0.031 C 
ATOM     53  C   UNL A   1      38.194  32.666  34.036  1.00  0.00     0.029 A 
ATOM     54  C   UNL A   1      39.492  32.591  34.665  1.00  0.00     0.049 A 
ATOM     55  H   UNL A   1      41.299  32.143  33.655  1.00  0.00     0.167 HD
ATOM     56  C   UNL A   1      44.685  29.793  30.255  1.00  0.00     0.031 A 
ATOM     57  C   UNL A   1      39.843  32.777  35.985  1.00  0.00     0.031 A 
ATOM     58  C   UNL A   1      44.931  29.848  31.646  1.00  0.00     0.049 A 
ATOM     59  C   UNL A   1      41.275  32.459  36.008  1.00  0.00     0.074 A 
ATOM     60  C   UNL A   1      44.891  28.930  32.650  1.00  0.00     0.029 A 
ATOM     61  N   UNL A   1      44.999  31.110  32.174  1.00  0.00    -0.354 N 
ATOM     62  N   UNL A   1      42.222  33.137  35.441  1.00  0.00    -0.248 NA
ATOM     63  C   UNL A   1      41.590  31.098  36.414  1.00  0.00     0.031 C 
ATOM     64  C   UNL A   1      44.606  29.701  33.794  1.00  0.00     0.029 A 
ATOM     65  C   UNL A   1      44.464  31.046  33.432  1.00  0.00     0.049 A 
ATOM     66  H   UNL A   1      45.363  31.911  31.733  1.00  0.00     0.167 HD
ATOM     67  C   UNL A   1      43.134  32.167  35.086  1.00  0.00     0.074 A 
ATOM     68  C   UNL A   1      42.763  30.969  35.817  1.00  0.00     0.031 C 
ATOM     69  C   UNL A   1      43.864  32.256  33.944  1.00  0.00     0.031 A 
BRANCH  56  70
ATOM     70  C   UNL A   1      45.876  30.016  29.364  1.00  0.00    -0.014 A 
ATOM     71  C   UNL A   1      45.611  30.060  27.970  1.00  0.00     0.009 A 
ATOM     72  C   UNL A   1      47.194  29.774  29.757  1.00  0.00     0.009 A 
ATOM     73  C   UNL A   1      46.564  29.689  27.026  1.00  0.00     0.001 A 
ATOM     74  C   UNL A   1      48.170  29.457  28.800  1.00  0.00     0.001 A 
ATOM     75  C   UNL A   1      47.844  29.364  27.446  1.00  0.00     0.000 A 
ENDBRANCH  56  70
BRANCH  57  76
ATOM     76  C   UNL A   1      39.170  32.884  37.342  1.00  0.00    -0.014 A 
ATOM     77  C   UNL A   1      39.547  33.723  38.389  1.00  0.00     0.009 A 
ATOM     78  C   UNL A   1      37.988  32.114  37.584  1.00  0.00     0.009 A 
ATOM     79  C   UNL A   1      38.735  33.857  39.544  1.00  0.00     0.001 A 
ATOM     80  C   UNL A   1      37.148  32.291  38.689  1.00  0.00     0.001 A 
ATOM     81  C   UNL A   1      37.520  33.181  39.673  1.00  0.00     0.000 A 
ENDBRANCH  57  76
BRANCH  69  82
ATOM     82  C   UNL A   1      43.659  33.561  33.142  1.00  0.00    -0.014 A 
ATOM     83  C   UNL A   1      42.821  33.580  32.018  1.00  0.00     0.009 A 
ATOM     84  C   UNL A   1      44.392  34.746  33.389  1.00  0.00     0.009 A 
ATOM     85  C   UNL A   1      42.726  34.707  31.181  1.00  0.00     0.001 A 
ATOM     86  C   UNL A   1      44.307  35.876  32.549  1.00  0.00     0.001 A 
ATOM     87  C   UNL A   1      43.470  35.854  31.441  1.00  0.00     0.000 A 
ENDBRANCH  69  82
ENDBRANCH  43  44
ENDBRANCH  36  38
ENDBRANCH  35  36
ENDBRANCH  34  35
ENDBRANCH  33  34
ENDBRANCH  32  33
ENDBRANCH  31  32
ENDBRANCH   1  31
TORSDOF 20
ENDMDL
