MODEL 1
REMARK VINA RESULT:      -9.4      0.000      0.000
REMARK SMILES CN(CC(C)(C)C)C(=O)N1CCO[C@@H](CC(=O)OCCOCCOC(=O)c2ccc(-c3c4nc(c(-c5ccccc5)c5ccc([nH]5)c(-c5ccccc5)c5nc(c(-c6ccccc6)c6ccc3[nH]6)C=C5)C=C4)cc2)C1
REMARK SMILES IDX 19 1 18 2 16 3 17 4 15 5 14 6 10 7 11 8 75 9 12 10 13 11
REMARK SMILES IDX 8 12 9 13 2 14 1 15 3 16 4 17 5 18 6 19 7 20 20 21 21 22
REMARK SMILES IDX 22 23 23 24 24 25 25 26 26 27 27 28 28 29 74 30 29 31 73 32
REMARK SMILES IDX 30 33 31 34 32 35 67 36 33 37 72 38 66 39 68 40 34 41 71 42
REMARK SMILES IDX 65 43 64 44 35 46 57 47 42 48 56 49 43 50 46 51 55 52 69 53
REMARK SMILES IDX 44 54 45 55 54 57 70 58 47 59 36 60 37 61 41 62 38 63 40 64
REMARK SMILES IDX 39 65 58 66 59 67 63 68 60 69 62 70 61 71 48 72 49 73 53 74
REMARK SMILES IDX 50 75 52 76 51 77
REMARK H PARENT 68 45 46 56
REMARK Flexibility Score: inf
ROOT
ATOM      1  C   UNL A   1      34.193  33.087  28.253  1.00  0.00     0.261 C 
ENDROOT
BRANCH   1   2
ATOM      2  O   UNL A   1      33.396  31.967  27.832  1.00  0.00    -0.463 OA
BRANCH   2   3
ATOM      3  C   UNL A   1      34.090  30.884  27.407  1.00  0.00     0.308 C 
ATOM      4  O   UNL A   1      35.298  30.729  27.524  1.00  0.00    -0.252 OA
BRANCH   3   5
ATOM      5  C   UNL A   1      33.206  29.906  26.692  1.00  0.00     0.156 C 
BRANCH   5   6
ATOM      6  C   UNL A   1      33.835  28.815  25.820  1.00  0.00     0.149 C 
ATOM      7  N   UNL A   1      33.843  26.397  25.212  1.00  0.00    -0.320 N 
ATOM      8  C   UNL A   1      32.970  26.727  24.108  1.00  0.00     0.150 C 
ATOM      9  C   UNL A   1      33.631  27.347  26.307  1.00  0.00     0.154 C 
ATOM     10  C   UNL A   1      33.433  28.058  23.548  1.00  0.00     0.182 C 
ATOM     11  O   UNL A   1      33.216  29.077  24.526  1.00  0.00    -0.374 OA
BRANCH   7  12
ATOM     12  C   UNL A   1      34.155  25.081  25.476  1.00  0.00     0.319 C 
ATOM     13  O   UNL A   1      35.329  24.758  25.660  1.00  0.00    -0.248 OA
BRANCH  12  14
ATOM     14  N   UNL A   1      33.120  24.137  25.418  1.00  0.00    -0.327 N 
ATOM     15  C   UNL A   1      32.140  24.213  26.497  1.00  0.00     0.148 C 
BRANCH  14  16
ATOM     16  C   UNL A   1      33.112  22.876  24.658  1.00  0.00     0.127 C 
BRANCH  16  17
ATOM     17  C   UNL A   1      32.402  22.887  23.259  1.00  0.00    -0.020 C 
ATOM     18  C   UNL A   1      31.069  23.635  23.298  1.00  0.00     0.012 C 
ATOM     19  C   UNL A   1      33.319  23.630  22.265  1.00  0.00     0.012 C 
ATOM     20  C   UNL A   1      32.104  21.491  22.690  1.00  0.00     0.012 C 
ENDBRANCH  16  17
ENDBRANCH  14  16
ENDBRANCH  12  14
ENDBRANCH   7  12
ENDBRANCH   5   6
ENDBRANCH   3   5
ENDBRANCH   2   3
ENDBRANCH   1   2
BRANCH   1  21
ATOM     21  C   UNL A   1      34.409  33.060  29.765  1.00  0.00     0.202 C 
BRANCH  21  22
ATOM     22  O   UNL A   1      34.494  34.325  30.419  1.00  0.00    -0.374 OA
BRANCH  22  23
ATOM     23  C   UNL A   1      35.041  34.344  31.736  1.00  0.00     0.202 C 
BRANCH  23  24
ATOM     24  C   UNL A   1      34.405  33.399  32.768  1.00  0.00     0.261 C 
BRANCH  24  25
ATOM     25  O   UNL A   1      35.072  32.127  32.837  1.00  0.00    -0.460 OA
BRANCH  25  26
ATOM     26  C   UNL A   1      36.312  32.156  33.389  1.00  0.00     0.338 C 
ATOM     27  O   UNL A   1      36.616  32.573  34.489  1.00  0.00    -0.246 OA
BRANCH  26  28
ATOM     28  C   UNL A   1      37.264  31.428  32.521  1.00  0.00     0.060 A 
ATOM     29  C   UNL A   1      38.329  30.745  33.115  1.00  0.00     0.016 A 
ATOM     30  C   UNL A   1      37.138  31.444  31.136  1.00  0.00     0.016 A 
ATOM     31  C   UNL A   1      39.297  30.132  32.317  1.00  0.00     0.010 A 
ATOM     32  C   UNL A   1      38.088  30.811  30.335  1.00  0.00     0.010 A 
ATOM     33  C   UNL A   1      39.203  30.197  30.919  1.00  0.00    -0.014 A 
BRANCH  33  34
ATOM     34  C   UNL A   1      40.335  29.758  30.068  1.00  0.00     0.031 A 
ATOM     35  C   UNL A   1      41.449  30.727  29.775  1.00  0.00     0.074 A 
ATOM     36  C   UNL A   1      40.378  28.510  29.570  1.00  0.00     0.049 A 
ATOM     37  N   UNL A   1      42.542  30.552  29.073  1.00  0.00    -0.248 NA
ATOM     38  C   UNL A   1      41.311  32.080  30.340  1.00  0.00     0.031 C 
ATOM     39  C   UNL A   1      39.362  27.480  29.776  1.00  0.00     0.029 A 
ATOM     40  N   UNL A   1      41.323  27.900  28.783  1.00  0.00    -0.354 N 
ATOM     41  C   UNL A   1      43.211  31.769  29.107  1.00  0.00     0.074 A 
ATOM     42  C   UNL A   1      42.383  32.688  29.855  1.00  0.00     0.031 C 
ATOM     43  C   UNL A   1      39.746  26.358  29.144  1.00  0.00     0.029 A 
ATOM     44  C   UNL A   1      41.015  26.602  28.461  1.00  0.00     0.049 A 
ATOM     45  H   UNL A   1      42.144  28.351  28.477  1.00  0.00     0.167 HD
ATOM     46  C   UNL A   1      44.414  32.092  28.575  1.00  0.00     0.031 A 
ATOM     47  C   UNL A   1      41.677  25.714  27.695  1.00  0.00     0.031 A 
ATOM     48  C   UNL A   1      45.231  31.181  27.819  1.00  0.00     0.049 A 
ATOM     49  C   UNL A   1      42.986  26.111  27.068  1.00  0.00     0.074 A 
ATOM     50  C   UNL A   1      46.484  31.397  27.273  1.00  0.00     0.029 A 
ATOM     51  N   UNL A   1      44.870  29.883  27.492  1.00  0.00    -0.354 N 
ATOM     52  N   UNL A   1      43.641  27.244  27.162  1.00  0.00    -0.248 NA
ATOM     53  C   UNL A   1      43.657  25.098  26.240  1.00  0.00     0.031 C 
ATOM     54  C   UNL A   1      46.850  30.252  26.557  1.00  0.00     0.029 A 
ATOM     55  C   UNL A   1      45.860  29.297  26.722  1.00  0.00     0.049 A 
ATOM     56  H   UNL A   1      44.034  29.442  27.768  1.00  0.00     0.167 HD
ATOM     57  C   UNL A   1      44.810  27.071  26.431  1.00  0.00     0.074 A 
ATOM     58  C   UNL A   1      44.783  25.717  25.916  1.00  0.00     0.031 C 
ATOM     59  C   UNL A   1      45.819  27.950  26.210  1.00  0.00     0.031 A 
BRANCH  46  60
ATOM     60  C   UNL A   1      44.903  33.502  28.772  1.00  0.00    -0.014 A 
ATOM     61  C   UNL A   1      45.842  33.820  29.766  1.00  0.00     0.009 A 
ATOM     62  C   UNL A   1      44.436  34.524  27.931  1.00  0.00     0.009 A 
ATOM     63  C   UNL A   1      46.270  35.139  29.941  1.00  0.00     0.001 A 
ATOM     64  C   UNL A   1      44.890  35.835  28.086  1.00  0.00     0.001 A 
ATOM     65  C   UNL A   1      45.798  36.144  29.098  1.00  0.00     0.000 A 
ENDBRANCH  46  60
BRANCH  47  66
ATOM     66  C   UNL A   1      41.115  24.354  27.481  1.00  0.00    -0.014 A 
ATOM     67  C   UNL A   1      40.011  24.162  26.635  1.00  0.00     0.009 A 
ATOM     68  C   UNL A   1      41.676  23.240  28.126  1.00  0.00     0.009 A 
ATOM     69  C   UNL A   1      39.467  22.887  26.461  1.00  0.00     0.001 A 
ATOM     70  C   UNL A   1      41.151  21.963  27.923  1.00  0.00     0.001 A 
ATOM     71  C   UNL A   1      40.040  21.789  27.099  1.00  0.00     0.000 A 
ENDBRANCH  47  66
BRANCH  59  72
ATOM     72  C   UNL A   1      46.995  27.466  25.407  1.00  0.00    -0.014 A 
ATOM     73  C   UNL A   1      47.119  27.755  24.039  1.00  0.00     0.009 A 
ATOM     74  C   UNL A   1      48.017  26.743  26.043  1.00  0.00     0.009 A 
ATOM     75  C   UNL A   1      48.224  27.296  23.318  1.00  0.00     0.001 A 
ATOM     76  C   UNL A   1      49.137  26.316  25.328  1.00  0.00     0.001 A 
ATOM     77  C   UNL A   1      49.234  26.584  23.964  1.00  0.00     0.000 A 
ENDBRANCH  59  72
ENDBRANCH  33  34
ENDBRANCH  26  28
ENDBRANCH  25  26
ENDBRANCH  24  25
ENDBRANCH  23  24
ENDBRANCH  22  23
ENDBRANCH  21  22
ENDBRANCH   1  21
TORSDOF 19
ENDMDL
MODEL 2
REMARK VINA RESULT:      -9.2      3.363      8.823
REMARK SMILES CN(CC(C)(C)C)C(=O)N1CCO[C@@H](CC(=O)OCCOCCOC(=O)c2ccc(-c3c4nc(c(-c5ccccc5)c5ccc([nH]5)c(-c5ccccc5)c5nc(c(-c6ccccc6)c6ccc3[nH]6)C=C5)C=C4)cc2)C1
REMARK SMILES IDX 19 1 18 2 16 3 17 4 15 5 14 6 10 7 11 8 75 9 12 10 13 11
REMARK SMILES IDX 8 12 9 13 2 14 1 15 3 16 4 17 5 18 6 19 7 20 20 21 21 22
REMARK SMILES IDX 22 23 23 24 24 25 25 26 26 27 27 28 28 29 74 30 29 31 73 32
REMARK SMILES IDX 30 33 31 34 32 35 67 36 33 37 72 38 66 39 68 40 34 41 71 42
REMARK SMILES IDX 65 43 64 44 35 46 57 47 42 48 56 49 43 50 46 51 55 52 69 53
REMARK SMILES IDX 44 54 45 55 54 57 70 58 47 59 36 60 37 61 41 62 38 63 40 64
REMARK SMILES IDX 39 65 58 66 59 67 63 68 60 69 62 70 61 71 48 72 49 73 53 74
REMARK SMILES IDX 50 75 52 76 51 77
REMARK H PARENT 68 45 46 56
REMARK Flexibility Score: inf
ROOT
ATOM      1  C   UNL A   1      38.835  21.456  25.979  1.00  0.00     0.261 C 
ENDROOT
BRANCH   1   2
ATOM      2  O   UNL A   1      38.156  22.312  25.045  1.00  0.00    -0.463 OA
BRANCH   2   3
ATOM      3  C   UNL A   1      37.003  21.818  24.532  1.00  0.00     0.308 C 
ATOM      4  O   UNL A   1      36.502  20.743  24.832  1.00  0.00    -0.252 OA
BRANCH   3   5
ATOM      5  C   UNL A   1      36.436  22.718  23.476  1.00  0.00     0.156 C 
BRANCH   5   6
ATOM      6  C   UNL A   1      35.008  23.254  23.625  1.00  0.00     0.149 C 
ATOM      7  N   UNL A   1      33.577  25.257  24.012  1.00  0.00    -0.320 N 
ATOM      8  C   UNL A   1      33.429  25.363  22.578  1.00  0.00     0.150 C 
ATOM      9  C   UNL A   1      34.866  24.638  24.330  1.00  0.00     0.154 C 
ATOM     10  C   UNL A   1      33.316  23.953  22.031  1.00  0.00     0.182 C 
ATOM     11  O   UNL A   1      34.553  23.269  22.240  1.00  0.00    -0.374 OA
BRANCH   7  12
ATOM     12  C   UNL A   1      33.044  26.226  24.834  1.00  0.00     0.319 C 
ATOM     13  O   UNL A   1      33.685  27.252  25.061  1.00  0.00    -0.248 OA
BRANCH  12  14
ATOM     14  N   UNL A   1      31.824  25.950  25.469  1.00  0.00    -0.327 N 
ATOM     15  C   UNL A   1      30.805  26.988  25.351  1.00  0.00     0.148 C 
BRANCH  14  16
ATOM     16  C   UNL A   1      31.582  24.960  26.532  1.00  0.00     0.127 C 
BRANCH  16  17
ATOM     17  C   UNL A   1      31.217  23.501  26.084  1.00  0.00    -0.020 C 
ATOM     18  C   UNL A   1      32.388  22.535  26.269  1.00  0.00     0.012 C 
ATOM     19  C   UNL A   1      30.061  23.003  26.975  1.00  0.00     0.012 C 
ATOM     20  C   UNL A   1      30.780  23.382  24.615  1.00  0.00     0.012 C 
ENDBRANCH  16  17
ENDBRANCH  14  16
ENDBRANCH  12  14
ENDBRANCH   7  12
ENDBRANCH   5   6
ENDBRANCH   3   5
ENDBRANCH   2   3
ENDBRANCH   1   2
BRANCH   1  21
ATOM     21  C   UNL A   1      39.966  22.207  26.679  1.00  0.00     0.202 C 
BRANCH  21  22
ATOM     22  O   UNL A   1      41.276  21.659  26.540  1.00  0.00    -0.374 OA
BRANCH  22  23
ATOM     23  C   UNL A   1      41.374  20.300  26.118  1.00  0.00     0.202 C 
BRANCH  23  24
ATOM     24  C   UNL A   1      42.787  19.710  25.989  1.00  0.00     0.261 C 
BRANCH  24  25
ATOM     25  O   UNL A   1      43.165  19.474  24.622  1.00  0.00    -0.460 OA
BRANCH  25  26
ATOM     26  C   UNL A   1      44.476  19.688  24.342  1.00  0.00     0.338 C 
ATOM     27  O   UNL A   1      45.229  18.947  23.741  1.00  0.00    -0.246 OA
BRANCH  26  28
ATOM     28  C   UNL A   1      44.851  21.068  24.722  1.00  0.00     0.060 A 
ATOM     29  C   UNL A   1      45.465  21.282  25.960  1.00  0.00     0.016 A 
ATOM     30  C   UNL A   1      44.570  22.148  23.893  1.00  0.00     0.016 A 
ATOM     31  C   UNL A   1      45.741  22.582  26.386  1.00  0.00     0.010 A 
ATOM     32  C   UNL A   1      44.867  23.448  24.303  1.00  0.00     0.010 A 
ATOM     33  C   UNL A   1      45.405  23.677  25.577  1.00  0.00    -0.014 A 
BRANCH  33  34
ATOM     34  C   UNL A   1      45.476  25.058  26.111  1.00  0.00     0.031 A 
ATOM     35  C   UNL A   1      46.793  25.788  26.079  1.00  0.00     0.074 A 
ATOM     36  C   UNL A   1      44.383  25.661  26.610  1.00  0.00     0.049 A 
ATOM     37  N   UNL A   1      47.080  27.004  26.473  1.00  0.00    -0.248 NA
ATOM     38  C   UNL A   1      47.945  25.046  25.538  1.00  0.00     0.031 C 
ATOM     39  C   UNL A   1      43.053  25.062  26.701  1.00  0.00     0.029 A 
ATOM     40  N   UNL A   1      44.224  26.919  27.135  1.00  0.00    -0.354 N 
ATOM     41  C   UNL A   1      48.439  27.166  26.236  1.00  0.00     0.074 A 
ATOM     42  C   UNL A   1      48.931  25.912  25.710  1.00  0.00     0.031 C 
ATOM     43  C   UNL A   1      42.208  25.959  27.237  1.00  0.00     0.029 A 
ATOM     44  C   UNL A   1      42.944  27.180  27.557  1.00  0.00     0.049 A 
ATOM     45  H   UNL A   1      44.958  27.572  27.204  1.00  0.00     0.167 HD
ATOM     46  C   UNL A   1      49.210  28.264  26.426  1.00  0.00     0.031 A 
ATOM     47  C   UNL A   1      42.427  28.277  28.142  1.00  0.00     0.031 A 
ATOM     48  C   UNL A   1      48.723  29.507  26.962  1.00  0.00     0.049 A 
ATOM     49  C   UNL A   1      43.314  29.467  28.394  1.00  0.00     0.074 A 
ATOM     50  C   UNL A   1      49.411  30.691  27.155  1.00  0.00     0.029 A 
ATOM     51  N   UNL A   1      47.425  29.721  27.402  1.00  0.00    -0.354 N 
ATOM     52  N   UNL A   1      44.583  29.632  28.106  1.00  0.00    -0.248 NA
ATOM     53  C   UNL A   1      42.690  30.631  29.041  1.00  0.00     0.031 C 
ATOM     54  C   UNL A   1      48.549  31.601  27.776  1.00  0.00     0.029 A 
ATOM     55  C   UNL A   1      47.303  31.008  27.900  1.00  0.00     0.049 A 
ATOM     56  H   UNL A   1      46.699  29.058  27.366  1.00  0.00     0.167 HD
ATOM     57  C   UNL A   1      44.901  30.923  28.508  1.00  0.00     0.074 A 
ATOM     58  C   UNL A   1      43.687  31.504  29.043  1.00  0.00     0.031 C 
ATOM     59  C   UNL A   1      46.090  31.573  28.435  1.00  0.00     0.031 A 
BRANCH  46  60
ATOM     60  C   UNL A   1      50.670  28.156  26.075  1.00  0.00    -0.014 A 
ATOM     61  C   UNL A   1      51.138  28.462  24.787  1.00  0.00     0.009 A 
ATOM     62  C   UNL A   1      51.594  27.766  27.056  1.00  0.00     0.009 A 
ATOM     63  C   UNL A   1      52.496  28.339  24.479  1.00  0.00     0.001 A 
ATOM     64  C   UNL A   1      52.955  27.676  26.755  1.00  0.00     0.001 A 
ATOM     65  C   UNL A   1      53.403  27.951  25.464  1.00  0.00     0.000 A 
ENDBRANCH  46  60
BRANCH  47  66
ATOM     66  C   UNL A   1      40.992  28.305  28.528  1.00  0.00    -0.014 A 
ATOM     67  C   UNL A   1      40.564  27.728  29.734  1.00  0.00     0.009 A 
ATOM     68  C   UNL A   1      40.040  28.907  27.690  1.00  0.00     0.009 A 
ATOM     69  C   UNL A   1      39.210  27.730  30.079  1.00  0.00     0.001 A 
ATOM     70  C   UNL A   1      38.692  28.936  28.053  1.00  0.00     0.001 A 
ATOM     71  C   UNL A   1      38.277  28.338  29.242  1.00  0.00     0.000 A 
ENDBRANCH  47  66
BRANCH  59  72
ATOM     72  C   UNL A   1      46.129  32.999  28.913  1.00  0.00    -0.014 A 
ATOM     73  C   UNL A   1      46.465  33.321  30.237  1.00  0.00     0.009 A 
ATOM     74  C   UNL A   1      45.864  34.039  28.007  1.00  0.00     0.009 A 
ATOM     75  C   UNL A   1      46.498  34.655  30.652  1.00  0.00     0.001 A 
ATOM     76  C   UNL A   1      45.931  35.371  28.417  1.00  0.00     0.001 A 
ATOM     77  C   UNL A   1      46.237  35.678  29.741  1.00  0.00     0.000 A 
ENDBRANCH  59  72
ENDBRANCH  33  34
ENDBRANCH  26  28
ENDBRANCH  25  26
ENDBRANCH  24  25
ENDBRANCH  23  24
ENDBRANCH  22  23
ENDBRANCH  21  22
ENDBRANCH   1  21
TORSDOF 19
ENDMDL
MODEL 3
REMARK VINA RESULT:      -8.7      2.895      4.143
REMARK SMILES CN(CC(C)(C)C)C(=O)N1CCO[C@@H](CC(=O)OCCOCCOC(=O)c2ccc(-c3c4nc(c(-c5ccccc5)c5ccc([nH]5)c(-c5ccccc5)c5nc(c(-c6ccccc6)c6ccc3[nH]6)C=C5)C=C4)cc2)C1
REMARK SMILES IDX 19 1 18 2 16 3 17 4 15 5 14 6 10 7 11 8 75 9 12 10 13 11
REMARK SMILES IDX 8 12 9 13 2 14 1 15 3 16 4 17 5 18 6 19 7 20 20 21 21 22
REMARK SMILES IDX 22 23 23 24 24 25 25 26 26 27 27 28 28 29 74 30 29 31 73 32
REMARK SMILES IDX 30 33 31 34 32 35 67 36 33 37 72 38 66 39 68 40 34 41 71 42
REMARK SMILES IDX 65 43 64 44 35 46 57 47 42 48 56 49 43 50 46 51 55 52 69 53
REMARK SMILES IDX 44 54 45 55 54 57 70 58 47 59 36 60 37 61 41 62 38 63 40 64
REMARK SMILES IDX 39 65 58 66 59 67 63 68 60 69 62 70 61 71 48 72 49 73 53 74
REMARK SMILES IDX 50 75 52 76 51 77
REMARK H PARENT 68 45 46 56
REMARK Flexibility Score: inf
ROOT
ATOM      1  C   UNL A   1      30.278  30.526  24.480  1.00  0.00     0.261 C 
ENDROOT
BRANCH   1   2
ATOM      2  O   UNL A   1      29.417  30.872  23.383  1.00  0.00    -0.463 OA
BRANCH   2   3
ATOM      3  C   UNL A   1      29.560  30.115  22.268  1.00  0.00     0.308 C 
ATOM      4  O   UNL A   1      28.896  30.232  21.247  1.00  0.00    -0.252 OA
BRANCH   3   5
ATOM      5  C   UNL A   1      30.592  29.044  22.454  1.00  0.00     0.156 C 
BRANCH   5   6
ATOM      6  C   UNL A   1      30.155  27.578  22.536  1.00  0.00     0.149 C 
ATOM      7  N   UNL A   1      30.742  25.282  23.308  1.00  0.00    -0.320 N 
ATOM      8  C   UNL A   1      29.967  25.542  24.501  1.00  0.00     0.150 C 
ATOM      9  C   UNL A   1      31.290  26.539  22.794  1.00  0.00     0.154 C 
ATOM     10  C   UNL A   1      28.748  26.341  24.081  1.00  0.00     0.182 C 
ATOM     11  O   UNL A   1      29.169  27.622  23.609  1.00  0.00    -0.374 OA
BRANCH   7  12
ATOM     12  C   UNL A   1      31.453  24.107  23.191  1.00  0.00     0.319 C 
ATOM     13  O   UNL A   1      30.894  23.032  23.409  1.00  0.00    -0.248 OA
BRANCH  12  14
ATOM     14  N   UNL A   1      32.828  24.196  22.928  1.00  0.00    -0.327 N 
ATOM     15  C   UNL A   1      33.186  24.467  21.540  1.00  0.00     0.148 C 
BRANCH  14  16
ATOM     16  C   UNL A   1      33.925  23.680  23.763  1.00  0.00     0.127 C 
BRANCH  16  17
ATOM     17  C   UNL A   1      34.250  24.462  25.084  1.00  0.00    -0.020 C 
ATOM     18  C   UNL A   1      34.116  25.974  24.902  1.00  0.00     0.012 C 
ATOM     19  C   UNL A   1      33.228  24.033  26.157  1.00  0.00     0.012 C 
ATOM     20  C   UNL A   1      35.663  24.211  25.636  1.00  0.00     0.012 C 
ENDBRANCH  16  17
ENDBRANCH  14  16
ENDBRANCH  12  14
ENDBRANCH   7  12
ENDBRANCH   5   6
ENDBRANCH   3   5
ENDBRANCH   2   3
ENDBRANCH   1   2
BRANCH   1  21
ATOM     21  C   UNL A   1      30.598  31.757  25.327  1.00  0.00     0.202 C 
BRANCH  21  22
ATOM     22  O   UNL A   1      31.508  31.566  26.409  1.00  0.00    -0.374 OA
BRANCH  22  23
ATOM     23  C   UNL A   1      32.258  30.353  26.426  1.00  0.00     0.202 C 
BRANCH  23  24
ATOM     24  C   UNL A   1      33.322  30.207  27.524  1.00  0.00     0.261 C 
BRANCH  24  25
ATOM     25  O   UNL A   1      34.257  31.299  27.536  1.00  0.00    -0.460 OA
BRANCH  25  26
ATOM     26  C   UNL A   1      34.882  31.510  28.724  1.00  0.00     0.338 C 
ATOM     27  O   UNL A   1      34.454  32.128  29.678  1.00  0.00    -0.246 OA
BRANCH  26  28
ATOM     28  C   UNL A   1      36.129  30.715  28.781  1.00  0.00     0.060 A 
ATOM     29  C   UNL A   1      36.505  30.142  30.000  1.00  0.00     0.016 A 
ATOM     30  C   UNL A   1      36.942  30.564  27.664  1.00  0.00     0.016 A 
ATOM     31  C   UNL A   1      37.724  29.470  30.107  1.00  0.00     0.010 A 
ATOM     32  C   UNL A   1      38.149  29.872  27.760  1.00  0.00     0.010 A 
ATOM     33  C   UNL A   1      38.573  29.366  28.997  1.00  0.00    -0.014 A 
BRANCH  33  34
ATOM     34  C   UNL A   1      39.960  28.866  29.154  1.00  0.00     0.031 A 
ATOM     35  C   UNL A   1      41.000  29.771  29.761  1.00  0.00     0.074 A 
ATOM     36  C   UNL A   1      40.291  27.620  28.771  1.00  0.00     0.049 A 
ATOM     37  N   UNL A   1      42.264  29.535  30.009  1.00  0.00    -0.248 NA
ATOM     38  C   UNL A   1      40.560  31.127  30.129  1.00  0.00     0.031 C 
ATOM     39  C   UNL A   1      39.379  26.650  28.168  1.00  0.00     0.029 A 
ATOM     40  N   UNL A   1      41.492  26.961  28.837  1.00  0.00    -0.354 N 
ATOM     41  C   UNL A   1      42.767  30.711  30.552  1.00  0.00     0.074 A 
ATOM     42  C   UNL A   1      41.688  31.674  30.553  1.00  0.00     0.031 C 
ATOM     43  C   UNL A   1      40.051  25.510  27.932  1.00  0.00     0.029 A 
ATOM     44  C   UNL A   1      41.445  25.684  28.335  1.00  0.00     0.049 A 
ATOM     45  H   UNL A   1      42.310  27.364  29.208  1.00  0.00     0.167 HD
ATOM     46  C   UNL A   1      44.012  30.966  31.021  1.00  0.00     0.031 A 
ATOM     47  C   UNL A   1      42.419  24.762  28.207  1.00  0.00     0.031 A 
ATOM     48  C   UNL A   1      45.089  30.013  31.007  1.00  0.00     0.049 A 
ATOM     49  C   UNL A   1      43.809  25.086  28.685  1.00  0.00     0.074 A 
ATOM     50  C   UNL A   1      46.376  30.158  31.496  1.00  0.00     0.029 A 
ATOM     51  N   UNL A   1      45.008  28.739  30.465  1.00  0.00    -0.354 N 
ATOM     52  N   UNL A   1      44.257  26.178  29.257  1.00  0.00    -0.248 NA
ATOM     53  C   UNL A   1      44.827  24.039  28.513  1.00  0.00     0.031 C 
ATOM     54  C   UNL A   1      47.092  28.997  31.187  1.00  0.00     0.029 A 
ATOM     55  C   UNL A   1      46.232  28.101  30.574  1.00  0.00     0.049 A 
ATOM     56  H   UNL A   1      44.200  28.347  30.062  1.00  0.00     0.167 HD
ATOM     57  C   UNL A   1      45.596  25.941  29.538  1.00  0.00     0.074 A 
ATOM     58  C   UNL A   1      45.884  24.593  29.091  1.00  0.00     0.031 C 
ATOM     59  C   UNL A   1      46.506  26.761  30.120  1.00  0.00     0.031 A 
BRANCH  46  60
ATOM     60  C   UNL A   1      44.280  32.344  31.564  1.00  0.00    -0.014 A 
ATOM     61  C   UNL A   1      44.096  32.645  32.924  1.00  0.00     0.009 A 
ATOM     62  C   UNL A   1      44.749  33.352  30.707  1.00  0.00     0.009 A 
ATOM     63  C   UNL A   1      44.335  33.936  33.403  1.00  0.00     0.001 A 
ATOM     64  C   UNL A   1      45.019  34.632  31.194  1.00  0.00     0.001 A 
ATOM     65  C   UNL A   1      44.801  34.926  32.539  1.00  0.00     0.000 A 
ENDBRANCH  46  60
BRANCH  47  66
ATOM     66  C   UNL A   1      42.114  23.439  27.603  1.00  0.00    -0.014 A 
ATOM     67  C   UNL A   1      42.368  23.197  26.244  1.00  0.00     0.009 A 
ATOM     68  C   UNL A   1      41.561  22.409  28.382  1.00  0.00     0.009 A 
ATOM     69  C   UNL A   1      42.050  21.962  25.673  1.00  0.00     0.001 A 
ATOM     70  C   UNL A   1      41.276  21.165  27.816  1.00  0.00     0.001 A 
ATOM     71  C   UNL A   1      41.511  20.946  26.459  1.00  0.00     0.000 A 
ENDBRANCH  47  66
BRANCH  59  72
ATOM     72  C   UNL A   1      47.890  26.213  30.340  1.00  0.00    -0.014 A 
ATOM     73  C   UNL A   1      48.859  26.232  29.324  1.00  0.00     0.009 A 
ATOM     74  C   UNL A   1      48.241  25.707  31.603  1.00  0.00     0.009 A 
ATOM     75  C   UNL A   1      50.137  25.721  29.558  1.00  0.00     0.001 A 
ATOM     76  C   UNL A   1      49.530  25.228  31.843  1.00  0.00     0.001 A 
ATOM     77  C   UNL A   1      50.473  25.225  30.817  1.00  0.00     0.000 A 
ENDBRANCH  59  72
ENDBRANCH  33  34
ENDBRANCH  26  28
ENDBRANCH  25  26
ENDBRANCH  24  25
ENDBRANCH  23  24
ENDBRANCH  22  23
ENDBRANCH  21  22
ENDBRANCH   1  21
TORSDOF 19
ENDMDL
