MODEL 1
REMARK VINA RESULT:     -10.4      0.000      0.000
REMARK SMILES CCCc1cc(OC(F)(F)F)cc2c1O[C@@H](C(F)(F)F)C(C(=O)OCCOCCOC(=O)c1ccc(-c3c4nc(c(-c5ccccc5)c5ccc([nH]5)c(-c5ccccc5)c5nc(c(-c6ccccc6)c6ccc3[nH]6)C=C5)C=C4)cc1)=C2
REMARK SMILES IDX 27 1 26 2 25 3 24 4 22 5 23 6 21 7 4 8 5 9 14 10 6 11 13 12
REMARK SMILES IDX 15 13 12 14 81 15 16 16 3 17 2 18 1 19 7 20 8 21 9 22 10 23
REMARK SMILES IDX 11 24 17 25 18 26 19 27 20 28 28 29 29 30 30 31 31 32 32 33
REMARK SMILES IDX 33 34 34 35 80 36 35 37 79 38 36 39 37 40 38 41 73 42 39 43
REMARK SMILES IDX 78 44 72 45 74 46 40 47 77 48 71 49 70 50 41 52 63 53 48 54
REMARK SMILES IDX 62 55 49 56 52 57 61 58 75 59 50 60 51 61 60 63 76 64 53 65
REMARK SMILES IDX 42 66 43 67 47 68 44 69 46 70 45 71 64 72 65 73 69 74 66 75
REMARK SMILES IDX 68 76 67 77 54 78 55 79 59 80 56 81 58 82 57 83
REMARK H PARENT 74 51 52 62
REMARK Flexibility Score: inf
ROOT
ATOM      1  O   UNL A   1      36.592  21.298  25.876  1.00  0.00    -0.374 OA
ENDROOT
BRANCH   1   2
ATOM      2  C   UNL A   1      35.786  20.546  24.974  1.00  0.00     0.202 C 
BRANCH   2   3
ATOM      3  C   UNL A   1      34.438  21.132  24.545  1.00  0.00     0.261 C 
BRANCH   3   4
ATOM      4  O   UNL A   1      34.265  22.482  24.998  1.00  0.00    -0.460 OA
BRANCH   4   5
ATOM      5  C   UNL A   1      34.332  23.415  24.019  1.00  0.00     0.338 C 
ATOM      6  O   UNL A   1      34.935  23.315  22.961  1.00  0.00    -0.246 OA
BRANCH   5   7
ATOM      7  C   UNL A   1      33.469  24.563  24.329  1.00  0.00     0.087 C 
ATOM      8  C   UNL A   1      30.989  27.904  24.052  1.00  0.00    -0.002 A 
ATOM      9  C   UNL A   1      31.409  29.113  24.631  1.00  0.00     0.054 A 
ATOM     10  C   UNL A   1      31.826  26.787  24.177  1.00  0.00     0.131 A 
ATOM     11  C   UNL A   1      32.667  29.228  25.233  1.00  0.00     0.130 A 
ATOM     12  C   UNL A   1      33.090  26.883  24.783  1.00  0.00     0.021 A 
ATOM     13  O   UNL A   1      31.394  25.612  23.612  1.00  0.00    -0.475 OA
ATOM     14  C   UNL A   1      33.499  28.105  25.318  1.00  0.00     0.058 A 
ATOM     15  C   UNL A   1      34.003  25.738  24.701  1.00  0.00     0.027 C 
ATOM     16  C   UNL A   1      31.971  24.420  24.194  1.00  0.00     0.316 C 
BRANCH   8  17
ATOM     17  C   UNL A   1      29.661  27.795  23.329  1.00  0.00     0.039 C 
BRANCH  17  18
ATOM     18  C   UNL A   1      29.027  29.113  22.865  1.00  0.00     0.001 C 
ATOM     19  C   UNL A   1      27.504  29.099  22.908  1.00  0.00     0.004 C 
ENDBRANCH  17  18
ENDBRANCH   8  17
BRANCH  11  20
ATOM     20  O   UNL A   1      33.197  30.376  25.752  1.00  0.00    -0.406 OA
BRANCH  20  21
ATOM     21  C   UNL A   1      32.913  30.663  27.115  1.00  0.00     0.573 C 
ATOM     22  F   UNL A   1      32.385  31.897  27.261  1.00  0.00    -0.132 F 
ATOM     23  F   UNL A   1      32.066  29.747  27.632  1.00  0.00    -0.132 F 
ATOM     24  F   UNL A   1      34.065  30.615  27.819  1.00  0.00    -0.132 F 
ENDBRANCH  20  21
ENDBRANCH  11  20
BRANCH  16  25
ATOM     25  C   UNL A   1      31.396  23.193  23.466  1.00  0.00     0.430 C 
ATOM     26  F   UNL A   1      31.274  22.138  24.305  1.00  0.00    -0.167 F 
ATOM     27  F   UNL A   1      30.136  23.467  23.030  1.00  0.00    -0.167 F 
ATOM     28  F   UNL A   1      32.112  22.823  22.387  1.00  0.00    -0.167 F 
ENDBRANCH  16  25
ENDBRANCH   5   7
ENDBRANCH   4   5
ENDBRANCH   3   4
ENDBRANCH   2   3
ENDBRANCH   1   2
BRANCH   1  29
ATOM     29  C   UNL A   1      37.775  21.921  25.387  1.00  0.00     0.202 C 
BRANCH  29  30
ATOM     30  C   UNL A   1      39.136  21.318  25.760  1.00  0.00     0.261 C 
BRANCH  30  31
ATOM     31  O   UNL A   1      39.763  21.971  26.876  1.00  0.00    -0.460 OA
BRANCH  31  32
ATOM     32  C   UNL A   1      40.758  22.821  26.528  1.00  0.00     0.338 C 
ATOM     33  O   UNL A   1      41.689  22.600  25.768  1.00  0.00    -0.246 OA
BRANCH  32  34
ATOM     34  C   UNL A   1      40.493  24.169  27.055  1.00  0.00     0.060 A 
ATOM     35  C   UNL A   1      41.253  25.222  26.531  1.00  0.00     0.016 A 
ATOM     36  C   UNL A   1      39.620  24.380  28.123  1.00  0.00     0.016 A 
ATOM     37  C   UNL A   1      41.203  26.477  27.126  1.00  0.00     0.010 A 
ATOM     38  C   UNL A   1      39.575  25.642  28.724  1.00  0.00     0.010 A 
ATOM     39  C   UNL A   1      40.408  26.678  28.260  1.00  0.00    -0.014 A 
BRANCH  39  40
ATOM     40  C   UNL A   1      40.616  27.906  29.065  1.00  0.00     0.031 A 
ATOM     41  C   UNL A   1      41.922  28.081  29.795  1.00  0.00     0.074 A 
ATOM     42  C   UNL A   1      39.693  28.883  29.085  1.00  0.00     0.049 A 
ATOM     43  N   UNL A   1      42.335  29.084  30.527  1.00  0.00    -0.248 NA
ATOM     44  C   UNL A   1      42.892  26.978  29.682  1.00  0.00     0.031 C 
ATOM     45  C   UNL A   1      38.413  28.854  28.378  1.00  0.00     0.029 A 
ATOM     46  N   UNL A   1      39.702  30.100  29.718  1.00  0.00    -0.354 N 
ATOM     47  C   UNL A   1      43.605  28.730  30.968  1.00  0.00     0.074 A 
ATOM     48  C   UNL A   1      43.881  27.407  30.453  1.00  0.00     0.031 C 
ATOM     49  C   UNL A   1      37.760  30.005  28.615  1.00  0.00     0.029 A 
ATOM     50  C   UNL A   1      38.563  30.835  29.510  1.00  0.00     0.049 A 
ATOM     51  H   UNL A   1      40.455  30.414  30.269  1.00  0.00     0.167 HD
ATOM     52  C   UNL A   1      44.471  29.446  31.724  1.00  0.00     0.031 A 
ATOM     53  C   UNL A   1      38.205  32.038  29.997  1.00  0.00     0.031 A 
ATOM     54  C   UNL A   1      44.197  30.761  32.239  1.00  0.00     0.049 A 
ATOM     55  C   UNL A   1      39.158  32.784  30.893  1.00  0.00     0.074 A 
ATOM     56  C   UNL A   1      45.013  31.574  33.005  1.00  0.00     0.029 A 
ATOM     57  N   UNL A   1      43.012  31.452  32.044  1.00  0.00    -0.354 N 
ATOM     58  N   UNL A   1      40.365  32.449  31.282  1.00  0.00    -0.248 NA
ATOM     59  C   UNL A   1      38.702  34.085  31.403  1.00  0.00     0.031 C 
ATOM     60  C   UNL A   1      44.300  32.733  33.324  1.00  0.00     0.029 A 
ATOM     61  C   UNL A   1      43.065  32.671  32.697  1.00  0.00     0.049 A 
ATOM     62  H   UNL A   1      42.246  31.124  31.519  1.00  0.00     0.167 HD
ATOM     63  C   UNL A   1      40.825  33.511  32.052  1.00  0.00     0.074 A 
ATOM     64  C   UNL A   1      39.774  34.508  32.058  1.00  0.00     0.031 C 
ATOM     65  C   UNL A   1      42.011  33.652  32.694  1.00  0.00     0.031 A 
BRANCH  52  66
ATOM     66  C   UNL A   1      45.787  28.803  32.067  1.00  0.00    -0.014 A 
ATOM     67  C   UNL A   1      45.936  28.006  33.214  1.00  0.00     0.009 A 
ATOM     68  C   UNL A   1      46.886  28.970  31.211  1.00  0.00     0.009 A 
ATOM     69  C   UNL A   1      47.168  27.420  33.512  1.00  0.00     0.001 A 
ATOM     70  C   UNL A   1      48.108  28.358  31.495  1.00  0.00     0.001 A 
ATOM     71  C   UNL A   1      48.251  27.591  32.650  1.00  0.00     0.000 A 
ENDBRANCH  52  66
BRANCH  53  72
ATOM     72  C   UNL A   1      36.874  32.615  29.664  1.00  0.00    -0.014 A 
ATOM     73  C   UNL A   1      35.775  32.427  30.516  1.00  0.00     0.009 A 
ATOM     74  C   UNL A   1      36.692  33.329  28.470  1.00  0.00     0.009 A 
ATOM     75  C   UNL A   1      34.514  32.913  30.161  1.00  0.00     0.001 A 
ATOM     76  C   UNL A   1      35.438  33.841  28.133  1.00  0.00     0.001 A 
ATOM     77  C   UNL A   1      34.347  33.623  28.973  1.00  0.00     0.000 A 
ENDBRANCH  53  72
BRANCH  65  78
ATOM     78  C   UNL A   1      42.252  34.950  33.416  1.00  0.00    -0.014 A 
ATOM     79  C   UNL A   1      42.979  35.996  32.826  1.00  0.00     0.009 A 
ATOM     80  C   UNL A   1      41.719  35.135  34.701  1.00  0.00     0.009 A 
ATOM     81  C   UNL A   1      43.207  37.182  33.529  1.00  0.00     0.001 A 
ATOM     82  C   UNL A   1      41.918  36.334  35.387  1.00  0.00     0.001 A 
ATOM     83  C   UNL A   1      42.672  37.351  34.806  1.00  0.00     0.000 A 
ENDBRANCH  65  78
ENDBRANCH  39  40
ENDBRANCH  32  34
ENDBRANCH  31  32
ENDBRANCH  30  31
ENDBRANCH  29  30
ENDBRANCH   1  29
TORSDOF 19
ENDMDL
MODEL 2
REMARK VINA RESULT:     -10.2      2.144      6.488
REMARK SMILES CCCc1cc(OC(F)(F)F)cc2c1O[C@@H](C(F)(F)F)C(C(=O)OCCOCCOC(=O)c1ccc(-c3c4nc(c(-c5ccccc5)c5ccc([nH]5)c(-c5ccccc5)c5nc(c(-c6ccccc6)c6ccc3[nH]6)C=C5)C=C4)cc1)=C2
REMARK SMILES IDX 27 1 26 2 25 3 24 4 22 5 23 6 21 7 4 8 5 9 14 10 6 11 13 12
REMARK SMILES IDX 15 13 12 14 81 15 16 16 3 17 2 18 1 19 7 20 8 21 9 22 10 23
REMARK SMILES IDX 11 24 17 25 18 26 19 27 20 28 28 29 29 30 30 31 31 32 32 33
REMARK SMILES IDX 33 34 34 35 80 36 35 37 79 38 36 39 37 40 38 41 73 42 39 43
REMARK SMILES IDX 78 44 72 45 74 46 40 47 77 48 71 49 70 50 41 52 63 53 48 54
REMARK SMILES IDX 62 55 49 56 52 57 61 58 75 59 50 60 51 61 60 63 76 64 53 65
REMARK SMILES IDX 42 66 43 67 47 68 44 69 46 70 45 71 64 72 65 73 69 74 66 75
REMARK SMILES IDX 68 76 67 77 54 78 55 79 59 80 56 81 58 82 57 83
REMARK H PARENT 74 51 52 62
REMARK Flexibility Score: inf
ROOT
ATOM      1  O   UNL A   1      37.008  19.711  25.010  1.00  0.00    -0.374 OA
ENDROOT
BRANCH   1   2
ATOM      2  C   UNL A   1      36.444  21.011  25.148  1.00  0.00     0.202 C 
BRANCH   2   3
ATOM      3  C   UNL A   1      35.043  21.258  24.580  1.00  0.00     0.261 C 
BRANCH   3   4
ATOM      4  O   UNL A   1      34.511  22.528  24.982  1.00  0.00    -0.460 OA
BRANCH   4   5
ATOM      5  C   UNL A   1      34.552  23.483  24.024  1.00  0.00     0.338 C 
ATOM      6  O   UNL A   1      35.168  23.428  22.970  1.00  0.00    -0.246 OA
BRANCH   5   7
ATOM      7  C   UNL A   1      33.642  24.590  24.347  1.00  0.00     0.087 C 
ATOM      8  C   UNL A   1      31.012  27.818  24.111  1.00  0.00    -0.002 A 
ATOM      9  C   UNL A   1      31.384  29.042  24.691  1.00  0.00     0.054 A 
ATOM     10  C   UNL A   1      31.899  26.739  24.222  1.00  0.00     0.131 A 
ATOM     11  C   UNL A   1      32.641  29.211  25.280  1.00  0.00     0.130 A 
ATOM     12  C   UNL A   1      33.164  26.889  24.815  1.00  0.00     0.021 A 
ATOM     13  O   UNL A   1      31.514  25.548  23.657  1.00  0.00    -0.475 OA
ATOM     14  C   UNL A   1      33.523  28.126  25.351  1.00  0.00     0.058 A 
ATOM     15  C   UNL A   1      34.127  25.786  24.719  1.00  0.00     0.027 C 
ATOM     16  C   UNL A   1      32.150  24.380  24.228  1.00  0.00     0.316 C 
BRANCH   8  17
ATOM     17  C   UNL A   1      29.683  27.652  23.401  1.00  0.00     0.039 C 
BRANCH  17  18
ATOM     18  C   UNL A   1      29.060  28.925  22.814  1.00  0.00     0.001 C 
ATOM     19  C   UNL A   1      27.538  28.930  22.857  1.00  0.00     0.004 C 
ENDBRANCH  17  18
ENDBRANCH   8  17
BRANCH  11  20
ATOM     20  O   UNL A   1      33.125  30.379  25.798  1.00  0.00    -0.406 OA
BRANCH  20  21
ATOM     21  C   UNL A   1      32.447  30.919  26.924  1.00  0.00     0.573 C 
ATOM     22  F   UNL A   1      33.253  31.730  27.645  1.00  0.00    -0.132 F 
ATOM     23  F   UNL A   1      31.348  31.603  26.540  1.00  0.00    -0.132 F 
ATOM     24  F   UNL A   1      32.053  29.903  27.723  1.00  0.00    -0.132 F 
ENDBRANCH  20  21
ENDBRANCH  11  20
BRANCH  16  25
ATOM     25  C   UNL A   1      31.622  23.132  23.501  1.00  0.00     0.430 C 
ATOM     26  F   UNL A   1      31.617  22.054  24.319  1.00  0.00    -0.167 F 
ATOM     27  F   UNL A   1      30.326  23.327  23.136  1.00  0.00    -0.167 F 
ATOM     28  F   UNL A   1      32.305  22.835  22.378  1.00  0.00    -0.167 F 
ENDBRANCH  16  25
ENDBRANCH   5   7
ENDBRANCH   4   5
ENDBRANCH   3   4
ENDBRANCH   2   3
ENDBRANCH   1   2
BRANCH   1  29
ATOM     29  C   UNL A   1      38.390  19.590  24.688  1.00  0.00     0.202 C 
BRANCH  29  30
ATOM     30  C   UNL A   1      39.432  19.914  25.767  1.00  0.00     0.261 C 
BRANCH  30  31
ATOM     31  O   UNL A   1      40.483  18.939  25.856  1.00  0.00    -0.460 OA
BRANCH  31  32
ATOM     32  C   UNL A   1      41.720  19.473  25.987  1.00  0.00     0.338 C 
ATOM     33  O   UNL A   1      42.780  18.989  25.618  1.00  0.00    -0.246 OA
BRANCH  32  34
ATOM     34  C   UNL A   1      41.635  20.851  26.495  1.00  0.00     0.060 A 
ATOM     35  C   UNL A   1      41.964  21.883  25.606  1.00  0.00     0.016 A 
ATOM     36  C   UNL A   1      41.369  21.123  27.837  1.00  0.00     0.016 A 
ATOM     37  C   UNL A   1      42.106  23.184  26.074  1.00  0.00     0.010 A 
ATOM     38  C   UNL A   1      41.518  22.431  28.308  1.00  0.00     0.010 A 
ATOM     39  C   UNL A   1      41.941  23.454  27.438  1.00  0.00    -0.014 A 
BRANCH  39  40
ATOM     40  C   UNL A   1      42.411  24.757  27.966  1.00  0.00     0.031 A 
ATOM     41  C   UNL A   1      41.402  25.850  28.205  1.00  0.00     0.074 A 
ATOM     42  C   UNL A   1      43.700  24.942  28.300  1.00  0.00     0.049 A 
ATOM     43  N   UNL A   1      41.580  27.052  28.691  1.00  0.00    -0.248 NA
ATOM     44  C   UNL A   1      40.005  25.545  27.849  1.00  0.00     0.031 C 
ATOM     45  C   UNL A   1      44.761  23.945  28.166  1.00  0.00     0.029 A 
ATOM     46  N   UNL A   1      44.330  26.036  28.837  1.00  0.00    -0.354 N 
ATOM     47  C   UNL A   1      40.323  27.647  28.690  1.00  0.00     0.074 A 
ATOM     48  C   UNL A   1      39.399  26.690  28.124  1.00  0.00     0.031 C 
ATOM     49  C   UNL A   1      45.913  24.473  28.613  1.00  0.00     0.029 A 
ATOM     50  C   UNL A   1      45.675  25.852  29.036  1.00  0.00     0.049 A 
ATOM     51  H   UNL A   1      43.861  26.873  29.057  1.00  0.00     0.167 HD
ATOM     52  C   UNL A   1      39.967  28.876  29.134  1.00  0.00     0.031 A 
ATOM     53  C   UNL A   1      46.609  26.704  29.499  1.00  0.00     0.031 A 
ATOM     54  C   UNL A   1      40.886  29.830  29.695  1.00  0.00     0.049 A 
ATOM     55  C   UNL A   1      46.197  28.089  29.921  1.00  0.00     0.074 A 
ATOM     56  C   UNL A   1      40.621  31.097  30.183  1.00  0.00     0.029 A 
ATOM     57  N   UNL A   1      42.248  29.622  29.837  1.00  0.00    -0.354 N 
ATOM     58  N   UNL A   1      45.003  28.631  29.938  1.00  0.00    -0.248 NA
ATOM     59  C   UNL A   1      47.266  28.976  30.403  1.00  0.00     0.031 C 
ATOM     60  C   UNL A   1      41.833  31.679  30.567  1.00  0.00     0.029 A 
ATOM     61  C   UNL A   1      42.843  30.747  30.382  1.00  0.00     0.049 A 
ATOM     62  H   UNL A   1      42.723  28.796  29.588  1.00  0.00     0.167 HD
ATOM     63  C   UNL A   1      45.172  29.907  30.465  1.00  0.00     0.074 A 
ATOM     64  C   UNL A   1      46.581  30.049  30.770  1.00  0.00     0.031 C 
ATOM     65  C   UNL A   1      44.246  30.873  30.680  1.00  0.00     0.031 A 
BRANCH  52  66
ATOM     66  C   UNL A   1      38.522  29.271  28.996  1.00  0.00    -0.014 A 
ATOM     67  C   UNL A   1      37.637  29.211  30.085  1.00  0.00     0.009 A 
ATOM     68  C   UNL A   1      38.046  29.742  27.762  1.00  0.00     0.009 A 
ATOM     69  C   UNL A   1      36.300  29.582  29.931  1.00  0.00     0.001 A 
ATOM     70  C   UNL A   1      36.717  30.141  27.619  1.00  0.00     0.001 A 
ATOM     71  C   UNL A   1      35.842  30.053  28.700  1.00  0.00     0.000 A 
ENDBRANCH  52  66
BRANCH  53  72
ATOM     72  C   UNL A   1      48.033  26.282  29.577  1.00  0.00    -0.014 A 
ATOM     73  C   UNL A   1      48.875  26.382  28.458  1.00  0.00     0.009 A 
ATOM     74  C   UNL A   1      48.548  25.745  30.767  1.00  0.00     0.009 A 
ATOM     75  C   UNL A   1      50.192  25.919  28.522  1.00  0.00     0.001 A 
ATOM     76  C   UNL A   1      49.874  25.314  30.837  1.00  0.00     0.001 A 
ATOM     77  C   UNL A   1      50.691  25.390  29.711  1.00  0.00     0.000 A 
ENDBRANCH  53  72
BRANCH  65  78
ATOM     78  C   UNL A   1      44.720  32.151  31.318  1.00  0.00    -0.014 A 
ATOM     79  C   UNL A   1      44.737  32.314  32.712  1.00  0.00     0.009 A 
ATOM     80  C   UNL A   1      45.180  33.199  30.506  1.00  0.00     0.009 A 
ATOM     81  C   UNL A   1      45.161  33.520  33.277  1.00  0.00     0.001 A 
ATOM     82  C   UNL A   1      45.637  34.389  31.073  1.00  0.00     0.001 A 
ATOM     83  C   UNL A   1      45.615  34.554  32.458  1.00  0.00     0.000 A 
ENDBRANCH  65  78
ENDBRANCH  39  40
ENDBRANCH  32  34
ENDBRANCH  31  32
ENDBRANCH  30  31
ENDBRANCH  29  30
ENDBRANCH   1  29
TORSDOF 19
ENDMDL
MODEL 3
REMARK VINA RESULT:     -10.2      2.953      3.920
REMARK SMILES CCCc1cc(OC(F)(F)F)cc2c1O[C@@H](C(F)(F)F)C(C(=O)OCCOCCOC(=O)c1ccc(-c3c4nc(c(-c5ccccc5)c5ccc([nH]5)c(-c5ccccc5)c5nc(c(-c6ccccc6)c6ccc3[nH]6)C=C5)C=C4)cc1)=C2
REMARK SMILES IDX 27 1 26 2 25 3 24 4 22 5 23 6 21 7 4 8 5 9 14 10 6 11 13 12
REMARK SMILES IDX 15 13 12 14 81 15 16 16 3 17 2 18 1 19 7 20 8 21 9 22 10 23
REMARK SMILES IDX 11 24 17 25 18 26 19 27 20 28 28 29 29 30 30 31 31 32 32 33
REMARK SMILES IDX 33 34 34 35 80 36 35 37 79 38 36 39 37 40 38 41 73 42 39 43
REMARK SMILES IDX 78 44 72 45 74 46 40 47 77 48 71 49 70 50 41 52 63 53 48 54
REMARK SMILES IDX 62 55 49 56 52 57 61 58 75 59 50 60 51 61 60 63 76 64 53 65
REMARK SMILES IDX 42 66 43 67 47 68 44 69 46 70 45 71 64 72 65 73 69 74 66 75
REMARK SMILES IDX 68 76 67 77 54 78 55 79 59 80 56 81 58 82 57 83
REMARK H PARENT 74 51 52 62
REMARK Flexibility Score: inf
ROOT
ATOM      1  O   UNL A   1      34.796  20.072  24.963  1.00  0.00    -0.374 OA
ENDROOT
BRANCH   1   2
ATOM      2  C   UNL A   1      33.715  20.517  25.777  1.00  0.00     0.202 C 
BRANCH   2   3
ATOM      3  C   UNL A   1      32.711  21.503  25.174  1.00  0.00     0.261 C 
BRANCH   3   4
ATOM      4  O   UNL A   1      32.863  22.826  25.708  1.00  0.00    -0.460 OA
BRANCH   4   5
ATOM      5  C   UNL A   1      33.236  23.759  24.800  1.00  0.00     0.338 C 
ATOM      6  O   UNL A   1      33.819  23.553  23.747  1.00  0.00    -0.246 OA
BRANCH   5   7
ATOM      7  C   UNL A   1      32.738  25.088  25.179  1.00  0.00     0.087 C 
ATOM      8  C   UNL A   1      31.607  29.102  25.156  1.00  0.00    -0.002 A 
ATOM      9  C   UNL A   1      32.236  29.991  26.043  1.00  0.00     0.054 A 
ATOM     10  C   UNL A   1      31.984  27.753  25.195  1.00  0.00     0.131 A 
ATOM     11  C   UNL A   1      33.275  29.566  26.877  1.00  0.00     0.130 A 
ATOM     12  C   UNL A   1      33.022  27.307  26.031  1.00  0.00     0.021 A 
ATOM     13  O   UNL A   1      31.351  26.897  24.327  1.00  0.00    -0.475 OA
ATOM     14  C   UNL A   1      33.656  28.219  26.876  1.00  0.00     0.058 A 
ATOM     15  C   UNL A   1      33.511  25.933  25.881  1.00  0.00     0.027 C 
ATOM     16  C   UNL A   1      31.355  25.511  24.743  1.00  0.00     0.316 C 
BRANCH   8  17
ATOM     17  C   UNL A   1      30.535  29.574  24.193  1.00  0.00     0.039 C 
BRANCH  17  18
ATOM     18  C   UNL A   1      30.835  29.396  22.698  1.00  0.00     0.001 C 
ATOM     19  C   UNL A   1      29.728  29.919  21.792  1.00  0.00     0.004 C 
ENDBRANCH  17  18
ENDBRANCH   8  17
BRANCH  11  20
ATOM     20  O   UNL A   1      34.001  30.367  27.714  1.00  0.00    -0.406 OA
BRANCH  20  21
ATOM     21  C   UNL A   1      35.414  30.230  27.679  1.00  0.00     0.573 C 
ATOM     22  F   UNL A   1      35.874  29.565  28.762  1.00  0.00    -0.132 F 
ATOM     23  F   UNL A   1      35.807  29.590  26.557  1.00  0.00    -0.132 F 
ATOM     24  F   UNL A   1      35.971  31.461  27.678  1.00  0.00    -0.132 F 
ENDBRANCH  20  21
ENDBRANCH  11  20
BRANCH  16  25
ATOM     25  C   UNL A   1      30.614  24.682  23.680  1.00  0.00     0.430 C 
ATOM     26  F   UNL A   1      31.380  24.498  22.580  1.00  0.00    -0.167 F 
ATOM     27  F   UNL A   1      30.358  23.436  24.165  1.00  0.00    -0.167 F 
ATOM     28  F   UNL A   1      29.430  25.210  23.314  1.00  0.00    -0.167 F 
ENDBRANCH  16  25
ENDBRANCH   5   7
ENDBRANCH   4   5
ENDBRANCH   3   4
ENDBRANCH   2   3
ENDBRANCH   1   2
BRANCH   1  29
ATOM     29  C   UNL A   1      35.915  20.932  24.774  1.00  0.00     0.202 C 
BRANCH  29  30
ATOM     30  C   UNL A   1      37.315  20.411  25.128  1.00  0.00     0.261 C 
BRANCH  30  31
ATOM     31  O   UNL A   1      38.314  21.443  25.164  1.00  0.00    -0.460 OA
BRANCH  31  32
ATOM     32  C   UNL A   1      39.326  21.199  26.030  1.00  0.00     0.338 C 
ATOM     33  O   UNL A   1      39.991  20.178  26.126  1.00  0.00    -0.246 OA
BRANCH  32  34
ATOM     34  C   UNL A   1      39.675  22.420  26.773  1.00  0.00     0.060 A 
ATOM     35  C   UNL A   1      38.955  23.582  26.468  1.00  0.00     0.016 A 
ATOM     36  C   UNL A   1      40.761  22.461  27.648  1.00  0.00     0.016 A 
ATOM     37  C   UNL A   1      39.368  24.809  26.976  1.00  0.00     0.010 A 
ATOM     38  C   UNL A   1      41.179  23.696  28.153  1.00  0.00     0.010 A 
ATOM     39  C   UNL A   1      40.516  24.879  27.775  1.00  0.00    -0.014 A 
BRANCH  39  40
ATOM     40  C   UNL A   1      41.123  26.208  28.030  1.00  0.00     0.031 A 
ATOM     41  C   UNL A   1      42.459  26.525  27.411  1.00  0.00     0.074 A 
ATOM     42  C   UNL A   1      40.463  27.143  28.734  1.00  0.00     0.049 A 
ATOM     43  N   UNL A   1      43.159  27.630  27.470  1.00  0.00    -0.248 NA
ATOM     44  C   UNL A   1      43.090  25.455  26.620  1.00  0.00     0.031 C 
ATOM     45  C   UNL A   1      39.143  26.975  29.339  1.00  0.00     0.029 A 
ATOM     46  N   UNL A   1      40.817  28.431  29.047  1.00  0.00    -0.354 N 
ATOM     47  C   UNL A   1      44.312  27.383  26.733  1.00  0.00     0.074 A 
ATOM     48  C   UNL A   1      44.236  26.017  26.268  1.00  0.00     0.031 C 
ATOM     49  C   UNL A   1      38.794  28.121  29.949  1.00  0.00     0.029 A 
ATOM     50  C   UNL A   1      39.878  29.090  29.801  1.00  0.00     0.049 A 
ATOM     51  H   UNL A   1      41.663  28.843  28.759  1.00  0.00     0.167 HD
ATOM     52  C   UNL A   1      45.338  28.224  26.457  1.00  0.00     0.031 A 
ATOM     53  C   UNL A   1      39.898  30.331  30.321  1.00  0.00     0.031 A 
ATOM     54  C   UNL A   1      45.416  29.583  26.922  1.00  0.00     0.049 A 
ATOM     55  C   UNL A   1      41.083  31.222  30.057  1.00  0.00     0.074 A 
ATOM     56  C   UNL A   1      46.408  30.518  26.687  1.00  0.00     0.029 A 
ATOM     57  N   UNL A   1      44.466  30.198  27.722  1.00  0.00    -0.354 N 
ATOM     58  N   UNL A   1      42.154  30.987  29.339  1.00  0.00    -0.248 NA
ATOM     59  C   UNL A   1      41.050  32.561  30.665  1.00  0.00     0.031 C 
ATOM     60  C   UNL A   1      46.087  31.681  27.394  1.00  0.00     0.029 A 
ATOM     61  C   UNL A   1      44.860  31.492  28.012  1.00  0.00     0.049 A 
ATOM     62  H   UNL A   1      43.634  29.776  28.037  1.00  0.00     0.167 HD
ATOM     63  C   UNL A   1      42.904  32.156  29.380  1.00  0.00     0.074 A 
ATOM     64  C   UNL A   1      42.155  33.105  30.178  1.00  0.00     0.031 C 
ATOM     65  C   UNL A   1      44.104  32.424  28.807  1.00  0.00     0.031 A 
BRANCH  52  66
ATOM     66  C   UNL A   1      46.477  27.681  25.640  1.00  0.00    -0.014 A 
ATOM     67  C   UNL A   1      46.553  27.894  24.253  1.00  0.00     0.009 A 
ATOM     68  C   UNL A   1      47.510  26.972  26.273  1.00  0.00     0.009 A 
ATOM     69  C   UNL A   1      47.622  27.379  23.516  1.00  0.00     0.001 A 
ATOM     70  C   UNL A   1      48.592  26.484  25.538  1.00  0.00     0.001 A 
ATOM     71  C   UNL A   1      48.643  26.680  24.159  1.00  0.00     0.000 A 
ENDBRANCH  52  66
BRANCH  53  72
ATOM     72  C   UNL A   1      38.766  30.809  31.160  1.00  0.00    -0.014 A 
ATOM     73  C   UNL A   1      38.675  30.454  32.515  1.00  0.00     0.009 A 
ATOM     74  C   UNL A   1      37.751  31.598  30.597  1.00  0.00     0.009 A 
ATOM     75  C   UNL A   1      37.573  30.850  33.277  1.00  0.00     0.001 A 
ATOM     76  C   UNL A   1      36.667  32.020  31.369  1.00  0.00     0.001 A 
ATOM     77  C   UNL A   1      36.573  31.635  32.705  1.00  0.00     0.000 A 
ENDBRANCH  53  72
BRANCH  65  78
ATOM     78  C   UNL A   1      44.656  33.812  28.983  1.00  0.00    -0.014 A 
ATOM     79  C   UNL A   1      45.536  34.127  30.031  1.00  0.00     0.009 A 
ATOM     80  C   UNL A   1      44.306  34.817  28.067  1.00  0.00     0.009 A 
ATOM     81  C   UNL A   1      46.015  35.430  30.184  1.00  0.00     0.001 A 
ATOM     82  C   UNL A   1      44.814  36.109  28.201  1.00  0.00     0.001 A 
ATOM     83  C   UNL A   1      45.658  36.418  29.267  1.00  0.00     0.000 A 
ENDBRANCH  65  78
ENDBRANCH  39  40
ENDBRANCH  32  34
ENDBRANCH  31  32
ENDBRANCH  30  31
ENDBRANCH  29  30
ENDBRANCH   1  29
TORSDOF 19
ENDMDL
