MODEL 1
REMARK VINA RESULT:      -9.7      0.000      0.000
REMARK SMILES CC[NH2+][C@]1(C(=O)OCCOCCOC(=O)c2ccc(-c3c4nc(c(-c5ccccc5)c5ccc([nH]5)c(-c5ccccc5)c5nc(c(-c6ccccc6)c6ccc3[nH]6)C=C5)C=C4)cc2)CCC[C@@H]1CCSc1ccc(C)cc1
REMARK SMILES IDX 9 1 8 2 7 3 5 4 6 5 4 6 64 7 67 8 65 9 66 10 3 11 2 14 1 15
REMARK SMILES IDX 68 16 69 17 70 18 71 19 72 20 77 21 73 22 76 23 74 24 75 25
REMARK SMILES IDX 10 26 11 27 12 28 13 29 14 30 15 31 16 32 17 33 63 34 18 35
REMARK SMILES IDX 62 36 19 37 20 38 21 39 56 40 22 41 61 42 55 43 57 44 23 45
REMARK SMILES IDX 60 46 54 47 53 48 24 50 46 51 31 52 45 53 32 54 35 55 44 56
REMARK SMILES IDX 58 57 33 58 34 59 43 61 59 62 36 63 25 64 26 65 30 66 27 67
REMARK SMILES IDX 29 68 28 69 47 70 48 71 52 72 49 73 51 74 50 75 37 76 38 77
REMARK SMILES IDX 42 78 39 79 41 80 40 81
REMARK H PARENT 3 12 3 13 57 49 35 60
REMARK Flexibility Score: inf
ROOT
ATOM      1  C   UNL A   1      39.344  20.854  25.956  1.00  0.00     0.202 C 
ENDROOT
BRANCH   1   2
ATOM      2  C   UNL A   1      38.217  21.816  25.539  1.00  0.00     0.261 C 
BRANCH   2   3
ATOM      3  O   UNL A   1      36.908  21.441  26.016  1.00  0.00    -0.459 OA
BRANCH   3   4
ATOM      4  C   UNL A   1      35.894  21.949  25.270  1.00  0.00     0.368 C 
ATOM      5  O   UNL A   1      36.058  22.375  24.125  1.00  0.00    -0.245 OA
BRANCH   4   6
ATOM      6  C   UNL A   1      34.483  21.947  25.941  1.00  0.00     0.197 C 
ATOM      7  C   UNL A   1      34.424  22.559  27.368  1.00  0.00     0.081 C 
ATOM      8  C   UNL A   1      33.352  22.847  25.336  1.00  0.00     0.063 C 
ATOM      9  C   UNL A   1      32.936  22.587  27.723  1.00  0.00     0.008 C 
ATOM     10  C   UNL A   1      32.236  22.570  26.366  1.00  0.00     0.011 C 
BRANCH   6  11
ATOM     11  N   UNL A   1      34.037  20.499  25.969  1.00  0.00    -0.332 N 
ATOM     12  H   UNL A   1      34.686  19.970  26.551  1.00  0.00     0.347 HD
ATOM     13  H   UNL A   1      33.087  20.481  26.341  1.00  0.00     0.347 HD
BRANCH  11  14
ATOM     14  C   UNL A   1      33.995  19.882  24.632  1.00  0.00     0.257 C 
ATOM     15  C   UNL A   1      32.676  19.166  24.414  1.00  0.00     0.071 C 
ENDBRANCH  11  14
ENDBRANCH   6  11
BRANCH   8  16
ATOM     16  C   UNL A   1      32.927  22.712  23.874  1.00  0.00     0.022 C 
BRANCH  16  17
ATOM     17  C   UNL A   1      31.544  23.310  23.511  1.00  0.00     0.075 C 
BRANCH  17  18
ATOM     18  S   UNL A   1      31.465  24.984  22.721  1.00  0.00    -0.126 SA
BRANCH  18  19
ATOM     19  C   UNL A   1      31.740  26.123  24.070  1.00  0.00     0.007 A 
ATOM     20  C   UNL A   1      31.088  25.871  25.279  1.00  0.00     0.015 A 
ATOM     21  C   UNL A   1      32.547  27.266  23.964  1.00  0.00     0.015 A 
ATOM     22  C   UNL A   1      31.136  26.797  26.326  1.00  0.00     0.004 A 
ATOM     23  C   UNL A   1      32.598  28.196  25.018  1.00  0.00     0.004 A 
ATOM     24  C   UNL A   1      31.872  27.980  26.197  1.00  0.00    -0.051 A 
ATOM     25  C   UNL A   1      31.791  29.036  27.262  1.00  0.00     0.044 C 
ENDBRANCH  18  19
ENDBRANCH  17  18
ENDBRANCH  16  17
ENDBRANCH   8  16
ENDBRANCH   4   6
ENDBRANCH   3   4
ENDBRANCH   2   3
ENDBRANCH   1   2
BRANCH   1  26
ATOM     26  O   UNL A   1      40.641  21.375  26.225  1.00  0.00    -0.374 OA
BRANCH  26  27
ATOM     27  C   UNL A   1      41.728  20.460  26.130  1.00  0.00     0.202 C 
BRANCH  27  28
ATOM     28  C   UNL A   1      43.116  20.975  25.742  1.00  0.00     0.261 C 
BRANCH  28  29
ATOM     29  O   UNL A   1      43.463  22.164  26.473  1.00  0.00    -0.460 OA
BRANCH  29  30
ATOM     30  C   UNL A   1      43.357  23.315  25.772  1.00  0.00     0.338 C 
ATOM     31  O   UNL A   1      43.488  23.464  24.564  1.00  0.00    -0.246 OA
BRANCH  30  32
ATOM     32  C   UNL A   1      42.822  24.369  26.648  1.00  0.00     0.060 A 
ATOM     33  C   UNL A   1      43.455  25.621  26.627  1.00  0.00     0.016 A 
ATOM     34  C   UNL A   1      41.745  24.130  27.500  1.00  0.00     0.016 A 
ATOM     35  C   UNL A   1      43.023  26.638  27.470  1.00  0.00     0.010 A 
ATOM     36  C   UNL A   1      41.329  25.144  28.367  1.00  0.00     0.010 A 
ATOM     37  C   UNL A   1      41.979  26.393  28.368  1.00  0.00    -0.014 A 
BRANCH  37  38
ATOM     38  C   UNL A   1      41.637  27.401  29.396  1.00  0.00     0.031 A 
ATOM     39  C   UNL A   1      42.417  27.422  30.678  1.00  0.00     0.074 A 
ATOM     40  C   UNL A   1      40.637  28.274  29.184  1.00  0.00     0.049 A 
ATOM     41  N   UNL A   1      42.219  28.140  31.753  1.00  0.00    -0.248 NA
ATOM     42  C   UNL A   1      43.573  26.511  30.764  1.00  0.00     0.031 C 
ATOM     43  C   UNL A   1      39.854  28.385  27.954  1.00  0.00     0.029 A 
ATOM     44  N   UNL A   1      40.099  29.225  30.014  1.00  0.00    -0.354 N 
ATOM     45  C   UNL A   1      43.206  27.751  32.650  1.00  0.00     0.074 A 
ATOM     46  C   UNL A   1      43.999  26.731  31.999  1.00  0.00     0.031 C 
ATOM     47  C   UNL A   1      38.919  29.337  28.118  1.00  0.00     0.029 A 
ATOM     48  C   UNL A   1      39.008  29.866  29.477  1.00  0.00     0.049 A 
ATOM     49  H   UNL A   1      40.459  29.429  30.907  1.00  0.00     0.167 HD
ATOM     50  C   UNL A   1      43.421  28.203  33.907  1.00  0.00     0.031 A 
ATOM     51  C   UNL A   1      38.156  30.744  30.038  1.00  0.00     0.031 A 
ATOM     52  C   UNL A   1      42.627  29.216  34.545  1.00  0.00     0.049 A 
ATOM     53  C   UNL A   1      38.364  31.151  31.473  1.00  0.00     0.074 A 
ATOM     54  C   UNL A   1      42.792  29.774  35.801  1.00  0.00     0.029 A 
ATOM     55  N   UNL A   1      41.508  29.810  33.985  1.00  0.00    -0.354 N 
ATOM     56  N   UNL A   1      39.329  30.817  32.297  1.00  0.00    -0.248 NA
ATOM     57  C   UNL A   1      37.360  32.050  32.060  1.00  0.00     0.031 C 
ATOM     58  C   UNL A   1      41.730  30.651  36.029  1.00  0.00     0.029 A 
ATOM     59  C   UNL A   1      40.942  30.690  34.890  1.00  0.00     0.049 A 
ATOM     60  H   UNL A   1      41.167  29.633  33.079  1.00  0.00     0.167 HD
ATOM     61  C   UNL A   1      39.062  31.485  33.486  1.00  0.00     0.074 A 
ATOM     62  C   UNL A   1      37.859  32.260  33.270  1.00  0.00     0.031 C 
ATOM     63  C   UNL A   1      39.747  31.457  34.654  1.00  0.00     0.031 A 
BRANCH  50  64
ATOM     64  C   UNL A   1      44.531  27.575  34.703  1.00  0.00    -0.014 A 
ATOM     65  C   UNL A   1      44.322  26.423  35.476  1.00  0.00     0.009 A 
ATOM     66  C   UNL A   1      45.828  28.105  34.609  1.00  0.00     0.009 A 
ATOM     67  C   UNL A   1      45.388  25.824  36.150  1.00  0.00     0.001 A 
ATOM     68  C   UNL A   1      46.896  27.490  35.261  1.00  0.00     0.001 A 
ATOM     69  C   UNL A   1      46.676  26.352  36.034  1.00  0.00     0.000 A 
ENDBRANCH  50  64
BRANCH  51  70
ATOM     70  C   UNL A   1      36.988  31.261  29.274  1.00  0.00    -0.014 A 
ATOM     71  C   UNL A   1      35.891  30.432  28.995  1.00  0.00     0.009 A 
ATOM     72  C   UNL A   1      36.991  32.572  28.769  1.00  0.00     0.009 A 
ATOM     73  C   UNL A   1      34.841  30.891  28.195  1.00  0.00     0.001 A 
ATOM     74  C   UNL A   1      35.924  33.039  27.998  1.00  0.00     0.001 A 
ATOM     75  C   UNL A   1      34.857  32.194  27.700  1.00  0.00     0.000 A 
ENDBRANCH  51  70
BRANCH  63  76
ATOM     76  C   UNL A   1      39.233  32.310  35.779  1.00  0.00    -0.014 A 
ATOM     77  C   UNL A   1      39.602  33.659  35.895  1.00  0.00     0.009 A 
ATOM     78  C   UNL A   1      38.319  31.772  36.699  1.00  0.00     0.009 A 
ATOM     79  C   UNL A   1      39.083  34.446  36.924  1.00  0.00     0.001 A 
ATOM     80  C   UNL A   1      37.777  32.570  37.707  1.00  0.00     0.001 A 
ATOM     81  C   UNL A   1      38.165  33.903  37.824  1.00  0.00     0.000 A 
ENDBRANCH  63  76
ENDBRANCH  37  38
ENDBRANCH  30  32
ENDBRANCH  29  30
ENDBRANCH  28  29
ENDBRANCH  27  28
ENDBRANCH  26  27
ENDBRANCH   1  26
TORSDOF 20
ENDMDL
MODEL 2
REMARK VINA RESULT:      -9.3      3.592      5.898
REMARK SMILES CC[NH2+][C@]1(C(=O)OCCOCCOC(=O)c2ccc(-c3c4nc(c(-c5ccccc5)c5ccc([nH]5)c(-c5ccccc5)c5nc(c(-c6ccccc6)c6ccc3[nH]6)C=C5)C=C4)cc2)CCC[C@@H]1CCSc1ccc(C)cc1
REMARK SMILES IDX 9 1 8 2 7 3 5 4 6 5 4 6 64 7 67 8 65 9 66 10 3 11 2 14 1 15
REMARK SMILES IDX 68 16 69 17 70 18 71 19 72 20 77 21 73 22 76 23 74 24 75 25
REMARK SMILES IDX 10 26 11 27 12 28 13 29 14 30 15 31 16 32 17 33 63 34 18 35
REMARK SMILES IDX 62 36 19 37 20 38 21 39 56 40 22 41 61 42 55 43 57 44 23 45
REMARK SMILES IDX 60 46 54 47 53 48 24 50 46 51 31 52 45 53 32 54 35 55 44 56
REMARK SMILES IDX 58 57 33 58 34 59 43 61 59 62 36 63 25 64 26 65 30 66 27 67
REMARK SMILES IDX 29 68 28 69 47 70 48 71 52 72 49 73 51 74 50 75 37 76 38 77
REMARK SMILES IDX 42 78 39 79 41 80 40 81
REMARK H PARENT 3 12 3 13 57 49 35 60
REMARK Flexibility Score: inf
ROOT
ATOM      1  C   UNL A   1      37.385  21.889  24.221  1.00  0.00     0.202 C 
ENDROOT
BRANCH   1   2
ATOM      2  C   UNL A   1      36.728  23.235  24.577  1.00  0.00     0.261 C 
BRANCH   2   3
ATOM      3  O   UNL A   1      35.399  23.408  24.044  1.00  0.00    -0.459 OA
BRANCH   3   4
ATOM      4  C   UNL A   1      34.611  24.211  24.804  1.00  0.00     0.368 C 
ATOM      5  O   UNL A   1      34.904  24.534  25.957  1.00  0.00    -0.245 OA
BRANCH   4   6
ATOM      6  C   UNL A   1      33.304  24.730  24.124  1.00  0.00     0.197 C 
ATOM      7  C   UNL A   1      33.516  25.696  22.924  1.00  0.00     0.081 C 
ATOM      8  C   UNL A   1      32.395  23.715  23.350  1.00  0.00     0.063 C 
ATOM      9  C   UNL A   1      32.118  25.917  22.346  1.00  0.00     0.008 C 
ATOM     10  C   UNL A   1      31.330  24.695  22.811  1.00  0.00     0.011 C 
BRANCH   6  11
ATOM     11  N   UNL A   1      32.508  25.413  25.217  1.00  0.00    -0.332 N 
ATOM     12  H   UNL A   1      31.519  25.380  24.969  1.00  0.00     0.347 HD
ATOM     13  H   UNL A   1      32.700  24.917  26.088  1.00  0.00     0.347 HD
BRANCH  11  14
ATOM     14  C   UNL A   1      32.894  26.819  25.420  1.00  0.00     0.257 C 
ATOM     15  C   UNL A   1      31.668  27.693  25.599  1.00  0.00     0.071 C 
ENDBRANCH  11  14
ENDBRANCH   6  11
BRANCH   8  16
ATOM     16  C   UNL A   1      31.834  22.469  24.037  1.00  0.00     0.022 C 
BRANCH  16  17
ATOM     17  C   UNL A   1      32.441  21.116  23.586  1.00  0.00     0.075 C 
BRANCH  17  18
ATOM     18  S   UNL A   1      33.849  20.393  24.550  1.00  0.00    -0.126 SA
BRANCH  18  19
ATOM     19  C   UNL A   1      33.467  18.650  24.650  1.00  0.00     0.007 A 
ATOM     20  C   UNL A   1      32.635  18.223  25.689  1.00  0.00     0.015 A 
ATOM     21  C   UNL A   1      33.982  17.694  23.764  1.00  0.00     0.015 A 
ATOM     22  C   UNL A   1      32.416  16.862  25.920  1.00  0.00     0.004 A 
ATOM     23  C   UNL A   1      33.760  16.324  23.993  1.00  0.00     0.004 A 
ATOM     24  C   UNL A   1      32.995  15.898  25.088  1.00  0.00    -0.051 A 
ATOM     25  C   UNL A   1      32.883  14.440  25.434  1.00  0.00     0.044 C 
ENDBRANCH  18  19
ENDBRANCH  17  18
ENDBRANCH  16  17
ENDBRANCH   8  16
ENDBRANCH   4   6
ENDBRANCH   3   4
ENDBRANCH   2   3
ENDBRANCH   1   2
BRANCH   1  26
ATOM     26  O   UNL A   1      37.613  20.932  25.249  1.00  0.00    -0.374 OA
BRANCH  26  27
ATOM     27  C   UNL A   1      38.505  19.865  24.941  1.00  0.00     0.202 C 
BRANCH  27  28
ATOM     28  C   UNL A   1      39.509  19.393  25.994  1.00  0.00     0.261 C 
BRANCH  28  29
ATOM     29  O   UNL A   1      40.827  19.239  25.438  1.00  0.00    -0.460 OA
BRANCH  29  30
ATOM     30  C   UNL A   1      41.840  19.378  26.323  1.00  0.00     0.338 C 
ATOM     31  O   UNL A   1      42.692  18.548  26.614  1.00  0.00    -0.246 OA
BRANCH  30  32
ATOM     32  C   UNL A   1      41.925  20.785  26.744  1.00  0.00     0.060 A 
ATOM     33  C   UNL A   1      42.204  21.745  25.759  1.00  0.00     0.016 A 
ATOM     34  C   UNL A   1      41.771  21.157  28.078  1.00  0.00     0.016 A 
ATOM     35  C   UNL A   1      42.345  23.083  26.108  1.00  0.00     0.010 A 
ATOM     36  C   UNL A   1      41.940  22.499  28.431  1.00  0.00     0.010 A 
ATOM     37  C   UNL A   1      42.247  23.462  27.452  1.00  0.00    -0.014 A 
BRANCH  37  38
ATOM     38  C   UNL A   1      42.580  24.844  27.856  1.00  0.00     0.031 A 
ATOM     39  C   UNL A   1      44.010  25.186  28.160  1.00  0.00     0.074 A 
ATOM     40  C   UNL A   1      41.614  25.774  27.958  1.00  0.00     0.049 A 
ATOM     41  N   UNL A   1      44.511  26.297  28.634  1.00  0.00    -0.248 NA
ATOM     42  C   UNL A   1      45.011  24.136  27.897  1.00  0.00     0.031 C 
ATOM     43  C   UNL A   1      40.203  25.570  27.630  1.00  0.00     0.029 A 
ATOM     44  N   UNL A   1      41.677  27.075  28.388  1.00  0.00    -0.354 N 
ATOM     45  C   UNL A   1      45.876  26.073  28.752  1.00  0.00     0.074 A 
ATOM     46  C   UNL A   1      46.128  24.720  28.304  1.00  0.00     0.031 C 
ATOM     47  C   UNL A   1      39.528  26.703  27.891  1.00  0.00     0.029 A 
ATOM     48  C   UNL A   1      40.450  27.691  28.449  1.00  0.00     0.049 A 
ATOM     49  H   UNL A   1      42.518  27.524  28.630  1.00  0.00     0.167 HD
ATOM     50  C   UNL A   1      46.830  26.921  29.200  1.00  0.00     0.031 A 
ATOM     51  C   UNL A   1      40.108  28.896  28.942  1.00  0.00     0.031 A 
ATOM     52  C   UNL A   1      46.569  28.263  29.644  1.00  0.00     0.049 A 
ATOM     53  C   UNL A   1      41.180  29.778  29.528  1.00  0.00     0.074 A 
ATOM     54  C   UNL A   1      47.475  29.217  30.076  1.00  0.00     0.029 A 
ATOM     55  N   UNL A   1      45.311  28.835  29.729  1.00  0.00    -0.354 N 
ATOM     56  N   UNL A   1      42.475  29.578  29.588  1.00  0.00    -0.248 NA
ATOM     57  C   UNL A   1      40.742  31.048  30.123  1.00  0.00     0.031 C 
ATOM     58  C   UNL A   1      46.756  30.339  30.493  1.00  0.00     0.029 A 
ATOM     59  C   UNL A   1      45.410  30.110  30.256  1.00  0.00     0.049 A 
ATOM     60  H   UNL A   1      44.472  28.399  29.455  1.00  0.00     0.167 HD
ATOM     61  C   UNL A   1      43.005  30.707  30.200  1.00  0.00     0.074 A 
ATOM     62  C   UNL A   1      41.897  31.596  30.473  1.00  0.00     0.031 C 
ATOM     63  C   UNL A   1      44.294  30.982  30.514  1.00  0.00     0.031 A 
BRANCH  50  64
ATOM     64  C   UNL A   1      48.243  26.416  29.285  1.00  0.00    -0.014 A 
ATOM     65  C   UNL A   1      49.153  26.595  28.233  1.00  0.00     0.009 A 
ATOM     66  C   UNL A   1      48.689  25.822  30.476  1.00  0.00     0.009 A 
ATOM     67  C   UNL A   1      50.478  26.177  28.368  1.00  0.00     0.001 A 
ATOM     68  C   UNL A   1      50.020  25.429  30.620  1.00  0.00     0.001 A 
ATOM     69  C   UNL A   1      50.913  25.603  29.564  1.00  0.00     0.000 A 
ENDBRANCH  50  64
BRANCH  51  70
ATOM     70  C   UNL A   1      38.685  29.330  28.964  1.00  0.00    -0.014 A 
ATOM     71  C   UNL A   1      37.886  29.110  30.097  1.00  0.00     0.009 A 
ATOM     72  C   UNL A   1      38.100  29.917  27.829  1.00  0.00     0.009 A 
ATOM     73  C   UNL A   1      36.527  29.431  30.079  1.00  0.00     0.001 A 
ATOM     74  C   UNL A   1      36.749  30.268  27.827  1.00  0.00     0.001 A 
ATOM     75  C   UNL A   1      35.960  30.012  28.946  1.00  0.00     0.000 A 
ENDBRANCH  51  70
BRANCH  63  76
ATOM     76  C   UNL A   1      44.582  32.308  31.160  1.00  0.00    -0.014 A 
ATOM     77  C   UNL A   1      44.388  32.503  32.536  1.00  0.00     0.009 A 
ATOM     78  C   UNL A   1      45.113  33.356  30.392  1.00  0.00     0.009 A 
ATOM     79  C   UNL A   1      44.699  33.730  33.125  1.00  0.00     0.001 A 
ATOM     80  C   UNL A   1      45.452  34.570  30.989  1.00  0.00     0.001 A 
ATOM     81  C   UNL A   1      45.237  34.759  32.353  1.00  0.00     0.000 A 
ENDBRANCH  63  76
ENDBRANCH  37  38
ENDBRANCH  30  32
ENDBRANCH  29  30
ENDBRANCH  28  29
ENDBRANCH  27  28
ENDBRANCH  26  27
ENDBRANCH   1  26
TORSDOF 20
ENDMDL
MODEL 3
REMARK VINA RESULT:      -9.1      3.438      7.977
REMARK SMILES CC[NH2+][C@]1(C(=O)OCCOCCOC(=O)c2ccc(-c3c4nc(c(-c5ccccc5)c5ccc([nH]5)c(-c5ccccc5)c5nc(c(-c6ccccc6)c6ccc3[nH]6)C=C5)C=C4)cc2)CCC[C@@H]1CCSc1ccc(C)cc1
REMARK SMILES IDX 9 1 8 2 7 3 5 4 6 5 4 6 64 7 67 8 65 9 66 10 3 11 2 14 1 15
REMARK SMILES IDX 68 16 69 17 70 18 71 19 72 20 77 21 73 22 76 23 74 24 75 25
REMARK SMILES IDX 10 26 11 27 12 28 13 29 14 30 15 31 16 32 17 33 63 34 18 35
REMARK SMILES IDX 62 36 19 37 20 38 21 39 56 40 22 41 61 42 55 43 57 44 23 45
REMARK SMILES IDX 60 46 54 47 53 48 24 50 46 51 31 52 45 53 32 54 35 55 44 56
REMARK SMILES IDX 58 57 33 58 34 59 43 61 59 62 36 63 25 64 26 65 30 66 27 67
REMARK SMILES IDX 29 68 28 69 47 70 48 71 52 72 49 73 51 74 50 75 37 76 38 77
REMARK SMILES IDX 42 78 39 79 41 80 40 81
REMARK H PARENT 3 12 3 13 57 49 35 60
REMARK Flexibility Score: inf
ROOT
ATOM      1  C   UNL A   1      34.377  30.299  27.503  1.00  0.00     0.202 C 
ENDROOT
BRANCH   1   2
ATOM      2  C   UNL A   1      34.243  28.910  26.853  1.00  0.00     0.261 C 
BRANCH   2   3
ATOM      3  O   UNL A   1      33.250  28.834  25.809  1.00  0.00    -0.459 OA
BRANCH   3   4
ATOM      4  C   UNL A   1      33.585  27.985  24.804  1.00  0.00     0.368 C 
ATOM      5  O   UNL A   1      34.164  28.357  23.782  1.00  0.00    -0.245 OA
BRANCH   4   6
ATOM      6  C   UNL A   1      33.211  26.484  25.025  1.00  0.00     0.197 C 
ATOM      7  C   UNL A   1      34.382  25.566  25.477  1.00  0.00     0.081 C 
ATOM      8  C   UNL A   1      32.249  26.105  26.202  1.00  0.00     0.063 C 
ATOM      9  C   UNL A   1      33.729  24.216  25.778  1.00  0.00     0.008 C 
ATOM     10  C   UNL A   1      32.269  24.567  26.054  1.00  0.00     0.011 C 
BRANCH   6  11
ATOM     11  N   UNL A   1      32.639  25.999  23.708  1.00  0.00    -0.332 N 
ATOM     12  H   UNL A   1      32.110  25.144  23.879  1.00  0.00     0.347 HD
ATOM     13  H   UNL A   1      32.051  26.747  23.339  1.00  0.00     0.347 HD
BRANCH  11  14
ATOM     14  C   UNL A   1      33.673  25.718  22.698  1.00  0.00     0.257 C 
ATOM     15  C   UNL A   1      33.192  26.108  21.314  1.00  0.00     0.071 C 
ENDBRANCH  11  14
ENDBRANCH   6  11
BRANCH   8  16
ATOM     16  C   UNL A   1      30.855  26.722  26.318  1.00  0.00     0.022 C 
BRANCH  16  17
ATOM     17  C   UNL A   1      29.685  25.862  25.776  1.00  0.00     0.075 C 
BRANCH  17  18
ATOM     18  S   UNL A   1      29.384  25.798  23.949  1.00  0.00    -0.126 SA
BRANCH  18  19
ATOM     19  C   UNL A   1      29.108  27.502  23.487  1.00  0.00     0.007 A 
ATOM     20  C   UNL A   1      27.788  27.959  23.436  1.00  0.00     0.015 A 
ATOM     21  C   UNL A   1      30.140  28.387  23.145  1.00  0.00     0.015 A 
ATOM     22  C   UNL A   1      27.487  29.230  22.939  1.00  0.00     0.004 A 
ATOM     23  C   UNL A   1      29.839  29.668  22.647  1.00  0.00     0.004 A 
ATOM     24  C   UNL A   1      28.508  30.089  22.517  1.00  0.00    -0.051 A 
ATOM     25  C   UNL A   1      28.169  31.387  21.842  1.00  0.00     0.044 C 
ENDBRANCH  18  19
ENDBRANCH  17  18
ENDBRANCH  16  17
ENDBRANCH   8  16
ENDBRANCH   4   6
ENDBRANCH   3   4
ENDBRANCH   2   3
ENDBRANCH   1   2
BRANCH   1  26
ATOM     26  O   UNL A   1      33.829  31.433  26.843  1.00  0.00    -0.374 OA
BRANCH  26  27
ATOM     27  C   UNL A   1      32.677  32.023  27.436  1.00  0.00     0.202 C 
BRANCH  27  28
ATOM     28  C   UNL A   1      32.483  33.539  27.365  1.00  0.00     0.261 C 
BRANCH  28  29
ATOM     29  O   UNL A   1      32.459  34.132  28.676  1.00  0.00    -0.460 OA
BRANCH  29  30
ATOM     30  C   UNL A   1      33.554  34.858  28.994  1.00  0.00     0.338 C 
ATOM     31  O   UNL A   1      33.620  36.068  29.164  1.00  0.00    -0.246 OA
BRANCH  30  32
ATOM     32  C   UNL A   1      34.654  33.946  29.344  1.00  0.00     0.060 A 
ATOM     33  C   UNL A   1      34.401  32.955  30.305  1.00  0.00     0.016 A 
ATOM     34  C   UNL A   1      35.919  34.076  28.771  1.00  0.00     0.016 A 
ATOM     35  C   UNL A   1      35.417  32.098  30.710  1.00  0.00     0.010 A 
ATOM     36  C   UNL A   1      36.946  33.231  29.200  1.00  0.00     0.010 A 
ATOM     37  C   UNL A   1      36.704  32.254  30.183  1.00  0.00    -0.014 A 
BRANCH  37  38
ATOM     38  C   UNL A   1      37.830  31.476  30.743  1.00  0.00     0.031 A 
ATOM     39  C   UNL A   1      38.395  31.873  32.075  1.00  0.00     0.074 A 
ATOM     40  C   UNL A   1      38.343  30.437  30.060  1.00  0.00     0.049 A 
ATOM     41  N   UNL A   1      39.444  31.406  32.700  1.00  0.00    -0.248 NA
ATOM     42  C   UNL A   1      37.684  32.940  32.802  1.00  0.00     0.031 C 
ATOM     43  C   UNL A   1      37.837  29.925  28.787  1.00  0.00     0.029 A 
ATOM     44  N   UNL A   1      39.423  29.638  30.339  1.00  0.00    -0.354 N 
ATOM     45  C   UNL A   1      39.536  32.137  33.877  1.00  0.00     0.074 A 
ATOM     46  C   UNL A   1      38.441  33.082  33.880  1.00  0.00     0.031 C 
ATOM     47  C   UNL A   1      38.619  28.909  28.384  1.00  0.00     0.029 A 
ATOM     48  C   UNL A   1      39.706  28.733  29.345  1.00  0.00     0.049 A 
ATOM     49  H   UNL A   1      39.944  29.705  31.172  1.00  0.00     0.167 HD
ATOM     50  C   UNL A   1      40.458  32.030  34.861  1.00  0.00     0.031 A 
ATOM     51  C   UNL A   1      40.750  27.893  29.208  1.00  0.00     0.031 A 
ATOM     52  C   UNL A   1      41.543  31.087  34.848  1.00  0.00     0.049 A 
ATOM     53  C   UNL A   1      41.815  27.870  30.273  1.00  0.00     0.074 A 
ATOM     54  C   UNL A   1      42.505  30.870  35.819  1.00  0.00     0.029 A 
ATOM     55  N   UNL A   1      41.820  30.218  33.806  1.00  0.00    -0.354 N 
ATOM     56  N   UNL A   1      41.866  28.529  31.407  1.00  0.00    -0.248 NA
ATOM     57  C   UNL A   1      42.970  26.993  30.037  1.00  0.00     0.031 C 
ATOM     58  C   UNL A   1      43.408  29.922  35.332  1.00  0.00     0.029 A 
ATOM     59  C   UNL A   1      42.968  29.500  34.087  1.00  0.00     0.049 A 
ATOM     60  H   UNL A   1      41.280  30.124  32.989  1.00  0.00     0.167 HD
ATOM     61  C   UNL A   1      43.043  28.125  32.027  1.00  0.00     0.074 A 
ATOM     62  C   UNL A   1      43.663  27.150  31.156  1.00  0.00     0.031 C 
ATOM     63  C   UNL A   1      43.567  28.529  33.209  1.00  0.00     0.031 A 
BRANCH  50  64
ATOM     64  C   UNL A   1      40.373  32.985  36.019  1.00  0.00    -0.014 A 
ATOM     65  C   UNL A   1      40.999  34.240  35.985  1.00  0.00     0.009 A 
ATOM     66  C   UNL A   1      39.580  32.650  37.128  1.00  0.00     0.009 A 
ATOM     67  C   UNL A   1      40.843  35.134  37.047  1.00  0.00     0.001 A 
ATOM     68  C   UNL A   1      39.404  33.554  38.175  1.00  0.00     0.001 A 
ATOM     69  C   UNL A   1      40.039  34.794  38.136  1.00  0.00     0.000 A 
ENDBRANCH  50  64
BRANCH  51  70
ATOM     70  C   UNL A   1      40.884  27.043  27.995  1.00  0.00    -0.014 A 
ATOM     71  C   UNL A   1      40.420  25.718  27.992  1.00  0.00     0.009 A 
ATOM     72  C   UNL A   1      41.531  27.534  26.849  1.00  0.00     0.009 A 
ATOM     73  C   UNL A   1      40.635  24.894  26.885  1.00  0.00     0.001 A 
ATOM     74  C   UNL A   1      41.715  26.717  25.730  1.00  0.00     0.001 A 
ATOM     75  C   UNL A   1      41.279  25.394  25.755  1.00  0.00     0.000 A 
ENDBRANCH  51  70
BRANCH  63  76
ATOM     76  C   UNL A   1      44.858  27.896  33.647  1.00  0.00    -0.014 A 
ATOM     77  C   UNL A   1      46.094  28.488  33.346  1.00  0.00     0.009 A 
ATOM     78  C   UNL A   1      44.833  26.728  34.423  1.00  0.00     0.009 A 
ATOM     79  C   UNL A   1      47.282  27.908  33.795  1.00  0.00     0.001 A 
ATOM     80  C   UNL A   1      46.019  26.167  34.897  1.00  0.00     0.001 A 
ATOM     81  C   UNL A   1      47.242  26.753  34.576  1.00  0.00     0.000 A 
ENDBRANCH  63  76
ENDBRANCH  37  38
ENDBRANCH  30  32
ENDBRANCH  29  30
ENDBRANCH  28  29
ENDBRANCH  27  28
ENDBRANCH  26  27
ENDBRANCH   1  26
TORSDOF 20
ENDMDL
