MODEL 1
REMARK VINA RESULT:     -10.4      0.000      0.000
REMARK SMILES Cc1cc(C)n(-c2nc(C)c(C)c(Oc3cccc(C(=O)OCCOCCOC(=O)c4ccc(-c5c6nc(c(-c7ccccc7)c7ccc([nH]7)c(-c7ccccc7)c7nc(c(-c8ccccc8)c8ccc5[nH]8)C=C7)C=C6)cc4)c3)n2)n1
REMARK SMILES IDX 24 1 23 2 22 3 20 4 21 5 19 6 15 7 16 8 79 9 17 10 18 11
REMARK SMILES IDX 14 12 13 13 7 14 8 15 80 16 9 17 10 18 11 19 12 20 6 21 1 22
REMARK SMILES IDX 2 23 3 24 81 25 4 26 5 27 25 28 26 29 27 30 28 31 29 32
REMARK SMILES IDX 30 33 31 34 32 35 78 36 33 37 77 38 34 39 35 40 36 41 71 42
REMARK SMILES IDX 37 43 76 44 70 45 72 46 38 47 75 48 69 49 68 50 39 52 61 53
REMARK SMILES IDX 46 54 60 55 47 56 50 57 59 58 73 59 48 60 49 61 58 63 74 64
REMARK SMILES IDX 51 65 40 66 41 67 45 68 42 69 44 70 43 71 62 72 63 73 67 74
REMARK SMILES IDX 64 75 66 76 65 77 52 78 53 79 57 80 54 81 56 82 55 83
REMARK H PARENT 72 51 50 62
REMARK Flexibility Score: inf
ROOT
ATOM      1  C   UNL A   1      42.753  19.343  25.499  1.00  0.00     0.202 C 
ENDROOT
BRANCH   1   2
ATOM      2  C   UNL A   1      44.233  18.950  25.425  1.00  0.00     0.261 C 
BRANCH   2   3
ATOM      3  O   UNL A   1      44.912  19.538  24.302  1.00  0.00    -0.460 OA
BRANCH   3   4
ATOM      4  C   UNL A   1      45.954  20.343  24.636  1.00  0.00     0.338 C 
ATOM      5  O   UNL A   1      47.139  20.071  24.557  1.00  0.00    -0.246 OA
BRANCH   4   6
ATOM      6  C   UNL A   1      45.474  21.713  24.919  1.00  0.00     0.063 A 
ATOM      7  C   UNL A   1      45.745  23.909  25.869  1.00  0.00     0.130 A 
ATOM      8  C   UNL A   1      44.573  24.332  25.233  1.00  0.00     0.047 A 
ATOM      9  C   UNL A   1      46.157  22.575  25.777  1.00  0.00     0.062 A 
ATOM     10  C   UNL A   1      43.853  23.448  24.434  1.00  0.00     0.005 A 
ATOM     11  C   UNL A   1      44.319  22.148  24.253  1.00  0.00     0.016 A 
BRANCH   7  12
ATOM     12  O   UNL A   1      46.416  24.868  26.591  1.00  0.00    -0.439 OA
BRANCH  12  13
ATOM     13  C   UNL A   1      46.812  26.039  25.943  1.00  0.00     0.227 A 
ATOM     14  C   UNL A   1      48.084  27.088  24.362  1.00  0.00     0.254 A 
ATOM     15  N   UNL A   1      47.841  28.300  24.902  1.00  0.00    -0.216 NA
ATOM     16  N   UNL A   1      47.545  25.950  24.819  1.00  0.00    -0.175 NA
ATOM     17  C   UNL A   1      46.967  28.371  25.930  1.00  0.00     0.050 A 
ATOM     18  C   UNL A   1      46.586  29.768  26.323  1.00  0.00     0.067 C 
ATOM     19  C   UNL A   1      46.446  27.239  26.538  1.00  0.00     0.033 A 
ATOM     20  C   UNL A   1      45.547  27.305  27.732  1.00  0.00     0.052 C 
BRANCH  14  21
ATOM     21  N   UNL A   1      49.039  27.005  23.290  1.00  0.00    -0.203 N 
ATOM     22  C   UNL A   1      49.764  27.046  19.801  1.00  0.00     0.069 C 
ATOM     23  C   UNL A   1      49.785  27.006  21.285  1.00  0.00     0.060 A 
ATOM     24  C   UNL A   1      50.917  27.078  22.120  1.00  0.00     0.049 A 
ATOM     25  N   UNL A   1      48.657  26.857  21.987  1.00  0.00    -0.170 NA
ATOM     26  C   UNL A   1      50.424  27.028  23.406  1.00  0.00     0.045 A 
ATOM     27  C   UNL A   1      51.137  26.918  24.702  1.00  0.00     0.067 C 
ENDBRANCH  14  21
ENDBRANCH  12  13
ENDBRANCH   7  12
ENDBRANCH   4   6
ENDBRANCH   3   4
ENDBRANCH   2   3
ENDBRANCH   1   2
BRANCH   1  28
ATOM     28  O   UNL A   1      42.002  18.924  26.638  1.00  0.00    -0.374 OA
BRANCH  28  29
ATOM     29  C   UNL A   1      41.028  19.799  27.192  1.00  0.00     0.202 C 
BRANCH  29  30
ATOM     30  C   UNL A   1      40.742  21.103  26.466  1.00  0.00     0.261 C 
BRANCH  30  31
ATOM     31  O   UNL A   1      40.443  22.171  27.353  1.00  0.00    -0.460 OA
BRANCH  31  32
ATOM     32  C   UNL A   1      41.527  22.660  28.001  1.00  0.00     0.338 C 
ATOM     33  O   UNL A   1      42.330  22.043  28.676  1.00  0.00    -0.246 OA
BRANCH  32  34
ATOM     34  C   UNL A   1      41.499  24.122  27.907  1.00  0.00     0.060 A 
ATOM     35  C   UNL A   1      42.627  24.805  28.368  1.00  0.00     0.016 A 
ATOM     36  C   UNL A   1      40.287  24.779  27.641  1.00  0.00     0.016 A 
ATOM     37  C   UNL A   1      42.482  26.123  28.742  1.00  0.00     0.010 A 
ATOM     38  C   UNL A   1      40.141  26.089  28.026  1.00  0.00     0.010 A 
ATOM     39  C   UNL A   1      41.217  26.716  28.646  1.00  0.00    -0.014 A 
BRANCH  39  40
ATOM     40  C   UNL A   1      41.061  28.065  29.140  1.00  0.00     0.031 A 
ATOM     41  C   UNL A   1      41.962  29.031  28.480  1.00  0.00     0.074 A 
ATOM     42  C   UNL A   1      40.130  28.411  30.047  1.00  0.00     0.049 A 
ATOM     43  N   UNL A   1      42.962  29.650  29.007  1.00  0.00    -0.248 NA
ATOM     44  C   UNL A   1      41.833  29.204  27.024  1.00  0.00     0.031 C 
ATOM     45  C   UNL A   1      39.016  27.615  30.569  1.00  0.00     0.029 A 
ATOM     46  N   UNL A   1      39.935  29.625  30.624  1.00  0.00    -0.354 N 
ATOM     47  C   UNL A   1      43.491  30.436  27.993  1.00  0.00     0.074 A 
ATOM     48  C   UNL A   1      42.868  30.004  26.767  1.00  0.00     0.031 C 
ATOM     49  C   UNL A   1      38.139  28.436  31.196  1.00  0.00     0.029 A 
ATOM     50  C   UNL A   1      38.705  29.774  31.246  1.00  0.00     0.049 A 
ATOM     51  H   UNL A   1      40.613  30.339  30.603  1.00  0.00     0.167 HD
ATOM     52  C   UNL A   1      44.220  31.549  28.273  1.00  0.00     0.031 A 
ATOM     53  C   UNL A   1      38.184  30.937  31.708  1.00  0.00     0.031 A 
ATOM     54  C   UNL A   1      44.678  31.561  29.636  1.00  0.00     0.049 A 
ATOM     55  C   UNL A   1      39.311  31.883  31.890  1.00  0.00     0.074 A 
ATOM     56  C   UNL A   1      45.512  30.760  30.389  1.00  0.00     0.029 A 
ATOM     57  N   UNL A   1      43.939  32.293  30.535  1.00  0.00    -0.354 N 
ATOM     58  N   UNL A   1      40.236  31.730  32.791  1.00  0.00    -0.248 NA
ATOM     59  C   UNL A   1      39.654  32.763  30.784  1.00  0.00     0.031 C 
ATOM     60  C   UNL A   1      44.914  30.714  31.682  1.00  0.00     0.029 A 
ATOM     61  C   UNL A   1      43.784  31.536  31.667  1.00  0.00     0.049 A 
ATOM     62  H   UNL A   1      43.584  33.200  30.391  1.00  0.00     0.167 HD
ATOM     63  C   UNL A   1      41.410  32.117  32.160  1.00  0.00     0.074 A 
ATOM     64  C   UNL A   1      40.975  32.843  30.967  1.00  0.00     0.031 C 
ATOM     65  C   UNL A   1      42.610  31.568  32.511  1.00  0.00     0.031 A 
BRANCH  52  66
ATOM     66  C   UNL A   1      44.148  32.797  27.435  1.00  0.00    -0.014 A 
ATOM     67  C   UNL A   1      43.448  33.907  27.935  1.00  0.00     0.009 A 
ATOM     68  C   UNL A   1      44.496  32.824  26.070  1.00  0.00     0.009 A 
ATOM     69  C   UNL A   1      43.068  34.961  27.096  1.00  0.00     0.001 A 
ATOM     70  C   UNL A   1      44.155  33.893  25.240  1.00  0.00     0.001 A 
ATOM     71  C   UNL A   1      43.416  34.950  25.749  1.00  0.00     0.000 A 
ENDBRANCH  52  66
BRANCH  53  72
ATOM     72  C   UNL A   1      36.779  31.402  31.692  1.00  0.00    -0.014 A 
ATOM     73  C   UNL A   1      36.200  31.954  32.847  1.00  0.00     0.009 A 
ATOM     74  C   UNL A   1      36.110  31.590  30.470  1.00  0.00     0.009 A 
ATOM     75  C   UNL A   1      35.024  32.713  32.772  1.00  0.00     0.001 A 
ATOM     76  C   UNL A   1      34.935  32.346  30.395  1.00  0.00     0.001 A 
ATOM     77  C   UNL A   1      34.403  32.924  31.543  1.00  0.00     0.000 A 
ENDBRANCH  53  72
BRANCH  65  78
ATOM     78  C   UNL A   1      42.655  30.712  33.756  1.00  0.00    -0.014 A 
ATOM     79  C   UNL A   1      43.010  31.212  35.023  1.00  0.00     0.009 A 
ATOM     80  C   UNL A   1      42.167  29.400  33.672  1.00  0.00     0.009 A 
ATOM     81  C   UNL A   1      42.898  30.411  36.166  1.00  0.00     0.001 A 
ATOM     82  C   UNL A   1      42.036  28.609  34.816  1.00  0.00     0.001 A 
ATOM     83  C   UNL A   1      42.404  29.112  36.062  1.00  0.00     0.000 A 
ENDBRANCH  65  78
ENDBRANCH  39  40
ENDBRANCH  32  34
ENDBRANCH  31  32
ENDBRANCH  30  31
ENDBRANCH  29  30
ENDBRANCH  28  29
ENDBRANCH   1  28
TORSDOF 17
ENDMDL
MODEL 2
REMARK VINA RESULT:     -10.4      5.345     10.967
REMARK SMILES Cc1cc(C)n(-c2nc(C)c(C)c(Oc3cccc(C(=O)OCCOCCOC(=O)c4ccc(-c5c6nc(c(-c7ccccc7)c7ccc([nH]7)c(-c7ccccc7)c7nc(c(-c8ccccc8)c8ccc5[nH]8)C=C7)C=C6)cc4)c3)n2)n1
REMARK SMILES IDX 24 1 23 2 22 3 20 4 21 5 19 6 15 7 16 8 79 9 17 10 18 11
REMARK SMILES IDX 14 12 13 13 7 14 8 15 80 16 9 17 10 18 11 19 12 20 6 21 1 22
REMARK SMILES IDX 2 23 3 24 81 25 4 26 5 27 25 28 26 29 27 30 28 31 29 32
REMARK SMILES IDX 30 33 31 34 32 35 78 36 33 37 77 38 34 39 35 40 36 41 71 42
REMARK SMILES IDX 37 43 76 44 70 45 72 46 38 47 75 48 69 49 68 50 39 52 61 53
REMARK SMILES IDX 46 54 60 55 47 56 50 57 59 58 73 59 48 60 49 61 58 63 74 64
REMARK SMILES IDX 51 65 40 66 41 67 45 68 42 69 44 70 43 71 62 72 63 73 67 74
REMARK SMILES IDX 64 75 66 76 65 77 52 78 53 79 57 80 54 81 56 82 55 83
REMARK H PARENT 72 51 50 62
REMARK Flexibility Score: inf
ROOT
ATOM      1  C   UNL A   1      33.203  29.582  27.595  1.00  0.00     0.202 C 
ENDROOT
BRANCH   1   2
ATOM      2  C   UNL A   1      34.040  28.917  26.497  1.00  0.00     0.261 C 
BRANCH   2   3
ATOM      3  O   UNL A   1      33.354  27.832  25.850  1.00  0.00    -0.460 OA
BRANCH   3   4
ATOM      4  C   UNL A   1      33.174  28.000  24.514  1.00  0.00     0.338 C 
ATOM      5  O   UNL A   1      33.608  28.910  23.829  1.00  0.00    -0.246 OA
BRANCH   4   6
ATOM      6  C   UNL A   1      32.545  26.798  23.925  1.00  0.00     0.063 A 
ATOM      7  C   UNL A   1      32.651  24.579  22.998  1.00  0.00     0.130 A 
ATOM      8  C   UNL A   1      31.254  24.504  23.009  1.00  0.00     0.047 A 
ATOM      9  C   UNL A   1      33.298  25.757  23.384  1.00  0.00     0.062 A 
ATOM     10  C   UNL A   1      30.500  25.574  23.484  1.00  0.00     0.005 A 
ATOM     11  C   UNL A   1      31.146  26.709  23.970  1.00  0.00     0.016 A 
BRANCH   7  12
ATOM     12  O   UNL A   1      33.309  23.451  22.564  1.00  0.00    -0.439 OA
BRANCH  12  13
ATOM     13  C   UNL A   1      33.880  22.601  23.511  1.00  0.00     0.227 A 
ATOM     14  C   UNL A   1      35.627  22.060  24.880  1.00  0.00     0.254 A 
ATOM     15  N   UNL A   1      35.145  20.817  25.083  1.00  0.00    -0.216 NA
ATOM     16  N   UNL A   1      34.998  22.991  24.151  1.00  0.00    -0.175 NA
ATOM     17  C   UNL A   1      33.936  20.514  24.561  1.00  0.00     0.050 A 
ATOM     18  C   UNL A   1      33.376  19.198  25.017  1.00  0.00     0.067 C 
ATOM     19  C   UNL A   1      33.263  21.374  23.705  1.00  0.00     0.033 A 
ATOM     20  C   UNL A   1      31.967  21.011  23.053  1.00  0.00     0.052 C 
BRANCH  14  21
ATOM     21  N   UNL A   1      36.929  22.374  25.407  1.00  0.00    -0.203 N 
ATOM     22  C   UNL A   1      39.078  24.587  27.191  1.00  0.00     0.069 C 
ATOM     23  C   UNL A   1      38.446  23.473  26.439  1.00  0.00     0.060 A 
ATOM     24  C   UNL A   1      38.990  22.199  26.192  1.00  0.00     0.049 A 
ATOM     25  N   UNL A   1      37.241  23.617  25.876  1.00  0.00    -0.170 NA
ATOM     26  C   UNL A   1      38.022  21.519  25.485  1.00  0.00     0.045 A 
ATOM     27  C   UNL A   1      38.073  20.194  24.820  1.00  0.00     0.067 C 
ENDBRANCH  14  21
ENDBRANCH  12  13
ENDBRANCH   7  12
ENDBRANCH   4   6
ENDBRANCH   3   4
ENDBRANCH   2   3
ENDBRANCH   1   2
BRANCH   1  28
ATOM     28  O   UNL A   1      32.804  30.939  27.409  1.00  0.00    -0.374 OA
BRANCH  28  29
ATOM     29  C   UNL A   1      33.798  31.947  27.279  1.00  0.00     0.202 C 
BRANCH  29  30
ATOM     30  C   UNL A   1      33.879  33.016  28.357  1.00  0.00     0.261 C 
BRANCH  30  31
ATOM     31  O   UNL A   1      35.180  33.134  28.915  1.00  0.00    -0.460 OA
BRANCH  31  32
ATOM     32  C   UNL A   1      35.455  32.200  29.855  1.00  0.00     0.338 C 
ATOM     33  O   UNL A   1      34.932  32.065  30.945  1.00  0.00    -0.246 OA
BRANCH  32  34
ATOM     34  C   UNL A   1      36.636  31.446  29.423  1.00  0.00     0.060 A 
ATOM     35  C   UNL A   1      36.467  30.077  29.211  1.00  0.00     0.016 A 
ATOM     36  C   UNL A   1      37.907  32.035  29.513  1.00  0.00     0.016 A 
ATOM     37  C   UNL A   1      37.578  29.266  29.275  1.00  0.00     0.010 A 
ATOM     38  C   UNL A   1      39.013  31.224  29.589  1.00  0.00     0.010 A 
ATOM     39  C   UNL A   1      38.822  29.847  29.551  1.00  0.00    -0.014 A 
BRANCH  39  40
ATOM     40  C   UNL A   1      39.958  28.970  29.718  1.00  0.00     0.031 A 
ATOM     41  C   UNL A   1      40.238  28.648  31.132  1.00  0.00     0.074 A 
ATOM     42  C   UNL A   1      40.633  28.438  28.683  1.00  0.00     0.049 A 
ATOM     43  N   UNL A   1      41.253  29.025  31.831  1.00  0.00    -0.248 NA
ATOM     44  C   UNL A   1      39.186  27.963  31.900  1.00  0.00     0.031 C 
ATOM     45  C   UNL A   1      40.295  28.460  27.258  1.00  0.00     0.029 A 
ATOM     46  N   UNL A   1      41.745  27.658  28.722  1.00  0.00    -0.354 N 
ATOM     47  C   UNL A   1      41.063  28.476  33.091  1.00  0.00     0.074 A 
ATOM     48  C   UNL A   1      39.712  27.977  33.125  1.00  0.00     0.031 C 
ATOM     49  C   UNL A   1      41.046  27.539  26.609  1.00  0.00     0.029 A 
ATOM     50  C   UNL A   1      42.011  26.980  27.542  1.00  0.00     0.049 A 
ATOM     51  H   UNL A   1      42.314  27.582  29.521  1.00  0.00     0.167 HD
ATOM     52  C   UNL A   1      42.111  28.254  33.928  1.00  0.00     0.031 A 
ATOM     53  C   UNL A   1      42.924  25.990  27.384  1.00  0.00     0.031 A 
ATOM     54  C   UNL A   1      43.282  28.988  33.527  1.00  0.00     0.049 A 
ATOM     55  C   UNL A   1      43.896  26.104  28.497  1.00  0.00     0.074 A 
ATOM     56  C   UNL A   1      43.595  30.326  33.402  1.00  0.00     0.029 A 
ATOM     57  N   UNL A   1      44.225  28.306  32.795  1.00  0.00    -0.354 N 
ATOM     58  N   UNL A   1      44.727  27.097  28.623  1.00  0.00    -0.248 NA
ATOM     59  C   UNL A   1      43.644  25.341  29.709  1.00  0.00     0.031 C 
ATOM     60  C   UNL A   1      44.419  30.407  32.241  1.00  0.00     0.029 A 
ATOM     61  C   UNL A   1      44.614  29.112  31.756  1.00  0.00     0.049 A 
ATOM     62  H   UNL A   1      44.560  27.399  32.983  1.00  0.00     0.167 HD
ATOM     63  C   UNL A   1      44.754  27.362  29.984  1.00  0.00     0.074 A 
ATOM     64  C   UNL A   1      44.156  26.185  30.611  1.00  0.00     0.031 C 
ATOM     65  C   UNL A   1      44.996  28.623  30.450  1.00  0.00     0.031 A 
BRANCH  52  66
ATOM     66  C   UNL A   1      42.182  27.060  34.840  1.00  0.00    -0.014 A 
ATOM     67  C   UNL A   1      41.864  27.226  36.197  1.00  0.00     0.009 A 
ATOM     68  C   UNL A   1      42.817  25.855  34.477  1.00  0.00     0.009 A 
ATOM     69  C   UNL A   1      42.216  26.260  37.147  1.00  0.00     0.001 A 
ATOM     70  C   UNL A   1      43.132  24.871  35.416  1.00  0.00     0.001 A 
ATOM     71  C   UNL A   1      42.855  25.087  36.757  1.00  0.00     0.000 A 
ENDBRANCH  52  66
BRANCH  53  72
ATOM     72  C   UNL A   1      42.840  24.769  26.552  1.00  0.00    -0.014 A 
ATOM     73  C   UNL A   1      43.381  24.754  25.256  1.00  0.00     0.009 A 
ATOM     74  C   UNL A   1      42.511  23.534  27.138  1.00  0.00     0.009 A 
ATOM     75  C   UNL A   1      43.635  23.546  24.593  1.00  0.00     0.001 A 
ATOM     76  C   UNL A   1      42.762  22.327  26.476  1.00  0.00     0.001 A 
ATOM     77  C   UNL A   1      43.343  22.333  25.212  1.00  0.00     0.000 A 
ENDBRANCH  53  72
BRANCH  65  78
ATOM     78  C   UNL A   1      45.464  29.662  29.456  1.00  0.00    -0.014 A 
ATOM     79  C   UNL A   1      44.582  30.452  28.695  1.00  0.00     0.009 A 
ATOM     80  C   UNL A   1      46.832  29.961  29.408  1.00  0.00     0.009 A 
ATOM     81  C   UNL A   1      45.063  31.495  27.895  1.00  0.00     0.001 A 
ATOM     82  C   UNL A   1      47.310  31.015  28.627  1.00  0.00     0.001 A 
ATOM     83  C   UNL A   1      46.428  31.780  27.868  1.00  0.00     0.000 A 
ENDBRANCH  65  78
ENDBRANCH  39  40
ENDBRANCH  32  34
ENDBRANCH  31  32
ENDBRANCH  30  31
ENDBRANCH  29  30
ENDBRANCH  28  29
ENDBRANCH   1  28
TORSDOF 17
ENDMDL
MODEL 3
REMARK VINA RESULT:     -10.3      6.006     11.751
REMARK SMILES Cc1cc(C)n(-c2nc(C)c(C)c(Oc3cccc(C(=O)OCCOCCOC(=O)c4ccc(-c5c6nc(c(-c7ccccc7)c7ccc([nH]7)c(-c7ccccc7)c7nc(c(-c8ccccc8)c8ccc5[nH]8)C=C7)C=C6)cc4)c3)n2)n1
REMARK SMILES IDX 24 1 23 2 22 3 20 4 21 5 19 6 15 7 16 8 79 9 17 10 18 11
REMARK SMILES IDX 14 12 13 13 7 14 8 15 80 16 9 17 10 18 11 19 12 20 6 21 1 22
REMARK SMILES IDX 2 23 3 24 81 25 4 26 5 27 25 28 26 29 27 30 28 31 29 32
REMARK SMILES IDX 30 33 31 34 32 35 78 36 33 37 77 38 34 39 35 40 36 41 71 42
REMARK SMILES IDX 37 43 76 44 70 45 72 46 38 47 75 48 69 49 68 50 39 52 61 53
REMARK SMILES IDX 46 54 60 55 47 56 50 57 59 58 73 59 48 60 49 61 58 63 74 64
REMARK SMILES IDX 51 65 40 66 41 67 45 68 42 69 44 70 43 71 62 72 63 73 67 74
REMARK SMILES IDX 64 75 66 76 65 77 52 78 53 79 57 80 54 81 56 82 55 83
REMARK H PARENT 72 51 50 62
REMARK Flexibility Score: inf
ROOT
ATOM      1  C   UNL A   1      31.906  30.084  26.677  1.00  0.00     0.202 C 
ENDROOT
BRANCH   1   2
ATOM      2  C   UNL A   1      32.467  29.349  25.455  1.00  0.00     0.261 C 
BRANCH   2   3
ATOM      3  O   UNL A   1      31.769  28.125  25.169  1.00  0.00    -0.460 OA
BRANCH   3   4
ATOM      4  C   UNL A   1      32.170  27.504  24.029  1.00  0.00     0.338 C 
ATOM      5  O   UNL A   1      32.774  28.009  23.098  1.00  0.00    -0.246 OA
BRANCH   4   6
ATOM      6  C   UNL A   1      31.968  26.043  24.141  1.00  0.00     0.063 A 
ATOM      7  C   UNL A   1      32.408  23.906  25.158  1.00  0.00     0.130 A 
ATOM      8  C   UNL A   1      31.376  23.332  24.408  1.00  0.00     0.047 A 
ATOM      9  C   UNL A   1      32.758  25.247  24.970  1.00  0.00     0.062 A 
ATOM     10  C   UNL A   1      30.634  24.115  23.527  1.00  0.00     0.005 A 
ATOM     11  C   UNL A   1      30.911  25.476  23.416  1.00  0.00     0.016 A 
BRANCH   7  12
ATOM     12  O   UNL A   1      33.046  23.066  26.042  1.00  0.00    -0.439 OA
BRANCH  12  13
ATOM     13  C   UNL A   1      33.872  22.062  25.536  1.00  0.00     0.227 A 
ATOM     14  C   UNL A   1      34.151  19.916  24.804  1.00  0.00     0.254 A 
ATOM     15  N   UNL A   1      35.494  20.016  24.876  1.00  0.00    -0.216 NA
ATOM     16  N   UNL A   1      33.316  20.929  25.070  1.00  0.00    -0.175 NA
ATOM     17  C   UNL A   1      36.024  21.219  25.187  1.00  0.00     0.050 A 
ATOM     18  C   UNL A   1      37.514  21.300  25.028  1.00  0.00     0.067 C 
ATOM     19  C   UNL A   1      35.239  22.293  25.583  1.00  0.00     0.033 A 
ATOM     20  C   UNL A   1      35.821  23.602  26.013  1.00  0.00     0.052 C 
BRANCH  14  21
ATOM     21  N   UNL A   1      33.584  18.628  24.506  1.00  0.00    -0.203 N 
ATOM     22  C   UNL A   1      32.968  15.244  25.436  1.00  0.00     0.069 C 
ATOM     23  C   UNL A   1      33.044  16.577  24.788  1.00  0.00     0.060 A 
ATOM     24  C   UNL A   1      32.323  17.017  23.662  1.00  0.00     0.049 A 
ATOM     25  N   UNL A   1      33.885  17.516  25.238  1.00  0.00    -0.170 NA
ATOM     26  C   UNL A   1      32.716  18.323  23.464  1.00  0.00     0.045 A 
ATOM     27  C   UNL A   1      32.414  19.256  22.351  1.00  0.00     0.067 C 
ENDBRANCH  14  21
ENDBRANCH  12  13
ENDBRANCH   7  12
ENDBRANCH   4   6
ENDBRANCH   3   4
ENDBRANCH   2   3
ENDBRANCH   1   2
BRANCH   1  28
ATOM     28  O   UNL A   1      32.489  31.336  27.036  1.00  0.00    -0.374 OA
BRANCH  28  29
ATOM     29  C   UNL A   1      33.786  31.362  27.616  1.00  0.00     0.202 C 
BRANCH  29  30
ATOM     30  C   UNL A   1      34.234  32.637  28.312  1.00  0.00     0.261 C 
BRANCH  30  31
ATOM     31  O   UNL A   1      35.631  32.663  28.565  1.00  0.00    -0.460 OA
BRANCH  31  32
ATOM     32  C   UNL A   1      36.004  31.926  29.636  1.00  0.00     0.338 C 
ATOM     33  O   UNL A   1      35.591  32.011  30.778  1.00  0.00    -0.246 OA
BRANCH  32  34
ATOM     34  C   UNL A   1      37.141  31.088  29.246  1.00  0.00     0.060 A 
ATOM     35  C   UNL A   1      36.874  29.744  28.983  1.00  0.00     0.016 A 
ATOM     36  C   UNL A   1      38.449  31.567  29.423  1.00  0.00     0.016 A 
ATOM     37  C   UNL A   1      37.910  28.841  29.082  1.00  0.00     0.010 A 
ATOM     38  C   UNL A   1      39.479  30.665  29.533  1.00  0.00     0.010 A 
ATOM     39  C   UNL A   1      39.180  29.310  29.443  1.00  0.00    -0.014 A 
BRANCH  39  40
ATOM     40  C   UNL A   1      40.229  28.338  29.644  1.00  0.00     0.031 A 
ATOM     41  C   UNL A   1      40.696  28.271  31.044  1.00  0.00     0.074 A 
ATOM     42  C   UNL A   1      40.671  27.522  28.670  1.00  0.00     0.049 A 
ATOM     43  N   UNL A   1      41.843  28.638  31.502  1.00  0.00    -0.248 NA
ATOM     44  C   UNL A   1      39.714  27.904  32.077  1.00  0.00     0.031 C 
ATOM     45  C   UNL A   1      40.113  27.304  27.333  1.00  0.00     0.029 A 
ATOM     46  N   UNL A   1      41.686  26.621  28.729  1.00  0.00    -0.354 N 
ATOM     47  C   UNL A   1      41.800  28.384  32.865  1.00  0.00     0.074 A 
ATOM     48  C   UNL A   1      40.427  28.091  33.188  1.00  0.00     0.031 C 
ATOM     49  C   UNL A   1      40.650  26.177  26.807  1.00  0.00     0.029 A 
ATOM     50  C   UNL A   1      41.687  25.690  27.702  1.00  0.00     0.049 A 
ATOM     51  H   UNL A   1      42.364  26.630  29.443  1.00  0.00     0.167 HD
ATOM     52  C   UNL A   1      42.939  28.194  33.582  1.00  0.00     0.031 A 
ATOM     53  C   UNL A   1      42.454  24.573  27.643  1.00  0.00     0.031 A 
ATOM     54  C   UNL A   1      44.101  28.666  32.877  1.00  0.00     0.049 A 
ATOM     55  C   UNL A   1      43.598  24.775  28.564  1.00  0.00     0.074 A 
ATOM     56  C   UNL A   1      44.530  29.896  32.422  1.00  0.00     0.029 A 
ATOM     57  N   UNL A   1      44.839  27.728  32.193  1.00  0.00    -0.354 N 
ATOM     58  N   UNL A   1      44.538  25.650  28.357  1.00  0.00    -0.248 NA
ATOM     59  C   UNL A   1      43.464  24.312  29.936  1.00  0.00     0.031 C 
ATOM     60  C   UNL A   1      45.161  29.628  31.172  1.00  0.00     0.029 A 
ATOM     61  C   UNL A   1      45.139  28.248  30.961  1.00  0.00     0.049 A 
ATOM     62  H   UNL A   1      45.102  26.840  32.528  1.00  0.00     0.167 HD
ATOM     63  C   UNL A   1      44.810  26.176  29.612  1.00  0.00     0.074 A 
ATOM     64  C   UNL A   1      44.199  25.241  30.555  1.00  0.00     0.031 C 
ATOM     65  C   UNL A   1      45.255  27.460  29.753  1.00  0.00     0.031 A 
BRANCH  52  66
ATOM     66  C   UNL A   1      43.029  27.208  34.715  1.00  0.00    -0.014 A 
ATOM     67  C   UNL A   1      43.608  27.621  35.926  1.00  0.00     0.009 A 
ATOM     68  C   UNL A   1      42.827  25.824  34.545  1.00  0.00     0.009 A 
ATOM     69  C   UNL A   1      44.015  26.690  36.889  1.00  0.00     0.001 A 
ATOM     70  C   UNL A   1      43.194  24.896  35.521  1.00  0.00     0.001 A 
ATOM     71  C   UNL A   1      43.813  25.329  36.683  1.00  0.00     0.000 A 
ENDBRANCH  52  66
BRANCH  53  72
ATOM     72  C   UNL A   1      42.110  23.233  27.118  1.00  0.00    -0.014 A 
ATOM     73  C   UNL A   1      43.025  22.530  26.316  1.00  0.00     0.009 A 
ATOM     74  C   UNL A   1      41.025  22.519  27.654  1.00  0.00     0.009 A 
ATOM     75  C   UNL A   1      42.887  21.151  26.105  1.00  0.00     0.001 A 
ATOM     76  C   UNL A   1      40.886  21.143  27.442  1.00  0.00     0.001 A 
ATOM     77  C   UNL A   1      41.828  20.456  26.683  1.00  0.00     0.000 A 
ENDBRANCH  53  72
BRANCH  65  78
ATOM     78  C   UNL A   1      45.664  28.205  28.503  1.00  0.00    -0.014 A 
ATOM     79  C   UNL A   1      44.773  28.989  27.746  1.00  0.00     0.009 A 
ATOM     80  C   UNL A   1      47.026  28.243  28.174  1.00  0.00     0.009 A 
ATOM     81  C   UNL A   1      45.234  29.770  26.680  1.00  0.00     0.001 A 
ATOM     82  C   UNL A   1      47.489  29.039  27.124  1.00  0.00     0.001 A 
ATOM     83  C   UNL A   1      46.594  29.800  26.375  1.00  0.00     0.000 A 
ENDBRANCH  65  78
ENDBRANCH  39  40
ENDBRANCH  32  34
ENDBRANCH  31  32
ENDBRANCH  30  31
ENDBRANCH  29  30
ENDBRANCH  28  29
ENDBRANCH   1  28
TORSDOF 17
ENDMDL
