MODEL 1
REMARK VINA RESULT:     -11.2      0.000      0.000
REMARK SMILES Cn1c(=O)c2c(-c3ccc(Cl)cc3)n(CC(=O)OCCOCCOC(=O)c3ccc(-c4c5nc(c(-c6ccccc6)c6ccc([nH]6)c(-c6ccccc6)c6nc(c(-c7ccccc7)c7ccc4[nH]7)C=C6)C=C5)cc3)cc2n(C)c1=O
REMARK SMILES IDX 21 1 20 2 19 3 18 4 16 5 17 6 15 7 14 8 1 9 2 10 3 11 79 12
REMARK SMILES IDX 4 13 5 14 77 15 80 16 6 17 76 18 78 19 75 20 7 21 8 22 13 23
REMARK SMILES IDX 9 24 12 25 10 26 11 27 22 28 23 29 24 30 25 31 26 32 27 33
REMARK SMILES IDX 28 34 74 35 29 36 73 37 30 38 31 39 32 40 67 41 33 42 72 43
REMARK SMILES IDX 66 44 68 45 34 46 71 47 65 48 64 49 35 51 57 52 42 53 56 54
REMARK SMILES IDX 43 55 46 56 55 57 69 58 44 59 45 60 54 62 70 63 47 64 36 65
REMARK SMILES IDX 37 66 41 67 38 68 40 69 39 70 58 71 59 72 63 73 60 74 62 75
REMARK SMILES IDX 61 76 48 77 49 78 53 79 50 80 52 81 51 82
REMARK H PARENT 68 50 46 61
REMARK Flexibility Score: inf
ROOT
ATOM      1  O   UNL A   1      33.886  34.031  27.801  1.00  0.00    -0.374 OA
ENDROOT
BRANCH   1   2
ATOM      2  C   UNL A   1      33.032  32.900  27.650  1.00  0.00     0.202 C 
BRANCH   2   3
ATOM      3  C   UNL A   1      33.671  31.510  27.585  1.00  0.00     0.261 C 
BRANCH   3   4
ATOM      4  O   UNL A   1      32.708  30.436  27.595  1.00  0.00    -0.462 OA
BRANCH   4   5
ATOM      5  C   UNL A   1      32.778  29.598  26.529  1.00  0.00     0.326 C 
ATOM      6  O   UNL A   1      33.652  29.654  25.665  1.00  0.00    -0.250 OA
BRANCH   5   7
ATOM      7  C   UNL A   1      31.770  28.483  26.506  1.00  0.00     0.244 C 
BRANCH   7   8
ATOM      8  N   UNL A   1      32.068  27.277  25.733  1.00  0.00    -0.333 N 
ATOM      9  C   UNL A   1      33.199  23.243  21.558  1.00  0.00     0.158 C 
ATOM     10  N   UNL A   1      33.135  23.970  22.812  1.00  0.00    -0.263 N 
ATOM     11  C   UNL A   1      32.277  25.080  22.821  1.00  0.00     0.265 A 
ATOM     12  C   UNL A   1      33.891  23.491  23.895  1.00  0.00     0.330 A 
ATOM     13  O   UNL A   1      31.562  25.385  21.870  1.00  0.00    -0.268 OA
ATOM     14  C   UNL A   1      32.308  25.822  24.060  1.00  0.00     0.090 A 
ATOM     15  N   UNL A   1      33.886  24.257  25.068  1.00  0.00    -0.295 N 
ATOM     16  O   UNL A   1      34.521  22.432  23.819  1.00  0.00    -0.248 OA
ATOM     17  C   UNL A   1      31.668  27.002  24.429  1.00  0.00     0.064 A 
ATOM     18  C   UNL A   1      33.120  25.411  25.123  1.00  0.00     0.076 A 
ATOM     19  C   UNL A   1      34.658  23.795  26.213  1.00  0.00     0.155 C 
ATOM     20  C   UNL A   1      33.007  26.343  26.123  1.00  0.00     0.114 A 
BRANCH  17  21
ATOM     21  C   UNL A   1      30.790  27.863  23.637  1.00  0.00    -0.001 A 
ATOM     22  C   UNL A   1      29.399  27.715  23.713  1.00  0.00     0.012 A 
ATOM     23  C   UNL A   1      31.325  28.869  22.825  1.00  0.00     0.012 A 
ATOM     24  C   UNL A   1      28.555  28.528  22.954  1.00  0.00     0.021 A 
ATOM     25  C   UNL A   1      30.481  29.701  22.084  1.00  0.00     0.021 A 
ATOM     26  C   UNL A   1      29.101  29.520  22.145  1.00  0.00     0.041 A 
ATOM     27  Cl  UNL A   1      28.062  30.534  21.223  1.00  0.00    -0.084 Cl
ENDBRANCH  17  21
ENDBRANCH   7   8
ENDBRANCH   5   7
ENDBRANCH   4   5
ENDBRANCH   3   4
ENDBRANCH   2   3
ENDBRANCH   1   2
BRANCH   1  28
ATOM     28  C   UNL A   1      34.365  34.399  29.089  1.00  0.00     0.202 C 
BRANCH  28  29
ATOM     29  C   UNL A   1      33.574  35.432  29.880  1.00  0.00     0.261 C 
BRANCH  29  30
ATOM     30  O   UNL A   1      32.820  34.835  30.926  1.00  0.00    -0.460 OA
BRANCH  30  31
ATOM     31  C   UNL A   1      33.062  35.352  32.147  1.00  0.00     0.338 C 
ATOM     32  O   UNL A   1      32.528  36.338  32.651  1.00  0.00    -0.246 OA
BRANCH  31  33
ATOM     33  C   UNL A   1      34.187  34.647  32.761  1.00  0.00     0.060 A 
ATOM     34  C   UNL A   1      35.343  35.403  32.951  1.00  0.00     0.016 A 
ATOM     35  C   UNL A   1      34.199  33.245  32.777  1.00  0.00     0.016 A 
ATOM     36  C   UNL A   1      36.552  34.759  32.851  1.00  0.00     0.010 A 
ATOM     37  C   UNL A   1      35.406  32.604  32.660  1.00  0.00     0.010 A 
ATOM     38  C   UNL A   1      36.553  33.385  32.586  1.00  0.00    -0.014 A 
BRANCH  38  39
ATOM     39  C   UNL A   1      37.819  32.764  32.288  1.00  0.00     0.031 A 
ATOM     40  C   UNL A   1      38.710  32.720  33.463  1.00  0.00     0.074 A 
ATOM     41  C   UNL A   1      38.099  32.233  31.085  1.00  0.00     0.049 A 
ATOM     42  N   UNL A   1      39.790  33.399  33.649  1.00  0.00    -0.248 NA
ATOM     43  C   UNL A   1      38.236  31.984  34.647  1.00  0.00     0.031 C 
ATOM     44  C   UNL A   1      37.201  31.986  29.954  1.00  0.00     0.029 A 
ATOM     45  N   UNL A   1      39.269  31.693  30.665  1.00  0.00    -0.354 N 
ATOM     46  C   UNL A   1      40.232  33.046  34.916  1.00  0.00     0.074 A 
ATOM     47  C   UNL A   1      39.152  32.334  35.549  1.00  0.00     0.031 C 
ATOM     48  C   UNL A   1      37.797  31.120  29.098  1.00  0.00     0.029 A 
ATOM     49  C   UNL A   1      39.156  30.871  29.551  1.00  0.00     0.049 A 
ATOM     50  H   UNL A   1      40.127  31.869  31.112  1.00  0.00     0.167 HD
ATOM     51  C   UNL A   1      41.540  33.140  35.267  1.00  0.00     0.031 A 
ATOM     52  C   UNL A   1      40.101  29.998  29.116  1.00  0.00     0.031 A 
ATOM     53  C   UNL A   1      42.292  33.945  34.344  1.00  0.00     0.049 A 
ATOM     54  C   UNL A   1      41.391  30.403  29.732  1.00  0.00     0.074 A 
ATOM     55  C   UNL A   1      42.262  35.275  33.977  1.00  0.00     0.029 A 
ATOM     56  N   UNL A   1      42.956  33.284  33.338  1.00  0.00    -0.354 N 
ATOM     57  N   UNL A   1      42.008  31.510  29.435  1.00  0.00    -0.248 NA
ATOM     58  C   UNL A   1      41.743  29.817  31.017  1.00  0.00     0.031 C 
ATOM     59  C   UNL A   1      42.492  35.275  32.572  1.00  0.00     0.029 A 
ATOM     60  C   UNL A   1      42.720  33.959  32.167  1.00  0.00     0.049 A 
ATOM     61  H   UNL A   1      43.503  32.472  33.440  1.00  0.00     0.167 HD
ATOM     62  C   UNL A   1      42.479  31.990  30.650  1.00  0.00     0.074 A 
ATOM     63  C   UNL A   1      42.362  30.863  31.575  1.00  0.00     0.031 C 
ATOM     64  C   UNL A   1      42.639  33.329  30.866  1.00  0.00     0.031 A 
BRANCH  51  65
ATOM     65  C   UNL A   1      42.185  32.180  36.221  1.00  0.00    -0.014 A 
ATOM     66  C   UNL A   1      42.887  32.677  37.327  1.00  0.00     0.009 A 
ATOM     67  C   UNL A   1      42.336  30.809  35.929  1.00  0.00     0.009 A 
ATOM     68  C   UNL A   1      43.717  31.844  38.086  1.00  0.00     0.001 A 
ATOM     69  C   UNL A   1      43.127  29.966  36.708  1.00  0.00     0.001 A 
ATOM     70  C   UNL A   1      43.835  30.490  37.777  1.00  0.00     0.000 A 
ENDBRANCH  51  65
BRANCH  52  71
ATOM     71  C   UNL A   1      39.912  28.654  28.522  1.00  0.00    -0.014 A 
ATOM     72  C   UNL A   1      40.562  28.304  27.326  1.00  0.00     0.009 A 
ATOM     73  C   UNL A   1      39.338  27.616  29.279  1.00  0.00     0.009 A 
ATOM     74  C   UNL A   1      40.675  26.964  26.929  1.00  0.00     0.001 A 
ATOM     75  C   UNL A   1      39.450  26.279  28.883  1.00  0.00     0.001 A 
ATOM     76  C   UNL A   1      40.135  25.950  27.717  1.00  0.00     0.000 A 
ENDBRANCH  52  71
BRANCH  64  77
ATOM     77  C   UNL A   1      42.471  34.257  29.684  1.00  0.00    -0.014 A 
ATOM     78  C   UNL A   1      43.465  34.444  28.704  1.00  0.00     0.009 A 
ATOM     79  C   UNL A   1      41.208  34.821  29.461  1.00  0.00     0.009 A 
ATOM     80  C   UNL A   1      43.201  35.188  27.547  1.00  0.00     0.001 A 
ATOM     81  C   UNL A   1      40.939  35.545  28.298  1.00  0.00     0.001 A 
ATOM     82  C   UNL A   1      41.935  35.730  27.343  1.00  0.00     0.000 A 
ENDBRANCH  64  77
ENDBRANCH  38  39
ENDBRANCH  31  33
ENDBRANCH  30  31
ENDBRANCH  29  30
ENDBRANCH  28  29
ENDBRANCH   1  28
TORSDOF 16
ENDMDL
MODEL 2
REMARK VINA RESULT:     -10.9      4.619      9.613
REMARK SMILES Cn1c(=O)c2c(-c3ccc(Cl)cc3)n(CC(=O)OCCOCCOC(=O)c3ccc(-c4c5nc(c(-c6ccccc6)c6ccc([nH]6)c(-c6ccccc6)c6nc(c(-c7ccccc7)c7ccc4[nH]7)C=C6)C=C5)cc3)cc2n(C)c1=O
REMARK SMILES IDX 21 1 20 2 19 3 18 4 16 5 17 6 15 7 14 8 1 9 2 10 3 11 79 12
REMARK SMILES IDX 4 13 5 14 77 15 80 16 6 17 76 18 78 19 75 20 7 21 8 22 13 23
REMARK SMILES IDX 9 24 12 25 10 26 11 27 22 28 23 29 24 30 25 31 26 32 27 33
REMARK SMILES IDX 28 34 74 35 29 36 73 37 30 38 31 39 32 40 67 41 33 42 72 43
REMARK SMILES IDX 66 44 68 45 34 46 71 47 65 48 64 49 35 51 57 52 42 53 56 54
REMARK SMILES IDX 43 55 46 56 55 57 69 58 44 59 45 60 54 62 70 63 47 64 36 65
REMARK SMILES IDX 37 66 41 67 38 68 40 69 39 70 58 71 59 72 63 73 60 74 62 75
REMARK SMILES IDX 61 76 48 77 49 78 53 79 50 80 52 81 51 82
REMARK H PARENT 68 50 46 61
REMARK Flexibility Score: inf
ROOT
ATOM      1  O   UNL A   1      35.268  21.907  24.192  1.00  0.00    -0.374 OA
ENDROOT
BRANCH   1   2
ATOM      2  C   UNL A   1      34.004  21.458  23.712  1.00  0.00     0.202 C 
BRANCH   2   3
ATOM      3  C   UNL A   1      33.070  22.481  23.059  1.00  0.00     0.261 C 
BRANCH   3   4
ATOM      4  O   UNL A   1      33.770  23.535  22.367  1.00  0.00    -0.462 OA
BRANCH   4   5
ATOM      5  C   UNL A   1      32.969  24.467  21.789  1.00  0.00     0.326 C 
ATOM      6  O   UNL A   1      33.234  25.045  20.736  1.00  0.00    -0.250 OA
BRANCH   5   7
ATOM      7  C   UNL A   1      31.639  24.690  22.455  1.00  0.00     0.244 C 
BRANCH   7   8
ATOM      8  N   UNL A   1      31.445  25.896  23.259  1.00  0.00    -0.333 N 
ATOM      9  C   UNL A   1      31.787  30.358  27.127  1.00  0.00     0.158 C 
ATOM     10  N   UNL A   1      31.501  29.544  25.960  1.00  0.00    -0.263 N 
ATOM     11  C   UNL A   1      31.806  28.181  26.088  1.00  0.00     0.265 A 
ATOM     12  C   UNL A   1      30.925  30.170  24.842  1.00  0.00     0.330 A 
ATOM     13  O   UNL A   1      32.212  27.677  27.132  1.00  0.00    -0.268 OA
ATOM     14  C   UNL A   1      31.584  27.426  24.877  1.00  0.00     0.090 A 
ATOM     15  N   UNL A   1      30.740  29.387  23.694  1.00  0.00    -0.295 N 
ATOM     16  O   UNL A   1      30.583  31.355  24.874  1.00  0.00    -0.248 OA
ATOM     17  C   UNL A   1      31.830  26.087  24.582  1.00  0.00     0.064 A 
ATOM     18  C   UNL A   1      31.092  28.046  23.723  1.00  0.00     0.076 A 
ATOM     19  C   UNL A   1      30.147  29.997  22.514  1.00  0.00     0.155 C 
ATOM     20  C   UNL A   1      31.064  27.109  22.722  1.00  0.00     0.114 A 
BRANCH  17  21
ATOM     21  C   UNL A   1      32.429  25.052  25.425  1.00  0.00    -0.001 A 
ATOM     22  C   UNL A   1      33.819  24.992  25.590  1.00  0.00     0.012 A 
ATOM     23  C   UNL A   1      31.621  24.136  26.107  1.00  0.00     0.012 A 
ATOM     24  C   UNL A   1      34.398  24.003  26.387  1.00  0.00     0.021 A 
ATOM     25  C   UNL A   1      32.197  23.161  26.927  1.00  0.00     0.021 A 
ATOM     26  C   UNL A   1      33.584  23.093  27.055  1.00  0.00     0.041 A 
ATOM     27  Cl  UNL A   1      34.295  21.885  28.051  1.00  0.00    -0.084 Cl
ENDBRANCH  17  21
ENDBRANCH   7   8
ENDBRANCH   5   7
ENDBRANCH   4   5
ENDBRANCH   3   4
ENDBRANCH   2   3
ENDBRANCH   1   2
BRANCH   1  28
ATOM     28  C   UNL A   1      36.085  21.043  24.975  1.00  0.00     0.202 C 
BRANCH  28  29
ATOM     29  C   UNL A   1      37.573  20.978  24.656  1.00  0.00     0.261 C 
BRANCH  29  30
ATOM     30  O   UNL A   1      38.369  20.993  25.833  1.00  0.00    -0.460 OA
BRANCH  30  31
ATOM     31  C   UNL A   1      39.474  20.225  25.763  1.00  0.00     0.338 C 
ATOM     32  O   UNL A   1      39.534  19.049  25.410  1.00  0.00    -0.246 OA
BRANCH  31  33
ATOM     33  C   UNL A   1      40.612  20.956  26.319  1.00  0.00     0.060 A 
ATOM     34  C   UNL A   1      40.820  20.800  27.689  1.00  0.00     0.016 A 
ATOM     35  C   UNL A   1      41.176  22.014  25.593  1.00  0.00     0.016 A 
ATOM     36  C   UNL A   1      41.336  21.866  28.383  1.00  0.00     0.010 A 
ATOM     37  C   UNL A   1      41.675  23.087  26.288  1.00  0.00     0.010 A 
ATOM     38  C   UNL A   1      41.640  23.035  27.676  1.00  0.00    -0.014 A 
BRANCH  38  39
ATOM     39  C   UNL A   1      41.990  24.206  28.441  1.00  0.00     0.031 A 
ATOM     40  C   UNL A   1      41.037  25.313  28.236  1.00  0.00     0.074 A 
ATOM     41  C   UNL A   1      43.034  24.231  29.287  1.00  0.00     0.049 A 
ATOM     42  N   UNL A   1      41.250  26.419  27.608  1.00  0.00    -0.248 NA
ATOM     43  C   UNL A   1      39.630  25.074  28.599  1.00  0.00     0.031 C 
ATOM     44  C   UNL A   1      43.866  23.121  29.760  1.00  0.00     0.029 A 
ATOM     45  N   UNL A   1      43.505  25.284  29.998  1.00  0.00    -0.354 N 
ATOM     46  C   UNL A   1      40.041  27.100  27.645  1.00  0.00     0.074 A 
ATOM     47  C   UNL A   1      39.046  26.157  28.089  1.00  0.00     0.031 C 
ATOM     48  C   UNL A   1      44.550  23.520  30.860  1.00  0.00     0.029 A 
ATOM     49  C   UNL A   1      44.311  24.938  31.075  1.00  0.00     0.049 A 
ATOM     50  H   UNL A   1      43.292  26.217  29.771  1.00  0.00     0.167 HD
ATOM     51  C   UNL A   1      39.981  28.453  27.553  1.00  0.00     0.031 A 
ATOM     52  C   UNL A   1      44.663  25.762  32.094  1.00  0.00     0.031 A 
ATOM     53  C   UNL A   1      41.213  29.017  27.073  1.00  0.00     0.049 A 
ATOM     54  C   UNL A   1      44.434  27.155  31.632  1.00  0.00     0.074 A 
ATOM     55  C   UNL A   1      41.915  28.936  25.887  1.00  0.00     0.029 A 
ATOM     56  N   UNL A   1      42.108  29.457  28.020  1.00  0.00    -0.354 N 
ATOM     57  N   UNL A   1      45.131  27.719  30.688  1.00  0.00    -0.248 NA
ATOM     58  C   UNL A   1      43.128  27.748  31.882  1.00  0.00     0.031 C 
ATOM     59  C   UNL A   1      43.285  28.881  26.273  1.00  0.00     0.029 A 
ATOM     60  C   UNL A   1      43.352  29.002  27.663  1.00  0.00     0.049 A 
ATOM     61  H   UNL A   1      41.894  30.000  28.813  1.00  0.00     0.167 HD
ATOM     62  C   UNL A   1      44.204  28.431  29.940  1.00  0.00     0.074 A 
ATOM     63  C   UNL A   1      43.003  28.483  30.773  1.00  0.00     0.031 C 
ATOM     64  C   UNL A   1      44.394  28.651  28.605  1.00  0.00     0.031 A 
BRANCH  51  65
ATOM     65  C   UNL A   1      38.942  29.260  28.270  1.00  0.00    -0.014 A 
ATOM     66  C   UNL A   1      38.794  29.114  29.656  1.00  0.00     0.009 A 
ATOM     67  C   UNL A   1      37.935  29.975  27.590  1.00  0.00     0.009 A 
ATOM     68  C   UNL A   1      37.679  29.638  30.320  1.00  0.00     0.001 A 
ATOM     69  C   UNL A   1      36.845  30.536  28.253  1.00  0.00     0.001 A 
ATOM     70  C   UNL A   1      36.708  30.350  29.619  1.00  0.00     0.000 A 
ENDBRANCH  51  65
BRANCH  52  71
ATOM     71  C   UNL A   1      44.822  25.437  33.531  1.00  0.00    -0.014 A 
ATOM     72  C   UNL A   1      43.735  24.952  34.278  1.00  0.00     0.009 A 
ATOM     73  C   UNL A   1      46.105  25.317  34.096  1.00  0.00     0.009 A 
ATOM     74  C   UNL A   1      43.930  24.327  35.518  1.00  0.00     0.001 A 
ATOM     75  C   UNL A   1      46.300  24.695  35.334  1.00  0.00     0.001 A 
ATOM     76  C   UNL A   1      45.215  24.183  36.037  1.00  0.00     0.000 A 
ENDBRANCH  52  71
BRANCH  64  77
ATOM     77  C   UNL A   1      45.729  28.266  28.012  1.00  0.00    -0.014 A 
ATOM     78  C   UNL A   1      46.017  26.971  27.538  1.00  0.00     0.009 A 
ATOM     79  C   UNL A   1      46.660  29.283  27.763  1.00  0.00     0.009 A 
ATOM     80  C   UNL A   1      47.209  26.706  26.852  1.00  0.00     0.001 A 
ATOM     81  C   UNL A   1      47.840  29.023  27.062  1.00  0.00     0.001 A 
ATOM     82  C   UNL A   1      48.115  27.735  26.608  1.00  0.00     0.000 A 
ENDBRANCH  64  77
ENDBRANCH  38  39
ENDBRANCH  31  33
ENDBRANCH  30  31
ENDBRANCH  29  30
ENDBRANCH  28  29
ENDBRANCH   1  28
TORSDOF 16
ENDMDL
MODEL 3
REMARK VINA RESULT:     -10.8      4.749     10.036
REMARK SMILES Cn1c(=O)c2c(-c3ccc(Cl)cc3)n(CC(=O)OCCOCCOC(=O)c3ccc(-c4c5nc(c(-c6ccccc6)c6ccc([nH]6)c(-c6ccccc6)c6nc(c(-c7ccccc7)c7ccc4[nH]7)C=C6)C=C5)cc3)cc2n(C)c1=O
REMARK SMILES IDX 21 1 20 2 19 3 18 4 16 5 17 6 15 7 14 8 1 9 2 10 3 11 79 12
REMARK SMILES IDX 4 13 5 14 77 15 80 16 6 17 76 18 78 19 75 20 7 21 8 22 13 23
REMARK SMILES IDX 9 24 12 25 10 26 11 27 22 28 23 29 24 30 25 31 26 32 27 33
REMARK SMILES IDX 28 34 74 35 29 36 73 37 30 38 31 39 32 40 67 41 33 42 72 43
REMARK SMILES IDX 66 44 68 45 34 46 71 47 65 48 64 49 35 51 57 52 42 53 56 54
REMARK SMILES IDX 43 55 46 56 55 57 69 58 44 59 45 60 54 62 70 63 47 64 36 65
REMARK SMILES IDX 37 66 41 67 38 68 40 69 39 70 58 71 59 72 63 73 60 74 62 75
REMARK SMILES IDX 61 76 48 77 49 78 53 79 50 80 52 81 51 82
REMARK H PARENT 68 50 46 61
REMARK Flexibility Score: inf
ROOT
ATOM      1  O   UNL A   1      40.551  20.878  26.636  1.00  0.00    -0.374 OA
ENDROOT
BRANCH   1   2
ATOM      2  C   UNL A   1      39.479  21.435  25.881  1.00  0.00     0.202 C 
BRANCH   2   3
ATOM      3  C   UNL A   1      38.853  22.746  26.365  1.00  0.00     0.261 C 
BRANCH   3   4
ATOM      4  O   UNL A   1      37.781  23.215  25.521  1.00  0.00    -0.462 OA
BRANCH   4   5
ATOM      5  C   UNL A   1      36.879  22.264  25.166  1.00  0.00     0.326 C 
ATOM      6  O   UNL A   1      36.685  21.228  25.800  1.00  0.00    -0.250 OA
BRANCH   5   7
ATOM      7  C   UNL A   1      36.013  22.594  23.982  1.00  0.00     0.244 C 
BRANCH   7   8
ATOM      8  N   UNL A   1      34.791  23.370  24.194  1.00  0.00    -0.333 N 
ATOM      9  C   UNL A   1      29.558  25.519  25.921  1.00  0.00     0.158 C 
ATOM     10  N   UNL A   1      30.914  25.387  25.422  1.00  0.00    -0.263 N 
ATOM     11  C   UNL A   1      31.352  24.072  25.207  1.00  0.00     0.265 A 
ATOM     12  C   UNL A   1      31.644  26.561  25.168  1.00  0.00     0.330 A 
ATOM     13  O   UNL A   1      30.627  23.090  25.350  1.00  0.00    -0.268 OA
ATOM     14  C   UNL A   1      32.732  23.984  24.791  1.00  0.00     0.090 A 
ATOM     15  N   UNL A   1      32.980  26.412  24.773  1.00  0.00    -0.295 N 
ATOM     16  O   UNL A   1      31.124  27.675  25.275  1.00  0.00    -0.248 OA
ATOM     17  C   UNL A   1      33.541  22.876  24.553  1.00  0.00     0.064 A 
ATOM     18  C   UNL A   1      33.504  25.138  24.616  1.00  0.00     0.076 A 
ATOM     19  C   UNL A   1      33.770  27.603  24.502  1.00  0.00     0.155 C 
ATOM     20  C   UNL A   1      34.781  24.746  24.304  1.00  0.00     0.114 A 
BRANCH  17  21
ATOM     21  C   UNL A   1      33.225  21.455  24.694  1.00  0.00    -0.001 A 
ATOM     22  C   UNL A   1      32.799  20.713  23.584  1.00  0.00     0.012 A 
ATOM     23  C   UNL A   1      33.381  20.810  25.926  1.00  0.00     0.012 A 
ATOM     24  C   UNL A   1      32.488  19.358  23.712  1.00  0.00     0.021 A 
ATOM     25  C   UNL A   1      33.096  19.447  26.051  1.00  0.00     0.021 A 
ATOM     26  C   UNL A   1      32.641  18.730  24.945  1.00  0.00     0.041 A 
ATOM     27  Cl  UNL A   1      32.276  17.057  25.100  1.00  0.00    -0.084 Cl
ENDBRANCH  17  21
ENDBRANCH   7   8
ENDBRANCH   5   7
ENDBRANCH   4   5
ENDBRANCH   3   4
ENDBRANCH   2   3
ENDBRANCH   1   2
BRANCH   1  28
ATOM     28  C   UNL A   1      41.051  19.583  26.322  1.00  0.00     0.202 C 
BRANCH  28  29
ATOM     29  C   UNL A   1      42.490  19.468  25.837  1.00  0.00     0.261 C 
BRANCH  29  30
ATOM     30  O   UNL A   1      42.910  20.634  25.141  1.00  0.00    -0.460 OA
BRANCH  30  31
ATOM     31  C   UNL A   1      44.244  20.824  25.136  1.00  0.00     0.338 C 
ATOM     32  O   UNL A   1      45.114  19.956  25.150  1.00  0.00    -0.246 OA
BRANCH  31  33
ATOM     33  C   UNL A   1      44.534  22.253  25.260  1.00  0.00     0.060 A 
ATOM     34  C   UNL A   1      45.378  22.609  26.312  1.00  0.00     0.016 A 
ATOM     35  C   UNL A   1      43.711  23.185  24.613  1.00  0.00     0.016 A 
ATOM     36  C   UNL A   1      45.171  23.825  26.913  1.00  0.00     0.010 A 
ATOM     37  C   UNL A   1      43.492  24.393  25.225  1.00  0.00     0.010 A 
ATOM     38  C   UNL A   1      44.144  24.642  26.426  1.00  0.00    -0.014 A 
BRANCH  38  39
ATOM     39  C   UNL A   1      43.810  25.820  27.187  1.00  0.00     0.031 A 
ATOM     40  C   UNL A   1      44.760  26.923  26.955  1.00  0.00     0.074 A 
ATOM     41  C   UNL A   1      42.712  25.894  27.958  1.00  0.00     0.049 A 
ATOM     42  N   UNL A   1      45.630  27.391  27.783  1.00  0.00    -0.248 NA
ATOM     43  C   UNL A   1      44.891  27.429  25.577  1.00  0.00     0.031 C 
ATOM     44  C   UNL A   1      41.579  24.969  28.043  1.00  0.00     0.029 A 
ATOM     45  N   UNL A   1      42.332  26.911  28.770  1.00  0.00    -0.354 N 
ATOM     46  C   UNL A   1      46.311  28.377  27.083  1.00  0.00     0.074 A 
ATOM     47  C   UNL A   1      45.952  28.225  25.696  1.00  0.00     0.031 C 
ATOM     48  C   UNL A   1      40.542  25.595  28.653  1.00  0.00     0.029 A 
ATOM     49  C   UNL A   1      40.988  26.899  29.119  1.00  0.00     0.049 A 
ATOM     50  H   UNL A   1      42.958  27.600  29.088  1.00  0.00     0.167 HD
ATOM     51  C   UNL A   1      46.924  29.409  27.718  1.00  0.00     0.031 A 
ATOM     52  C   UNL A   1      40.305  27.936  29.668  1.00  0.00     0.031 A 
ATOM     53  C   UNL A   1      47.081  29.161  29.125  1.00  0.00     0.049 A 
ATOM     54  C   UNL A   1      41.310  28.871  30.237  1.00  0.00     0.074 A 
ATOM     55  C   UNL A   1      47.790  28.240  29.870  1.00  0.00     0.029 A 
ATOM     56  N   UNL A   1      46.111  29.665  29.959  1.00  0.00    -0.354 N 
ATOM     57  N   UNL A   1      42.061  28.578  31.260  1.00  0.00    -0.248 NA
ATOM     58  C   UNL A   1      41.814  29.932  29.376  1.00  0.00     0.031 C 
ATOM     59  C   UNL A   1      46.928  27.900  30.952  1.00  0.00     0.029 A 
ATOM     60  C   UNL A   1      45.773  28.679  30.852  1.00  0.00     0.049 A 
ATOM     61  H   UNL A   1      45.726  30.570  29.921  1.00  0.00     0.167 HD
ATOM     62  C   UNL A   1      43.311  29.087  30.938  1.00  0.00     0.074 A 
ATOM     63  C   UNL A   1      43.078  29.985  29.808  1.00  0.00     0.031 C 
ATOM     64  C   UNL A   1      44.452  28.511  31.419  1.00  0.00     0.031 A 
BRANCH  51  65
ATOM     65  C   UNL A   1      47.013  30.779  27.118  1.00  0.00    -0.014 A 
ATOM     66  C   UNL A   1      48.242  31.454  27.123  1.00  0.00     0.009 A 
ATOM     67  C   UNL A   1      45.871  31.531  26.773  1.00  0.00     0.009 A 
ATOM     68  C   UNL A   1      48.316  32.818  26.820  1.00  0.00     0.001 A 
ATOM     69  C   UNL A   1      45.945  32.879  26.429  1.00  0.00     0.001 A 
ATOM     70  C   UNL A   1      47.168  33.528  26.472  1.00  0.00     0.000 A 
ENDBRANCH  51  65
BRANCH  52  71
ATOM     71  C   UNL A   1      38.907  28.357  29.418  1.00  0.00    -0.014 A 
ATOM     72  C   UNL A   1      38.046  28.646  30.490  1.00  0.00     0.009 A 
ATOM     73  C   UNL A   1      38.506  28.764  28.132  1.00  0.00     0.009 A 
ATOM     74  C   UNL A   1      36.854  29.358  30.290  1.00  0.00     0.001 A 
ATOM     75  C   UNL A   1      37.316  29.474  27.932  1.00  0.00     0.001 A 
ATOM     76  C   UNL A   1      36.499  29.787  29.013  1.00  0.00     0.000 A 
ENDBRANCH  52  71
BRANCH  64  77
ATOM     77  C   UNL A   1      44.307  27.426  32.461  1.00  0.00    -0.014 A 
ATOM     78  C   UNL A   1      44.145  26.064  32.139  1.00  0.00     0.009 A 
ATOM     79  C   UNL A   1      44.516  27.767  33.804  1.00  0.00     0.009 A 
ATOM     80  C   UNL A   1      44.176  25.082  33.137  1.00  0.00     0.001 A 
ATOM     81  C   UNL A   1      44.567  26.786  34.796  1.00  0.00     0.001 A 
ATOM     82  C   UNL A   1      44.395  25.444  34.464  1.00  0.00     0.000 A 
ENDBRANCH  64  77
ENDBRANCH  38  39
ENDBRANCH  31  33
ENDBRANCH  30  31
ENDBRANCH  29  30
ENDBRANCH  28  29
ENDBRANCH   1  28
TORSDOF 16
ENDMDL
