MODEL 1
REMARK VINA RESULT:     -13.8      0.000      0.000
REMARK SMILES Cc1ccccc1NC(=S)NN1C(=O)CS[C@H]1c1ccccc1C(=O)OCCOCCOC(=O)c1ccc(-c2c3nc(c(-c4ccccc4)c4ccc([nH]4)c(-c4ccccc4)c4nc(c(-c5ccccc5)c5ccc2[nH]5)C=C4)C=C3)cc1
REMARK SMILES IDX 27 1 26 2 24 3 25 4 23 5 18 6 19 7 20 8 22 9 21 10 17 11
REMARK SMILES IDX 12 12 13 13 14 14 15 15 16 16 11 17 9 19 10 20 8 21 7 23
REMARK SMILES IDX 1 24 2 25 3 26 4 27 6 28 5 29 28 30 29 31 30 32 31 33 32 34
REMARK SMILES IDX 33 35 34 36 35 37 36 38 82 39 37 40 81 41 38 42 39 43 40 44
REMARK SMILES IDX 75 45 41 46 80 47 74 48 76 49 42 50 79 51 73 52 72 53 43 55
REMARK SMILES IDX 65 56 50 57 64 58 51 59 54 60 63 61 77 62 52 63 53 64 62 66
REMARK SMILES IDX 78 67 55 68 44 69 45 70 49 71 46 72 48 73 47 74 66 75 67 76
REMARK SMILES IDX 71 77 68 78 70 79 69 80 56 81 57 82 61 83 58 84 60 85 59 86
REMARK H PARENT 11 18 8 22 76 54 54 65
REMARK Flexibility Score: inf
ROOT
ATOM      1  C   UNL A   1      33.378  28.826  24.172  1.00  0.00     0.261 C 
ENDROOT
BRANCH   1   2
ATOM      2  O   UNL A   1      33.825  27.086  24.266  1.00  0.00    -0.460 OA
BRANCH   2   3
ATOM      3  C   UNL A   1      34.155  25.936  25.134  1.00  0.00     0.338 C 
ATOM      4  O   UNL A   1      33.687  25.907  26.277  1.00  0.00    -0.246 OA
BRANCH   3   5
ATOM      5  C   UNL A   1      34.970  24.561  24.927  1.00  0.00     0.066 A 
ATOM      6  C   UNL A   1      34.563  23.433  24.178  1.00  0.00     0.001 A 
ATOM      7  C   UNL A   1      35.488  22.564  23.576  1.00  0.00     0.008 A 
ATOM      8  C   UNL A   1      36.753  22.478  24.111  1.00  0.00     0.000 A 
ATOM      9  C   UNL A   1      36.237  24.392  25.522  1.00  0.00     0.016 A 
ATOM     10  C   UNL A   1      37.081  23.311  25.175  1.00  0.00     0.001 A 
BRANCH   6  11
ATOM     11  C   UNL A   1      33.219  22.838  24.532  1.00  0.00     0.197 C 
ATOM     12  N   UNL A   1      32.335  23.413  23.598  1.00  0.00    -0.236 N 
ATOM     13  C   UNL A   1      32.760  22.676  22.335  1.00  0.00     0.252 C 
ATOM     14  O   UNL A   1      33.257  23.011  21.270  1.00  0.00    -0.272 OA
ATOM     15  C   UNL A   1      32.424  21.242  22.603  1.00  0.00     0.174 C 
ATOM     16  S   UNL A   1      33.070  21.029  24.269  1.00  0.00    -0.120 SA
BRANCH  12  17
ATOM     17  N   UNL A   1      31.786  25.060  24.020  1.00  0.00    -0.270 N 
ATOM     18  H   UNL A   1      32.475  25.711  23.750  1.00  0.00     0.191 HD
BRANCH  17  19
ATOM     19  C   UNL A   1      30.624  25.795  24.650  1.00  0.00     0.189 C 
ATOM     20  S   UNL A   1      30.302  24.837  26.032  1.00  0.00    -0.039 S 
BRANCH  19  21
ATOM     21  N   UNL A   1      29.817  27.095  24.325  1.00  0.00    -0.331 N 
ATOM     22  H   UNL A   1      29.413  27.360  25.183  1.00  0.00     0.169 HD
BRANCH  21  23
ATOM     23  C   UNL A   1      29.294  28.278  23.210  1.00  0.00     0.043 A 
ATOM     24  C   UNL A   1      26.542  28.486  23.362  1.00  0.00     0.046 C 
ATOM     25  C   UNL A   1      27.962  28.864  22.985  1.00  0.00    -0.028 A 
ATOM     26  C   UNL A   1      27.776  30.098  22.196  1.00  0.00     0.005 A 
ATOM     27  C   UNL A   1      28.784  30.798  21.594  1.00  0.00     0.000 A 
ATOM     28  C   UNL A   1      30.172  28.957  22.334  1.00  0.00     0.026 A 
ATOM     29  C   UNL A   1      29.993  30.184  21.626  1.00  0.00     0.002 A 
ENDBRANCH  21  23
ENDBRANCH  19  21
ENDBRANCH  17  19
ENDBRANCH  12  17
ENDBRANCH   6  11
ENDBRANCH   3   5
ENDBRANCH   2   3
ENDBRANCH   1   2
BRANCH   1  30
ATOM     30  C   UNL A   1      32.177  29.712  25.337  1.00  0.00     0.202 C 
BRANCH  30  31
ATOM     31  O   UNL A   1      32.628  30.683  26.379  1.00  0.00    -0.374 OA
BRANCH  31  32
ATOM     32  C   UNL A   1      33.335  30.263  27.570  1.00  0.00     0.202 C 
BRANCH  32  33
ATOM     33  C   UNL A   1      34.624  31.087  27.770  1.00  0.00     0.261 C 
BRANCH  33  34
ATOM     34  O   UNL A   1      34.391  32.458  27.362  1.00  0.00    -0.460 OA
BRANCH  34  35
ATOM     35  C   UNL A   1      33.807  33.294  28.274  1.00  0.00     0.338 C 
ATOM     36  O   UNL A   1      32.746  33.844  28.154  1.00  0.00    -0.246 OA
BRANCH  35  37
ATOM     37  C   UNL A   1      34.823  33.597  29.352  1.00  0.00     0.060 A 
ATOM     38  C   UNL A   1      36.086  34.065  29.004  1.00  0.00     0.016 A 
ATOM     39  C   UNL A   1      34.659  33.184  30.662  1.00  0.00     0.016 A 
ATOM     40  C   UNL A   1      37.215  33.773  29.820  1.00  0.00     0.010 A 
ATOM     41  C   UNL A   1      35.798  32.881  31.432  1.00  0.00     0.010 A 
ATOM     42  C   UNL A   1      37.096  32.933  30.894  1.00  0.00    -0.014 A 
BRANCH  42  43
ATOM     43  C   UNL A   1      38.201  32.045  31.418  1.00  0.00     0.031 A 
ATOM     44  C   UNL A   1      38.142  30.607  30.971  1.00  0.00     0.074 A 
ATOM     45  C   UNL A   1      39.387  32.360  32.071  1.00  0.00     0.049 A 
ATOM     46  N   UNL A   1      38.929  29.654  31.367  1.00  0.00    -0.248 NA
ATOM     47  C   UNL A   1      37.117  30.115  30.050  1.00  0.00     0.031 C 
ATOM     48  C   UNL A   1      40.606  31.653  31.647  1.00  0.00     0.029 A 
ATOM     49  N   UNL A   1      39.941  33.336  32.977  1.00  0.00    -0.354 N 
ATOM     50  C   UNL A   1      38.859  28.681  30.402  1.00  0.00     0.074 A 
ATOM     51  C   UNL A   1      37.579  28.894  29.775  1.00  0.00     0.031 C 
ATOM     52  C   UNL A   1      41.644  31.987  32.398  1.00  0.00     0.029 A 
ATOM     53  C   UNL A   1      41.230  32.879  33.443  1.00  0.00     0.049 A 
ATOM     54  H   UNL A   1      39.508  34.182  33.237  1.00  0.00     0.167 HD
ATOM     55  C   UNL A   1      39.961  27.948  30.075  1.00  0.00     0.031 A 
ATOM     56  C   UNL A   1      42.023  33.035  34.558  1.00  0.00     0.031 A 
ATOM     57  C   UNL A   1      41.113  28.166  30.963  1.00  0.00     0.049 A 
ATOM     58  C   UNL A   1      42.607  31.731  35.019  1.00  0.00     0.074 A 
ATOM     59  C   UNL A   1      42.408  28.609  30.742  1.00  0.00     0.029 A 
ATOM     60  N   UNL A   1      40.967  28.082  32.350  1.00  0.00    -0.354 N 
ATOM     61  N   UNL A   1      42.552  30.682  34.268  1.00  0.00    -0.248 NA
ATOM     62  C   UNL A   1      43.108  31.407  36.355  1.00  0.00     0.031 C 
ATOM     63  C   UNL A   1      43.040  28.770  32.001  1.00  0.00     0.029 A 
ATOM     64  C   UNL A   1      42.147  28.405  32.997  1.00  0.00     0.049 A 
ATOM     65  H   UNL A   1      40.133  27.827  32.807  1.00  0.00     0.167 HD
ATOM     66  C   UNL A   1      42.674  29.572  35.014  1.00  0.00     0.074 A 
ATOM     67  C   UNL A   1      43.113  30.061  36.305  1.00  0.00     0.031 C 
ATOM     68  C   UNL A   1      42.262  28.402  34.461  1.00  0.00     0.031 A 
BRANCH  55  69
ATOM     69  C   UNL A   1      40.087  27.137  28.792  1.00  0.00    -0.014 A 
ATOM     70  C   UNL A   1      40.674  27.723  27.654  1.00  0.00     0.009 A 
ATOM     71  C   UNL A   1      39.602  25.828  28.609  1.00  0.00     0.009 A 
ATOM     72  C   UNL A   1      40.794  27.038  26.435  1.00  0.00     0.001 A 
ATOM     73  C   UNL A   1      39.756  25.119  27.410  1.00  0.00     0.001 A 
ATOM     74  C   UNL A   1      40.353  25.726  26.318  1.00  0.00     0.000 A 
ENDBRANCH  55  69
BRANCH  56  75
ATOM     75  C   UNL A   1      41.846  34.147  35.485  1.00  0.00    -0.014 A 
ATOM     76  C   UNL A   1      42.326  35.417  35.124  1.00  0.00     0.009 A 
ATOM     77  C   UNL A   1      40.773  33.998  36.339  1.00  0.00     0.009 A 
ATOM     78  C   UNL A   1      41.495  36.512  35.304  1.00  0.00     0.001 A 
ATOM     79  C   UNL A   1      39.912  35.064  36.413  1.00  0.00     0.001 A 
ATOM     80  C   UNL A   1      40.237  36.295  35.840  1.00  0.00     0.000 A 
ENDBRANCH  56  75
BRANCH  68  81
ATOM     81  C   UNL A   1      42.013  27.179  35.266  1.00  0.00    -0.014 A 
ATOM     82  C   UNL A   1      41.375  27.197  36.516  1.00  0.00     0.009 A 
ATOM     83  C   UNL A   1      42.363  25.931  34.727  1.00  0.00     0.009 A 
ATOM     84  C   UNL A   1      41.203  26.025  37.250  1.00  0.00     0.001 A 
ATOM     85  C   UNL A   1      42.147  24.753  35.436  1.00  0.00     0.001 A 
ATOM     86  C   UNL A   1      41.597  24.805  36.712  1.00  0.00     0.000 A 
ENDBRANCH  68  81
ENDBRANCH  42  43
ENDBRANCH  35  37
ENDBRANCH  34  35
ENDBRANCH  33  34
ENDBRANCH  32  33
ENDBRANCH  31  32
ENDBRANCH  30  31
ENDBRANCH   1  30
TORSDOF 19
ENDMDL
MODEL 2
REMARK VINA RESULT:     -12.7      4.507      9.459
REMARK SMILES Cc1ccccc1NC(=S)NN1C(=O)CS[C@H]1c1ccccc1C(=O)OCCOCCOC(=O)c1ccc(-c2c3nc(c(-c4ccccc4)c4ccc([nH]4)c(-c4ccccc4)c4nc(c(-c5ccccc5)c5ccc2[nH]5)C=C4)C=C3)cc1
REMARK SMILES IDX 27 1 26 2 24 3 25 4 23 5 18 6 19 7 20 8 22 9 21 10 17 11
REMARK SMILES IDX 12 12 13 13 14 14 15 15 16 16 11 17 9 19 10 20 8 21 7 23
REMARK SMILES IDX 1 24 2 25 3 26 4 27 6 28 5 29 28 30 29 31 30 32 31 33 32 34
REMARK SMILES IDX 33 35 34 36 35 37 36 38 82 39 37 40 81 41 38 42 39 43 40 44
REMARK SMILES IDX 75 45 41 46 80 47 74 48 76 49 42 50 79 51 73 52 72 53 43 55
REMARK SMILES IDX 65 56 50 57 64 58 51 59 54 60 63 61 77 62 52 63 53 64 62 66
REMARK SMILES IDX 78 67 55 68 44 69 45 70 49 71 46 72 48 73 47 74 66 75 67 76
REMARK SMILES IDX 71 77 68 78 70 79 69 80 56 81 57 82 61 83 58 84 60 85 59 86
REMARK H PARENT 11 18 8 22 76 54 54 65
REMARK Flexibility Score: inf
ROOT
ATOM      1  C   UNL A   1      33.912  23.326  26.598  1.00  0.00     0.261 C 
ENDROOT
BRANCH   1   2
ATOM      2  O   UNL A   1      32.409  24.267  26.899  1.00  0.00    -0.460 OA
BRANCH   2   3
ATOM      3  C   UNL A   1      31.580  25.432  26.523  1.00  0.00     0.338 C 
ATOM      4  O   UNL A   1      30.366  25.267  26.370  1.00  0.00    -0.246 OA
BRANCH   3   5
ATOM      5  C   UNL A   1      31.868  27.006  26.326  1.00  0.00     0.066 A 
ATOM      6  C   UNL A   1      32.216  27.665  25.124  1.00  0.00     0.001 A 
ATOM      7  C   UNL A   1      31.894  29.012  24.892  1.00  0.00     0.008 A 
ATOM      8  C   UNL A   1      31.715  29.841  25.976  1.00  0.00     0.000 A 
ATOM      9  C   UNL A   1      31.776  27.886  27.424  1.00  0.00     0.016 A 
ATOM     10  C   UNL A   1      31.785  29.290  27.251  1.00  0.00     0.001 A 
BRANCH   6  11
ATOM     11  C   UNL A   1      33.422  27.129  24.387  1.00  0.00     0.197 C 
ATOM     12  N   UNL A   1      32.874  26.273  23.412  1.00  0.00    -0.236 N 
ATOM     13  C   UNL A   1      32.269  27.299  22.463  1.00  0.00     0.252 C 
ATOM     14  O   UNL A   1      31.134  27.569  22.098  1.00  0.00    -0.272 OA
ATOM     15  C   UNL A   1      33.443  28.060  21.931  1.00  0.00     0.174 C 
ATOM     16  S   UNL A   1      34.376  28.375  23.437  1.00  0.00    -0.120 SA
BRANCH  12  17
ATOM     17  N   UNL A   1      32.443  24.648  24.016  1.00  0.00    -0.270 N 
ATOM     18  H   UNL A   1      32.647  24.594  24.978  1.00  0.00     0.191 HD
BRANCH  17  19
ATOM     19  C   UNL A   1      31.871  23.327  23.552  1.00  0.00     0.189 C 
ATOM     20  S   UNL A   1      30.272  23.761  23.120  1.00  0.00    -0.039 S 
BRANCH  19  21
ATOM     21  N   UNL A   1      32.417  21.870  23.390  1.00  0.00    -0.331 N 
ATOM     22  H   UNL A   1      33.066  21.925  22.652  1.00  0.00     0.169 HD
BRANCH  21  23
ATOM     23  C   UNL A   1      32.435  20.230  23.867  1.00  0.00     0.043 A 
ATOM     24  C   UNL A   1      32.154  18.648  21.618  1.00  0.00     0.046 C 
ATOM     25  C   UNL A   1      32.453  18.996  23.063  1.00  0.00    -0.028 A 
ATOM     26  C   UNL A   1      32.790  17.686  23.655  1.00  0.00     0.005 A 
ATOM     27  C   UNL A   1      33.094  17.479  24.972  1.00  0.00     0.000 A 
ATOM     28  C   UNL A   1      32.517  19.818  25.216  1.00  0.00     0.026 A 
ATOM     29  C   UNL A   1      32.904  18.560  25.770  1.00  0.00     0.002 A 
ENDBRANCH  21  23
ENDBRANCH  19  21
ENDBRANCH  17  19
ENDBRANCH  12  17
ENDBRANCH   6  11
ENDBRANCH   3   5
ENDBRANCH   2   3
ENDBRANCH   1   2
BRANCH   1  30
ATOM     30  C   UNL A   1      35.343  23.876  25.487  1.00  0.00     0.202 C 
BRANCH  30  31
ATOM     31  O   UNL A   1      36.495  22.985  25.151  1.00  0.00    -0.374 OA
BRANCH  31  32
ATOM     32  C   UNL A   1      37.755  23.054  25.859  1.00  0.00     0.202 C 
BRANCH  32  33
ATOM     33  C   UNL A   1      38.599  21.784  25.616  1.00  0.00     0.261 C 
BRANCH  33  34
ATOM     34  O   UNL A   1      39.658  21.710  26.603  1.00  0.00    -0.460 OA
BRANCH  34  35
ATOM     35  C   UNL A   1      40.690  20.848  26.352  1.00  0.00     0.338 C 
ATOM     36  O   UNL A   1      40.595  19.664  26.168  1.00  0.00    -0.246 OA
BRANCH  35  37
ATOM     37  C   UNL A   1      41.987  21.588  26.581  1.00  0.00     0.060 A 
ATOM     38  C   UNL A   1      42.448  21.798  27.877  1.00  0.00     0.016 A 
ATOM     39  C   UNL A   1      42.618  22.306  25.580  1.00  0.00     0.016 A 
ATOM     40  C   UNL A   1      43.232  22.946  28.188  1.00  0.00     0.010 A 
ATOM     41  C   UNL A   1      43.365  23.448  25.923  1.00  0.00     0.010 A 
ATOM     42  C   UNL A   1      43.447  23.915  27.247  1.00  0.00    -0.014 A 
BRANCH  42  43
ATOM     43  C   UNL A   1      43.649  25.381  27.552  1.00  0.00     0.031 A 
ATOM     44  C   UNL A   1      42.388  26.201  27.651  1.00  0.00     0.074 A 
ATOM     45  C   UNL A   1      44.779  26.075  27.969  1.00  0.00     0.049 A 
ATOM     46  N   UNL A   1      42.327  27.487  27.815  1.00  0.00    -0.248 NA
ATOM     47  C   UNL A   1      41.057  25.609  27.514  1.00  0.00     0.031 C 
ATOM     48  C   UNL A   1      44.610  27.071  29.040  1.00  0.00     0.029 A 
ATOM     49  N   UNL A   1      46.215  26.054  27.842  1.00  0.00    -0.354 N 
ATOM     50  C   UNL A   1      41.079  27.744  28.324  1.00  0.00     0.074 A 
ATOM     51  C   UNL A   1      40.280  26.628  27.886  1.00  0.00     0.031 C 
ATOM     52  C   UNL A   1      45.742  27.711  29.286  1.00  0.00     0.029 A 
ATOM     53  C   UNL A   1      46.760  27.284  28.370  1.00  0.00     0.049 A 
ATOM     54  H   UNL A   1      46.742  25.316  27.457  1.00  0.00     0.167 HD
ATOM     55  C   UNL A   1      40.895  28.735  29.242  1.00  0.00     0.031 A 
ATOM     56  C   UNL A   1      47.869  28.075  28.168  1.00  0.00     0.031 A 
ATOM     57  C   UNL A   1      42.079  29.581  29.459  1.00  0.00     0.049 A 
ATOM     58  C   UNL A   1      47.515  29.533  28.101  1.00  0.00     0.074 A 
ATOM     59  C   UNL A   1      42.843  29.871  30.579  1.00  0.00     0.029 A 
ATOM     60  N   UNL A   1      42.754  30.151  28.376  1.00  0.00    -0.354 N 
ATOM     61  N   UNL A   1      46.346  29.944  28.462  1.00  0.00    -0.248 NA
ATOM     62  C   UNL A   1      48.292  30.606  27.481  1.00  0.00     0.031 C 
ATOM     63  C   UNL A   1      43.965  30.632  30.163  1.00  0.00     0.029 A 
ATOM     64  C   UNL A   1      43.883  30.833  28.794  1.00  0.00     0.049 A 
ATOM     65  H   UNL A   1      42.463  30.076  27.438  1.00  0.00     0.167 HD
ATOM     66  C   UNL A   1      46.076  31.130  27.893  1.00  0.00     0.074 A 
ATOM     67  C   UNL A   1      47.351  31.563  27.358  1.00  0.00     0.031 C 
ATOM     68  C   UNL A   1      44.775  31.519  27.850  1.00  0.00     0.031 A 
BRANCH  55  69
ATOM     69  C   UNL A   1      39.663  28.847  30.131  1.00  0.00    -0.014 A 
ATOM     70  C   UNL A   1      39.670  28.248  31.405  1.00  0.00     0.009 A 
ATOM     71  C   UNL A   1      38.452  29.465  29.765  1.00  0.00     0.009 A 
ATOM     72  C   UNL A   1      38.557  28.292  32.261  1.00  0.00     0.001 A 
ATOM     73  C   UNL A   1      37.351  29.553  30.628  1.00  0.00     0.001 A 
ATOM     74  C   UNL A   1      37.403  28.963  31.879  1.00  0.00     0.000 A 
ENDBRANCH  55  69
BRANCH  56  75
ATOM     75  C   UNL A   1      49.077  27.567  27.527  1.00  0.00    -0.014 A 
ATOM     76  C   UNL A   1      50.186  27.242  28.326  1.00  0.00     0.009 A 
ATOM     77  C   UNL A   1      48.849  26.937  26.322  1.00  0.00     0.009 A 
ATOM     78  C   UNL A   1      50.828  26.034  28.105  1.00  0.00     0.001 A 
ATOM     79  C   UNL A   1      49.413  25.695  26.177  1.00  0.00     0.001 A 
ATOM     80  C   UNL A   1      50.346  25.214  27.098  1.00  0.00     0.000 A 
ENDBRANCH  56  75
BRANCH  68  81
ATOM     81  C   UNL A   1      44.294  32.610  26.965  1.00  0.00    -0.014 A 
ATOM     82  C   UNL A   1      44.202  32.486  25.570  1.00  0.00     0.009 A 
ATOM     83  C   UNL A   1      43.839  33.803  27.548  1.00  0.00     0.009 A 
ATOM     84  C   UNL A   1      43.783  33.556  24.781  1.00  0.00     0.001 A 
ATOM     85  C   UNL A   1      43.373  34.856  26.767  1.00  0.00     0.001 A 
ATOM     86  C   UNL A   1      43.376  34.743  25.381  1.00  0.00     0.000 A 
ENDBRANCH  68  81
ENDBRANCH  42  43
ENDBRANCH  35  37
ENDBRANCH  34  35
ENDBRANCH  33  34
ENDBRANCH  32  33
ENDBRANCH  31  32
ENDBRANCH  30  31
ENDBRANCH   1  30
TORSDOF 19
ENDMDL
MODEL 3
REMARK VINA RESULT:     -12.7      2.911      7.931
REMARK SMILES Cc1ccccc1NC(=S)NN1C(=O)CS[C@H]1c1ccccc1C(=O)OCCOCCOC(=O)c1ccc(-c2c3nc(c(-c4ccccc4)c4ccc([nH]4)c(-c4ccccc4)c4nc(c(-c5ccccc5)c5ccc2[nH]5)C=C4)C=C3)cc1
REMARK SMILES IDX 27 1 26 2 24 3 25 4 23 5 18 6 19 7 20 8 22 9 21 10 17 11
REMARK SMILES IDX 12 12 13 13 14 14 15 15 16 16 11 17 9 19 10 20 8 21 7 23
REMARK SMILES IDX 1 24 2 25 3 26 4 27 6 28 5 29 28 30 29 31 30 32 31 33 32 34
REMARK SMILES IDX 33 35 34 36 35 37 36 38 82 39 37 40 81 41 38 42 39 43 40 44
REMARK SMILES IDX 75 45 41 46 80 47 74 48 76 49 42 50 79 51 73 52 72 53 43 55
REMARK SMILES IDX 65 56 50 57 64 58 51 59 54 60 63 61 77 62 52 63 53 64 62 66
REMARK SMILES IDX 78 67 55 68 44 69 45 70 49 71 46 72 48 73 47 74 66 75 67 76
REMARK SMILES IDX 71 77 68 78 70 79 69 80 56 81 57 82 61 83 58 84 60 85 59 86
REMARK H PARENT 11 18 8 22 76 54 54 65
REMARK Flexibility Score: inf
ROOT
ATOM      1  C   UNL A   1      36.310  23.142  25.208  1.00  0.00     0.261 C 
ENDROOT
BRANCH   1   2
ATOM      2  O   UNL A   1      35.565  23.755  23.690  1.00  0.00    -0.460 OA
BRANCH   2   3
ATOM      3  C   UNL A   1      34.364  24.321  23.039  1.00  0.00     0.338 C 
ATOM      4  O   UNL A   1      33.703  23.596  22.290  1.00  0.00    -0.246 OA
BRANCH   3   5
ATOM      5  C   UNL A   1      33.590  25.733  23.128  1.00  0.00     0.066 A 
ATOM      6  C   UNL A   1      32.523  26.066  23.992  1.00  0.00     0.001 A 
ATOM      7  C   UNL A   1      32.296  27.384  24.423  1.00  0.00     0.008 A 
ATOM      8  C   UNL A   1      32.751  28.419  23.638  1.00  0.00     0.000 A 
ATOM      9  C   UNL A   1      33.967  26.800  22.287  1.00  0.00     0.016 A 
ATOM     10  C   UNL A   1      33.482  28.113  22.495  1.00  0.00     0.001 A 
BRANCH   6  11
ATOM     11  C   UNL A   1      31.315  25.158  23.953  1.00  0.00     0.197 C 
ATOM     12  N   UNL A   1      31.374  24.459  25.175  1.00  0.00    -0.236 N 
ATOM     13  C   UNL A   1      30.986  25.572  26.140  1.00  0.00     0.252 C 
ATOM     14  O   UNL A   1      31.551  26.151  27.056  1.00  0.00    -0.272 OA
ATOM     15  C   UNL A   1      29.578  25.919  25.771  1.00  0.00     0.174 C 
ATOM     16  S   UNL A   1      29.692  26.013  23.977  1.00  0.00    -0.120 SA
BRANCH  12  17
ATOM     17  N   UNL A   1      32.496  23.070  25.176  1.00  0.00    -0.270 N 
ATOM     18  H   UNL A   1      33.285  23.289  24.628  1.00  0.00     0.191 HD
BRANCH  17  19
ATOM     19  C   UNL A   1      32.647  21.672  25.732  1.00  0.00     0.189 C 
ATOM     20  S   UNL A   1      33.464  21.960  27.209  1.00  0.00    -0.039 S 
BRANCH  19  21
ATOM     21  N   UNL A   1      32.219  20.237  25.279  1.00  0.00    -0.331 N 
ATOM     22  H   UNL A   1      31.236  20.269  25.240  1.00  0.00     0.169 HD
BRANCH  21  23
ATOM     23  C   UNL A   1      32.624  18.643  24.818  1.00  0.00     0.043 A 
ATOM     24  C   UNL A   1      32.393  18.427  22.072  1.00  0.00     0.046 C 
ATOM     25  C   UNL A   1      32.790  18.042  23.484  1.00  0.00    -0.028 A 
ATOM     26  C   UNL A   1      33.452  16.736  23.295  1.00  0.00     0.005 A 
ATOM     27  C   UNL A   1      33.950  15.960  24.305  1.00  0.00     0.000 A 
ATOM     28  C   UNL A   1      32.951  17.629  25.747  1.00  0.00     0.026 A 
ATOM     29  C   UNL A   1      33.646  16.397  25.553  1.00  0.00     0.002 A 
ENDBRANCH  21  23
ENDBRANCH  19  21
ENDBRANCH  17  19
ENDBRANCH  12  17
ENDBRANCH   6  11
ENDBRANCH   3   5
ENDBRANCH   2   3
ENDBRANCH   1   2
BRANCH   1  30
ATOM     30  C   UNL A   1      37.629  21.787  25.309  1.00  0.00     0.202 C 
BRANCH  30  31
ATOM     31  O   UNL A   1      38.897  21.948  26.083  1.00  0.00    -0.374 OA
BRANCH  31  32
ATOM     32  C   UNL A   1      39.245  23.187  26.744  1.00  0.00     0.202 C 
BRANCH  32  33
ATOM     33  C   UNL A   1      40.707  23.162  27.239  1.00  0.00     0.261 C 
BRANCH  33  34
ATOM     34  O   UNL A   1      41.013  24.411  27.909  1.00  0.00    -0.460 OA
BRANCH  34  35
ATOM     35  C   UNL A   1      41.428  25.456  27.129  1.00  0.00     0.338 C 
ATOM     36  O   UNL A   1      42.478  25.535  26.551  1.00  0.00    -0.246 OA
BRANCH  35  37
ATOM     37  C   UNL A   1      40.449  26.593  27.309  1.00  0.00     0.060 A 
ATOM     38  C   UNL A   1      40.761  27.860  26.826  1.00  0.00     0.016 A 
ATOM     39  C   UNL A   1      39.364  26.510  28.164  1.00  0.00     0.016 A 
ATOM     40  C   UNL A   1      40.252  29.024  27.469  1.00  0.00     0.010 A 
ATOM     41  C   UNL A   1      38.903  27.678  28.801  1.00  0.00     0.010 A 
ATOM     42  C   UNL A   1      39.545  28.919  28.636  1.00  0.00    -0.014 A 
BRANCH  42  43
ATOM     43  C   UNL A   1      39.516  29.969  29.722  1.00  0.00     0.031 A 
ATOM     44  C   UNL A   1      40.591  29.844  30.771  1.00  0.00     0.074 A 
ATOM     45  C   UNL A   1      38.804  31.159  29.817  1.00  0.00     0.049 A 
ATOM     46  N   UNL A   1      40.703  30.575  31.837  1.00  0.00    -0.248 NA
ATOM     47  C   UNL A   1      41.624  28.809  30.713  1.00  0.00     0.031 C 
ATOM     48  C   UNL A   1      39.526  32.347  30.301  1.00  0.00     0.029 A 
ATOM     49  N   UNL A   1      37.549  31.747  29.418  1.00  0.00    -0.354 N 
ATOM     50  C   UNL A   1      42.013  30.470  32.231  1.00  0.00     0.074 A 
ATOM     51  C   UNL A   1      42.450  29.213  31.680  1.00  0.00     0.031 C 
ATOM     52  C   UNL A   1      38.717  33.389  30.417  1.00  0.00     0.029 A 
ATOM     53  C   UNL A   1      37.370  33.004  30.108  1.00  0.00     0.049 A 
ATOM     54  H   UNL A   1      36.915  31.354  28.775  1.00  0.00     0.167 HD
ATOM     55  C   UNL A   1      42.661  31.539  32.777  1.00  0.00     0.031 A 
ATOM     56  C   UNL A   1      36.323  33.787  30.541  1.00  0.00     0.031 A 
ATOM     57  C   UNL A   1      41.788  32.687  33.067  1.00  0.00     0.049 A 
ATOM     58  C   UNL A   1      36.541  34.297  31.936  1.00  0.00     0.074 A 
ATOM     59  C   UNL A   1      41.785  34.006  32.640  1.00  0.00     0.029 A 
ATOM     60  N   UNL A   1      40.605  32.516  33.791  1.00  0.00    -0.354 N 
ATOM     61  N   UNL A   1      37.699  34.201  32.499  1.00  0.00    -0.248 NA
ATOM     62  C   UNL A   1      35.524  34.760  32.879  1.00  0.00     0.031 C 
ATOM     63  C   UNL A   1      40.607  34.626  33.129  1.00  0.00     0.029 A 
ATOM     64  C   UNL A   1      39.895  33.701  33.876  1.00  0.00     0.049 A 
ATOM     65  H   UNL A   1      40.315  31.663  34.189  1.00  0.00     0.167 HD
ATOM     66  C   UNL A   1      37.571  34.254  33.835  1.00  0.00     0.074 A 
ATOM     67  C   UNL A   1      36.207  34.698  34.040  1.00  0.00     0.031 C 
ATOM     68  C   UNL A   1      38.609  33.792  34.579  1.00  0.00     0.031 A 
BRANCH  55  69
ATOM     69  C   UNL A   1      44.176  31.643  32.889  1.00  0.00    -0.014 A 
ATOM     70  C   UNL A   1      44.851  30.913  33.885  1.00  0.00     0.009 A 
ATOM     71  C   UNL A   1      44.992  32.475  32.098  1.00  0.00     0.009 A 
ATOM     72  C   UNL A   1      46.242  30.987  34.058  1.00  0.00     0.001 A 
ATOM     73  C   UNL A   1      46.387  32.522  32.233  1.00  0.00     0.001 A 
ATOM     74  C   UNL A   1      47.014  31.777  33.217  1.00  0.00     0.000 A 
ENDBRANCH  55  69
BRANCH  56  75
ATOM     75  C   UNL A   1      34.977  33.652  29.994  1.00  0.00    -0.014 A 
ATOM     76  C   UNL A   1      34.440  34.709  29.239  1.00  0.00     0.009 A 
ATOM     77  C   UNL A   1      34.586  32.346  29.785  1.00  0.00     0.009 A 
ATOM     78  C   UNL A   1      33.820  34.411  28.036  1.00  0.00     0.001 A 
ATOM     79  C   UNL A   1      34.074  32.064  28.544  1.00  0.00     0.001 A 
ATOM     80  C   UNL A   1      33.756  33.084  27.645  1.00  0.00     0.000 A 
ENDBRANCH  56  75
BRANCH  68  81
ATOM     81  C   UNL A   1      38.478  33.469  36.022  1.00  0.00    -0.014 A 
ATOM     82  C   UNL A   1      37.973  32.248  36.495  1.00  0.00     0.009 A 
ATOM     83  C   UNL A   1      38.946  34.394  36.968  1.00  0.00     0.009 A 
ATOM     84  C   UNL A   1      37.831  32.011  37.861  1.00  0.00     0.001 A 
ATOM     85  C   UNL A   1      38.853  34.140  38.333  1.00  0.00     0.001 A 
ATOM     86  C   UNL A   1      38.265  32.961  38.778  1.00  0.00     0.000 A 
ENDBRANCH  68  81
ENDBRANCH  42  43
ENDBRANCH  35  37
ENDBRANCH  34  35
ENDBRANCH  33  34
ENDBRANCH  32  33
ENDBRANCH  31  32
ENDBRANCH  30  31
ENDBRANCH   1  30
TORSDOF 19
ENDMDL
