MODEL 1
REMARK VINA RESULT:     -11.5      0.000      0.000
REMARK SMILES O=C(OCCOCCOC(=O)[C@@H](Cc1ccc(O)cc1)Nc1c2ccccc2nc2ccccc12)c1ccc(-c2c3nc(c(-c4ccccc4)c4ccc([nH]4)c(-c4ccccc4)c4nc(c(-c5ccccc5)c5ccc2[nH]5)C=C4)C=C3)cc1
REMARK SMILES IDX 7 1 6 2 5 3 4 4 3 5 2 6 1 7 36 8 37 9 83 10 38 11 82 12
REMARK SMILES IDX 39 13 40 14 41 15 76 16 42 17 81 18 75 19 77 20 43 21 80 22
REMARK SMILES IDX 74 23 73 24 44 26 66 27 51 28 65 29 52 30 55 31 64 32 78 33
REMARK SMILES IDX 53 34 54 35 63 37 79 38 56 39 45 40 46 41 50 42 47 43 49 44
REMARK SMILES IDX 48 45 67 46 68 47 72 48 69 49 71 50 70 51 57 52 58 53 62 54
REMARK SMILES IDX 59 55 61 56 60 57 8 58 9 59 10 60 11 61 12 62 13 63 14 64
REMARK SMILES IDX 15 65 20 66 16 67 19 68 17 69 18 70 21 72 22 74 23 75 35 76
REMARK SMILES IDX 24 77 28 78 30 79 34 80 25 81 27 82 29 83 31 84 33 85 26 86
REMARK SMILES IDX 32 87
REMARK H PARENT 77 25 55 36 18 71 21 73
REMARK Flexibility Score: inf
ROOT
ATOM      1  C   UNL A   1      40.641  21.076  26.147  1.00  0.00     0.202 C 
ENDROOT
BRANCH   1   2
ATOM      2  O   UNL A   1      41.987  21.260  26.602  1.00  0.00    -0.374 OA
BRANCH   2   3
ATOM      3  C   UNL A   1      43.033  20.789  25.752  1.00  0.00     0.202 C 
BRANCH   3   4
ATOM      4  C   UNL A   1      44.092  21.797  25.269  1.00  0.00     0.261 C 
BRANCH   4   5
ATOM      5  O   UNL A   1      43.516  23.077  24.955  1.00  0.00    -0.460 OA
BRANCH   5   6
ATOM      6  C   UNL A   1      43.976  24.315  25.253  1.00  0.00     0.338 C 
ATOM      7  O   UNL A   1      44.944  24.744  24.629  1.00  0.00    -0.246 OA
BRANCH   6   8
ATOM      8  C   UNL A   1      43.390  25.173  26.325  1.00  0.00     0.060 A 
ATOM      9  C   UNL A   1      43.660  26.530  26.488  1.00  0.00     0.016 A 
ATOM     10  C   UNL A   1      42.453  24.586  27.196  1.00  0.00     0.016 A 
ATOM     11  C   UNL A   1      43.050  27.290  27.455  1.00  0.00     0.010 A 
ATOM     12  C   UNL A   1      41.830  25.342  28.194  1.00  0.00     0.010 A 
ATOM     13  C   UNL A   1      42.146  26.695  28.318  1.00  0.00    -0.014 A 
BRANCH  13  14
ATOM     14  C   UNL A   1      41.723  27.549  29.427  1.00  0.00     0.031 A 
ATOM     15  C   UNL A   1      40.381  28.195  29.316  1.00  0.00     0.074 A 
ATOM     16  C   UNL A   1      42.394  27.462  30.588  1.00  0.00     0.049 A 
ATOM     17  N   UNL A   1      39.742  28.920  30.188  1.00  0.00    -0.248 NA
ATOM     18  C   UNL A   1      39.637  27.953  28.064  1.00  0.00     0.031 C 
ATOM     19  C   UNL A   1      43.588  26.638  30.812  1.00  0.00     0.029 A 
ATOM     20  N   UNL A   1      42.127  28.006  31.810  1.00  0.00    -0.354 N 
ATOM     21  C   UNL A   1      38.539  29.248  29.581  1.00  0.00     0.074 A 
ATOM     22  C   UNL A   1      38.518  28.625  28.280  1.00  0.00     0.031 C 
ATOM     23  C   UNL A   1      43.932  26.712  32.107  1.00  0.00     0.029 A 
ATOM     24  C   UNL A   1      43.031  27.642  32.777  1.00  0.00     0.049 A 
ATOM     25  H   UNL A   1      41.361  28.600  31.982  1.00  0.00     0.167 HD
ATOM     26  C   UNL A   1      37.556  30.033  30.072  1.00  0.00     0.031 A 
ATOM     27  C   UNL A   1      43.128  28.060  34.050  1.00  0.00     0.031 A 
ATOM     28  C   UNL A   1      37.640  30.658  31.361  1.00  0.00     0.049 A 
ATOM     29  C   UNL A   1      42.104  29.052  34.523  1.00  0.00     0.074 A 
ATOM     30  C   UNL A   1      36.799  31.590  31.936  1.00  0.00     0.029 A 
ATOM     31  N   UNL A   1      38.652  30.399  32.278  1.00  0.00    -0.354 N 
ATOM     32  N   UNL A   1      41.032  29.489  33.898  1.00  0.00    -0.248 NA
ATOM     33  C   UNL A   1      42.309  29.633  35.852  1.00  0.00     0.031 C 
ATOM     34  C   UNL A   1      37.331  31.928  33.186  1.00  0.00     0.029 A 
ATOM     35  C   UNL A   1      38.472  31.168  33.411  1.00  0.00     0.049 A 
ATOM     36  H   UNL A   1      39.390  29.761  32.140  1.00  0.00     0.167 HD
ATOM     37  C   UNL A   1      40.435  30.398  34.757  1.00  0.00     0.074 A 
ATOM     38  C   UNL A   1      41.250  30.425  35.958  1.00  0.00     0.031 C 
ATOM     39  C   UNL A   1      39.323  31.153  34.574  1.00  0.00     0.031 A 
BRANCH  26  40
ATOM     40  C   UNL A   1      36.416  30.340  29.147  1.00  0.00    -0.014 A 
ATOM     41  C   UNL A   1      35.606  29.329  28.606  1.00  0.00     0.009 A 
ATOM     42  C   UNL A   1      36.207  31.667  28.742  1.00  0.00     0.009 A 
ATOM     43  C   UNL A   1      34.634  29.640  27.651  1.00  0.00     0.001 A 
ATOM     44  C   UNL A   1      35.222  31.979  27.804  1.00  0.00     0.001 A 
ATOM     45  C   UNL A   1      34.444  30.964  27.251  1.00  0.00     0.000 A 
ENDBRANCH  26  40
BRANCH  27  46
ATOM     46  C   UNL A   1      44.268  27.628  34.900  1.00  0.00    -0.014 A 
ATOM     47  C   UNL A   1      45.484  28.325  34.905  1.00  0.00     0.009 A 
ATOM     48  C   UNL A   1      44.138  26.498  35.729  1.00  0.00     0.009 A 
ATOM     49  C   UNL A   1      46.545  27.893  35.708  1.00  0.00     0.001 A 
ATOM     50  C   UNL A   1      45.188  26.087  36.552  1.00  0.00     0.001 A 
ATOM     51  C   UNL A   1      46.395  26.780  36.535  1.00  0.00     0.000 A 
ENDBRANCH  27  46
BRANCH  39  52
ATOM     52  C   UNL A   1      38.932  32.044  35.711  1.00  0.00    -0.014 A 
ATOM     53  C   UNL A   1      38.132  31.566  36.760  1.00  0.00     0.009 A 
ATOM     54  C   UNL A   1      39.414  33.361  35.753  1.00  0.00     0.009 A 
ATOM     55  C   UNL A   1      37.800  32.406  37.822  1.00  0.00     0.001 A 
ATOM     56  C   UNL A   1      39.101  34.188  36.830  1.00  0.00     0.001 A 
ATOM     57  C   UNL A   1      38.289  33.711  37.859  1.00  0.00     0.000 A 
ENDBRANCH  39  52
ENDBRANCH  13  14
ENDBRANCH   6   8
ENDBRANCH   5   6
ENDBRANCH   4   5
ENDBRANCH   3   4
ENDBRANCH   2   3
ENDBRANCH   1   2
BRANCH   1  58
ATOM     58  C   UNL A   1      39.687  22.196  26.578  1.00  0.00     0.261 C 
BRANCH  58  59
ATOM     59  O   UNL A   1      38.515  22.199  25.745  1.00  0.00    -0.462 OA
BRANCH  59  60
ATOM     60  C   UNL A   1      37.632  23.199  25.987  1.00  0.00     0.328 C 
ATOM     61  O   UNL A   1      37.920  24.244  26.565  1.00  0.00    -0.250 OA
BRANCH  60  62
ATOM     62  C   UNL A   1      36.224  22.906  25.442  1.00  0.00     0.194 C 
BRANCH  62  63
ATOM     63  C   UNL A   1      35.984  22.867  23.908  1.00  0.00     0.072 C 
BRANCH  63  64
ATOM     64  C   UNL A   1      34.797  23.589  23.316  1.00  0.00    -0.045 A 
ATOM     65  C   UNL A   1      34.490  24.906  23.695  1.00  0.00     0.007 A 
ATOM     66  C   UNL A   1      33.948  22.946  22.412  1.00  0.00     0.007 A 
ATOM     67  C   UNL A   1      33.416  25.596  23.136  1.00  0.00     0.046 A 
ATOM     68  C   UNL A   1      32.849  23.621  21.874  1.00  0.00     0.046 A 
ATOM     69  C   UNL A   1      32.604  24.944  22.222  1.00  0.00     0.115 A 
BRANCH  69  70
ATOM     70  O   UNL A   1      31.541  25.576  21.648  1.00  0.00    -0.508 OA
ATOM     71  H   UNL A   1      31.087  26.249  22.117  1.00  0.00     0.293 HD
ENDBRANCH  69  70
ENDBRANCH  63  64
ENDBRANCH  62  63
BRANCH  62  72
ATOM     72  N   UNL A   1      35.661  21.700  26.063  1.00  0.00    -0.371 N 
ATOM     73  H   UNL A   1      36.175  21.195  26.734  1.00  0.00     0.161 HD
BRANCH  72  74
ATOM     74  C   UNL A   1      34.371  21.280  25.680  1.00  0.00     0.054 A 
ATOM     75  C   UNL A   1      33.220  22.079  25.957  1.00  0.00     0.024 A 
ATOM     76  C   UNL A   1      34.205  20.011  25.058  1.00  0.00     0.024 A 
ATOM     77  C   UNL A   1      33.230  23.321  26.646  1.00  0.00     0.012 A 
ATOM     78  C   UNL A   1      31.979  21.600  25.495  1.00  0.00     0.073 A 
ATOM     79  C   UNL A   1      32.914  19.676  24.614  1.00  0.00     0.073 A 
ATOM     80  C   UNL A   1      35.245  19.059  24.883  1.00  0.00     0.012 A 
ATOM     81  C   UNL A   1      32.059  24.021  26.933  1.00  0.00     0.001 A 
ATOM     82  C   UNL A   1      30.828  22.335  25.752  1.00  0.00     0.029 A 
ATOM     83  N   UNL A   1      31.845  20.457  24.812  1.00  0.00    -0.248 NA
ATOM     84  C   UNL A   1      32.718  18.470  23.952  1.00  0.00     0.029 A 
ATOM     85  C   UNL A   1      35.015  17.837  24.252  1.00  0.00     0.001 A 
ATOM     86  C   UNL A   1      30.851  23.526  26.479  1.00  0.00     0.002 A 
ATOM     87  C   UNL A   1      33.750  17.550  23.765  1.00  0.00     0.002 A 
ENDBRANCH  72  74
ENDBRANCH  62  72
ENDBRANCH  60  62
ENDBRANCH  59  60
ENDBRANCH  58  59
ENDBRANCH   1  58
TORSDOF 19
ENDMDL
MODEL 2
REMARK VINA RESULT:     -11.3      4.020      9.733
REMARK SMILES O=C(OCCOCCOC(=O)[C@@H](Cc1ccc(O)cc1)Nc1c2ccccc2nc2ccccc12)c1ccc(-c2c3nc(c(-c4ccccc4)c4ccc([nH]4)c(-c4ccccc4)c4nc(c(-c5ccccc5)c5ccc2[nH]5)C=C4)C=C3)cc1
REMARK SMILES IDX 7 1 6 2 5 3 4 4 3 5 2 6 1 7 36 8 37 9 83 10 38 11 82 12
REMARK SMILES IDX 39 13 40 14 41 15 76 16 42 17 81 18 75 19 77 20 43 21 80 22
REMARK SMILES IDX 74 23 73 24 44 26 66 27 51 28 65 29 52 30 55 31 64 32 78 33
REMARK SMILES IDX 53 34 54 35 63 37 79 38 56 39 45 40 46 41 50 42 47 43 49 44
REMARK SMILES IDX 48 45 67 46 68 47 72 48 69 49 71 50 70 51 57 52 58 53 62 54
REMARK SMILES IDX 59 55 61 56 60 57 8 58 9 59 10 60 11 61 12 62 13 63 14 64
REMARK SMILES IDX 15 65 20 66 16 67 19 68 17 69 18 70 21 72 22 74 23 75 35 76
REMARK SMILES IDX 24 77 28 78 30 79 34 80 25 81 27 82 29 83 31 84 33 85 26 86
REMARK SMILES IDX 32 87
REMARK H PARENT 77 25 55 36 18 71 21 73
REMARK Flexibility Score: inf
ROOT
ATOM      1  C   UNL A   1      34.791  33.044  28.027  1.00  0.00     0.202 C 
ENDROOT
BRANCH   1   2
ATOM      2  O   UNL A   1      33.721  33.996  28.045  1.00  0.00    -0.374 OA
BRANCH   2   3
ATOM      3  C   UNL A   1      34.018  35.302  28.541  1.00  0.00     0.202 C 
BRANCH   3   4
ATOM      4  C   UNL A   1      32.905  36.078  29.269  1.00  0.00     0.261 C 
BRANCH   4   5
ATOM      5  O   UNL A   1      32.419  35.370  30.423  1.00  0.00    -0.460 OA
BRANCH   5   6
ATOM      6  C   UNL A   1      32.885  35.389  31.693  1.00  0.00     0.338 C 
ATOM      7  O   UNL A   1      32.246  36.009  32.541  1.00  0.00    -0.246 OA
BRANCH   6   8
ATOM      8  C   UNL A   1      34.155  34.725  32.113  1.00  0.00     0.060 A 
ATOM      9  C   UNL A   1      35.419  35.303  32.022  1.00  0.00     0.016 A 
ATOM     10  C   UNL A   1      34.064  33.448  32.697  1.00  0.00     0.016 A 
ATOM     11  C   UNL A   1      36.551  34.674  32.476  1.00  0.00     0.010 A 
ATOM     12  C   UNL A   1      35.208  32.786  33.156  1.00  0.00     0.010 A 
ATOM     13  C   UNL A   1      36.449  33.409  33.031  1.00  0.00    -0.014 A 
BRANCH  13  14
ATOM     14  C   UNL A   1      37.735  32.760  33.285  1.00  0.00     0.031 A 
ATOM     15  C   UNL A   1      38.332  32.941  34.641  1.00  0.00     0.074 A 
ATOM     16  C   UNL A   1      38.147  31.810  32.429  1.00  0.00     0.049 A 
ATOM     17  N   UNL A   1      39.408  32.406  35.145  1.00  0.00    -0.248 NA
ATOM     18  C   UNL A   1      37.590  33.810  35.576  1.00  0.00     0.031 C 
ATOM     19  C   UNL A   1      37.450  31.425  31.196  1.00  0.00     0.029 A 
ATOM     20  N   UNL A   1      39.199  30.945  32.504  1.00  0.00    -0.354 N 
ATOM     21  C   UNL A   1      39.490  32.899  36.439  1.00  0.00     0.074 A 
ATOM     22  C   UNL A   1      38.347  33.752  36.659  1.00  0.00     0.031 C 
ATOM     23  C   UNL A   1      38.083  30.378  30.645  1.00  0.00     0.029 A 
ATOM     24  C   UNL A   1      39.264  30.074  31.445  1.00  0.00     0.049 A 
ATOM     25  H   UNL A   1      39.847  30.944  33.245  1.00  0.00     0.167 HD
ATOM     26  C   UNL A   1      40.465  32.672  37.346  1.00  0.00     0.031 A 
ATOM     27  C   UNL A   1      40.208  29.164  31.149  1.00  0.00     0.031 A 
ATOM     28  C   UNL A   1      41.600  31.841  37.065  1.00  0.00     0.049 A 
ATOM     29  C   UNL A   1      41.360  29.041  32.105  1.00  0.00     0.074 A 
ATOM     30  C   UNL A   1      42.736  31.629  37.821  1.00  0.00     0.029 A 
ATOM     31  N   UNL A   1      41.730  31.078  35.910  1.00  0.00    -0.354 N 
ATOM     32  N   UNL A   1      41.524  29.619  33.274  1.00  0.00    -0.248 NA
ATOM     33  C   UNL A   1      42.468  28.173  31.696  1.00  0.00     0.031 C 
ATOM     34  C   UNL A   1      43.574  30.771  37.098  1.00  0.00     0.029 A 
ATOM     35  C   UNL A   1      42.937  30.408  35.919  1.00  0.00     0.049 A 
ATOM     36  H   UNL A   1      41.060  31.024  35.190  1.00  0.00     0.167 HD
ATOM     37  C   UNL A   1      42.754  29.186  33.743  1.00  0.00     0.074 A 
ATOM     38  C   UNL A   1      43.279  28.274  32.742  1.00  0.00     0.031 C 
ATOM     39  C   UNL A   1      43.404  29.516  34.887  1.00  0.00     0.031 A 
BRANCH  26  40
ATOM     40  C   UNL A   1      40.381  33.443  38.629  1.00  0.00    -0.014 A 
ATOM     41  C   UNL A   1      39.640  32.979  39.727  1.00  0.00     0.009 A 
ATOM     42  C   UNL A   1      40.990  34.705  38.706  1.00  0.00     0.009 A 
ATOM     43  C   UNL A   1      39.481  33.782  40.860  1.00  0.00     0.001 A 
ATOM     44  C   UNL A   1      40.848  35.496  39.846  1.00  0.00     0.001 A 
ATOM     45  C   UNL A   1      40.084  35.039  40.918  1.00  0.00     0.000 A 
ENDBRANCH  26  40
BRANCH  27  46
ATOM     46  C   UNL A   1      40.146  28.402  29.874  1.00  0.00    -0.014 A 
ATOM     47  C   UNL A   1      40.699  28.908  28.691  1.00  0.00     0.009 A 
ATOM     48  C   UNL A   1      39.526  27.139  29.840  1.00  0.00     0.009 A 
ATOM     49  C   UNL A   1      40.621  28.174  27.502  1.00  0.00     0.001 A 
ATOM     50  C   UNL A   1      39.475  26.395  28.660  1.00  0.00     0.001 A 
ATOM     51  C   UNL A   1      40.016  26.918  27.489  1.00  0.00     0.000 A 
ENDBRANCH  27  46
BRANCH  39  52
ATOM     52  C   UNL A   1      44.734  28.865  35.107  1.00  0.00    -0.014 A 
ATOM     53  C   UNL A   1      44.830  27.622  35.751  1.00  0.00     0.009 A 
ATOM     54  C   UNL A   1      45.894  29.481  34.615  1.00  0.00     0.009 A 
ATOM     55  C   UNL A   1      46.076  27.020  35.923  1.00  0.00     0.001 A 
ATOM     56  C   UNL A   1      47.133  28.864  34.766  1.00  0.00     0.001 A 
ATOM     57  C   UNL A   1      47.224  27.638  35.425  1.00  0.00     0.000 A 
ENDBRANCH  39  52
ENDBRANCH  13  14
ENDBRANCH   6   8
ENDBRANCH   5   6
ENDBRANCH   4   5
ENDBRANCH   3   4
ENDBRANCH   2   3
ENDBRANCH   1   2
BRANCH   1  58
ATOM     58  C   UNL A   1      34.344  31.610  28.334  1.00  0.00     0.261 C 
BRANCH  58  59
ATOM     59  O   UNL A   1      33.680  31.042  27.193  1.00  0.00    -0.462 OA
BRANCH  59  60
ATOM     60  C   UNL A   1      34.077  29.791  26.852  1.00  0.00     0.328 C 
ATOM     61  O   UNL A   1      35.174  29.316  27.138  1.00  0.00    -0.250 OA
BRANCH  60  62
ATOM     62  C   UNL A   1      33.001  29.003  26.085  1.00  0.00     0.194 C 
BRANCH  62  63
ATOM     63  C   UNL A   1      31.900  28.239  26.869  1.00  0.00     0.072 C 
BRANCH  63  64
ATOM     64  C   UNL A   1      31.555  26.819  26.486  1.00  0.00    -0.045 A 
ATOM     65  C   UNL A   1      30.267  26.485  26.039  1.00  0.00     0.007 A 
ATOM     66  C   UNL A   1      32.497  25.795  26.613  1.00  0.00     0.007 A 
ATOM     67  C   UNL A   1      29.941  25.185  25.652  1.00  0.00     0.046 A 
ATOM     68  C   UNL A   1      32.167  24.484  26.262  1.00  0.00     0.046 A 
ATOM     69  C   UNL A   1      30.901  24.193  25.765  1.00  0.00     0.115 A 
BRANCH  69  70
ATOM     70  O   UNL A   1      30.632  22.908  25.400  1.00  0.00    -0.508 OA
ATOM     71  H   UNL A   1      30.120  22.736  24.634  1.00  0.00     0.293 HD
ENDBRANCH  69  70
ENDBRANCH  63  64
ENDBRANCH  62  63
BRANCH  62  72
ATOM     72  N   UNL A   1      32.383  29.836  25.045  1.00  0.00    -0.371 N 
ATOM     73  H   UNL A   1      32.512  30.812  25.041  1.00  0.00     0.161 HD
BRANCH  72  74
ATOM     74  C   UNL A   1      31.602  29.210  24.052  1.00  0.00     0.054 A 
ATOM     75  C   UNL A   1      32.084  28.070  23.340  1.00  0.00     0.024 A 
ATOM     76  C   UNL A   1      30.333  29.759  23.713  1.00  0.00     0.024 A 
ATOM     77  C   UNL A   1      33.362  27.474  23.515  1.00  0.00     0.012 A 
ATOM     78  C   UNL A   1      31.214  27.485  22.401  1.00  0.00     0.073 A 
ATOM     79  C   UNL A   1      29.553  29.049  22.783  1.00  0.00     0.073 A 
ATOM     80  C   UNL A   1      29.820  30.979  24.229  1.00  0.00     0.012 A 
ATOM     81  C   UNL A   1      33.789  26.395  22.743  1.00  0.00     0.001 A 
ATOM     82  C   UNL A   1      31.643  26.382  21.672  1.00  0.00     0.029 A 
ATOM     83  N   UNL A   1      29.978  27.939  22.165  1.00  0.00    -0.248 NA
ATOM     84  C   UNL A   1      28.285  29.520  22.464  1.00  0.00     0.029 A 
ATOM     85  C   UNL A   1      28.561  31.453  23.862  1.00  0.00     0.001 A 
ATOM     86  C   UNL A   1      32.922  25.842  21.818  1.00  0.00     0.002 A 
ATOM     87  C   UNL A   1      27.781  30.708  22.992  1.00  0.00     0.002 A 
ENDBRANCH  72  74
ENDBRANCH  62  72
ENDBRANCH  60  62
ENDBRANCH  59  60
ENDBRANCH  58  59
ENDBRANCH   1  58
TORSDOF 19
ENDMDL
MODEL 3
REMARK VINA RESULT:     -11.2      3.609      7.554
REMARK SMILES O=C(OCCOCCOC(=O)[C@@H](Cc1ccc(O)cc1)Nc1c2ccccc2nc2ccccc12)c1ccc(-c2c3nc(c(-c4ccccc4)c4ccc([nH]4)c(-c4ccccc4)c4nc(c(-c5ccccc5)c5ccc2[nH]5)C=C4)C=C3)cc1
REMARK SMILES IDX 7 1 6 2 5 3 4 4 3 5 2 6 1 7 36 8 37 9 83 10 38 11 82 12
REMARK SMILES IDX 39 13 40 14 41 15 76 16 42 17 81 18 75 19 77 20 43 21 80 22
REMARK SMILES IDX 74 23 73 24 44 26 66 27 51 28 65 29 52 30 55 31 64 32 78 33
REMARK SMILES IDX 53 34 54 35 63 37 79 38 56 39 45 40 46 41 50 42 47 43 49 44
REMARK SMILES IDX 48 45 67 46 68 47 72 48 69 49 71 50 70 51 57 52 58 53 62 54
REMARK SMILES IDX 59 55 61 56 60 57 8 58 9 59 10 60 11 61 12 62 13 63 14 64
REMARK SMILES IDX 15 65 20 66 16 67 19 68 17 69 18 70 21 72 22 74 23 75 35 76
REMARK SMILES IDX 24 77 28 78 30 79 34 80 25 81 27 82 29 83 31 84 33 85 26 86
REMARK SMILES IDX 32 87
REMARK H PARENT 77 25 55 36 18 71 21 73
REMARK Flexibility Score: inf
ROOT
ATOM      1  C   UNL A   1      36.517  22.874  23.876  1.00  0.00     0.202 C 
ENDROOT
BRANCH   1   2
ATOM      2  O   UNL A   1      36.231  21.645  24.554  1.00  0.00    -0.374 OA
BRANCH   2   3
ATOM      3  C   UNL A   1      37.258  21.105  25.386  1.00  0.00     0.202 C 
BRANCH   3   4
ATOM      4  C   UNL A   1      38.302  20.171  24.745  1.00  0.00     0.261 C 
BRANCH   4   5
ATOM      5  O   UNL A   1      39.136  19.536  25.730  1.00  0.00    -0.460 OA
BRANCH   5   6
ATOM      6  C   UNL A   1      40.445  19.744  26.000  1.00  0.00     0.338 C 
ATOM      7  O   UNL A   1      41.235  18.821  25.811  1.00  0.00    -0.246 OA
BRANCH   6   8
ATOM      8  C   UNL A   1      40.978  21.027  26.549  1.00  0.00     0.060 A 
ATOM      9  C   UNL A   1      40.966  21.376  27.897  1.00  0.00     0.016 A 
ATOM     10  C   UNL A   1      41.589  21.920  25.649  1.00  0.00     0.016 A 
ATOM     11  C   UNL A   1      41.521  22.543  28.359  1.00  0.00     0.010 A 
ATOM     12  C   UNL A   1      42.151  23.119  26.101  1.00  0.00     0.010 A 
ATOM     13  C   UNL A   1      42.102  23.423  27.461  1.00  0.00    -0.014 A 
BRANCH  13  14
ATOM     14  C   UNL A   1      42.470  24.715  28.037  1.00  0.00     0.031 A 
ATOM     15  C   UNL A   1      43.924  25.050  28.083  1.00  0.00     0.074 A 
ATOM     16  C   UNL A   1      41.506  25.636  28.201  1.00  0.00     0.049 A 
ATOM     17  N   UNL A   1      44.503  26.154  28.461  1.00  0.00    -0.248 NA
ATOM     18  C   UNL A   1      44.854  24.013  27.593  1.00  0.00     0.031 C 
ATOM     19  C   UNL A   1      40.080  25.421  27.929  1.00  0.00     0.029 A 
ATOM     20  N   UNL A   1      41.586  26.951  28.555  1.00  0.00    -0.354 N 
ATOM     21  C   UNL A   1      45.862  25.934  28.287  1.00  0.00     0.074 A 
ATOM     22  C   UNL A   1      46.027  24.606  27.745  1.00  0.00     0.031 C 
ATOM     23  C   UNL A   1      39.424  26.579  28.101  1.00  0.00     0.029 A 
ATOM     24  C   UNL A   1      40.370  27.587  28.566  1.00  0.00     0.049 A 
ATOM     25  H   UNL A   1      42.433  27.399  28.781  1.00  0.00     0.167 HD
ATOM     26  C   UNL A   1      46.877  26.770  28.590  1.00  0.00     0.031 A 
ATOM     27  C   UNL A   1      40.068  28.838  28.952  1.00  0.00     0.031 A 
ATOM     28  C   UNL A   1      46.661  28.070  29.160  1.00  0.00     0.049 A 
ATOM     29  C   UNL A   1      41.204  29.698  29.427  1.00  0.00     0.074 A 
ATOM     30  C   UNL A   1      47.583  28.972  29.651  1.00  0.00     0.029 A 
ATOM     31  N   UNL A   1      45.405  28.645  29.311  1.00  0.00    -0.354 N 
ATOM     32  N   UNL A   1      42.494  29.443  29.406  1.00  0.00    -0.248 NA
ATOM     33  C   UNL A   1      40.853  30.998  30.005  1.00  0.00     0.031 C 
ATOM     34  C   UNL A   1      46.877  30.076  30.143  1.00  0.00     0.029 A 
ATOM     35  C   UNL A   1      45.521  29.884  29.908  1.00  0.00     0.049 A 
ATOM     36  H   UNL A   1      44.556  28.230  29.033  1.00  0.00     0.167 HD
ATOM     37  C   UNL A   1      43.110  30.549  29.969  1.00  0.00     0.074 A 
ATOM     38  C   UNL A   1      42.052  31.489  30.293  1.00  0.00     0.031 C 
ATOM     39  C   UNL A   1      44.426  30.772  30.210  1.00  0.00     0.031 A 
BRANCH  26  40
ATOM     40  C   UNL A   1      48.265  26.227  28.430  1.00  0.00    -0.014 A 
ATOM     41  C   UNL A   1      48.956  25.629  29.496  1.00  0.00     0.009 A 
ATOM     42  C   UNL A   1      48.927  26.397  27.204  1.00  0.00     0.009 A 
ATOM     43  C   UNL A   1      50.292  25.247  29.345  1.00  0.00     0.001 A 
ATOM     44  C   UNL A   1      50.254  25.997  27.049  1.00  0.00     0.001 A 
ATOM     45  C   UNL A   1      50.939  25.432  28.123  1.00  0.00     0.000 A 
ENDBRANCH  26  40
BRANCH  27  46
ATOM     46  C   UNL A   1      38.653  29.291  28.999  1.00  0.00    -0.014 A 
ATOM     47  C   UNL A   1      38.034  29.877  27.887  1.00  0.00     0.009 A 
ATOM     48  C   UNL A   1      37.903  29.130  30.179  1.00  0.00     0.009 A 
ATOM     49  C   UNL A   1      36.703  30.303  27.960  1.00  0.00     0.001 A 
ATOM     50  C   UNL A   1      36.567  29.528  30.240  1.00  0.00     0.001 A 
ATOM     51  C   UNL A   1      35.969  30.122  29.132  1.00  0.00     0.000 A 
ENDBRANCH  27  46
BRANCH  39  52
ATOM     52  C   UNL A   1      44.773  32.088  30.833  1.00  0.00    -0.014 A 
ATOM     53  C   UNL A   1      44.862  32.225  32.227  1.00  0.00     0.009 A 
ATOM     54  C   UNL A   1      45.066  33.186  30.010  1.00  0.00     0.009 A 
ATOM     55  C   UNL A   1      45.212  33.453  32.786  1.00  0.00     0.001 A 
ATOM     56  C   UNL A   1      45.441  34.403  30.573  1.00  0.00     0.001 A 
ATOM     57  C   UNL A   1      45.507  34.537  31.960  1.00  0.00     0.000 A 
ENDBRANCH  39  52
ENDBRANCH  13  14
ENDBRANCH   6   8
ENDBRANCH   5   6
ENDBRANCH   4   5
ENDBRANCH   3   4
ENDBRANCH   2   3
ENDBRANCH   1   2
BRANCH   1  58
ATOM     58  C   UNL A   1      35.264  23.644  23.443  1.00  0.00     0.261 C 
BRANCH  58  59
ATOM     59  O   UNL A   1      34.641  22.990  22.325  1.00  0.00    -0.462 OA
BRANCH  59  60
ATOM     60  C   UNL A   1      33.516  23.585  21.856  1.00  0.00     0.328 C 
ATOM     61  O   UNL A   1      33.336  23.882  20.678  1.00  0.00    -0.250 OA
BRANCH  60  62
ATOM     62  C   UNL A   1      32.464  23.835  22.950  1.00  0.00     0.194 C 
BRANCH  62  63
ATOM     63  C   UNL A   1      31.490  25.037  22.823  1.00  0.00     0.072 C 
BRANCH  63  64
ATOM     64  C   UNL A   1      31.881  26.382  23.388  1.00  0.00    -0.045 A 
ATOM     65  C   UNL A   1      30.918  27.243  23.937  1.00  0.00     0.007 A 
ATOM     66  C   UNL A   1      33.207  26.822  23.334  1.00  0.00     0.007 A 
ATOM     67  C   UNL A   1      31.267  28.474  24.490  1.00  0.00     0.046 A 
ATOM     68  C   UNL A   1      33.558  28.070  23.855  1.00  0.00     0.046 A 
ATOM     69  C   UNL A   1      32.592  28.876  24.447  1.00  0.00     0.115 A 
BRANCH  69  70
ATOM     70  O   UNL A   1      32.983  30.070  24.973  1.00  0.00    -0.508 OA
ATOM     71  H   UNL A   1      33.804  30.446  24.722  1.00  0.00     0.293 HD
ENDBRANCH  69  70
ENDBRANCH  63  64
ENDBRANCH  62  63
BRANCH  62  72
ATOM     72  N   UNL A   1      31.705  22.610  23.238  1.00  0.00    -0.371 N 
ATOM     73  H   UNL A   1      30.807  22.475  22.859  1.00  0.00     0.161 HD
BRANCH  72  74
ATOM     74  C   UNL A   1      32.290  21.631  24.068  1.00  0.00     0.054 A 
ATOM     75  C   UNL A   1      32.486  20.293  23.610  1.00  0.00     0.024 A 
ATOM     76  C   UNL A   1      32.638  21.967  25.407  1.00  0.00     0.024 A 
ATOM     77  C   UNL A   1      32.106  19.800  22.332  1.00  0.00     0.012 A 
ATOM     78  C   UNL A   1      33.120  19.398  24.492  1.00  0.00     0.073 A 
ATOM     79  C   UNL A   1      33.299  20.986  26.165  1.00  0.00     0.073 A 
ATOM     80  C   UNL A   1      32.340  23.210  26.027  1.00  0.00     0.012 A 
ATOM     81  C   UNL A   1      32.276  18.464  21.972  1.00  0.00     0.001 A 
ATOM     82  C   UNL A   1      33.320  18.081  24.097  1.00  0.00     0.029 A 
ATOM     83  N   UNL A   1      33.545  19.750  25.711  1.00  0.00    -0.248 NA
ATOM     84  C   UNL A   1      33.706  21.290  27.458  1.00  0.00     0.029 A 
ATOM     85  C   UNL A   1      32.722  23.478  27.341  1.00  0.00     0.001 A 
ATOM     86  C   UNL A   1      32.891  17.600  22.859  1.00  0.00     0.002 A 
ATOM     87  C   UNL A   1      33.427  22.521  28.053  1.00  0.00     0.002 A 
ENDBRANCH  72  74
ENDBRANCH  62  72
ENDBRANCH  60  62
ENDBRANCH  59  60
ENDBRANCH  58  59
ENDBRANCH   1  58
TORSDOF 19
ENDMDL
