MODEL 1
REMARK VINA RESULT:     -10.5      0.000      0.000
REMARK SMILES C[C@H]1[C@@H](C(=O)OCCOCCOC(=O)c2ccc(-c3c4nc(c(-c5ccccc5)c5ccc([nH]5)c(-c5ccccc5)c5nc(c(-c6ccccc6)c6ccc3[nH]6)C=C5)C=C4)cc2)CCN1C(=O)c1cc2cc(F)ccc2s1
REMARK SMILES IDX 9 1 8 2 7 3 6 4 4 5 5 6 3 7 1 8 2 9 65 10 63 11 64 12 66 13
REMARK SMILES IDX 67 14 68 15 69 16 77 17 70 18 76 19 71 20 75 21 72 22 74 23
REMARK SMILES IDX 73 24 10 25 11 26 12 27 13 28 14 29 15 30 16 31 62 32 17 33
REMARK SMILES IDX 61 34 18 35 19 36 20 37 55 38 21 39 60 40 54 41 56 42 22 43
REMARK SMILES IDX 59 44 53 45 52 46 23 48 45 49 30 50 44 51 31 52 34 53 43 54
REMARK SMILES IDX 57 55 32 56 33 57 42 59 58 60 35 61 24 62 25 63 29 64 26 65
REMARK SMILES IDX 28 66 27 67 46 68 47 69 51 70 48 71 50 72 49 73 36 74 37 75
REMARK SMILES IDX 41 76 38 77 40 78 39 79
REMARK H PARENT 56 47 34 58
REMARK Flexibility Score: inf
ROOT
ATOM      1  O   UNL A   1      37.664  22.442  25.453  1.00  0.00    -0.374 OA
ENDROOT
BRANCH   1   2
ATOM      2  C   UNL A   1      36.930  21.541  24.617  1.00  0.00     0.202 C 
BRANCH   2   3
ATOM      3  C   UNL A   1      35.611  21.047  25.214  1.00  0.00     0.261 C 
BRANCH   3   4
ATOM      4  O   UNL A   1      34.909  22.161  25.800  1.00  0.00    -0.463 OA
BRANCH   4   5
ATOM      5  C   UNL A   1      33.577  22.194  25.592  1.00  0.00     0.311 C 
ATOM      6  O   UNL A   1      32.810  21.293  25.915  1.00  0.00    -0.252 OA
BRANCH   5   7
ATOM      7  C   UNL A   1      33.063  23.504  25.025  1.00  0.00     0.123 C 
ATOM      8  C   UNL A   1      32.841  22.556  22.577  1.00  0.00     0.032 C 
ATOM      9  C   UNL A   1      32.748  23.740  23.526  1.00  0.00     0.096 C 
ATOM     10  N   UNL A   1      33.591  24.877  23.137  1.00  0.00    -0.334 N 
ATOM     11  C   UNL A   1      34.023  24.633  25.435  1.00  0.00     0.039 C 
ATOM     12  C   UNL A   1      34.576  25.186  24.145  1.00  0.00     0.121 C 
BRANCH  10  13
ATOM     13  C   UNL A   1      33.237  25.878  22.246  1.00  0.00     0.264 C 
ATOM     14  O   UNL A   1      33.373  25.710  21.033  1.00  0.00    -0.268 OA
BRANCH  13  15
ATOM     15  C   UNL A   1      32.591  27.077  22.732  1.00  0.00     0.093 A 
ATOM     16  C   UNL A   1      31.482  27.129  23.558  1.00  0.00     0.034 A 
ATOM     17  S   UNL A   1      33.576  28.456  23.013  1.00  0.00    -0.130 S 
ATOM     18  C   UNL A   1      31.873  27.745  24.804  1.00  0.00    -0.004 A 
ATOM     19  C   UNL A   1      33.071  28.457  24.668  1.00  0.00     0.035 A 
ATOM     20  C   UNL A   1      31.318  27.609  26.097  1.00  0.00     0.048 A 
ATOM     21  C   UNL A   1      33.738  29.019  25.772  1.00  0.00     0.022 A 
ATOM     22  C   UNL A   1      32.023  28.096  27.196  1.00  0.00     0.123 A 
ATOM     23  C   UNL A   1      33.217  28.783  27.046  1.00  0.00     0.041 A 
ATOM     24  F   UNL A   1      31.556  27.853  28.429  1.00  0.00    -0.207 F 
ENDBRANCH  13  15
ENDBRANCH  10  13
ENDBRANCH   5   7
ENDBRANCH   4   5
ENDBRANCH   3   4
ENDBRANCH   2   3
ENDBRANCH   1   2
BRANCH   1  25
ATOM     25  C   UNL A   1      38.840  21.930  26.077  1.00  0.00     0.202 C 
BRANCH  25  26
ATOM     26  C   UNL A   1      39.359  20.600  25.520  1.00  0.00     0.261 C 
BRANCH  26  27
ATOM     27  O   UNL A   1      40.272  19.955  26.423  1.00  0.00    -0.460 OA
BRANCH  27  28
ATOM     28  C   UNL A   1      41.567  20.013  26.041  1.00  0.00     0.338 C 
ATOM     29  O   UNL A   1      42.143  19.257  25.264  1.00  0.00    -0.246 OA
BRANCH  28  30
ATOM     30  C   UNL A   1      42.219  21.222  26.573  1.00  0.00     0.060 A 
ATOM     31  C   UNL A   1      42.200  21.391  27.963  1.00  0.00     0.016 A 
ATOM     32  C   UNL A   1      42.752  22.215  25.747  1.00  0.00     0.016 A 
ATOM     33  C   UNL A   1      42.632  22.585  28.526  1.00  0.00     0.010 A 
ATOM     34  C   UNL A   1      43.184  23.420  26.315  1.00  0.00     0.010 A 
ATOM     35  C   UNL A   1      43.076  23.628  27.702  1.00  0.00    -0.014 A 
BRANCH  35  36
ATOM     36  C   UNL A   1      43.235  24.975  28.302  1.00  0.00     0.031 A 
ATOM     37  C   UNL A   1      44.619  25.457  28.646  1.00  0.00     0.074 A 
ATOM     38  C   UNL A   1      42.181  25.798  28.442  1.00  0.00     0.049 A 
ATOM     39  N   UNL A   1      45.007  26.639  29.055  1.00  0.00    -0.248 NA
ATOM     40  C   UNL A   1      45.711  24.481  28.501  1.00  0.00     0.031 C 
ATOM     41  C   UNL A   1      40.796  25.465  28.112  1.00  0.00     0.029 A 
ATOM     42  N   UNL A   1      42.123  27.098  28.879  1.00  0.00    -0.354 N 
ATOM     43  C   UNL A   1      46.385  26.549  29.209  1.00  0.00     0.074 A 
ATOM     44  C   UNL A   1      46.761  25.190  28.888  1.00  0.00     0.031 C 
ATOM     45  C   UNL A   1      40.024  26.540  28.346  1.00  0.00     0.029 A 
ATOM     46  C   UNL A   1      40.857  27.629  28.852  1.00  0.00     0.049 A 
ATOM     47  H   UNL A   1      42.913  27.600  29.183  1.00  0.00     0.167 HD
ATOM     48  C   UNL A   1      47.264  27.513  29.570  1.00  0.00     0.031 A 
ATOM     49  C   UNL A   1      40.423  28.859  29.189  1.00  0.00     0.031 A 
ATOM     50  C   UNL A   1      46.899  28.862  29.905  1.00  0.00     0.049 A 
ATOM     51  C   UNL A   1      41.413  29.898  29.640  1.00  0.00     0.074 A 
ATOM     52  C   UNL A   1      47.719  29.913  30.278  1.00  0.00     0.029 A 
ATOM     53  N   UNL A   1      45.600  29.345  29.914  1.00  0.00    -0.354 N 
ATOM     54  N   UNL A   1      42.717  29.809  29.743  1.00  0.00    -0.248 NA
ATOM     55  C   UNL A   1      40.868  31.214  30.004  1.00  0.00     0.031 C 
ATOM     56  C   UNL A   1      46.910  31.022  30.553  1.00  0.00     0.029 A 
ATOM     57  C   UNL A   1      45.592  30.673  30.305  1.00  0.00     0.049 A 
ATOM     58  H   UNL A   1      44.801  28.821  29.676  1.00  0.00     0.167 HD
ATOM     59  C   UNL A   1      43.150  31.063  30.158  1.00  0.00     0.074 A 
ATOM     60  C   UNL A   1      41.972  31.897  30.271  1.00  0.00     0.031 C 
ATOM     61  C   UNL A   1      44.411  31.487  30.417  1.00  0.00     0.031 A 
BRANCH  48  62
ATOM     62  C   UNL A   1      48.714  27.125  29.646  1.00  0.00    -0.014 A 
ATOM     63  C   UNL A   1      49.552  27.227  28.524  1.00  0.00     0.009 A 
ATOM     64  C   UNL A   1      49.252  26.669  30.859  1.00  0.00     0.009 A 
ATOM     65  C   UNL A   1      50.894  26.848  28.609  1.00  0.00     0.001 A 
ATOM     66  C   UNL A   1      50.599  26.313  30.946  1.00  0.00     0.001 A 
ATOM     67  C   UNL A   1      51.416  26.395  29.820  1.00  0.00     0.000 A 
ENDBRANCH  48  62
BRANCH  49  68
ATOM     68  C   UNL A   1      38.976  29.183  29.105  1.00  0.00    -0.014 A 
ATOM     69  C   UNL A   1      38.141  29.035  30.223  1.00  0.00     0.009 A 
ATOM     70  C   UNL A   1      38.420  29.624  27.894  1.00  0.00     0.009 A 
ATOM     71  C   UNL A   1      36.773  29.299  30.122  1.00  0.00     0.001 A 
ATOM     72  C   UNL A   1      37.057  29.911  27.804  1.00  0.00     0.001 A 
ATOM     73  C   UNL A   1      36.233  29.739  28.915  1.00  0.00     0.000 A 
ENDBRANCH  49  68
BRANCH  61  74
ATOM     74  C   UNL A   1      44.582  32.924  30.823  1.00  0.00    -0.014 A 
ATOM     75  C   UNL A   1      44.638  33.297  32.175  1.00  0.00     0.009 A 
ATOM     76  C   UNL A   1      44.717  33.912  29.836  1.00  0.00     0.009 A 
ATOM     77  C   UNL A   1      44.790  34.639  32.529  1.00  0.00     0.001 A 
ATOM     78  C   UNL A   1      44.895  35.250  30.194  1.00  0.00     0.001 A 
ATOM     79  C   UNL A   1      44.921  35.612  31.540  1.00  0.00     0.000 A 
ENDBRANCH  61  74
ENDBRANCH  35  36
ENDBRANCH  28  30
ENDBRANCH  27  28
ENDBRANCH  26  27
ENDBRANCH  25  26
ENDBRANCH   1  25
TORSDOF 16
ENDMDL
MODEL 2
REMARK VINA RESULT:     -10.4      4.039      5.840
REMARK SMILES C[C@H]1[C@@H](C(=O)OCCOCCOC(=O)c2ccc(-c3c4nc(c(-c5ccccc5)c5ccc([nH]5)c(-c5ccccc5)c5nc(c(-c6ccccc6)c6ccc3[nH]6)C=C5)C=C4)cc2)CCN1C(=O)c1cc2cc(F)ccc2s1
REMARK SMILES IDX 9 1 8 2 7 3 6 4 4 5 5 6 3 7 1 8 2 9 65 10 63 11 64 12 66 13
REMARK SMILES IDX 67 14 68 15 69 16 77 17 70 18 76 19 71 20 75 21 72 22 74 23
REMARK SMILES IDX 73 24 10 25 11 26 12 27 13 28 14 29 15 30 16 31 62 32 17 33
REMARK SMILES IDX 61 34 18 35 19 36 20 37 55 38 21 39 60 40 54 41 56 42 22 43
REMARK SMILES IDX 59 44 53 45 52 46 23 48 45 49 30 50 44 51 31 52 34 53 43 54
REMARK SMILES IDX 57 55 32 56 33 57 42 59 58 60 35 61 24 62 25 63 29 64 26 65
REMARK SMILES IDX 28 66 27 67 46 68 47 69 51 70 48 71 50 72 49 73 36 74 37 75
REMARK SMILES IDX 41 76 38 77 40 78 39 79
REMARK H PARENT 56 47 34 58
REMARK Flexibility Score: inf
ROOT
ATOM      1  O   UNL A   1      41.649  21.674  25.435  1.00  0.00    -0.374 OA
ENDROOT
BRANCH   1   2
ATOM      2  C   UNL A   1      40.604  21.138  26.253  1.00  0.00     0.202 C 
BRANCH   2   3
ATOM      3  C   UNL A   1      39.546  22.155  26.683  1.00  0.00     0.261 C 
BRANCH   3   4
ATOM      4  O   UNL A   1      38.334  21.924  25.937  1.00  0.00    -0.463 OA
BRANCH   4   5
ATOM      5  C   UNL A   1      37.454  22.944  25.910  1.00  0.00     0.311 C 
ATOM      6  O   UNL A   1      37.746  24.109  26.164  1.00  0.00    -0.252 OA
BRANCH   5   7
ATOM      7  C   UNL A   1      36.070  22.568  25.416  1.00  0.00     0.123 C 
ATOM      8  C   UNL A   1      36.741  22.742  22.874  1.00  0.00     0.032 C 
ATOM      9  C   UNL A   1      35.662  22.519  23.921  1.00  0.00     0.096 C 
ATOM     10  N   UNL A   1      34.528  23.445  23.809  1.00  0.00    -0.334 N 
ATOM     11  C   UNL A   1      35.034  23.471  26.105  1.00  0.00     0.039 C 
ATOM     12  C   UNL A   1      34.371  24.250  24.995  1.00  0.00     0.121 C 
BRANCH  10  13
ATOM     13  C   UNL A   1      33.424  23.273  22.991  1.00  0.00     0.264 C 
ATOM     14  O   UNL A   1      33.337  23.883  21.924  1.00  0.00    -0.268 OA
BRANCH  13  15
ATOM     15  C   UNL A   1      32.426  22.282  23.328  1.00  0.00     0.093 A 
ATOM     16  C   UNL A   1      32.045  21.208  22.543  1.00  0.00     0.034 A 
ATOM     17  S   UNL A   1      32.236  21.872  24.986  1.00  0.00    -0.130 S 
ATOM     18  C   UNL A   1      32.394  19.991  23.238  1.00  0.00    -0.004 A 
ATOM     19  C   UNL A   1      32.608  20.226  24.602  1.00  0.00     0.035 A 
ATOM     20  C   UNL A   1      32.675  18.703  22.728  1.00  0.00     0.048 A 
ATOM     21  C   UNL A   1      33.105  19.232  25.464  1.00  0.00     0.022 A 
ATOM     22  C   UNL A   1      33.245  17.747  23.567  1.00  0.00     0.123 A 
ATOM     23  C   UNL A   1      33.467  18.001  24.911  1.00  0.00     0.041 A 
ATOM     24  F   UNL A   1      33.627  16.572  23.050  1.00  0.00    -0.207 F 
ENDBRANCH  13  15
ENDBRANCH  10  13
ENDBRANCH   5   7
ENDBRANCH   4   5
ENDBRANCH   3   4
ENDBRANCH   2   3
ENDBRANCH   1   2
BRANCH   1  25
ATOM     25  C   UNL A   1      42.984  21.533  25.917  1.00  0.00     0.202 C 
BRANCH  25  26
ATOM     26  C   UNL A   1      44.051  22.324  25.153  1.00  0.00     0.261 C 
BRANCH  26  27
ATOM     27  O   UNL A   1      43.526  23.539  24.593  1.00  0.00    -0.460 OA
BRANCH  27  28
ATOM     28  C   UNL A   1      44.162  24.659  24.999  1.00  0.00     0.338 C 
ATOM     29  O   UNL A   1      45.271  25.050  24.645  1.00  0.00    -0.246 OA
BRANCH  28  30
ATOM     30  C   UNL A   1      43.286  25.481  25.853  1.00  0.00     0.060 A 
ATOM     31  C   UNL A   1      43.765  26.746  26.216  1.00  0.00     0.016 A 
ATOM     32  C   UNL A   1      42.077  25.006  26.368  1.00  0.00     0.016 A 
ATOM     33  C   UNL A   1      43.082  27.504  27.160  1.00  0.00     0.010 A 
ATOM     34  C   UNL A   1      41.392  25.770  27.321  1.00  0.00     0.010 A 
ATOM     35  C   UNL A   1      41.921  26.998  27.758  1.00  0.00    -0.014 A 
BRANCH  35  36
ATOM     36  C   UNL A   1      41.399  27.684  28.964  1.00  0.00     0.031 A 
ATOM     37  C   UNL A   1      42.147  27.540  30.264  1.00  0.00     0.074 A 
ATOM     38  C   UNL A   1      40.338  28.507  28.886  1.00  0.00     0.049 A 
ATOM     39  N   UNL A   1      41.949  28.149  31.406  1.00  0.00    -0.248 NA
ATOM     40  C   UNL A   1      43.271  26.590  30.273  1.00  0.00     0.031 C 
ATOM     41  C   UNL A   1      39.550  28.761  27.682  1.00  0.00     0.029 A 
ATOM     42  N   UNL A   1      39.759  29.300  29.845  1.00  0.00    -0.354 N 
ATOM     43  C   UNL A   1      42.927  27.662  32.264  1.00  0.00     0.074 A 
ATOM     44  C   UNL A   1      43.691  26.681  31.526  1.00  0.00     0.031 C 
ATOM     45  C   UNL A   1      38.595  29.662  27.970  1.00  0.00     0.029 A 
ATOM     46  C   UNL A   1      38.698  30.037  29.379  1.00  0.00     0.049 A 
ATOM     47  H   UNL A   1      40.072  29.336  30.777  1.00  0.00     0.167 HD
ATOM     48  C   UNL A   1      43.179  28.009  33.549  1.00  0.00     0.031 A 
ATOM     49  C   UNL A   1      37.906  30.921  30.016  1.00  0.00     0.031 A 
ATOM     50  C   UNL A   1      42.417  28.973  34.295  1.00  0.00     0.049 A 
ATOM     51  C   UNL A   1      38.173  31.251  31.459  1.00  0.00     0.074 A 
ATOM     52  C   UNL A   1      42.599  29.396  35.600  1.00  0.00     0.029 A 
ATOM     53  N   UNL A   1      41.319  29.659  33.800  1.00  0.00    -0.354 N 
ATOM     54  N   UNL A   1      39.124  30.811  32.246  1.00  0.00    -0.248 NA
ATOM     55  C   UNL A   1      37.263  32.214  32.095  1.00  0.00     0.031 C 
ATOM     56  C   UNL A   1      41.584  30.309  35.909  1.00  0.00     0.029 A 
ATOM     57  C   UNL A   1      40.801  30.488  34.780  1.00  0.00     0.049 A 
ATOM     58  H   UNL A   1      40.962  29.571  32.887  1.00  0.00     0.167 HD
ATOM     59  C   UNL A   1      38.944  31.463  33.460  1.00  0.00     0.074 A 
ATOM     60  C   UNL A   1      37.802  32.339  33.300  1.00  0.00     0.031 C 
ATOM     61  C   UNL A   1      39.662  31.350  34.605  1.00  0.00     0.031 A 
BRANCH  48  62
ATOM     62  C   UNL A   1      44.321  27.314  34.235  1.00  0.00    -0.014 A 
ATOM     63  C   UNL A   1      44.172  26.022  34.764  1.00  0.00     0.009 A 
ATOM     64  C   UNL A   1      45.567  27.952  34.337  1.00  0.00     0.009 A 
ATOM     65  C   UNL A   1      45.240  25.397  35.411  1.00  0.00     0.001 A 
ATOM     66  C   UNL A   1      46.638  27.315  34.964  1.00  0.00     0.001 A 
ATOM     67  C   UNL A   1      46.472  26.042  35.508  1.00  0.00     0.000 A 
ENDBRANCH  48  62
BRANCH  49  68
ATOM     68  C   UNL A   1      36.786  31.570  29.290  1.00  0.00    -0.014 A 
ATOM     69  C   UNL A   1      35.543  30.929  29.165  1.00  0.00     0.009 A 
ATOM     70  C   UNL A   1      36.962  32.831  28.698  1.00  0.00     0.009 A 
ATOM     71  C   UNL A   1      34.509  31.527  28.442  1.00  0.00     0.001 A 
ATOM     72  C   UNL A   1      35.917  33.437  27.998  1.00  0.00     0.001 A 
ATOM     73  C   UNL A   1      34.696  32.781  27.862  1.00  0.00     0.000 A 
ENDBRANCH  49  68
BRANCH  61  74
ATOM     74  C   UNL A   1      39.248  32.214  35.762  1.00  0.00    -0.014 A 
ATOM     75  C   UNL A   1      38.355  31.746  36.738  1.00  0.00     0.009 A 
ATOM     76  C   UNL A   1      39.783  33.505  35.890  1.00  0.00     0.009 A 
ATOM     77  C   UNL A   1      37.978  32.569  37.802  1.00  0.00     0.001 A 
ATOM     78  C   UNL A   1      39.424  34.316  36.969  1.00  0.00     0.001 A 
ATOM     79  C   UNL A   1      38.515  33.850  37.917  1.00  0.00     0.000 A 
ENDBRANCH  61  74
ENDBRANCH  35  36
ENDBRANCH  28  30
ENDBRANCH  27  28
ENDBRANCH  26  27
ENDBRANCH  25  26
ENDBRANCH   1  25
TORSDOF 16
ENDMDL
MODEL 3
REMARK VINA RESULT:     -10.3      4.111      8.591
REMARK SMILES C[C@H]1[C@@H](C(=O)OCCOCCOC(=O)c2ccc(-c3c4nc(c(-c5ccccc5)c5ccc([nH]5)c(-c5ccccc5)c5nc(c(-c6ccccc6)c6ccc3[nH]6)C=C5)C=C4)cc2)CCN1C(=O)c1cc2cc(F)ccc2s1
REMARK SMILES IDX 9 1 8 2 7 3 6 4 4 5 5 6 3 7 1 8 2 9 65 10 63 11 64 12 66 13
REMARK SMILES IDX 67 14 68 15 69 16 77 17 70 18 76 19 71 20 75 21 72 22 74 23
REMARK SMILES IDX 73 24 10 25 11 26 12 27 13 28 14 29 15 30 16 31 62 32 17 33
REMARK SMILES IDX 61 34 18 35 19 36 20 37 55 38 21 39 60 40 54 41 56 42 22 43
REMARK SMILES IDX 59 44 53 45 52 46 23 48 45 49 30 50 44 51 31 52 34 53 43 54
REMARK SMILES IDX 57 55 32 56 33 57 42 59 58 60 35 61 24 62 25 63 29 64 26 65
REMARK SMILES IDX 28 66 27 67 46 68 47 69 51 70 48 71 50 72 49 73 36 74 37 75
REMARK SMILES IDX 41 76 38 77 40 78 39 79
REMARK H PARENT 56 47 34 58
REMARK Flexibility Score: inf
ROOT
ATOM      1  O   UNL A   1      31.612  29.479  24.115  1.00  0.00    -0.374 OA
ENDROOT
BRANCH   1   2
ATOM      2  C   UNL A   1      30.653  28.433  23.928  1.00  0.00     0.202 C 
BRANCH   2   3
ATOM      3  C   UNL A   1      30.792  27.668  22.610  1.00  0.00     0.261 C 
BRANCH   3   4
ATOM      4  O   UNL A   1      32.177  27.321  22.407  1.00  0.00    -0.463 OA
BRANCH   4   5
ATOM      5  C   UNL A   1      32.414  26.064  21.983  1.00  0.00     0.311 C 
ATOM      6  O   UNL A   1      32.447  25.733  20.801  1.00  0.00    -0.252 OA
BRANCH   5   7
ATOM      7  C   UNL A   1      32.764  25.085  23.087  1.00  0.00     0.123 C 
ATOM      8  C   UNL A   1      30.278  24.262  23.381  1.00  0.00     0.032 C 
ATOM      9  C   UNL A   1      31.725  24.221  23.847  1.00  0.00     0.096 C 
ATOM     10  N   UNL A   1      31.901  24.575  25.260  1.00  0.00    -0.334 N 
ATOM     11  C   UNL A   1      33.568  25.823  24.170  1.00  0.00     0.039 C 
ATOM     12  C   UNL A   1      32.733  25.742  25.424  1.00  0.00     0.121 C 
BRANCH  10  13
ATOM     13  C   UNL A   1      31.790  23.702  26.331  1.00  0.00     0.264 C 
ATOM     14  O   UNL A   1      30.779  23.706  27.036  1.00  0.00    -0.268 OA
BRANCH  13  15
ATOM     15  C   UNL A   1      32.808  22.700  26.551  1.00  0.00     0.093 A 
ATOM     16  C   UNL A   1      33.238  21.758  25.633  1.00  0.00     0.034 A 
ATOM     17  S   UNL A   1      34.102  23.096  27.610  1.00  0.00    -0.130 S 
ATOM     18  C   UNL A   1      34.627  22.016  25.335  1.00  0.00    -0.004 A 
ATOM     19  C   UNL A   1      35.219  22.819  26.318  1.00  0.00     0.035 A 
ATOM     20  C   UNL A   1      35.381  21.706  24.180  1.00  0.00     0.048 A 
ATOM     21  C   UNL A   1      36.521  23.334  26.180  1.00  0.00     0.022 A 
ATOM     22  C   UNL A   1      36.637  22.285  24.010  1.00  0.00     0.123 A 
ATOM     23  C   UNL A   1      37.202  23.093  24.985  1.00  0.00     0.041 A 
ATOM     24  F   UNL A   1      37.293  22.092  22.858  1.00  0.00    -0.207 F 
ENDBRANCH  13  15
ENDBRANCH  10  13
ENDBRANCH   5   7
ENDBRANCH   4   5
ENDBRANCH   3   4
ENDBRANCH   2   3
ENDBRANCH   1   2
BRANCH   1  25
ATOM     25  C   UNL A   1      32.274  29.530  25.377  1.00  0.00     0.202 C 
BRANCH  25  26
ATOM     26  C   UNL A   1      31.939  30.744  26.252  1.00  0.00     0.261 C 
BRANCH  26  27
ATOM     27  O   UNL A   1      32.701  30.759  27.470  1.00  0.00    -0.460 OA
BRANCH  27  28
ATOM     28  C   UNL A   1      33.484  31.849  27.623  1.00  0.00     0.338 C 
ATOM     29  O   UNL A   1      33.119  33.020  27.675  1.00  0.00    -0.246 OA
BRANCH  28  30
ATOM     30  C   UNL A   1      34.883  31.461  27.872  1.00  0.00     0.060 A 
ATOM     31  C   UNL A   1      35.142  30.093  28.028  1.00  0.00     0.016 A 
ATOM     32  C   UNL A   1      35.904  32.399  28.045  1.00  0.00     0.016 A 
ATOM     33  C   UNL A   1      36.397  29.664  28.441  1.00  0.00     0.010 A 
ATOM     34  C   UNL A   1      37.169  31.965  28.464  1.00  0.00     0.010 A 
ATOM     35  C   UNL A   1      37.402  30.601  28.715  1.00  0.00    -0.014 A 
BRANCH  35  36
ATOM     36  C   UNL A   1      38.612  30.140  29.438  1.00  0.00     0.031 A 
ATOM     37  C   UNL A   1      38.767  30.494  30.894  1.00  0.00     0.074 A 
ATOM     38  C   UNL A   1      39.506  29.332  28.843  1.00  0.00     0.049 A 
ATOM     39  N   UNL A   1      39.670  30.093  31.752  1.00  0.00    -0.248 NA
ATOM     40  C   UNL A   1      37.766  31.415  31.457  1.00  0.00     0.031 C 
ATOM     41  C   UNL A   1      39.452  28.886  27.452  1.00  0.00     0.029 A 
ATOM     42  N   UNL A   1      40.627  28.723  29.351  1.00  0.00    -0.354 N 
ATOM     43  C   UNL A   1      39.342  30.706  32.955  1.00  0.00     0.074 A 
ATOM     44  C   UNL A   1      38.183  31.535  32.709  1.00  0.00     0.031 C 
ATOM     45  C   UNL A   1      40.488  28.061  27.219  1.00  0.00     0.029 A 
ATOM     46  C   UNL A   1      41.282  27.932  28.440  1.00  0.00     0.049 A 
ATOM     47  H   UNL A   1      40.932  28.843  30.279  1.00  0.00     0.167 HD
ATOM     48  C   UNL A   1      39.940  30.581  34.164  1.00  0.00     0.031 A 
ATOM     49  C   UNL A   1      42.393  27.183  28.578  1.00  0.00     0.031 A 
ATOM     50  C   UNL A   1      41.100  29.771  34.416  1.00  0.00     0.049 A 
ATOM     51  C   UNL A   1      43.072  27.102  29.918  1.00  0.00     0.074 A 
ATOM     52  C   UNL A   1      41.776  29.576  35.608  1.00  0.00     0.029 A 
ATOM     53  N   UNL A   1      41.763  29.026  33.453  1.00  0.00    -0.354 N 
ATOM     54  N   UNL A   1      42.727  27.657  31.055  1.00  0.00    -0.248 NA
ATOM     55  C   UNL A   1      44.285  26.275  29.994  1.00  0.00     0.031 C 
ATOM     56  C   UNL A   1      42.874  28.744  35.357  1.00  0.00     0.029 A 
ATOM     57  C   UNL A   1      42.852  28.385  34.019  1.00  0.00     0.049 A 
ATOM     58  H   UNL A   1      41.497  28.961  32.507  1.00  0.00     0.167 HD
ATOM     59  C   UNL A   1      43.665  27.225  31.986  1.00  0.00     0.074 A 
ATOM     60  C   UNL A   1      44.582  26.352  31.284  1.00  0.00     0.031 C 
ATOM     61  C   UNL A   1      43.756  27.523  33.306  1.00  0.00     0.031 A 
BRANCH  48  62
ATOM     62  C   UNL A   1      39.355  31.367  35.302  1.00  0.00    -0.014 A 
ATOM     63  C   UNL A   1      39.750  32.692  35.549  1.00  0.00     0.009 A 
ATOM     64  C   UNL A   1      38.383  30.781  36.128  1.00  0.00     0.009 A 
ATOM     65  C   UNL A   1      39.206  33.402  36.621  1.00  0.00     0.001 A 
ATOM     66  C   UNL A   1      37.825  31.503  37.185  1.00  0.00     0.001 A 
ATOM     67  C   UNL A   1      38.242  32.809  37.435  1.00  0.00     0.000 A 
ENDBRANCH  48  62
BRANCH  49  68
ATOM     68  C   UNL A   1      42.932  26.435  27.414  1.00  0.00    -0.014 A 
ATOM     69  C   UNL A   1      43.915  27.002  26.589  1.00  0.00     0.009 A 
ATOM     70  C   UNL A   1      42.448  25.153  27.111  1.00  0.00     0.009 A 
ATOM     71  C   UNL A   1      44.384  26.310  25.470  1.00  0.00     0.001 A 
ATOM     72  C   UNL A   1      42.938  24.453  26.007  1.00  0.00     0.001 A 
ATOM     73  C   UNL A   1      43.898  25.036  25.182  1.00  0.00     0.000 A 
ENDBRANCH  49  68
BRANCH  61  74
ATOM     74  C   UNL A   1      44.871  26.876  34.079  1.00  0.00    -0.014 A 
ATOM     75  C   UNL A   1      44.705  25.619  34.680  1.00  0.00     0.009 A 
ATOM     76  C   UNL A   1      46.111  27.524  34.181  1.00  0.00     0.009 A 
ATOM     77  C   UNL A   1      45.753  25.040  35.400  1.00  0.00     0.001 A 
ATOM     78  C   UNL A   1      47.164  26.931  34.880  1.00  0.00     0.001 A 
ATOM     79  C   UNL A   1      46.980  25.694  35.496  1.00  0.00     0.000 A 
ENDBRANCH  61  74
ENDBRANCH  35  36
ENDBRANCH  28  30
ENDBRANCH  27  28
ENDBRANCH  26  27
ENDBRANCH  25  26
ENDBRANCH   1  25
TORSDOF 16
ENDMDL
