MODEL 1
REMARK VINA RESULT:      -9.3      0.000      0.000
REMARK SMILES C[C@@](O)(CN1CCOCC1=O)C(=O)OCCOCCOC(=O)c1ccc(-c2c3nc(c(-c4ccccc4)c4ccc([nH]4)c(-c4ccccc4)c4nc(c(-c5ccccc5)c5ccc2[nH]5)C=C4)C=C3)cc1
REMARK SMILES IDX 17 1 16 2 15 3 14 4 12 5 13 6 2 7 1 8 3 9 4 11 5 12 6 13
REMARK SMILES IDX 10 14 7 15 9 16 11 17 8 18 18 19 19 20 20 21 21 22 22 23
REMARK SMILES IDX 23 24 24 25 70 26 25 27 69 28 26 29 27 30 28 31 63 32 29 33
REMARK SMILES IDX 68 34 62 35 64 36 30 37 67 38 61 39 60 40 31 42 53 43 38 44
REMARK SMILES IDX 52 45 39 46 42 47 51 48 65 49 40 50 41 51 50 53 66 54 43 55
REMARK SMILES IDX 32 56 33 57 37 58 34 59 36 60 35 61 54 62 55 63 59 64 56 65
REMARK SMILES IDX 58 66 57 67 44 68 45 69 49 70 46 71 48 72 47 73
REMARK H PARENT 3 10 64 41 42 52
REMARK Flexibility Score: inf
ROOT
ATOM      1  O   UNL A   1      36.564  19.729  25.007  1.00  0.00    -0.374 OA
ENDROOT
BRANCH   1   2
ATOM      2  C   UNL A   1      35.381  20.529  24.946  1.00  0.00     0.202 C 
BRANCH   2   3
ATOM      3  C   UNL A   1      35.599  22.047  24.994  1.00  0.00     0.261 C 
BRANCH   3   4
ATOM      4  O   UNL A   1      34.419  22.792  24.644  1.00  0.00    -0.461 OA
BRANCH   4   5
ATOM      5  C   UNL A   1      34.420  23.253  23.368  1.00  0.00     0.339 C 
ATOM      6  O   UNL A   1      35.434  23.572  22.746  1.00  0.00    -0.249 OA
BRANCH   5   7
ATOM      7  C   UNL A   1      33.040  23.199  22.684  1.00  0.00     0.176 C 
ATOM      8  C   UNL A   1      32.399  21.851  22.998  1.00  0.00     0.057 C 
BRANCH   7   9
ATOM      9  O   UNL A   1      33.309  23.142  21.253  1.00  0.00    -0.377 OA
ATOM     10  H   UNL A   1      33.274  22.219  20.953  1.00  0.00     0.212 HD
ENDBRANCH   7   9
BRANCH   7  11
ATOM     11  C   UNL A   1      32.191  24.481  22.897  1.00  0.00     0.166 C 
BRANCH  11  12
ATOM     12  N   UNL A   1      32.810  25.781  23.224  1.00  0.00    -0.335 N 
ATOM     13  C   UNL A   1      32.649  26.360  24.562  1.00  0.00     0.148 C 
ATOM     14  C   UNL A   1      33.340  26.557  22.190  1.00  0.00     0.248 C 
ATOM     15  C   UNL A   1      32.760  27.881  24.612  1.00  0.00     0.182 C 
ATOM     16  C   UNL A   1      33.844  27.967  22.566  1.00  0.00     0.260 C 
ATOM     17  O   UNL A   1      33.358  26.180  21.019  1.00  0.00    -0.272 OA
ATOM     18  O   UNL A   1      33.956  28.277  23.947  1.00  0.00    -0.370 OA
ENDBRANCH  11  12
ENDBRANCH   7  11
ENDBRANCH   5   7
ENDBRANCH   4   5
ENDBRANCH   3   4
ENDBRANCH   2   3
ENDBRANCH   1   2
BRANCH   1  19
ATOM     19  C   UNL A   1      37.810  20.379  24.737  1.00  0.00     0.202 C 
BRANCH  19  20
ATOM     20  C   UNL A   1      38.898  20.209  25.801  1.00  0.00     0.261 C 
BRANCH  20  21
ATOM     21  O   UNL A   1      39.884  19.252  25.387  1.00  0.00    -0.460 OA
BRANCH  21  22
ATOM     22  C   UNL A   1      41.081  19.385  26.003  1.00  0.00     0.338 C 
ATOM     23  O   UNL A   1      41.997  18.582  26.007  1.00  0.00    -0.246 OA
BRANCH  22  24
ATOM     24  C   UNL A   1      41.200  20.752  26.537  1.00  0.00     0.060 A 
ATOM     25  C   UNL A   1      41.454  21.792  25.636  1.00  0.00     0.016 A 
ATOM     26  C   UNL A   1      41.203  20.989  27.912  1.00  0.00     0.016 A 
ATOM     27  C   UNL A   1      41.755  23.066  26.118  1.00  0.00     0.010 A 
ATOM     28  C   UNL A   1      41.479  22.275  28.392  1.00  0.00     0.010 A 
ATOM     29  C   UNL A   1      41.798  23.311  27.501  1.00  0.00    -0.014 A 
BRANCH  29  30
ATOM     30  C   UNL A   1      42.266  24.634  27.988  1.00  0.00     0.031 A 
ATOM     31  C   UNL A   1      43.735  24.961  27.992  1.00  0.00     0.074 A 
ATOM     32  C   UNL A   1      41.380  25.566  28.379  1.00  0.00     0.049 A 
ATOM     33  N   UNL A   1      44.324  26.107  28.231  1.00  0.00    -0.248 NA
ATOM     34  C   UNL A   1      44.662  23.860  27.687  1.00  0.00     0.031 C 
ATOM     35  C   UNL A   1      39.931  25.380  28.447  1.00  0.00     0.029 A 
ATOM     36  N   UNL A   1      41.575  26.865  28.779  1.00  0.00    -0.354 N 
ATOM     37  C   UNL A   1      45.686  25.868  28.096  1.00  0.00     0.074 A 
ATOM     38  C   UNL A   1      45.839  24.460  27.795  1.00  0.00     0.031 C 
ATOM     39  C   UNL A   1      39.364  26.533  28.846  1.00  0.00     0.029 A 
ATOM     40  C   UNL A   1      40.408  27.531  29.064  1.00  0.00     0.049 A 
ATOM     41  H   UNL A   1      42.464  27.279  28.854  1.00  0.00     0.167 HD
ATOM     42  C   UNL A   1      46.717  26.739  28.196  1.00  0.00     0.031 A 
ATOM     43  C   UNL A   1      40.201  28.806  29.442  1.00  0.00     0.031 A 
ATOM     44  C   UNL A   1      46.582  28.138  28.508  1.00  0.00     0.049 A 
ATOM     45  C   UNL A   1      41.363  29.753  29.562  1.00  0.00     0.074 A 
ATOM     46  C   UNL A   1      47.572  29.104  28.583  1.00  0.00     0.029 A 
ATOM     47  N   UNL A   1      45.386  28.767  28.811  1.00  0.00    -0.354 N 
ATOM     48  N   UNL A   1      42.636  29.533  29.342  1.00  0.00    -0.248 NA
ATOM     49  C   UNL A   1      41.049  31.134  29.960  1.00  0.00     0.031 C 
ATOM     50  C   UNL A   1      46.979  30.310  28.974  1.00  0.00     0.029 A 
ATOM     51  C   UNL A   1      45.615  30.102  29.099  1.00  0.00     0.049 A 
ATOM     52  H   UNL A   1      44.505  28.329  28.820  1.00  0.00     0.167 HD
ATOM     53  C   UNL A   1      43.271  30.751  29.551  1.00  0.00     0.074 A 
ATOM     54  C   UNL A   1      42.244  31.708  29.902  1.00  0.00     0.031 C 
ATOM     55  C   UNL A   1      44.590  31.047  29.457  1.00  0.00     0.031 A 
BRANCH  42  56
ATOM     56  C   UNL A   1      48.100  26.198  27.971  1.00  0.00    -0.014 A 
ATOM     57  C   UNL A   1      48.850  25.672  29.034  1.00  0.00     0.009 A 
ATOM     58  C   UNL A   1      48.641  26.176  26.677  1.00  0.00     0.009 A 
ATOM     59  C   UNL A   1      50.129  25.157  28.808  1.00  0.00     0.001 A 
ATOM     60  C   UNL A   1      49.910  25.642  26.452  1.00  0.00     0.001 A 
ATOM     61  C   UNL A   1      50.656  25.139  27.518  1.00  0.00     0.000 A 
ENDBRANCH  42  56
BRANCH  43  62
ATOM     62  C   UNL A   1      38.820  29.279  29.706  1.00  0.00    -0.014 A 
ATOM     63  C   UNL A   1      38.044  29.825  28.673  1.00  0.00     0.009 A 
ATOM     64  C   UNL A   1      38.277  29.191  30.996  1.00  0.00     0.009 A 
ATOM     65  C   UNL A   1      36.754  30.293  28.933  1.00  0.00     0.001 A 
ATOM     66  C   UNL A   1      36.979  29.640  31.248  1.00  0.00     0.001 A 
ATOM     67  C   UNL A   1      36.222  30.197  30.218  1.00  0.00     0.000 A 
ENDBRANCH  43  62
BRANCH  55  68
ATOM     68  C   UNL A   1      44.993  32.470  29.718  1.00  0.00    -0.014 A 
ATOM     69  C   UNL A   1      45.017  33.420  28.685  1.00  0.00     0.009 A 
ATOM     70  C   UNL A   1      45.334  32.872  31.020  1.00  0.00     0.009 A 
ATOM     71  C   UNL A   1      45.410  34.735  28.943  1.00  0.00     0.001 A 
ATOM     72  C   UNL A   1      45.705  34.192  31.279  1.00  0.00     0.001 A 
ATOM     73  C   UNL A   1      45.752  35.120  30.239  1.00  0.00     0.000 A 
ENDBRANCH  55  68
ENDBRANCH  29  30
ENDBRANCH  22  24
ENDBRANCH  21  22
ENDBRANCH  20  21
ENDBRANCH  19  20
ENDBRANCH   1  19
TORSDOF 17
ENDMDL
MODEL 2
REMARK VINA RESULT:      -9.3      1.811      2.619
REMARK SMILES C[C@@](O)(CN1CCOCC1=O)C(=O)OCCOCCOC(=O)c1ccc(-c2c3nc(c(-c4ccccc4)c4ccc([nH]4)c(-c4ccccc4)c4nc(c(-c5ccccc5)c5ccc2[nH]5)C=C4)C=C3)cc1
REMARK SMILES IDX 17 1 16 2 15 3 14 4 12 5 13 6 2 7 1 8 3 9 4 11 5 12 6 13
REMARK SMILES IDX 10 14 7 15 9 16 11 17 8 18 18 19 19 20 20 21 21 22 22 23
REMARK SMILES IDX 23 24 24 25 70 26 25 27 69 28 26 29 27 30 28 31 63 32 29 33
REMARK SMILES IDX 68 34 62 35 64 36 30 37 67 38 61 39 60 40 31 42 53 43 38 44
REMARK SMILES IDX 52 45 39 46 42 47 51 48 65 49 40 50 41 51 50 53 66 54 43 55
REMARK SMILES IDX 32 56 33 57 37 58 34 59 36 60 35 61 54 62 55 63 59 64 56 65
REMARK SMILES IDX 58 66 57 67 44 68 45 69 49 70 46 71 48 72 47 73
REMARK H PARENT 3 10 64 41 42 52
REMARK Flexibility Score: inf
ROOT
ATOM      1  O   UNL A   1      35.838  22.586  25.731  1.00  0.00    -0.374 OA
ENDROOT
BRANCH   1   2
ATOM      2  C   UNL A   1      34.852  23.497  25.238  1.00  0.00     0.202 C 
BRANCH   2   3
ATOM      3  C   UNL A   1      33.455  22.907  25.010  1.00  0.00     0.261 C 
BRANCH   3   4
ATOM      4  O   UNL A   1      32.581  23.800  24.296  1.00  0.00    -0.461 OA
BRANCH   4   5
ATOM      5  C   UNL A   1      33.050  24.165  23.076  1.00  0.00     0.339 C 
ATOM      6  O   UNL A   1      33.379  23.374  22.193  1.00  0.00    -0.249 OA
BRANCH   5   7
ATOM      7  C   UNL A   1      32.990  25.684  22.815  1.00  0.00     0.176 C 
ATOM      8  C   UNL A   1      31.539  26.070  22.552  1.00  0.00     0.057 C 
BRANCH   7   9
ATOM      9  O   UNL A   1      33.653  25.892  21.533  1.00  0.00    -0.377 OA
ATOM     10  H   UNL A   1      34.471  26.395  21.670  1.00  0.00     0.212 HD
ENDBRANCH   7   9
BRANCH   7  11
ATOM     11  C   UNL A   1      33.798  26.523  23.841  1.00  0.00     0.166 C 
BRANCH  11  12
ATOM     12  N   UNL A   1      33.133  27.390  24.834  1.00  0.00    -0.335 N 
ATOM     13  C   UNL A   1      32.568  26.813  26.058  1.00  0.00     0.148 C 
ATOM     14  C   UNL A   1      32.839  28.711  24.488  1.00  0.00     0.248 C 
ATOM     15  C   UNL A   1      31.421  27.616  26.667  1.00  0.00     0.182 C 
ATOM     16  C   UNL A   1      32.016  29.530  25.505  1.00  0.00     0.260 C 
ATOM     17  O   UNL A   1      33.156  29.201  23.404  1.00  0.00    -0.272 OA
ATOM     18  O   UNL A   1      31.830  28.975  26.798  1.00  0.00    -0.370 OA
ENDBRANCH  11  12
ENDBRANCH   7  11
ENDBRANCH   5   7
ENDBRANCH   4   5
ENDBRANCH   3   4
ENDBRANCH   2   3
ENDBRANCH   1   2
BRANCH   1  19
ATOM     19  C   UNL A   1      35.772  21.234  25.268  1.00  0.00     0.202 C 
BRANCH  19  20
ATOM     20  C   UNL A   1      37.117  20.553  24.997  1.00  0.00     0.261 C 
BRANCH  20  21
ATOM     21  O   UNL A   1      38.195  21.498  25.039  1.00  0.00    -0.460 OA
BRANCH  21  22
ATOM     22  C   UNL A   1      39.161  21.202  25.937  1.00  0.00     0.338 C 
ATOM     23  O   UNL A   1      39.711  20.126  26.096  1.00  0.00    -0.246 OA
BRANCH  22  24
ATOM     24  C   UNL A   1      39.602  22.441  26.599  1.00  0.00     0.060 A 
ATOM     25  C   UNL A   1      39.075  23.654  26.144  1.00  0.00     0.016 A 
ATOM     26  C   UNL A   1      40.618  22.424  27.555  1.00  0.00     0.016 A 
ATOM     27  C   UNL A   1      39.601  24.857  26.617  1.00  0.00     0.010 A 
ATOM     28  C   UNL A   1      41.126  23.632  28.048  1.00  0.00     0.010 A 
ATOM     29  C   UNL A   1      40.650  24.856  27.551  1.00  0.00    -0.014 A 
BRANCH  29  30
ATOM     30  C   UNL A   1      41.290  26.143  27.925  1.00  0.00     0.031 A 
ATOM     31  C   UNL A   1      42.638  26.507  27.363  1.00  0.00     0.074 A 
ATOM     32  C   UNL A   1      40.649  27.013  28.724  1.00  0.00     0.049 A 
ATOM     33  N   UNL A   1      43.286  27.643  27.445  1.00  0.00    -0.248 NA
ATOM     34  C   UNL A   1      43.348  25.462  26.611  1.00  0.00     0.031 C 
ATOM     35  C   UNL A   1      39.350  26.784  29.356  1.00  0.00     0.029 A 
ATOM     36  N   UNL A   1      41.004  28.278  29.126  1.00  0.00    -0.354 N 
ATOM     37  C   UNL A   1      44.472  27.453  26.749  1.00  0.00     0.074 A 
ATOM     38  C   UNL A   1      44.474  26.082  26.285  1.00  0.00     0.031 C 
ATOM     39  C   UNL A   1      39.008  27.882  30.053  1.00  0.00     0.029 A 
ATOM     40  C   UNL A   1      40.061  28.885  29.919  1.00  0.00     0.049 A 
ATOM     41  H   UNL A   1      41.852  28.706  28.872  1.00  0.00     0.167 HD
ATOM     42  C   UNL A   1      45.466  28.340  26.501  1.00  0.00     0.031 A 
ATOM     43  C   UNL A   1      40.039  30.116  30.462  1.00  0.00     0.031 A 
ATOM     44  C   UNL A   1      45.484  29.702  26.966  1.00  0.00     0.049 A 
ATOM     45  C   UNL A   1      41.160  31.080  30.186  1.00  0.00     0.074 A 
ATOM     46  C   UNL A   1      46.430  30.684  26.720  1.00  0.00     0.029 A 
ATOM     47  N   UNL A   1      44.521  30.270  27.783  1.00  0.00    -0.354 N 
ATOM     48  N   UNL A   1      42.232  30.914  29.450  1.00  0.00    -0.248 NA
ATOM     49  C   UNL A   1      41.051  32.412  30.800  1.00  0.00     0.031 C 
ATOM     50  C   UNL A   1      46.060  31.835  27.426  1.00  0.00     0.029 A 
ATOM     51  C   UNL A   1      44.862  31.581  28.073  1.00  0.00     0.049 A 
ATOM     52  H   UNL A   1      43.714  29.810  28.109  1.00  0.00     0.167 HD
ATOM     53  C   UNL A   1      42.911  32.125  29.493  1.00  0.00     0.074 A 
ATOM     54  C   UNL A   1      42.125  33.021  30.315  1.00  0.00     0.031 C 
ATOM     55  C   UNL A   1      44.081  32.463  28.900  1.00  0.00     0.031 A 
BRANCH  42  56
ATOM     56  C   UNL A   1      46.631  27.857  25.687  1.00  0.00    -0.014 A 
ATOM     57  C   UNL A   1      47.739  27.253  26.302  1.00  0.00     0.009 A 
ATOM     58  C   UNL A   1      46.604  27.970  24.289  1.00  0.00     0.009 A 
ATOM     59  C   UNL A   1      48.810  26.794  25.531  1.00  0.00     0.001 A 
ATOM     60  C   UNL A   1      47.666  27.492  23.521  1.00  0.00     0.001 A 
ATOM     61  C   UNL A   1      48.771  26.911  24.143  1.00  0.00     0.000 A 
ENDBRANCH  42  56
BRANCH  43  62
ATOM     62  C   UNL A   1      38.890  30.528  31.305  1.00  0.00    -0.014 A 
ATOM     63  C   UNL A   1      38.928  30.351  32.696  1.00  0.00     0.009 A 
ATOM     64  C   UNL A   1      37.749  31.094  30.718  1.00  0.00     0.009 A 
ATOM     65  C   UNL A   1      37.832  30.716  33.482  1.00  0.00     0.001 A 
ATOM     66  C   UNL A   1      36.664  31.477  31.509  1.00  0.00     0.001 A 
ATOM     67  C   UNL A   1      36.704  31.281  32.888  1.00  0.00     0.000 A 
ENDBRANCH  43  62
BRANCH  55  68
ATOM     68  C   UNL A   1      44.571  33.868  29.102  1.00  0.00    -0.014 A 
ATOM     69  C   UNL A   1      45.463  34.185  30.140  1.00  0.00     0.009 A 
ATOM     70  C   UNL A   1      44.151  34.887  28.232  1.00  0.00     0.009 A 
ATOM     71  C   UNL A   1      45.895  35.500  30.323  1.00  0.00     0.001 A 
ATOM     72  C   UNL A   1      44.602  36.196  28.404  1.00  0.00     0.001 A 
ATOM     73  C   UNL A   1      45.465  36.504  29.454  1.00  0.00     0.000 A 
ENDBRANCH  55  68
ENDBRANCH  29  30
ENDBRANCH  22  24
ENDBRANCH  21  22
ENDBRANCH  20  21
ENDBRANCH  19  20
ENDBRANCH   1  19
TORSDOF 17
ENDMDL
MODEL 3
REMARK VINA RESULT:      -9.3      4.196      6.168
REMARK SMILES C[C@@](O)(CN1CCOCC1=O)C(=O)OCCOCCOC(=O)c1ccc(-c2c3nc(c(-c4ccccc4)c4ccc([nH]4)c(-c4ccccc4)c4nc(c(-c5ccccc5)c5ccc2[nH]5)C=C4)C=C3)cc1
REMARK SMILES IDX 17 1 16 2 15 3 14 4 12 5 13 6 2 7 1 8 3 9 4 11 5 12 6 13
REMARK SMILES IDX 10 14 7 15 9 16 11 17 8 18 18 19 19 20 20 21 21 22 22 23
REMARK SMILES IDX 23 24 24 25 70 26 25 27 69 28 26 29 27 30 28 31 63 32 29 33
REMARK SMILES IDX 68 34 62 35 64 36 30 37 67 38 61 39 60 40 31 42 53 43 38 44
REMARK SMILES IDX 52 45 39 46 42 47 51 48 65 49 40 50 41 51 50 53 66 54 43 55
REMARK SMILES IDX 32 56 33 57 37 58 34 59 36 60 35 61 54 62 55 63 59 64 56 65
REMARK SMILES IDX 58 66 57 67 44 68 45 69 49 70 46 71 48 72 47 73
REMARK H PARENT 3 10 64 41 42 52
REMARK Flexibility Score: inf
ROOT
ATOM      1  O   UNL A   1      41.918  20.393  26.113  1.00  0.00    -0.374 OA
ENDROOT
BRANCH   1   2
ATOM      2  C   UNL A   1      40.526  20.394  26.443  1.00  0.00     0.202 C 
BRANCH   2   3
ATOM      3  C   UNL A   1      39.865  21.775  26.539  1.00  0.00     0.261 C 
BRANCH   3   4
ATOM      4  O   UNL A   1      38.808  21.956  25.579  1.00  0.00    -0.461 OA
BRANCH   4   5
ATOM      5  C   UNL A   1      37.939  22.947  25.900  1.00  0.00     0.339 C 
ATOM      6  O   UNL A   1      38.258  23.996  26.461  1.00  0.00    -0.249 OA
BRANCH   5   7
ATOM      7  C   UNL A   1      36.513  22.726  25.358  1.00  0.00     0.176 C 
ATOM      8  C   UNL A   1      36.609  22.393  23.873  1.00  0.00     0.057 C 
BRANCH   7   9
ATOM      9  O   UNL A   1      35.870  24.034  25.391  1.00  0.00    -0.377 OA
ATOM     10  H   UNL A   1      36.521  24.721  25.178  1.00  0.00     0.212 HD
ENDBRANCH   7   9
BRANCH   7  11
ATOM     11  C   UNL A   1      35.641  21.811  26.259  1.00  0.00     0.166 C 
BRANCH  11  12
ATOM     12  N   UNL A   1      34.302  21.352  25.839  1.00  0.00    -0.335 N 
ATOM     13  C   UNL A   1      34.164  20.200  24.943  1.00  0.00     0.148 C 
ATOM     14  C   UNL A   1      33.195  22.161  26.107  1.00  0.00     0.248 C 
ATOM     15  C   UNL A   1      32.887  20.196  24.107  1.00  0.00     0.182 C 
ATOM     16  C   UNL A   1      31.842  21.705  25.521  1.00  0.00     0.260 C 
ATOM     17  O   UNL A   1      33.281  23.222  26.725  1.00  0.00    -0.272 OA
ATOM     18  O   UNL A   1      31.772  20.398  24.971  1.00  0.00    -0.370 OA
ENDBRANCH  11  12
ENDBRANCH   7  11
ENDBRANCH   5   7
ENDBRANCH   4   5
ENDBRANCH   3   4
ENDBRANCH   2   3
ENDBRANCH   1   2
BRANCH   1  19
ATOM     19  C   UNL A   1      42.674  21.559  26.456  1.00  0.00     0.202 C 
BRANCH  19  20
ATOM     20  C   UNL A   1      43.404  22.246  25.299  1.00  0.00     0.261 C 
BRANCH  20  21
ATOM     21  O   UNL A   1      42.802  23.509  24.982  1.00  0.00    -0.460 OA
BRANCH  21  22
ATOM     22  C   UNL A   1      43.584  24.580  25.242  1.00  0.00     0.338 C 
ATOM     23  O   UNL A   1      44.637  24.869  24.700  1.00  0.00    -0.246 OA
BRANCH  22  24
ATOM     24  C   UNL A   1      42.881  25.477  26.174  1.00  0.00     0.060 A 
ATOM     25  C   UNL A   1      43.442  26.732  26.432  1.00  0.00     0.016 A 
ATOM     26  C   UNL A   1      41.766  25.040  26.890  1.00  0.00     0.016 A 
ATOM     27  C   UNL A   1      42.910  27.534  27.442  1.00  0.00     0.010 A 
ATOM     28  C   UNL A   1      41.217  25.857  27.885  1.00  0.00     0.010 A 
ATOM     29  C   UNL A   1      41.810  27.090  28.196  1.00  0.00    -0.014 A 
BRANCH  29  30
ATOM     30  C   UNL A   1      41.358  27.894  29.361  1.00  0.00     0.031 A 
ATOM     31  C   UNL A   1      42.112  27.828  30.662  1.00  0.00     0.074 A 
ATOM     32  C   UNL A   1      40.307  28.723  29.246  1.00  0.00     0.049 A 
ATOM     33  N   UNL A   1      41.968  28.565  31.736  1.00  0.00    -0.248 NA
ATOM     34  C   UNL A   1      43.163  26.805  30.770  1.00  0.00     0.031 C 
ATOM     35  C   UNL A   1      39.472  28.873  28.054  1.00  0.00     0.029 A 
ATOM     36  N   UNL A   1      39.773  29.611  30.148  1.00  0.00    -0.354 N 
ATOM     37  C   UNL A   1      42.914  28.102  32.641  1.00  0.00     0.074 A 
ATOM     38  C   UNL A   1      43.598  26.996  32.008  1.00  0.00     0.031 C 
ATOM     39  C   UNL A   1      38.541  29.813  28.292  1.00  0.00     0.029 A 
ATOM     40  C   UNL A   1      38.712  30.326  29.650  1.00  0.00     0.049 A 
ATOM     41  H   UNL A   1      40.117  29.723  31.062  1.00  0.00     0.167 HD
ATOM     42  C   UNL A   1      43.202  28.563  33.882  1.00  0.00     0.031 A 
ATOM     43  C   UNL A   1      37.971  31.298  30.215  1.00  0.00     0.031 A 
ATOM     44  C   UNL A   1      42.522  29.653  34.530  1.00  0.00     0.049 A 
ATOM     45  C   UNL A   1      38.299  31.783  31.600  1.00  0.00     0.074 A 
ATOM     46  C   UNL A   1      42.782  30.217  35.769  1.00  0.00     0.029 A 
ATOM     47  N   UNL A   1      41.440  30.336  34.000  1.00  0.00    -0.354 N 
ATOM     48  N   UNL A   1      39.255  31.396  32.407  1.00  0.00    -0.248 NA
ATOM     49  C   UNL A   1      37.454  32.861  32.137  1.00  0.00     0.031 C 
ATOM     50  C   UNL A   1      41.827  31.213  36.006  1.00  0.00     0.029 A 
ATOM     51  C   UNL A   1      41.003  31.297  34.897  1.00  0.00     0.049 A 
ATOM     52  H   UNL A   1      41.041  30.162  33.117  1.00  0.00     0.167 HD
ATOM     53  C   UNL A   1      39.143  32.197  33.537  1.00  0.00     0.074 A 
ATOM     54  C   UNL A   1      38.035  33.100  33.306  1.00  0.00     0.031 C 
ATOM     55  C   UNL A   1      39.895  32.185  34.664  1.00  0.00     0.031 A 
BRANCH  42  56
ATOM     56  C   UNL A   1      44.308  27.877  34.631  1.00  0.00    -0.014 A 
ATOM     57  C   UNL A   1      45.652  28.195  34.383  1.00  0.00     0.009 A 
ATOM     58  C   UNL A   1      44.001  26.935  35.624  1.00  0.00     0.009 A 
ATOM     59  C   UNL A   1      46.670  27.560  35.098  1.00  0.00     0.001 A 
ATOM     60  C   UNL A   1      45.020  26.318  36.351  1.00  0.00     0.001 A 
ATOM     61  C   UNL A   1      46.354  26.626  36.083  1.00  0.00     0.000 A 
ENDBRANCH  42  56
BRANCH  43  62
ATOM     62  C   UNL A   1      36.853  31.907  29.453  1.00  0.00    -0.014 A 
ATOM     63  C   UNL A   1      37.055  33.075  28.703  1.00  0.00     0.009 A 
ATOM     64  C   UNL A   1      35.579  31.323  29.479  1.00  0.00     0.009 A 
ATOM     65  C   UNL A   1      35.993  33.660  28.010  1.00  0.00     0.001 A 
ATOM     66  C   UNL A   1      34.524  31.898  28.767  1.00  0.00     0.001 A 
ATOM     67  C   UNL A   1      34.730  33.068  28.040  1.00  0.00     0.000 A 
ENDBRANCH  43  62
BRANCH  55  68
ATOM     68  C   UNL A   1      39.556  33.194  35.725  1.00  0.00    -0.014 A 
ATOM     69  C   UNL A   1      40.105  34.486  35.701  1.00  0.00     0.009 A 
ATOM     70  C   UNL A   1      38.659  32.854  36.751  1.00  0.00     0.009 A 
ATOM     71  C   UNL A   1      39.791  35.405  36.705  1.00  0.00     0.001 A 
ATOM     72  C   UNL A   1      38.331  33.782  37.740  1.00  0.00     0.001 A 
ATOM     73  C   UNL A   1      38.904  35.053  37.722  1.00  0.00     0.000 A 
ENDBRANCH  55  68
ENDBRANCH  29  30
ENDBRANCH  22  24
ENDBRANCH  21  22
ENDBRANCH  20  21
ENDBRANCH  19  20
ENDBRANCH   1  19
TORSDOF 17
ENDMDL
