MODEL 1
REMARK VINA RESULT:     -10.6      0.000      0.000
REMARK SMILES Cc1nn(C)c(=O)c(C(=O)N2CC[C@@H](C(=O)OCCOCCOC(=O)c3ccc(-c4c5nc(c(-c6ccccc6)c6ccc([nH]6)c(-c6ccccc6)c6nc(c(-c7ccccc7)c7ccc4[nH]7)C=C6)C=C5)cc3)[C@@H]2C)c1C
REMARK SMILES IDX 20 1 19 2 18 3 17 4 15 5 16 6 14 7 11 8 12 9 74 10 13 11
REMARK SMILES IDX 75 12 9 13 10 14 8 15 1 16 2 17 3 18 76 19 4 20 77 21 5 22
REMARK SMILES IDX 6 23 7 24 21 25 22 26 23 27 24 28 25 29 26 30 27 31 73 32
REMARK SMILES IDX 28 33 72 34 29 35 30 36 31 37 66 38 32 39 71 40 65 41 67 42
REMARK SMILES IDX 33 43 70 44 64 45 63 46 34 48 56 49 41 50 55 51 42 52 45 53
REMARK SMILES IDX 54 54 68 55 43 56 44 57 53 59 69 60 46 61 35 62 36 63 40 64
REMARK SMILES IDX 37 65 39 66 38 67 57 68 58 69 62 70 59 71 61 72 60 73 47 74
REMARK SMILES IDX 48 75 52 76 49 77 51 78 50 79
REMARK H PARENT 67 47 45 58
REMARK Flexibility Score: inf
ROOT
ATOM      1  O   UNL A   1      32.735  30.647  26.663  1.00  0.00    -0.374 OA
ENDROOT
BRANCH   1   2
ATOM      2  C   UNL A   1      32.458  29.343  27.168  1.00  0.00     0.202 C 
BRANCH   2   3
ATOM      3  C   UNL A   1      31.621  28.431  26.268  1.00  0.00     0.261 C 
BRANCH   3   4
ATOM      4  O   UNL A   1      31.314  27.186  26.921  1.00  0.00    -0.463 OA
BRANCH   4   5
ATOM      5  C   UNL A   1      30.764  26.229  26.128  1.00  0.00     0.311 C 
ATOM      6  O   UNL A   1      29.902  25.436  26.484  1.00  0.00    -0.252 OA
BRANCH   5   7
ATOM      7  C   UNL A   1      31.382  26.183  24.750  1.00  0.00     0.123 C 
ATOM      8  N   UNL A   1      32.424  24.420  23.530  1.00  0.00    -0.335 N 
ATOM      9  C   UNL A   1      31.308  24.901  22.743  1.00  0.00     0.121 C 
ATOM     10  C   UNL A   1      32.704  25.387  24.602  1.00  0.00     0.096 C 
ATOM     11  C   UNL A   1      30.402  25.527  23.776  1.00  0.00     0.039 C 
ATOM     12  C   UNL A   1      33.863  26.330  24.258  1.00  0.00     0.032 C 
BRANCH   8  13
ATOM     13  C   UNL A   1      33.382  23.666  22.879  1.00  0.00     0.260 C 
ATOM     14  O   UNL A   1      33.539  23.857  21.674  1.00  0.00    -0.269 OA
BRANCH  13  15
ATOM     15  C   UNL A   1      34.071  22.523  23.610  1.00  0.00     0.111 A 
ATOM     16  C   UNL A   1      37.251  21.146  25.166  1.00  0.00     0.069 C 
ATOM     17  C   UNL A   1      35.805  21.283  24.769  1.00  0.00     0.062 A 
ATOM     18  N   UNL A   1      35.057  20.296  25.114  1.00  0.00    -0.175 NA
ATOM     19  C   UNL A   1      35.359  22.509  24.030  1.00  0.00    -0.010 A 
ATOM     20  N   UNL A   1      33.756  20.334  24.750  1.00  0.00    -0.232 N 
ATOM     21  C   UNL A   1      36.410  23.573  23.890  1.00  0.00     0.047 C 
ATOM     22  C   UNL A   1      32.973  19.190  25.191  1.00  0.00     0.178 C 
ATOM     23  C   UNL A   1      33.194  21.329  23.962  1.00  0.00     0.279 A 
ATOM     24  O   UNL A   1      32.028  21.240  23.580  1.00  0.00    -0.267 OA
ENDBRANCH  13  15
ENDBRANCH   8  13
ENDBRANCH   5   7
ENDBRANCH   4   5
ENDBRANCH   3   4
ENDBRANCH   2   3
ENDBRANCH   1   2
BRANCH   1  25
ATOM     25  C   UNL A   1      31.678  31.602  26.725  1.00  0.00     0.202 C 
BRANCH  25  26
ATOM     26  C   UNL A   1      32.087  33.071  26.907  1.00  0.00     0.261 C 
BRANCH  26  27
ATOM     27  O   UNL A   1      32.155  33.464  28.290  1.00  0.00    -0.460 OA
BRANCH  27  28
ATOM     28  C   UNL A   1      33.080  34.415  28.568  1.00  0.00     0.338 C 
ATOM     29  O   UNL A   1      32.906  35.622  28.665  1.00  0.00    -0.246 OA
BRANCH  28  30
ATOM     30  C   UNL A   1      34.352  33.762  28.915  1.00  0.00     0.060 A 
ATOM     31  C   UNL A   1      34.403  32.928  30.038  1.00  0.00     0.016 A 
ATOM     32  C   UNL A   1      35.497  33.999  28.160  1.00  0.00     0.016 A 
ATOM     33  C   UNL A   1      35.606  32.324  30.413  1.00  0.00     0.010 A 
ATOM     34  C   UNL A   1      36.698  33.393  28.543  1.00  0.00     0.010 A 
ATOM     35  C   UNL A   1      36.772  32.558  29.675  1.00  0.00    -0.014 A 
BRANCH  35  36
ATOM     36  C   UNL A   1      38.100  32.076  30.156  1.00  0.00     0.031 A 
ATOM     37  C   UNL A   1      38.620  30.762  29.627  1.00  0.00     0.074 A 
ATOM     38  C   UNL A   1      38.846  32.771  31.039  1.00  0.00     0.049 A 
ATOM     39  N   UNL A   1      39.702  30.102  29.954  1.00  0.00    -0.248 NA
ATOM     40  C   UNL A   1      37.793  30.089  28.611  1.00  0.00     0.031 C 
ATOM     41  C   UNL A   1      38.490  34.061  31.633  1.00  0.00     0.029 A 
ATOM     42  N   UNL A   1      40.077  32.487  31.583  1.00  0.00    -0.354 N 
ATOM     43  C   UNL A   1      39.660  28.929  29.212  1.00  0.00     0.074 A 
ATOM     44  C   UNL A   1      38.415  28.931  28.479  1.00  0.00     0.031 C 
ATOM     45  C   UNL A   1      39.497  34.471  32.426  1.00  0.00     0.029 A 
ATOM     46  C   UNL A   1      40.554  33.461  32.429  1.00  0.00     0.049 A 
ATOM     47  H   UNL A   1      40.574  31.660  31.384  1.00  0.00     0.167 HD
ATOM     48  C   UNL A   1      40.587  27.949  29.106  1.00  0.00     0.031 A 
ATOM     49  C   UNL A   1      41.708  33.534  33.124  1.00  0.00     0.031 A 
ATOM     50  C   UNL A   1      41.849  27.952  29.788  1.00  0.00     0.049 A 
ATOM     51  C   UNL A   1      42.711  32.410  33.029  1.00  0.00     0.074 A 
ATOM     52  C   UNL A   1      42.867  27.019  29.714  1.00  0.00     0.029 A 
ATOM     53  N   UNL A   1      42.271  28.944  30.657  1.00  0.00    -0.354 N 
ATOM     54  N   UNL A   1      42.664  31.319  32.304  1.00  0.00    -0.248 NA
ATOM     55  C   UNL A   1      43.929  32.534  33.845  1.00  0.00     0.031 C 
ATOM     56  C   UNL A   1      43.890  27.425  30.574  1.00  0.00     0.029 A 
ATOM     57  C   UNL A   1      43.531  28.639  31.138  1.00  0.00     0.049 A 
ATOM     58  H   UNL A   1      41.752  29.747  30.895  1.00  0.00     0.167 HD
ATOM     59  C   UNL A   1      43.853  30.644  32.555  1.00  0.00     0.074 A 
ATOM     60  C   UNL A   1      44.609  31.452  33.487  1.00  0.00     0.031 C 
ATOM     61  C   UNL A   1      44.279  29.457  32.057  1.00  0.00     0.031 A 
BRANCH  48  62
ATOM     62  C   UNL A   1      40.263  26.795  28.198  1.00  0.00    -0.014 A 
ATOM     63  C   UNL A   1      40.777  26.735  26.892  1.00  0.00     0.009 A 
ATOM     64  C   UNL A   1      39.447  25.750  28.657  1.00  0.00     0.009 A 
ATOM     65  C   UNL A   1      40.442  25.675  26.049  1.00  0.00     0.001 A 
ATOM     66  C   UNL A   1      39.145  24.673  27.823  1.00  0.00     0.001 A 
ATOM     67  C   UNL A   1      39.633  24.642  26.517  1.00  0.00     0.000 A 
ENDBRANCH  48  62
BRANCH  49  68
ATOM     68  C   UNL A   1      42.009  34.732  33.958  1.00  0.00    -0.014 A 
ATOM     69  C   UNL A   1      41.637  34.763  35.311  1.00  0.00     0.009 A 
ATOM     70  C   UNL A   1      42.648  35.854  33.407  1.00  0.00     0.009 A 
ATOM     71  C   UNL A   1      41.883  35.897  36.090  1.00  0.00     0.001 A 
ATOM     72  C   UNL A   1      42.918  36.975  34.196  1.00  0.00     0.001 A 
ATOM     73  C   UNL A   1      42.529  37.000  35.534  1.00  0.00     0.000 A 
ENDBRANCH  49  68
BRANCH  61  74
ATOM     74  C   UNL A   1      45.635  28.958  32.476  1.00  0.00    -0.014 A 
ATOM     75  C   UNL A   1      45.780  28.049  33.535  1.00  0.00     0.009 A 
ATOM     76  C   UNL A   1      46.769  29.321  31.731  1.00  0.00     0.009 A 
ATOM     77  C   UNL A   1      47.036  27.526  33.848  1.00  0.00     0.001 A 
ATOM     78  C   UNL A   1      48.018  28.774  32.028  1.00  0.00     0.001 A 
ATOM     79  C   UNL A   1      48.151  27.881  33.089  1.00  0.00     0.000 A 
ENDBRANCH  61  74
ENDBRANCH  35  36
ENDBRANCH  28  30
ENDBRANCH  27  28
ENDBRANCH  26  27
ENDBRANCH  25  26
ENDBRANCH   1  25
TORSDOF 16
ENDMDL
MODEL 2
REMARK VINA RESULT:     -10.6      1.673      5.782
REMARK SMILES Cc1nn(C)c(=O)c(C(=O)N2CC[C@@H](C(=O)OCCOCCOC(=O)c3ccc(-c4c5nc(c(-c6ccccc6)c6ccc([nH]6)c(-c6ccccc6)c6nc(c(-c7ccccc7)c7ccc4[nH]7)C=C6)C=C5)cc3)[C@@H]2C)c1C
REMARK SMILES IDX 20 1 19 2 18 3 17 4 15 5 16 6 14 7 11 8 12 9 74 10 13 11
REMARK SMILES IDX 75 12 9 13 10 14 8 15 1 16 2 17 3 18 76 19 4 20 77 21 5 22
REMARK SMILES IDX 6 23 7 24 21 25 22 26 23 27 24 28 25 29 26 30 27 31 73 32
REMARK SMILES IDX 28 33 72 34 29 35 30 36 31 37 66 38 32 39 71 40 65 41 67 42
REMARK SMILES IDX 33 43 70 44 64 45 63 46 34 48 56 49 41 50 55 51 42 52 45 53
REMARK SMILES IDX 54 54 68 55 43 56 44 57 53 59 69 60 46 61 35 62 36 63 40 64
REMARK SMILES IDX 37 65 39 66 38 67 57 68 58 69 62 70 59 71 61 72 60 73 47 74
REMARK SMILES IDX 48 75 52 76 49 77 51 78 50 79
REMARK H PARENT 67 47 45 58
REMARK Flexibility Score: inf
ROOT
ATOM      1  O   UNL A   1      32.685  30.752  26.725  1.00  0.00    -0.374 OA
ENDROOT
BRANCH   1   2
ATOM      2  C   UNL A   1      32.411  29.455  27.250  1.00  0.00     0.202 C 
BRANCH   2   3
ATOM      3  C   UNL A   1      31.511  28.556  26.401  1.00  0.00     0.261 C 
BRANCH   3   4
ATOM      4  O   UNL A   1      31.374  27.248  26.983  1.00  0.00    -0.463 OA
BRANCH   4   5
ATOM      5  C   UNL A   1      30.783  26.313  26.193  1.00  0.00     0.311 C 
ATOM      6  O   UNL A   1      29.905  25.542  26.558  1.00  0.00    -0.252 OA
BRANCH   5   7
ATOM      7  C   UNL A   1      31.377  26.259  24.805  1.00  0.00     0.123 C 
ATOM      8  N   UNL A   1      32.460  24.510  23.601  1.00  0.00    -0.335 N 
ATOM      9  C   UNL A   1      31.312  24.933  22.826  1.00  0.00     0.121 C 
ATOM     10  C   UNL A   1      32.725  25.509  24.648  1.00  0.00     0.096 C 
ATOM     11  C   UNL A   1      30.403  25.548  23.864  1.00  0.00     0.039 C 
ATOM     12  C   UNL A   1      33.841  26.487  24.261  1.00  0.00     0.032 C 
BRANCH   8  13
ATOM     13  C   UNL A   1      33.433  23.778  22.947  1.00  0.00     0.260 C 
ATOM     14  O   UNL A   1      33.643  24.036  21.763  1.00  0.00    -0.269 OA
BRANCH  13  15
ATOM     15  C   UNL A   1      34.072  22.582  23.638  1.00  0.00     0.111 A 
ATOM     16  C   UNL A   1      37.208  20.982  25.063  1.00  0.00     0.069 C 
ATOM     17  C   UNL A   1      35.761  21.217  24.719  1.00  0.00     0.062 A 
ATOM     18  N   UNL A   1      34.964  20.273  25.075  1.00  0.00    -0.175 NA
ATOM     19  C   UNL A   1      35.370  22.479  24.013  1.00  0.00    -0.010 A 
ATOM     20  N   UNL A   1      33.656  20.399  24.756  1.00  0.00    -0.232 N 
ATOM     21  C   UNL A   1      36.481  23.477  23.852  1.00  0.00     0.047 C 
ATOM     22  C   UNL A   1      32.817  19.299  25.207  1.00  0.00     0.178 C 
ATOM     23  C   UNL A   1      33.132  21.439  24.002  1.00  0.00     0.279 A 
ATOM     24  O   UNL A   1      31.951  21.431  23.659  1.00  0.00    -0.267 OA
ENDBRANCH  13  15
ENDBRANCH   8  13
ENDBRANCH   5   7
ENDBRANCH   4   5
ENDBRANCH   3   4
ENDBRANCH   2   3
ENDBRANCH   1   2
BRANCH   1  25
ATOM     25  C   UNL A   1      31.653  31.729  26.842  1.00  0.00     0.202 C 
BRANCH  25  26
ATOM     26  C   UNL A   1      32.100  33.196  26.912  1.00  0.00     0.261 C 
BRANCH  26  27
ATOM     27  O   UNL A   1      32.197  33.686  28.262  1.00  0.00    -0.460 OA
BRANCH  27  28
ATOM     28  C   UNL A   1      33.250  34.507  28.497  1.00  0.00     0.338 C 
ATOM     29  O   UNL A   1      33.252  35.729  28.538  1.00  0.00    -0.246 OA
BRANCH  28  30
ATOM     30  C   UNL A   1      34.419  33.695  28.873  1.00  0.00     0.060 A 
ATOM     31  C   UNL A   1      34.213  32.461  29.503  1.00  0.00     0.016 A 
ATOM     32  C   UNL A   1      35.709  34.162  28.643  1.00  0.00     0.016 A 
ATOM     33  C   UNL A   1      35.303  31.685  29.904  1.00  0.00     0.010 A 
ATOM     34  C   UNL A   1      36.795  33.381  29.049  1.00  0.00     0.010 A 
ATOM     35  C   UNL A   1      36.610  32.141  29.693  1.00  0.00    -0.014 A 
BRANCH  35  36
ATOM     36  C   UNL A   1      37.782  31.423  30.273  1.00  0.00     0.031 A 
ATOM     37  C   UNL A   1      38.147  31.694  31.712  1.00  0.00     0.074 A 
ATOM     38  C   UNL A   1      38.518  30.545  29.562  1.00  0.00     0.049 A 
ATOM     39  N   UNL A   1      39.164  31.256  32.410  1.00  0.00    -0.248 NA
ATOM     40  C   UNL A   1      37.260  32.606  32.455  1.00  0.00     0.031 C 
ATOM     41  C   UNL A   1      38.287  30.165  28.167  1.00  0.00     0.029 A 
ATOM     42  N   UNL A   1      39.614  29.799  29.929  1.00  0.00    -0.354 N 
ATOM     43  C   UNL A   1      39.052  31.867  33.653  1.00  0.00     0.074 A 
ATOM     44  C   UNL A   1      37.920  32.761  33.590  1.00  0.00     0.031 C 
ATOM     45  C   UNL A   1      39.187  29.231  27.813  1.00  0.00     0.029 A 
ATOM     46  C   UNL A   1      40.085  28.971  28.937  1.00  0.00     0.049 A 
ATOM     47  H   UNL A   1      40.025  29.853  30.822  1.00  0.00     0.167 HD
ATOM     48  C   UNL A   1      39.792  31.678  34.769  1.00  0.00     0.031 A 
ATOM     49  C   UNL A   1      41.116  28.100  28.935  1.00  0.00     0.031 A 
ATOM     50  C   UNL A   1      40.890  30.759  34.866  1.00  0.00     0.049 A 
ATOM     51  C   UNL A   1      41.958  27.935  30.175  1.00  0.00     0.074 A 
ATOM     52  C   UNL A   1      41.676  30.474  35.968  1.00  0.00     0.029 A 
ATOM     53  N   UNL A   1      41.347  29.967  33.827  1.00  0.00    -0.354 N 
ATOM     54  N   UNL A   1      41.823  28.504  31.348  1.00  0.00    -0.248 NA
ATOM     55  C   UNL A   1      43.092  27.000  30.091  1.00  0.00     0.031 C 
ATOM     56  C   UNL A   1      42.639  29.538  35.582  1.00  0.00     0.029 A 
ATOM     57  C   UNL A   1      42.415  29.201  34.257  1.00  0.00     0.049 A 
ATOM     58  H   UNL A   1      40.967  29.950  32.918  1.00  0.00     0.167 HD
ATOM     59  C   UNL A   1      42.834  27.977  32.146  1.00  0.00     0.074 A 
ATOM     60  C   UNL A   1      43.565  27.033  31.330  1.00  0.00     0.031 C 
ATOM     61  C   UNL A   1      43.129  28.255  33.440  1.00  0.00     0.031 A 
BRANCH  48  62
ATOM     62  C   UNL A   1      39.416  32.479  35.984  1.00  0.00    -0.014 A 
ATOM     63  C   UNL A   1      38.470  32.000  36.905  1.00  0.00     0.009 A 
ATOM     64  C   UNL A   1      40.025  33.722  36.219  1.00  0.00     0.009 A 
ATOM     65  C   UNL A   1      38.107  32.769  38.011  1.00  0.00     0.001 A 
ATOM     66  C   UNL A   1      39.686  34.471  37.347  1.00  0.00     0.001 A 
ATOM     67  C   UNL A   1      38.720  34.000  38.234  1.00  0.00     0.000 A 
ENDBRANCH  48  62
BRANCH  49  68
ATOM     68  C   UNL A   1      41.404  27.280  27.724  1.00  0.00    -0.014 A 
ATOM     69  C   UNL A   1      42.245  27.778  26.716  1.00  0.00     0.009 A 
ATOM     70  C   UNL A   1      40.829  26.010  27.557  1.00  0.00     0.009 A 
ATOM     71  C   UNL A   1      42.491  27.030  25.562  1.00  0.00     0.001 A 
ATOM     72  C   UNL A   1      41.099  25.253  26.414  1.00  0.00     0.001 A 
ATOM     73  C   UNL A   1      41.924  25.766  25.414  1.00  0.00     0.000 A 
ENDBRANCH  49  68
BRANCH  61  74
ATOM     74  C   UNL A   1      44.271  27.516  34.080  1.00  0.00    -0.014 A 
ATOM     75  C   UNL A   1      44.074  26.277  34.709  1.00  0.00     0.009 A 
ATOM     76  C   UNL A   1      45.578  28.017  33.960  1.00  0.00     0.009 A 
ATOM     77  C   UNL A   1      45.161  25.563  35.216  1.00  0.00     0.001 A 
ATOM     78  C   UNL A   1      46.666  27.287  34.441  1.00  0.00     0.001 A 
ATOM     79  C   UNL A   1      46.455  26.063  35.073  1.00  0.00     0.000 A 
ENDBRANCH  61  74
ENDBRANCH  35  36
ENDBRANCH  28  30
ENDBRANCH  27  28
ENDBRANCH  26  27
ENDBRANCH  25  26
ENDBRANCH   1  25
TORSDOF 16
ENDMDL
MODEL 3
REMARK VINA RESULT:     -10.4      3.272      8.567
REMARK SMILES Cc1nn(C)c(=O)c(C(=O)N2CC[C@@H](C(=O)OCCOCCOC(=O)c3ccc(-c4c5nc(c(-c6ccccc6)c6ccc([nH]6)c(-c6ccccc6)c6nc(c(-c7ccccc7)c7ccc4[nH]7)C=C6)C=C5)cc3)[C@@H]2C)c1C
REMARK SMILES IDX 20 1 19 2 18 3 17 4 15 5 16 6 14 7 11 8 12 9 74 10 13 11
REMARK SMILES IDX 75 12 9 13 10 14 8 15 1 16 2 17 3 18 76 19 4 20 77 21 5 22
REMARK SMILES IDX 6 23 7 24 21 25 22 26 23 27 24 28 25 29 26 30 27 31 73 32
REMARK SMILES IDX 28 33 72 34 29 35 30 36 31 37 66 38 32 39 71 40 65 41 67 42
REMARK SMILES IDX 33 43 70 44 64 45 63 46 34 48 56 49 41 50 55 51 42 52 45 53
REMARK SMILES IDX 54 54 68 55 43 56 44 57 53 59 69 60 46 61 35 62 36 63 40 64
REMARK SMILES IDX 37 65 39 66 38 67 57 68 58 69 62 70 59 71 61 72 60 73 47 74
REMARK SMILES IDX 48 75 52 76 49 77 51 78 50 79
REMARK H PARENT 67 47 45 58
REMARK Flexibility Score: inf
ROOT
ATOM      1  O   UNL A   1      41.854  21.208  26.931  1.00  0.00    -0.374 OA
ENDROOT
BRANCH   1   2
ATOM      2  C   UNL A   1      40.478  20.848  26.844  1.00  0.00     0.202 C 
BRANCH   2   3
ATOM      3  C   UNL A   1      39.503  21.972  26.491  1.00  0.00     0.261 C 
BRANCH   3   4
ATOM      4  O   UNL A   1      38.551  21.551  25.499  1.00  0.00    -0.463 OA
BRANCH   4   5
ATOM      5  C   UNL A   1      37.469  22.360  25.344  1.00  0.00     0.311 C 
ATOM      6  O   UNL A   1      37.511  23.514  24.937  1.00  0.00    -0.252 OA
BRANCH   5   7
ATOM      7  C   UNL A   1      36.183  21.713  25.801  1.00  0.00     0.123 C 
ATOM      8  N   UNL A   1      33.989  21.696  24.870  1.00  0.00    -0.335 N 
ATOM      9  C   UNL A   1      34.430  20.322  24.983  1.00  0.00     0.121 C 
ATOM     10  C   UNL A   1      34.887  22.553  25.658  1.00  0.00     0.096 C 
ATOM     11  C   UNL A   1      35.936  20.442  24.987  1.00  0.00     0.039 C 
ATOM     12  C   UNL A   1      34.315  22.897  27.039  1.00  0.00     0.032 C 
BRANCH   8  13
ATOM     13  C   UNL A   1      32.635  21.917  24.705  1.00  0.00     0.260 C 
ATOM     14  O   UNL A   1      31.876  20.961  24.864  1.00  0.00    -0.269 OA
BRANCH  13  15
ATOM     15  C   UNL A   1      32.145  23.253  24.167  1.00  0.00     0.111 A 
ATOM     16  C   UNL A   1      32.169  25.790  21.340  1.00  0.00     0.069 C 
ATOM     17  C   UNL A   1      31.802  25.093  22.623  1.00  0.00     0.062 A 
ATOM     18  N   UNL A   1      30.945  25.720  23.349  1.00  0.00    -0.175 NA
ATOM     19  C   UNL A   1      32.437  23.776  22.951  1.00  0.00    -0.010 A 
ATOM     20  N   UNL A   1      30.605  25.171  24.536  1.00  0.00    -0.232 N 
ATOM     21  C   UNL A   1      33.289  23.201  21.855  1.00  0.00     0.047 C 
ATOM     22  C   UNL A   1      29.619  25.930  25.290  1.00  0.00     0.178 C 
ATOM     23  C   UNL A   1      31.177  24.020  25.058  1.00  0.00     0.279 A 
ATOM     24  O   UNL A   1      30.896  23.640  26.194  1.00  0.00    -0.267 OA
ENDBRANCH  13  15
ENDBRANCH   8  13
ENDBRANCH   5   7
ENDBRANCH   4   5
ENDBRANCH   3   4
ENDBRANCH   2   3
ENDBRANCH   1   2
BRANCH   1  25
ATOM     25  C   UNL A   1      42.705  20.772  25.874  1.00  0.00     0.202 C 
BRANCH  25  26
ATOM     26  C   UNL A   1      43.896  21.678  25.530  1.00  0.00     0.261 C 
BRANCH  26  27
ATOM     27  O   UNL A   1      43.973  22.843  26.373  1.00  0.00    -0.460 OA
BRANCH  27  28
ATOM     28  C   UNL A   1      43.797  24.024  25.731  1.00  0.00     0.338 C 
ATOM     29  O   UNL A   1      43.988  24.268  24.548  1.00  0.00    -0.246 OA
BRANCH  28  30
ATOM     30  C   UNL A   1      43.163  24.982  26.651  1.00  0.00     0.060 A 
ATOM     31  C   UNL A   1      43.633  26.300  26.687  1.00  0.00     0.016 A 
ATOM     32  C   UNL A   1      42.139  24.575  27.501  1.00  0.00     0.016 A 
ATOM     33  C   UNL A   1      43.075  27.223  27.576  1.00  0.00     0.010 A 
ATOM     34  C   UNL A   1      41.587  25.503  28.390  1.00  0.00     0.010 A 
ATOM     35  C   UNL A   1      42.052  26.832  28.448  1.00  0.00    -0.014 A 
BRANCH  35  36
ATOM     36  C   UNL A   1      41.569  27.741  29.528  1.00  0.00     0.031 A 
ATOM     37  C   UNL A   1      42.309  27.747  30.843  1.00  0.00     0.074 A 
ATOM     38  C   UNL A   1      40.503  28.552  29.368  1.00  0.00     0.049 A 
ATOM     39  N   UNL A   1      42.032  28.387  31.951  1.00  0.00    -0.248 NA
ATOM     40  C   UNL A   1      43.506  26.894  30.928  1.00  0.00     0.031 C 
ATOM     41  C   UNL A   1      39.691  28.672  28.157  1.00  0.00     0.029 A 
ATOM     42  N   UNL A   1      39.927  29.446  30.241  1.00  0.00    -0.354 N 
ATOM     43  C   UNL A   1      42.999  27.983  32.864  1.00  0.00     0.074 A 
ATOM     44  C   UNL A   1      43.819  26.991  32.208  1.00  0.00     0.031 C 
ATOM     45  C   UNL A   1      38.750  29.613  28.351  1.00  0.00     0.029 A 
ATOM     46  C   UNL A   1      38.863  30.138  29.711  1.00  0.00     0.049 A 
ATOM     47  H   UNL A   1      40.247  29.580  31.162  1.00  0.00     0.167 HD
ATOM     48  C   UNL A   1      43.223  28.423  34.123  1.00  0.00     0.031 A 
ATOM     49  C   UNL A   1      38.072  31.087  30.255  1.00  0.00     0.031 A 
ATOM     50  C   UNL A   1      42.451  29.441  34.775  1.00  0.00     0.049 A 
ATOM     51  C   UNL A   1      38.309  31.533  31.676  1.00  0.00     0.074 A 
ATOM     52  C   UNL A   1      42.627  29.977  36.038  1.00  0.00     0.029 A 
ATOM     53  N   UNL A   1      41.366  30.088  34.208  1.00  0.00    -0.354 N 
ATOM     54  N   UNL A   1      39.243  31.156  32.516  1.00  0.00    -0.248 NA
ATOM     55  C   UNL A   1      37.385  32.540  32.221  1.00  0.00     0.031 C 
ATOM     56  C   UNL A   1      41.619  30.920  36.253  1.00  0.00     0.029 A 
ATOM     57  C   UNL A   1      40.852  31.010  35.102  1.00  0.00     0.049 A 
ATOM     58  H   UNL A   1      41.014  29.919  33.304  1.00  0.00     0.167 HD
ATOM     59  C   UNL A   1      39.035  31.899  33.674  1.00  0.00     0.074 A 
ATOM     60  C   UNL A   1      37.897  32.758  33.426  1.00  0.00     0.031 C 
ATOM     61  C   UNL A   1      39.726  31.868  34.840  1.00  0.00     0.031 A 
BRANCH  48  62
ATOM     62  C   UNL A   1      44.371  27.803  34.871  1.00  0.00    -0.014 A 
ATOM     63  C   UNL A   1      45.651  28.381  34.841  1.00  0.00     0.009 A 
ATOM     64  C   UNL A   1      44.168  26.637  35.624  1.00  0.00     0.009 A 
ATOM     65  C   UNL A   1      46.715  27.777  35.513  1.00  0.00     0.001 A 
ATOM     66  C   UNL A   1      45.227  26.057  36.325  1.00  0.00     0.001 A 
ATOM     67  C   UNL A   1      46.500  26.620  36.260  1.00  0.00     0.000 A 
ENDBRANCH  48  62
BRANCH  49  68
ATOM     68  C   UNL A   1      36.990  31.717  29.447  1.00  0.00    -0.014 A 
ATOM     69  C   UNL A   1      37.201  32.959  28.828  1.00  0.00     0.009 A 
ATOM     70  C   UNL A   1      35.739  31.096  29.306  1.00  0.00     0.009 A 
ATOM     71  C   UNL A   1      36.179  33.573  28.098  1.00  0.00     0.001 A 
ATOM     72  C   UNL A   1      34.728  31.700  28.552  1.00  0.00     0.001 A 
ATOM     73  C   UNL A   1      34.946  32.941  27.956  1.00  0.00     0.000 A 
ENDBRANCH  49  68
BRANCH  61  74
ATOM     74  C   UNL A   1      39.305  32.805  35.939  1.00  0.00    -0.014 A 
ATOM     75  C   UNL A   1      38.384  32.408  36.920  1.00  0.00     0.009 A 
ATOM     76  C   UNL A   1      39.918  34.064  36.052  1.00  0.00     0.009 A 
ATOM     77  C   UNL A   1      38.076  33.258  37.983  1.00  0.00     0.001 A 
ATOM     78  C   UNL A   1      39.631  34.899  37.132  1.00  0.00     0.001 A 
ATOM     79  C   UNL A   1      38.706  34.497  38.094  1.00  0.00     0.000 A 
ENDBRANCH  61  74
ENDBRANCH  35  36
ENDBRANCH  28  30
ENDBRANCH  27  28
ENDBRANCH  26  27
ENDBRANCH  25  26
ENDBRANCH   1  25
TORSDOF 16
ENDMDL
