MODEL 1
REMARK VINA RESULT:     -11.1      0.000      0.000
REMARK SMILES CCn1c(N2CCC(C(=O)OCCOCCOC(=O)c3ccc(-c4c5nc(c(-c6ccccc6)c6ccc([nH]6)c(-c6ccccc6)c6nc(c(-c7ccccc7)c7ccc4[nH]7)C=C6)C=C5)cc3)CC2)nc2cc(C)ccc21
REMARK SMILES IDX 14 1 13 2 12 3 11 4 9 5 10 6 8 7 5 8 6 9 69 10 7 11 68 12
REMARK SMILES IDX 4 13 3 14 77 15 70 16 71 17 76 18 72 19 75 20 73 21 74 22
REMARK SMILES IDX 2 23 1 24 15 25 16 26 17 27 18 28 19 29 20 30 21 31 67 32
REMARK SMILES IDX 22 33 66 34 23 35 24 36 25 37 60 38 26 39 65 40 59 41 61 42
REMARK SMILES IDX 27 43 64 44 58 45 57 46 28 48 50 49 35 50 49 51 36 52 39 53
REMARK SMILES IDX 48 54 62 55 37 56 38 57 47 59 63 60 40 61 29 62 30 63 34 64
REMARK SMILES IDX 31 65 33 66 32 67 51 68 52 69 56 70 53 71 55 72 54 73 41 74
REMARK SMILES IDX 42 75 46 76 43 77 45 78 44 79
REMARK H PARENT 61 47 39 58
REMARK Flexibility Score: inf
ROOT
ATOM      1  O   UNL A   1      33.763  29.794  27.520  1.00  0.00    -0.374 OA
ENDROOT
BRANCH   1   2
ATOM      2  C   UNL A   1      33.727  28.985  26.352  1.00  0.00     0.202 C 
BRANCH   2   3
ATOM      3  C   UNL A   1      33.016  29.502  25.097  1.00  0.00     0.261 C 
BRANCH   3   4
ATOM      4  O   UNL A   1      32.954  28.548  24.034  1.00  0.00    -0.463 OA
BRANCH   4   5
ATOM      5  C   UNL A   1      31.697  28.124  23.759  1.00  0.00     0.309 C 
ATOM      6  O   UNL A   1      30.670  28.753  23.995  1.00  0.00    -0.252 OA
BRANCH   5   7
ATOM      7  C   UNL A   1      31.651  26.742  23.172  1.00  0.00     0.103 C 
ATOM      8  N   UNL A   1      31.766  23.931  22.778  1.00  0.00    -0.342 N 
ATOM      9  C   UNL A   1      32.666  24.784  21.997  1.00  0.00     0.120 C 
ATOM     10  C   UNL A   1      30.624  24.532  23.461  1.00  0.00     0.120 C 
ATOM     11  C   UNL A   1      32.958  26.119  22.687  1.00  0.00     0.037 C 
ATOM     12  C   UNL A   1      31.010  25.805  24.184  1.00  0.00     0.037 C 
BRANCH   8  13
ATOM     13  C   UNL A   1      32.207  22.712  23.167  1.00  0.00     0.206 A 
ATOM     14  N   UNL A   1      33.135  22.517  24.172  1.00  0.00    -0.310 N 
ATOM     15  C   UNL A   1      33.380  21.153  24.244  1.00  0.00     0.070 A 
ATOM     16  N   UNL A   1      31.796  21.562  22.675  1.00  0.00    -0.213 NA
ATOM     17  C   UNL A   1      32.532  20.593  23.302  1.00  0.00     0.091 A 
ATOM     18  C   UNL A   1      34.227  20.385  25.053  1.00  0.00     0.029 A 
ATOM     19  C   UNL A   1      32.528  19.198  23.124  1.00  0.00     0.034 A 
ATOM     20  C   UNL A   1      34.215  19.000  24.861  1.00  0.00     0.006 A 
ATOM     21  C   UNL A   1      33.383  18.401  23.908  1.00  0.00    -0.049 A 
ATOM     22  C   UNL A   1      33.405  16.913  23.711  1.00  0.00     0.044 C 
BRANCH  14  23
ATOM     23  C   UNL A   1      33.686  23.416  25.170  1.00  0.00     0.122 C 
ATOM     24  C   UNL A   1      35.119  23.908  25.111  1.00  0.00     0.028 C 
ENDBRANCH  14  23
ENDBRANCH   8  13
ENDBRANCH   5   7
ENDBRANCH   4   5
ENDBRANCH   3   4
ENDBRANCH   2   3
ENDBRANCH   1   2
BRANCH   1  25
ATOM     25  C   UNL A   1      33.209  31.112  27.456  1.00  0.00     0.202 C 
BRANCH  25  26
ATOM     26  C   UNL A   1      34.046  32.305  27.956  1.00  0.00     0.261 C 
BRANCH  26  27
ATOM     27  O   UNL A   1      35.400  31.920  28.228  1.00  0.00    -0.460 OA
BRANCH  27  28
ATOM     28  C   UNL A   1      35.870  32.327  29.446  1.00  0.00     0.338 C 
ATOM     29  O   UNL A   1      35.336  33.052  30.241  1.00  0.00    -0.246 OA
BRANCH  28  30
ATOM     30  C   UNL A   1      36.942  31.360  29.771  1.00  0.00     0.060 A 
ATOM     31  C   UNL A   1      38.273  31.765  29.866  1.00  0.00     0.016 A 
ATOM     32  C   UNL A   1      36.596  30.003  29.657  1.00  0.00     0.016 A 
ATOM     33  C   UNL A   1      39.270  30.801  29.782  1.00  0.00     0.010 A 
ATOM     34  C   UNL A   1      37.597  29.049  29.518  1.00  0.00     0.010 A 
ATOM     35  C   UNL A   1      38.934  29.451  29.563  1.00  0.00    -0.014 A 
BRANCH  35  36
ATOM     36  C   UNL A   1      40.004  28.457  29.661  1.00  0.00     0.031 A 
ATOM     37  C   UNL A   1      40.487  28.296  31.058  1.00  0.00     0.074 A 
ATOM     38  C   UNL A   1      40.436  27.622  28.693  1.00  0.00     0.049 A 
ATOM     39  N   UNL A   1      41.677  28.495  31.516  1.00  0.00    -0.248 NA
ATOM     40  C   UNL A   1      39.480  27.997  32.091  1.00  0.00     0.031 C 
ATOM     41  C   UNL A   1      39.863  27.412  27.363  1.00  0.00     0.029 A 
ATOM     42  N   UNL A   1      41.440  26.691  28.748  1.00  0.00    -0.354 N 
ATOM     43  C   UNL A   1      41.609  28.201  32.874  1.00  0.00     0.074 A 
ATOM     44  C   UNL A   1      40.216  28.045  33.199  1.00  0.00     0.031 C 
ATOM     45  C   UNL A   1      40.374  26.274  26.831  1.00  0.00     0.029 A 
ATOM     46  C   UNL A   1      41.408  25.760  27.716  1.00  0.00     0.049 A 
ATOM     47  H   UNL A   1      42.123  26.680  29.456  1.00  0.00     0.167 HD
ATOM     48  C   UNL A   1      42.716  27.869  33.589  1.00  0.00     0.031 A 
ATOM     49  C   UNL A   1      42.146  24.628  27.619  1.00  0.00     0.031 A 
ATOM     50  C   UNL A   1      43.925  28.228  32.902  1.00  0.00     0.049 A 
ATOM     51  C   UNL A   1      43.345  24.772  28.469  1.00  0.00     0.074 A 
ATOM     52  C   UNL A   1      44.619  29.388  32.649  1.00  0.00     0.029 A 
ATOM     53  N   UNL A   1      44.394  27.270  32.046  1.00  0.00    -0.354 N 
ATOM     54  N   UNL A   1      44.303  25.615  28.223  1.00  0.00    -0.248 NA
ATOM     55  C   UNL A   1      43.388  24.140  29.782  1.00  0.00     0.031 C 
ATOM     56  C   UNL A   1      45.356  29.149  31.452  1.00  0.00     0.029 A 
ATOM     57  C   UNL A   1      45.107  27.845  31.027  1.00  0.00     0.049 A 
ATOM     58  H   UNL A   1      44.241  26.302  32.147  1.00  0.00     0.167 HD
ATOM     59  C   UNL A   1      44.793  25.944  29.469  1.00  0.00     0.074 A 
ATOM     60  C   UNL A   1      44.342  24.879  30.354  1.00  0.00     0.031 C 
ATOM     61  C   UNL A   1      45.233  27.206  29.733  1.00  0.00     0.031 A 
BRANCH  48  62
ATOM     62  C   UNL A   1      42.711  26.817  34.673  1.00  0.00    -0.014 A 
ATOM     63  C   UNL A   1      42.156  27.024  35.952  1.00  0.00     0.009 A 
ATOM     64  C   UNL A   1      43.005  25.486  34.325  1.00  0.00     0.009 A 
ATOM     65  C   UNL A   1      41.904  25.969  36.834  1.00  0.00     0.001 A 
ATOM     66  C   UNL A   1      42.719  24.423  35.190  1.00  0.00     0.001 A 
ATOM     67  C   UNL A   1      42.165  24.665  36.443  1.00  0.00     0.000 A 
ENDBRANCH  48  62
BRANCH  49  68
ATOM     68  C   UNL A   1      41.800  23.312  27.035  1.00  0.00    -0.014 A 
ATOM     69  C   UNL A   1      40.862  22.490  27.679  1.00  0.00     0.009 A 
ATOM     70  C   UNL A   1      42.621  22.729  26.053  1.00  0.00     0.009 A 
ATOM     71  C   UNL A   1      40.793  21.119  27.404  1.00  0.00     0.001 A 
ATOM     72  C   UNL A   1      42.553  21.357  25.778  1.00  0.00     0.001 A 
ATOM     73  C   UNL A   1      41.653  20.549  26.469  1.00  0.00     0.000 A 
ENDBRANCH  49  68
BRANCH  61  74
ATOM     74  C   UNL A   1      45.642  28.068  28.569  1.00  0.00    -0.014 A 
ATOM     75  C   UNL A   1      46.999  28.081  28.209  1.00  0.00     0.009 A 
ATOM     76  C   UNL A   1      44.764  28.935  27.901  1.00  0.00     0.009 A 
ATOM     77  C   UNL A   1      47.469  28.949  27.223  1.00  0.00     0.001 A 
ATOM     78  C   UNL A   1      45.231  29.785  26.892  1.00  0.00     0.001 A 
ATOM     79  C   UNL A   1      46.585  29.798  26.563  1.00  0.00     0.000 A 
ENDBRANCH  61  74
ENDBRANCH  35  36
ENDBRANCH  28  30
ENDBRANCH  27  28
ENDBRANCH  26  27
ENDBRANCH  25  26
ENDBRANCH   1  25
TORSDOF 16
ENDMDL
MODEL 2
REMARK VINA RESULT:     -10.9      3.597      8.832
REMARK SMILES CCn1c(N2CCC(C(=O)OCCOCCOC(=O)c3ccc(-c4c5nc(c(-c6ccccc6)c6ccc([nH]6)c(-c6ccccc6)c6nc(c(-c7ccccc7)c7ccc4[nH]7)C=C6)C=C5)cc3)CC2)nc2cc(C)ccc21
REMARK SMILES IDX 14 1 13 2 12 3 11 4 9 5 10 6 8 7 5 8 6 9 69 10 7 11 68 12
REMARK SMILES IDX 4 13 3 14 77 15 70 16 71 17 76 18 72 19 75 20 73 21 74 22
REMARK SMILES IDX 2 23 1 24 15 25 16 26 17 27 18 28 19 29 20 30 21 31 67 32
REMARK SMILES IDX 22 33 66 34 23 35 24 36 25 37 60 38 26 39 65 40 59 41 61 42
REMARK SMILES IDX 27 43 64 44 58 45 57 46 28 48 50 49 35 50 49 51 36 52 39 53
REMARK SMILES IDX 48 54 62 55 37 56 38 57 47 59 63 60 40 61 29 62 30 63 34 64
REMARK SMILES IDX 31 65 33 66 32 67 51 68 52 69 56 70 53 71 55 72 54 73 41 74
REMARK SMILES IDX 42 75 46 76 43 77 45 78 44 79
REMARK H PARENT 61 47 39 58
REMARK Flexibility Score: inf
ROOT
ATOM      1  O   UNL A   1      37.150  21.222  25.862  1.00  0.00    -0.374 OA
ENDROOT
BRANCH   1   2
ATOM      2  C   UNL A   1      36.042  21.376  24.984  1.00  0.00     0.202 C 
BRANCH   2   3
ATOM      3  C   UNL A   1      34.776  20.545  25.214  1.00  0.00     0.261 C 
BRANCH   3   4
ATOM      4  O   UNL A   1      33.806  20.669  24.170  1.00  0.00    -0.463 OA
BRANCH   4   5
ATOM      5  C   UNL A   1      32.528  20.540  24.600  1.00  0.00     0.309 C 
ATOM      6  O   UNL A   1      31.976  19.479  24.873  1.00  0.00    -0.252 OA
BRANCH   5   7
ATOM      7  C   UNL A   1      31.789  21.847  24.664  1.00  0.00     0.103 C 
ATOM      8  N   UNL A   1      31.105  24.597  24.868  1.00  0.00    -0.342 N 
ATOM      9  C   UNL A   1      30.586  23.671  25.878  1.00  0.00     0.120 C 
ATOM     10  C   UNL A   1      31.652  24.065  23.623  1.00  0.00     0.120 C 
ATOM     11  C   UNL A   1      31.461  22.425  26.040  1.00  0.00     0.037 C 
ATOM     12  C   UNL A   1      32.568  22.885  23.872  1.00  0.00     0.037 C 
BRANCH   8  13
ATOM     13  C   UNL A   1      31.421  25.857  25.248  1.00  0.00     0.206 A 
ATOM     14  N   UNL A   1      30.908  26.990  24.648  1.00  0.00    -0.310 N 
ATOM     15  C   UNL A   1      31.504  28.084  25.262  1.00  0.00     0.070 A 
ATOM     16  N   UNL A   1      32.221  26.171  26.245  1.00  0.00    -0.213 NA
ATOM     17  C   UNL A   1      32.311  27.537  26.248  1.00  0.00     0.091 A 
ATOM     18  C   UNL A   1      31.383  29.464  25.061  1.00  0.00     0.029 A 
ATOM     19  C   UNL A   1      33.062  28.393  27.073  1.00  0.00     0.034 A 
ATOM     20  C   UNL A   1      32.140  30.301  25.886  1.00  0.00     0.006 A 
ATOM     21  C   UNL A   1      32.978  29.785  26.881  1.00  0.00    -0.049 A 
ATOM     22  C   UNL A   1      33.793  30.707  27.740  1.00  0.00     0.044 C 
BRANCH  14  23
ATOM     23  C   UNL A   1      29.824  27.180  23.702  1.00  0.00     0.122 C 
ATOM     24  C   UNL A   1      28.449  26.577  23.918  1.00  0.00     0.028 C 
ENDBRANCH  14  23
ENDBRANCH   8  13
ENDBRANCH   5   7
ENDBRANCH   4   5
ENDBRANCH   3   4
ENDBRANCH   2   3
ENDBRANCH   1   2
BRANCH   1  25
ATOM     25  C   UNL A   1      38.214  22.176  25.792  1.00  0.00     0.202 C 
BRANCH  25  26
ATOM     26  C   UNL A   1      39.591  21.812  26.382  1.00  0.00     0.261 C 
BRANCH  26  27
ATOM     27  O   UNL A   1      40.462  22.949  26.419  1.00  0.00    -0.460 OA
BRANCH  27  28
ATOM     28  C   UNL A   1      41.111  23.126  27.610  1.00  0.00     0.338 C 
ATOM     29  O   UNL A   1      41.800  22.340  28.202  1.00  0.00    -0.246 OA
BRANCH  28  30
ATOM     30  C   UNL A   1      41.155  24.594  27.793  1.00  0.00     0.060 A 
ATOM     31  C   UNL A   1      42.047  25.182  28.690  1.00  0.00     0.016 A 
ATOM     32  C   UNL A   1      40.062  25.308  27.274  1.00  0.00     0.016 A 
ATOM     33  C   UNL A   1      41.802  26.481  29.118  1.00  0.00     0.010 A 
ATOM     34  C   UNL A   1      39.790  26.586  27.747  1.00  0.00     0.010 A 
ATOM     35  C   UNL A   1      40.650  27.165  28.683  1.00  0.00    -0.014 A 
BRANCH  35  36
ATOM     36  C   UNL A   1      40.532  28.584  29.019  1.00  0.00     0.031 A 
ATOM     37  C   UNL A   1      41.652  29.384  28.456  1.00  0.00     0.074 A 
ATOM     38  C   UNL A   1      39.487  29.202  29.608  1.00  0.00     0.049 A 
ATOM     39  N   UNL A   1      42.522  30.095  29.092  1.00  0.00    -0.248 NA
ATOM     40  C   UNL A   1      41.903  29.270  27.009  1.00  0.00     0.031 C 
ATOM     41  C   UNL A   1      38.175  28.639  29.933  1.00  0.00     0.029 A 
ATOM     42  N   UNL A   1      39.350  30.523  29.947  1.00  0.00    -0.354 N 
ATOM     43  C   UNL A   1      43.344  30.644  28.114  1.00  0.00     0.074 A 
ATOM     44  C   UNL A   1      43.014  29.992  26.875  1.00  0.00     0.031 C 
ATOM     45  C   UNL A   1      37.311  29.648  30.203  1.00  0.00     0.029 A 
ATOM     46  C   UNL A   1      38.040  30.907  30.211  1.00  0.00     0.049 A 
ATOM     47  H   UNL A   1      40.110  31.145  29.997  1.00  0.00     0.167 HD
ATOM     48  C   UNL A   1      44.075  31.766  28.344  1.00  0.00     0.031 A 
ATOM     49  C   UNL A   1      37.582  32.172  30.381  1.00  0.00     0.031 A 
ATOM     50  C   UNL A   1      44.187  32.055  29.746  1.00  0.00     0.049 A 
ATOM     51  C   UNL A   1      38.716  33.036  30.766  1.00  0.00     0.074 A 
ATOM     52  C   UNL A   1      44.898  31.555  30.812  1.00  0.00     0.029 A 
ATOM     53  N   UNL A   1      43.168  32.817  30.249  1.00  0.00    -0.354 N 
ATOM     54  N   UNL A   1      39.344  32.934  31.900  1.00  0.00    -0.248 NA
ATOM     55  C   UNL A   1      39.353  33.890  29.771  1.00  0.00     0.031 C 
ATOM     56  C   UNL A   1      44.125  31.857  31.972  1.00  0.00     0.029 A 
ATOM     57  C   UNL A   1      42.982  32.550  31.580  1.00  0.00     0.049 A 
ATOM     58  H   UNL A   1      42.642  33.466  29.728  1.00  0.00     0.167 HD
ATOM     59  C   UNL A   1      40.632  33.334  31.611  1.00  0.00     0.074 A 
ATOM     60  C   UNL A   1      40.531  34.087  30.368  1.00  0.00     0.031 C 
ATOM     61  C   UNL A   1      41.697  32.744  32.221  1.00  0.00     0.031 A 
BRANCH  48  62
ATOM     62  C   UNL A   1      44.287  32.838  27.301  1.00  0.00    -0.014 A 
ATOM     63  C   UNL A   1      44.672  32.565  25.973  1.00  0.00     0.009 A 
ATOM     64  C   UNL A   1      43.810  34.137  27.561  1.00  0.00     0.009 A 
ATOM     65  C   UNL A   1      44.585  33.523  24.960  1.00  0.00     0.001 A 
ATOM     66  C   UNL A   1      43.687  35.088  26.541  1.00  0.00     0.001 A 
ATOM     67  C   UNL A   1      44.072  34.780  25.240  1.00  0.00     0.000 A 
ENDBRANCH  48  62
BRANCH  49  68
ATOM     68  C   UNL A   1      36.280  32.770  30.011  1.00  0.00    -0.014 A 
ATOM     69  C   UNL A   1      36.098  33.302  28.725  1.00  0.00     0.009 A 
ATOM     70  C   UNL A   1      35.348  33.121  31.005  1.00  0.00     0.009 A 
ATOM     71  C   UNL A   1      35.064  34.206  28.456  1.00  0.00     0.001 A 
ATOM     72  C   UNL A   1      34.314  34.026  30.737  1.00  0.00     0.001 A 
ATOM     73  C   UNL A   1      34.185  34.585  29.468  1.00  0.00     0.000 A 
ENDBRANCH  49  68
BRANCH  61  74
ATOM     74  C   UNL A   1      41.460  32.040  33.529  1.00  0.00    -0.014 A 
ATOM     75  C   UNL A   1      41.280  30.648  33.500  1.00  0.00     0.009 A 
ATOM     76  C   UNL A   1      41.301  32.710  34.752  1.00  0.00     0.009 A 
ATOM     77  C   UNL A   1      40.934  29.946  34.655  1.00  0.00     0.001 A 
ATOM     78  C   UNL A   1      40.981  32.002  35.916  1.00  0.00     0.001 A 
ATOM     79  C   UNL A   1      40.787  30.623  35.863  1.00  0.00     0.000 A 
ENDBRANCH  61  74
ENDBRANCH  35  36
ENDBRANCH  28  30
ENDBRANCH  27  28
ENDBRANCH  26  27
ENDBRANCH  25  26
ENDBRANCH   1  25
TORSDOF 16
ENDMDL
MODEL 3
REMARK VINA RESULT:     -10.9      2.167      3.988
REMARK SMILES CCn1c(N2CCC(C(=O)OCCOCCOC(=O)c3ccc(-c4c5nc(c(-c6ccccc6)c6ccc([nH]6)c(-c6ccccc6)c6nc(c(-c7ccccc7)c7ccc4[nH]7)C=C6)C=C5)cc3)CC2)nc2cc(C)ccc21
REMARK SMILES IDX 14 1 13 2 12 3 11 4 9 5 10 6 8 7 5 8 6 9 69 10 7 11 68 12
REMARK SMILES IDX 4 13 3 14 77 15 70 16 71 17 76 18 72 19 75 20 73 21 74 22
REMARK SMILES IDX 2 23 1 24 15 25 16 26 17 27 18 28 19 29 20 30 21 31 67 32
REMARK SMILES IDX 22 33 66 34 23 35 24 36 25 37 60 38 26 39 65 40 59 41 61 42
REMARK SMILES IDX 27 43 64 44 58 45 57 46 28 48 50 49 35 50 49 51 36 52 39 53
REMARK SMILES IDX 48 54 62 55 37 56 38 57 47 59 63 60 40 61 29 62 30 63 34 64
REMARK SMILES IDX 31 65 33 66 32 67 51 68 52 69 56 70 53 71 55 72 54 73 41 74
REMARK SMILES IDX 42 75 46 76 43 77 45 78 44 79
REMARK H PARENT 61 47 39 58
REMARK Flexibility Score: inf
ROOT
ATOM      1  O   UNL A   1      32.567  28.296  25.022  1.00  0.00    -0.374 OA
ENDROOT
BRANCH   1   2
ATOM      2  C   UNL A   1      31.947  27.466  25.995  1.00  0.00     0.202 C 
BRANCH   2   3
ATOM      3  C   UNL A   1      30.767  26.578  25.588  1.00  0.00     0.261 C 
BRANCH   3   4
ATOM      4  O   UNL A   1      31.054  25.177  25.641  1.00  0.00    -0.463 OA
BRANCH   4   5
ATOM      5  C   UNL A   1      31.264  24.621  24.423  1.00  0.00     0.309 C 
ATOM      6  O   UNL A   1      30.469  24.641  23.489  1.00  0.00    -0.252 OA
BRANCH   5   7
ATOM      7  C   UNL A   1      32.577  23.898  24.320  1.00  0.00     0.103 C 
ATOM      8  N   UNL A   1      35.209  22.927  24.766  1.00  0.00    -0.342 N 
ATOM      9  C   UNL A   1      34.935  23.660  23.528  1.00  0.00     0.120 C 
ATOM     10  C   UNL A   1      34.093  22.418  25.558  1.00  0.00     0.120 C 
ATOM     11  C   UNL A   1      33.751  24.621  23.662  1.00  0.00     0.037 C 
ATOM     12  C   UNL A   1      32.996  23.451  25.711  1.00  0.00     0.037 C 
BRANCH   8  13
ATOM     13  C   UNL A   1      36.425  23.065  25.344  1.00  0.00     0.206 A 
ATOM     14  N   UNL A   1      37.397  22.083  25.329  1.00  0.00    -0.310 N 
ATOM     15  C   UNL A   1      38.472  22.560  26.066  1.00  0.00     0.070 A 
ATOM     16  N   UNL A   1      36.855  24.146  25.960  1.00  0.00    -0.213 NA
ATOM     17  C   UNL A   1      38.100  23.842  26.441  1.00  0.00     0.091 A 
ATOM     18  C   UNL A   1      39.712  22.003  26.400  1.00  0.00     0.029 A 
ATOM     19  C   UNL A   1      38.988  24.617  27.208  1.00  0.00     0.034 A 
ATOM     20  C   UNL A   1      40.581  22.784  27.167  1.00  0.00     0.006 A 
ATOM     21  C   UNL A   1      40.234  24.077  27.577  1.00  0.00    -0.049 A 
ATOM     22  C   UNL A   1      41.180  24.886  28.415  1.00  0.00     0.044 C 
BRANCH  14  23
ATOM     23  C   UNL A   1      37.511  20.843  24.583  1.00  0.00     0.122 C 
ATOM     24  C   UNL A   1      36.666  19.626  24.905  1.00  0.00     0.028 C 
ENDBRANCH  14  23
ENDBRANCH   8  13
ENDBRANCH   5   7
ENDBRANCH   4   5
ENDBRANCH   3   4
ENDBRANCH   2   3
ENDBRANCH   1   2
BRANCH   1  25
ATOM     25  C   UNL A   1      32.890  29.643  25.380  1.00  0.00     0.202 C 
BRANCH  25  26
ATOM     26  C   UNL A   1      32.620  30.126  26.818  1.00  0.00     0.261 C 
BRANCH  26  27
ATOM     27  O   UNL A   1      33.786  29.998  27.642  1.00  0.00    -0.460 OA
BRANCH  27  28
ATOM     28  C   UNL A   1      34.472  31.165  27.837  1.00  0.00     0.338 C 
ATOM     29  O   UNL A   1      34.051  32.211  28.250  1.00  0.00    -0.246 OA
BRANCH  28  30
ATOM     30  C   UNL A   1      35.895  30.759  27.859  1.00  0.00     0.060 A 
ATOM     31  C   UNL A   1      36.273  29.443  27.590  1.00  0.00     0.016 A 
ATOM     32  C   UNL A   1      36.780  31.664  28.468  1.00  0.00     0.016 A 
ATOM     33  C   UNL A   1      37.532  29.017  27.994  1.00  0.00     0.010 A 
ATOM     34  C   UNL A   1      38.016  31.218  28.919  1.00  0.00     0.010 A 
ATOM     35  C   UNL A   1      38.385  29.889  28.698  1.00  0.00    -0.014 A 
BRANCH  35  36
ATOM     36  C   UNL A   1      39.759  29.450  28.942  1.00  0.00     0.031 A 
ATOM     37  C   UNL A   1      40.062  29.352  30.395  1.00  0.00     0.074 A 
ATOM     38  C   UNL A   1      40.649  29.003  28.032  1.00  0.00     0.049 A 
ATOM     39  N   UNL A   1      40.962  29.990  31.065  1.00  0.00    -0.248 NA
ATOM     40  C   UNL A   1      39.160  28.529  31.219  1.00  0.00     0.031 C 
ATOM     41  C   UNL A   1      40.422  28.723  26.613  1.00  0.00     0.029 A 
ATOM     42  N   UNL A   1      41.943  28.596  28.224  1.00  0.00    -0.354 N 
ATOM     43  C   UNL A   1      40.842  29.538  32.375  1.00  0.00     0.074 A 
ATOM     44  C   UNL A   1      39.634  28.760  32.441  1.00  0.00     0.031 C 
ATOM     45  C   UNL A   1      41.454  27.988  26.132  1.00  0.00     0.029 A 
ATOM     46  C   UNL A   1      42.473  27.870  27.163  1.00  0.00     0.049 A 
ATOM     47  H   UNL A   1      42.453  28.799  29.041  1.00  0.00     0.167 HD
ATOM     48  C   UNL A   1      41.869  29.635  33.260  1.00  0.00     0.031 A 
ATOM     49  C   UNL A   1      43.644  27.187  27.150  1.00  0.00     0.031 A 
ATOM     50  C   UNL A   1      42.875  30.559  32.815  1.00  0.00     0.049 A 
ATOM     51  C   UNL A   1      44.521  27.734  28.205  1.00  0.00     0.074 A 
ATOM     52  C   UNL A   1      43.008  31.926  32.738  1.00  0.00     0.029 A 
ATOM     53  N   UNL A   1      43.837  30.004  32.015  1.00  0.00    -0.354 N 
ATOM     54  N   UNL A   1      45.028  28.931  28.169  1.00  0.00    -0.248 NA
ATOM     55  C   UNL A   1      44.656  27.035  29.477  1.00  0.00     0.031 C 
ATOM     56  C   UNL A   1      43.935  32.170  31.682  1.00  0.00     0.029 A 
ATOM     57  C   UNL A   1      44.354  30.945  31.165  1.00  0.00     0.049 A 
ATOM     58  H   UNL A   1      44.117  29.061  32.046  1.00  0.00     0.167 HD
ATOM     59  C   UNL A   1      45.140  29.291  29.495  1.00  0.00     0.074 A 
ATOM     60  C   UNL A   1      45.091  28.040  30.239  1.00  0.00     0.031 C 
ATOM     61  C   UNL A   1      44.931  30.579  29.887  1.00  0.00     0.031 A 
BRANCH  48  62
ATOM     62  C   UNL A   1      42.181  28.566  34.280  1.00  0.00    -0.014 A 
ATOM     63  C   UNL A   1      41.627  28.545  35.576  1.00  0.00     0.009 A 
ATOM     64  C   UNL A   1      42.815  27.386  33.850  1.00  0.00     0.009 A 
ATOM     65  C   UNL A   1      41.695  27.416  36.397  1.00  0.00     0.001 A 
ATOM     66  C   UNL A   1      42.853  26.241  34.655  1.00  0.00     0.001 A 
ATOM     67  C   UNL A   1      42.290  26.256  35.927  1.00  0.00     0.000 A 
ENDBRANCH  48  62
BRANCH  49  68
ATOM     68  C   UNL A   1      44.005  25.930  26.459  1.00  0.00    -0.014 A 
ATOM     69  C   UNL A   1      43.252  25.502  25.354  1.00  0.00     0.009 A 
ATOM     70  C   UNL A   1      44.856  24.994  27.076  1.00  0.00     0.009 A 
ATOM     71  C   UNL A   1      43.294  24.171  24.923  1.00  0.00     0.001 A 
ATOM     72  C   UNL A   1      44.897  23.662  26.645  1.00  0.00     0.001 A 
ATOM     73  C   UNL A   1      44.099  23.246  25.582  1.00  0.00     0.000 A 
ENDBRANCH  49  68
BRANCH  61  74
ATOM     74  C   UNL A   1      45.072  31.662  28.852  1.00  0.00    -0.014 A 
ATOM     75  C   UNL A   1      44.038  31.813  27.915  1.00  0.00     0.009 A 
ATOM     76  C   UNL A   1      46.226  32.451  28.709  1.00  0.00     0.009 A 
ATOM     77  C   UNL A   1      44.158  32.712  26.855  1.00  0.00     0.001 A 
ATOM     78  C   UNL A   1      46.333  33.372  27.661  1.00  0.00     0.001 A 
ATOM     79  C   UNL A   1      45.304  33.492  26.730  1.00  0.00     0.000 A 
ENDBRANCH  61  74
ENDBRANCH  35  36
ENDBRANCH  28  30
ENDBRANCH  27  28
ENDBRANCH  26  27
ENDBRANCH  25  26
ENDBRANCH   1  25
TORSDOF 16
ENDMDL
