MODEL 1
REMARK VINA RESULT:      -9.8      0.000      0.000
REMARK SMILES CC1(C)[C@@H](C(=O)OCCOCCOC(=O)c2ccc(-c3c4nc(c(-c5ccccc5)c5ccc([nH]5)c(-c5ccccc5)c5nc(c(-c6ccccc6)c6ccc3[nH]6)C=C5)C=C4)cc2)[C@@H]1C(=O)N1CC[NH+](CCO)CC1
REMARK SMILES IDX 9 1 8 2 7 3 5 4 6 5 4 6 1 7 2 8 3 9 64 10 65 11 66 12 67 13
REMARK SMILES IDX 68 14 75 15 69 16 74 17 70 18 71 20 72 21 73 22 10 24 11 25
REMARK SMILES IDX 12 26 13 27 14 28 15 29 16 30 17 31 63 32 18 33 62 34 19 35
REMARK SMILES IDX 20 36 21 37 56 38 22 39 61 40 55 41 57 42 23 43 60 44 54 45
REMARK SMILES IDX 53 46 24 48 46 49 31 50 45 51 32 52 35 53 44 54 58 55 33 56
REMARK SMILES IDX 34 57 43 59 59 60 36 61 25 62 26 63 30 64 27 65 29 66 28 67
REMARK SMILES IDX 47 68 48 69 52 70 49 71 51 72 50 73 37 74 38 75 42 76 39 77
REMARK SMILES IDX 41 78 40 79
REMARK H PARENT 70 19 73 23 57 47 35 58
REMARK Flexibility Score: inf
ROOT
ATOM      1  C   UNL A   1      38.059  23.592  25.876  1.00  0.00     0.202 C 
ENDROOT
BRANCH   1   2
ATOM      2  C   UNL A   1      36.653  23.586  25.266  1.00  0.00     0.261 C 
BRANCH   2   3
ATOM      3  O   UNL A   1      35.610  23.649  26.250  1.00  0.00    -0.463 OA
BRANCH   3   4
ATOM      4  C   UNL A   1      34.608  22.760  26.034  1.00  0.00     0.310 C 
ATOM      5  O   UNL A   1      34.721  21.536  26.040  1.00  0.00    -0.252 OA
BRANCH   4   6
ATOM      6  C   UNL A   1      33.284  23.414  25.950  1.00  0.00     0.118 C 
ATOM      7  C   UNL A   1      33.391  23.288  23.327  1.00  0.00     0.013 C 
ATOM      8  C   UNL A   1      32.627  23.588  24.592  1.00  0.00    -0.009 C 
ATOM      9  C   UNL A   1      31.181  23.148  24.527  1.00  0.00     0.013 C 
ATOM     10  C   UNL A   1      33.071  24.809  25.419  1.00  0.00     0.100 C 
BRANCH  10  11
ATOM     11  C   UNL A   1      31.979  25.708  25.882  1.00  0.00     0.227 C 
ATOM     12  O   UNL A   1      31.461  25.494  26.971  1.00  0.00    -0.275 OA
ATOM     13  N   UNL A   1      31.746  26.845  25.129  1.00  0.00    -0.331 N 
ATOM     14  C   UNL A   1      31.350  28.045  25.849  1.00  0.00     0.181 C 
ATOM     15  C   UNL A   1      31.273  26.764  23.752  1.00  0.00     0.181 C 
ATOM     16  C   UNL A   1      31.691  29.315  25.053  1.00  0.00     0.284 C 
ATOM     17  C   UNL A   1      31.487  28.072  22.960  1.00  0.00     0.284 C 
ATOM     18  N   UNL A   1      31.223  29.340  23.660  1.00  0.00    -0.330 N 
ATOM     19  H   UNL A   1      31.810  30.026  23.182  1.00  0.00     0.348 HD
BRANCH  18  20
ATOM     20  C   UNL A   1      29.896  29.929  23.453  1.00  0.00     0.290 C 
BRANCH  20  21
ATOM     21  C   UNL A   1      29.227  29.829  22.074  1.00  0.00     0.217 C 
BRANCH  21  22
ATOM     22  O   UNL A   1      30.041  30.358  21.034  1.00  0.00    -0.391 OA
ATOM     23  H   UNL A   1      30.967  30.121  21.196  1.00  0.00     0.210 HD
ENDBRANCH  21  22
ENDBRANCH  20  21
ENDBRANCH  18  20
ENDBRANCH  10  11
ENDBRANCH   4   6
ENDBRANCH   3   4
ENDBRANCH   2   3
ENDBRANCH   1   2
BRANCH   1  24
ATOM     24  O   UNL A   1      38.762  22.358  25.971  1.00  0.00    -0.374 OA
BRANCH  24  25
ATOM     25  C   UNL A   1      38.259  21.229  25.259  1.00  0.00     0.202 C 
BRANCH  25  26
ATOM     26  C   UNL A   1      39.084  19.937  25.273  1.00  0.00     0.261 C 
BRANCH  26  27
ATOM     27  O   UNL A   1      39.914  19.831  26.446  1.00  0.00    -0.460 OA
BRANCH  27  28
ATOM     28  C   UNL A   1      41.241  19.759  26.184  1.00  0.00     0.338 C 
ATOM     29  O   UNL A   1      41.826  18.906  25.538  1.00  0.00    -0.246 OA
BRANCH  28  30
ATOM     30  C   UNL A   1      41.914  20.990  26.632  1.00  0.00     0.060 A 
ATOM     31  C   UNL A   1      42.003  21.205  28.013  1.00  0.00     0.016 A 
ATOM     32  C   UNL A   1      42.334  21.966  25.729  1.00  0.00     0.016 A 
ATOM     33  C   UNL A   1      42.456  22.426  28.500  1.00  0.00     0.010 A 
ATOM     34  C   UNL A   1      42.783  23.199  26.221  1.00  0.00     0.010 A 
ATOM     35  C   UNL A   1      42.800  23.448  27.606  1.00  0.00    -0.014 A 
BRANCH  35  36
ATOM     36  C   UNL A   1      43.001  24.819  28.133  1.00  0.00     0.031 A 
ATOM     37  C   UNL A   1      44.396  25.273  28.473  1.00  0.00     0.074 A 
ATOM     38  C   UNL A   1      41.969  25.675  28.240  1.00  0.00     0.049 A 
ATOM     39  N   UNL A   1      44.805  26.435  28.915  1.00  0.00    -0.248 NA
ATOM     40  C   UNL A   1      45.472  24.286  28.286  1.00  0.00     0.031 C 
ATOM     41  C   UNL A   1      40.581  25.374  27.894  1.00  0.00     0.029 A 
ATOM     42  N   UNL A   1      41.937  26.979  28.664  1.00  0.00    -0.354 N 
ATOM     43  C   UNL A   1      46.182  26.317  29.064  1.00  0.00     0.074 A 
ATOM     44  C   UNL A   1      46.534  24.962  28.700  1.00  0.00     0.031 C 
ATOM     45  C   UNL A   1      39.832  26.467  28.116  1.00  0.00     0.029 A 
ATOM     46  C   UNL A   1      40.681  27.531  28.647  1.00  0.00     0.049 A 
ATOM     47  H   UNL A   1      42.740  27.472  28.953  1.00  0.00     0.167 HD
ATOM     48  C   UNL A   1      47.076  27.254  29.460  1.00  0.00     0.031 A 
ATOM     49  C   UNL A   1      40.263  28.754  29.028  1.00  0.00     0.031 A 
ATOM     50  C   UNL A   1      46.729  28.600  29.830  1.00  0.00     0.049 A 
ATOM     51  C   UNL A   1      41.266  29.753  29.539  1.00  0.00     0.074 A 
ATOM     52  C   UNL A   1      47.565  29.627  30.231  1.00  0.00     0.029 A 
ATOM     53  N   UNL A   1      45.437  29.103  29.852  1.00  0.00    -0.354 N 
ATOM     54  N   UNL A   1      42.568  29.637  29.650  1.00  0.00    -0.248 NA
ATOM     55  C   UNL A   1      40.741  31.057  29.967  1.00  0.00     0.031 C 
ATOM     56  C   UNL A   1      46.773  30.735  30.552  1.00  0.00     0.029 A 
ATOM     57  C   UNL A   1      45.451  30.416  30.289  1.00  0.00     0.049 A 
ATOM     58  H   UNL A   1      44.631  28.601  29.593  1.00  0.00     0.167 HD
ATOM     59  C   UNL A   1      43.018  30.860  30.133  1.00  0.00     0.074 A 
ATOM     60  C   UNL A   1      41.853  31.708  30.277  1.00  0.00     0.031 C 
ATOM     61  C   UNL A   1      44.283  31.248  30.431  1.00  0.00     0.031 A 
BRANCH  48  62
ATOM     62  C   UNL A   1      48.519  26.840  29.546  1.00  0.00    -0.014 A 
ATOM     63  C   UNL A   1      49.395  27.005  28.461  1.00  0.00     0.009 A 
ATOM     64  C   UNL A   1      49.016  26.302  30.744  1.00  0.00     0.009 A 
ATOM     65  C   UNL A   1      50.730  26.608  28.563  1.00  0.00     0.001 A 
ATOM     66  C   UNL A   1      50.358  25.933  30.852  1.00  0.00     0.001 A 
ATOM     67  C   UNL A   1      51.211  26.077  29.760  1.00  0.00     0.000 A 
ENDBRANCH  48  62
BRANCH  49  68
ATOM     68  C   UNL A   1      38.819  29.102  28.959  1.00  0.00    -0.014 A 
ATOM     69  C   UNL A   1      38.258  29.610  27.778  1.00  0.00     0.009 A 
ATOM     70  C   UNL A   1      38.000  28.952  30.089  1.00  0.00     0.009 A 
ATOM     71  C   UNL A   1      36.912  29.985  27.739  1.00  0.00     0.001 A 
ATOM     72  C   UNL A   1      36.648  29.299  30.038  1.00  0.00     0.001 A 
ATOM     73  C   UNL A   1      36.108  29.824  28.866  1.00  0.00     0.000 A 
ENDBRANCH  49  68
BRANCH  61  74
ATOM     74  C   UNL A   1      44.476  32.660  30.910  1.00  0.00    -0.014 A 
ATOM     75  C   UNL A   1      44.461  32.978  32.277  1.00  0.00     0.009 A 
ATOM     76  C   UNL A   1      44.712  33.683  29.977  1.00  0.00     0.009 A 
ATOM     77  C   UNL A   1      44.640  34.298  32.696  1.00  0.00     0.001 A 
ATOM     78  C   UNL A   1      44.921  34.996  30.401  1.00  0.00     0.001 A 
ATOM     79  C   UNL A   1      44.874  35.303  31.760  1.00  0.00     0.000 A 
ENDBRANCH  61  74
ENDBRANCH  35  36
ENDBRANCH  28  30
ENDBRANCH  27  28
ENDBRANCH  26  27
ENDBRANCH  25  26
ENDBRANCH  24  25
ENDBRANCH   1  24
TORSDOF 18
ENDMDL
MODEL 2
REMARK VINA RESULT:      -9.6      3.712      8.979
REMARK SMILES CC1(C)[C@@H](C(=O)OCCOCCOC(=O)c2ccc(-c3c4nc(c(-c5ccccc5)c5ccc([nH]5)c(-c5ccccc5)c5nc(c(-c6ccccc6)c6ccc3[nH]6)C=C5)C=C4)cc2)[C@@H]1C(=O)N1CC[NH+](CCO)CC1
REMARK SMILES IDX 9 1 8 2 7 3 5 4 6 5 4 6 1 7 2 8 3 9 64 10 65 11 66 12 67 13
REMARK SMILES IDX 68 14 75 15 69 16 74 17 70 18 71 20 72 21 73 22 10 24 11 25
REMARK SMILES IDX 12 26 13 27 14 28 15 29 16 30 17 31 63 32 18 33 62 34 19 35
REMARK SMILES IDX 20 36 21 37 56 38 22 39 61 40 55 41 57 42 23 43 60 44 54 45
REMARK SMILES IDX 53 46 24 48 46 49 31 50 45 51 32 52 35 53 44 54 58 55 33 56
REMARK SMILES IDX 34 57 43 59 59 60 36 61 25 62 26 63 30 64 27 65 29 66 28 67
REMARK SMILES IDX 47 68 48 69 52 70 49 71 51 72 50 73 37 74 38 75 42 76 39 77
REMARK SMILES IDX 41 78 40 79
REMARK H PARENT 70 19 73 23 57 47 35 58
REMARK Flexibility Score: inf
ROOT
ATOM      1  C   UNL A   1      33.291  28.225  25.116  1.00  0.00     0.202 C 
ENDROOT
BRANCH   1   2
ATOM      2  C   UNL A   1      33.624  27.339  23.910  1.00  0.00     0.261 C 
BRANCH   2   3
ATOM      3  O   UNL A   1      32.914  26.093  23.911  1.00  0.00    -0.463 OA
BRANCH   3   4
ATOM      4  C   UNL A   1      33.348  25.220  22.967  1.00  0.00     0.310 C 
ATOM      5  O   UNL A   1      33.630  25.504  21.805  1.00  0.00    -0.252 OA
BRANCH   4   6
ATOM      6  C   UNL A   1      33.620  23.878  23.524  1.00  0.00     0.118 C 
ATOM      7  C   UNL A   1      31.042  23.367  23.542  1.00  0.00     0.013 C 
ATOM      8  C   UNL A   1      32.468  22.907  23.719  1.00  0.00    -0.009 C 
ATOM      9  C   UNL A   1      32.712  21.517  23.176  1.00  0.00     0.013 C 
ATOM     10  C   UNL A   1      33.249  23.461  24.925  1.00  0.00     0.100 C 
BRANCH  10  11
ATOM     11  C   UNL A   1      34.013  22.458  25.715  1.00  0.00     0.227 C 
ATOM     12  O   UNL A   1      33.400  21.556  26.273  1.00  0.00    -0.275 OA
ATOM     13  N   UNL A   1      35.392  22.502  25.612  1.00  0.00    -0.331 N 
ATOM     14  C   UNL A   1      36.099  21.231  25.648  1.00  0.00     0.181 C 
ATOM     15  C   UNL A   1      36.155  23.649  26.087  1.00  0.00     0.181 C 
ATOM     16  C   UNL A   1      37.468  21.332  24.957  1.00  0.00     0.284 C 
ATOM     17  C   UNL A   1      37.585  23.709  25.507  1.00  0.00     0.284 C 
ATOM     18  N   UNL A   1      38.326  22.441  25.397  1.00  0.00    -0.330 N 
ATOM     19  H   UNL A   1      38.991  22.595  24.638  1.00  0.00     0.348 HD
BRANCH  18  20
ATOM     20  C   UNL A   1      39.241  22.129  26.500  1.00  0.00     0.290 C 
BRANCH  20  21
ATOM     21  C   UNL A   1      40.460  21.229  26.244  1.00  0.00     0.217 C 
BRANCH  21  22
ATOM     22  O   UNL A   1      40.462  20.068  27.067  1.00  0.00    -0.391 OA
ATOM     23  H   UNL A   1      39.765  20.145  27.737  1.00  0.00     0.210 HD
ENDBRANCH  21  22
ENDBRANCH  20  21
ENDBRANCH  18  20
ENDBRANCH  10  11
ENDBRANCH   4   6
ENDBRANCH   3   4
ENDBRANCH   2   3
ENDBRANCH   1   2
BRANCH   1  24
ATOM     24  O   UNL A   1      32.932  29.583  24.881  1.00  0.00    -0.374 OA
BRANCH  24  25
ATOM     25  C   UNL A   1      31.674  30.050  25.364  1.00  0.00     0.202 C 
BRANCH  25  26
ATOM     26  C   UNL A   1      31.669  31.200  26.377  1.00  0.00     0.261 C 
BRANCH  26  27
ATOM     27  O   UNL A   1      32.645  31.014  27.420  1.00  0.00    -0.460 OA
BRANCH  27  28
ATOM     28  C   UNL A   1      33.491  32.060  27.584  1.00  0.00     0.338 C 
ATOM     29  O   UNL A   1      33.205  33.243  27.655  1.00  0.00    -0.246 OA
BRANCH  28  30
ATOM     30  C   UNL A   1      34.851  31.571  27.869  1.00  0.00     0.060 A 
ATOM     31  C   UNL A   1      35.024  30.186  27.981  1.00  0.00     0.016 A 
ATOM     32  C   UNL A   1      35.902  32.447  28.140  1.00  0.00     0.016 A 
ATOM     33  C   UNL A   1      36.236  29.671  28.429  1.00  0.00     0.010 A 
ATOM     34  C   UNL A   1      37.119  31.926  28.599  1.00  0.00     0.010 A 
ATOM     35  C   UNL A   1      37.272  30.540  28.789  1.00  0.00    -0.014 A 
BRANCH  35  36
ATOM     36  C   UNL A   1      38.437  29.995  29.527  1.00  0.00     0.031 A 
ATOM     37  C   UNL A   1      38.602  30.336  30.984  1.00  0.00     0.074 A 
ATOM     38  C   UNL A   1      39.296  29.148  28.932  1.00  0.00     0.049 A 
ATOM     39  N   UNL A   1      39.522  29.946  31.829  1.00  0.00    -0.248 NA
ATOM     40  C   UNL A   1      37.592  31.236  31.567  1.00  0.00     0.031 C 
ATOM     41  C   UNL A   1      39.215  28.698  27.544  1.00  0.00     0.029 A 
ATOM     42  N   UNL A   1      40.401  28.509  29.432  1.00  0.00    -0.354 N 
ATOM     43  C   UNL A   1      39.206  30.555  33.038  1.00  0.00     0.074 A 
ATOM     44  C   UNL A   1      38.032  31.368  32.809  1.00  0.00     0.031 C 
ATOM     45  C   UNL A   1      40.229  27.850  27.303  1.00  0.00     0.029 A 
ATOM     46  C   UNL A   1      41.045  27.722  28.509  1.00  0.00     0.049 A 
ATOM     47  H   UNL A   1      40.706  28.606  30.364  1.00  0.00     0.167 HD
ATOM     48  C   UNL A   1      39.831  30.442  34.233  1.00  0.00     0.031 A 
ATOM     49  C   UNL A   1      42.170  26.991  28.623  1.00  0.00     0.031 A 
ATOM     50  C   UNL A   1      41.003  29.640  34.462  1.00  0.00     0.049 A 
ATOM     51  C   UNL A   1      42.891  26.943  29.943  1.00  0.00     0.074 A 
ATOM     52  C   UNL A   1      41.702  29.450  35.642  1.00  0.00     0.029 A 
ATOM     53  N   UNL A   1      41.656  28.901  33.487  1.00  0.00    -0.354 N 
ATOM     54  N   UNL A   1      42.568  27.503  31.085  1.00  0.00    -0.248 NA
ATOM     55  C   UNL A   1      44.129  26.152  29.992  1.00  0.00     0.031 C 
ATOM     56  C   UNL A   1      42.811  28.643  35.368  1.00  0.00     0.029 A 
ATOM     57  C   UNL A   1      42.766  28.279  34.032  1.00  0.00     0.049 A 
ATOM     58  H   UNL A   1      41.371  28.830  32.548  1.00  0.00     0.167 HD
ATOM     59  C   UNL A   1      43.545  27.109  31.991  1.00  0.00     0.074 A 
ATOM     60  C   UNL A   1      44.462  26.250  31.271  1.00  0.00     0.031 C 
ATOM     61  C   UNL A   1      43.672  27.429  33.302  1.00  0.00     0.031 A 
BRANCH  48  62
ATOM     62  C   UNL A   1      39.275  31.236  35.382  1.00  0.00    -0.014 A 
ATOM     63  C   UNL A   1      38.246  30.730  36.193  1.00  0.00     0.009 A 
ATOM     64  C   UNL A   1      39.810  32.500  35.676  1.00  0.00     0.009 A 
ATOM     65  C   UNL A   1      37.742  31.489  37.251  1.00  0.00     0.001 A 
ATOM     66  C   UNL A   1      39.324  33.244  36.753  1.00  0.00     0.001 A 
ATOM     67  C   UNL A   1      38.284  32.742  37.533  1.00  0.00     0.000 A 
ENDBRANCH  48  62
BRANCH  49  68
ATOM     68  C   UNL A   1      42.701  26.253  27.447  1.00  0.00    -0.014 A 
ATOM     69  C   UNL A   1      43.569  26.876  26.539  1.00  0.00     0.009 A 
ATOM     70  C   UNL A   1      42.316  24.922  27.213  1.00  0.00     0.009 A 
ATOM     71  C   UNL A   1      44.020  26.191  25.407  1.00  0.00     0.001 A 
ATOM     72  C   UNL A   1      42.793  24.231  26.098  1.00  0.00     0.001 A 
ATOM     73  C   UNL A   1      43.636  24.869  25.190  1.00  0.00     0.000 A 
ENDBRANCH  49  68
BRANCH  61  74
ATOM     74  C   UNL A   1      44.826  26.821  34.052  1.00  0.00    -0.014 A 
ATOM     75  C   UNL A   1      44.704  25.586  34.706  1.00  0.00     0.009 A 
ATOM     76  C   UNL A   1      46.065  27.482  34.073  1.00  0.00     0.009 A 
ATOM     77  C   UNL A   1      45.790  25.044  35.398  1.00  0.00     0.001 A 
ATOM     78  C   UNL A   1      47.157  26.923  34.739  1.00  0.00     0.001 A 
ATOM     79  C   UNL A   1      47.014  25.710  35.410  1.00  0.00     0.000 A 
ENDBRANCH  61  74
ENDBRANCH  35  36
ENDBRANCH  28  30
ENDBRANCH  27  28
ENDBRANCH  26  27
ENDBRANCH  25  26
ENDBRANCH  24  25
ENDBRANCH   1  24
TORSDOF 18
ENDMDL
MODEL 3
REMARK VINA RESULT:      -9.4      5.153     10.267
REMARK SMILES CC1(C)[C@@H](C(=O)OCCOCCOC(=O)c2ccc(-c3c4nc(c(-c5ccccc5)c5ccc([nH]5)c(-c5ccccc5)c5nc(c(-c6ccccc6)c6ccc3[nH]6)C=C5)C=C4)cc2)[C@@H]1C(=O)N1CC[NH+](CCO)CC1
REMARK SMILES IDX 9 1 8 2 7 3 5 4 6 5 4 6 1 7 2 8 3 9 64 10 65 11 66 12 67 13
REMARK SMILES IDX 68 14 75 15 69 16 74 17 70 18 71 20 72 21 73 22 10 24 11 25
REMARK SMILES IDX 12 26 13 27 14 28 15 29 16 30 17 31 63 32 18 33 62 34 19 35
REMARK SMILES IDX 20 36 21 37 56 38 22 39 61 40 55 41 57 42 23 43 60 44 54 45
REMARK SMILES IDX 53 46 24 48 46 49 31 50 45 51 32 52 35 53 44 54 58 55 33 56
REMARK SMILES IDX 34 57 43 59 59 60 36 61 25 62 26 63 30 64 27 65 29 66 28 67
REMARK SMILES IDX 47 68 48 69 52 70 49 71 51 72 50 73 37 74 38 75 42 76 39 77
REMARK SMILES IDX 41 78 40 79
REMARK H PARENT 70 19 73 23 57 47 35 58
REMARK Flexibility Score: inf
ROOT
ATOM      1  C   UNL A   1      34.654  32.470  28.141  1.00  0.00     0.202 C 
ENDROOT
BRANCH   1   2
ATOM      2  C   UNL A   1      34.173  31.015  28.176  1.00  0.00     0.261 C 
BRANCH   2   3
ATOM      3  O   UNL A   1      34.104  30.411  26.877  1.00  0.00    -0.463 OA
BRANCH   3   4
ATOM      4  C   UNL A   1      32.835  30.214  26.438  1.00  0.00     0.310 C 
ATOM      5  O   UNL A   1      31.916  31.027  26.514  1.00  0.00    -0.252 OA
BRANCH   4   6
ATOM      6  C   UNL A   1      32.691  28.951  25.683  1.00  0.00     0.118 C 
ATOM      7  C   UNL A   1      31.306  27.926  27.668  1.00  0.00     0.013 C 
ATOM      8  C   UNL A   1      31.836  27.835  26.258  1.00  0.00    -0.009 C 
ATOM      9  C   UNL A   1      30.840  27.237  25.290  1.00  0.00     0.013 C 
ATOM     10  C   UNL A   1      33.355  27.657  26.080  1.00  0.00     0.100 C 
BRANCH  10  11
ATOM     11  C   UNL A   1      33.773  26.613  25.104  1.00  0.00     0.227 C 
ATOM     12  O   UNL A   1      34.025  26.949  23.954  1.00  0.00    -0.275 OA
ATOM     13  N   UNL A   1      34.030  25.352  25.613  1.00  0.00    -0.331 N 
ATOM     14  C   UNL A   1      35.105  24.595  24.991  1.00  0.00     0.181 C 
ATOM     15  C   UNL A   1      32.978  24.547  26.222  1.00  0.00     0.181 C 
ATOM     16  C   UNL A   1      35.678  23.543  25.953  1.00  0.00     0.284 C 
ATOM     17  C   UNL A   1      33.524  23.398  27.096  1.00  0.00     0.284 C 
ATOM     18  N   UNL A   1      34.694  22.658  26.592  1.00  0.00    -0.330 N 
ATOM     19  H   UNL A   1      35.150  22.293  27.429  1.00  0.00     0.348 HD
BRANCH  18  20
ATOM     20  C   UNL A   1      34.410  21.411  25.874  1.00  0.00     0.290 C 
BRANCH  20  21
ATOM     21  C   UNL A   1      35.429  20.869  24.860  1.00  0.00     0.217 C 
BRANCH  21  22
ATOM     22  O   UNL A   1      35.792  19.518  25.121  1.00  0.00    -0.391 OA
ATOM     23  H   UNL A   1      34.991  18.991  25.267  1.00  0.00     0.210 HD
ENDBRANCH  21  22
ENDBRANCH  20  21
ENDBRANCH  18  20
ENDBRANCH  10  11
ENDBRANCH   4   6
ENDBRANCH   3   4
ENDBRANCH   2   3
ENDBRANCH   1   2
BRANCH   1  24
ATOM     24  O   UNL A   1      33.678  33.506  28.155  1.00  0.00    -0.374 OA
BRANCH  24  25
ATOM     25  C   UNL A   1      34.093  34.832  28.476  1.00  0.00     0.202 C 
BRANCH  25  26
ATOM     26  C   UNL A   1      33.155  35.699  29.325  1.00  0.00     0.261 C 
BRANCH  26  27
ATOM     27  O   UNL A   1      32.579  34.967  30.424  1.00  0.00    -0.460 OA
BRANCH  27  28
ATOM     28  C   UNL A   1      32.776  35.537  31.637  1.00  0.00     0.338 C 
ATOM     29  O   UNL A   1      32.064  36.351  32.201  1.00  0.00    -0.246 OA
BRANCH  28  30
ATOM     30  C   UNL A   1      33.912  34.894  32.320  1.00  0.00     0.060 A 
ATOM     31  C   UNL A   1      35.136  35.575  32.308  1.00  0.00     0.016 A 
ATOM     32  C   UNL A   1      33.816  33.607  32.849  1.00  0.00     0.016 A 
ATOM     33  C   UNL A   1      36.287  34.946  32.769  1.00  0.00     0.010 A 
ATOM     34  C   UNL A   1      34.978  32.972  33.305  1.00  0.00     0.010 A 
ATOM     35  C   UNL A   1      36.223  33.622  33.223  1.00  0.00    -0.014 A 
BRANCH  35  36
ATOM     36  C   UNL A   1      37.489  32.880  33.435  1.00  0.00     0.031 A 
ATOM     37  C   UNL A   1      38.254  33.093  34.714  1.00  0.00     0.074 A 
ATOM     38  C   UNL A   1      37.916  31.974  32.537  1.00  0.00     0.049 A 
ATOM     39  N   UNL A   1      39.361  32.528  35.123  1.00  0.00    -0.248 NA
ATOM     40  C   UNL A   1      37.693  34.072  35.660  1.00  0.00     0.031 C 
ATOM     41  C   UNL A   1      37.238  31.638  31.287  1.00  0.00     0.029 A 
ATOM     42  N   UNL A   1      39.022  31.163  32.552  1.00  0.00    -0.354 N 
ATOM     43  C   UNL A   1      39.632  33.085  36.366  1.00  0.00     0.074 A 
ATOM     44  C   UNL A   1      38.594  34.057  36.631  1.00  0.00     0.031 C 
ATOM     45  C   UNL A   1      37.943  30.685  30.654  1.00  0.00     0.029 A 
ATOM     46  C   UNL A   1      39.134  30.367  31.439  1.00  0.00     0.049 A 
ATOM     47  H   UNL A   1      39.674  31.153  33.290  1.00  0.00     0.167 HD
ATOM     48  C   UNL A   1      40.648  32.807  37.217  1.00  0.00     0.031 A 
ATOM     49  C   UNL A   1      40.095  29.490  31.090  1.00  0.00     0.031 A 
ATOM     50  C   UNL A   1      41.686  31.846  36.955  1.00  0.00     0.049 A 
ATOM     51  C   UNL A   1      41.256  29.257  32.019  1.00  0.00     0.074 A 
ATOM     52  C   UNL A   1      42.750  31.484  37.761  1.00  0.00     0.029 A 
ATOM     53  N   UNL A   1      41.793  31.101  35.791  1.00  0.00    -0.354 N 
ATOM     54  N   UNL A   1      41.487  29.771  33.203  1.00  0.00    -0.248 NA
ATOM     55  C   UNL A   1      42.286  28.311  31.564  1.00  0.00     0.031 C 
ATOM     56  C   UNL A   1      43.535  30.562  37.061  1.00  0.00     0.029 A 
ATOM     57  C   UNL A   1      42.923  30.303  35.845  1.00  0.00     0.049 A 
ATOM     58  H   UNL A   1      41.159  31.134  35.038  1.00  0.00     0.167 HD
ATOM     59  C   UNL A   1      42.669  29.190  33.645  1.00  0.00     0.074 A 
ATOM     60  C   UNL A   1      43.099  28.273  32.610  1.00  0.00     0.031 C 
ATOM     61  C   UNL A   1      43.341  29.397  34.805  1.00  0.00     0.031 A 
BRANCH  48  62
ATOM     62  C   UNL A   1      40.703  33.583  38.505  1.00  0.00    -0.014 A 
ATOM     63  C   UNL A   1      41.391  34.803  38.596  1.00  0.00     0.009 A 
ATOM     64  C   UNL A   1      40.031  33.097  39.637  1.00  0.00     0.009 A 
ATOM     65  C   UNL A   1      41.432  35.503  39.804  1.00  0.00     0.001 A 
ATOM     66  C   UNL A   1      40.050  33.813  40.836  1.00  0.00     0.001 A 
ATOM     67  C   UNL A   1      40.758  35.009  40.920  1.00  0.00     0.000 A 
ENDBRANCH  48  62
BRANCH  49  68
ATOM     68  C   UNL A   1      40.014  28.776  29.789  1.00  0.00    -0.014 A 
ATOM     69  C   UNL A   1      39.388  27.524  29.694  1.00  0.00     0.009 A 
ATOM     70  C   UNL A   1      40.589  29.336  28.636  1.00  0.00     0.009 A 
ATOM     71  C   UNL A   1      39.363  26.836  28.478  1.00  0.00     0.001 A 
ATOM     72  C   UNL A   1      40.536  28.659  27.416  1.00  0.00     0.001 A 
ATOM     73  C   UNL A   1      39.933  27.405  27.340  1.00  0.00     0.000 A 
ENDBRANCH  49  68
BRANCH  61  74
ATOM     74  C   UNL A   1      44.592  28.594  35.031  1.00  0.00    -0.014 A 
ATOM     75  C   UNL A   1      44.542  27.294  35.558  1.00  0.00     0.009 A 
ATOM     76  C   UNL A   1      45.838  29.136  34.676  1.00  0.00     0.009 A 
ATOM     77  C   UNL A   1      45.719  26.570  35.761  1.00  0.00     0.001 A 
ATOM     78  C   UNL A   1      47.009  28.398  34.852  1.00  0.00     0.001 A 
ATOM     79  C   UNL A   1      46.949  27.120  35.404  1.00  0.00     0.000 A 
ENDBRANCH  61  74
ENDBRANCH  35  36
ENDBRANCH  28  30
ENDBRANCH  27  28
ENDBRANCH  26  27
ENDBRANCH  25  26
ENDBRANCH  24  25
ENDBRANCH   1  24
TORSDOF 18
ENDMDL
