MODEL 1
REMARK VINA RESULT:     -12.5      0.000      0.000
REMARK SMILES CS(=O)(=O)c1ccc(/C=C(/C(=O)OCCOCCOC(=O)c2ccc(-c3c4nc(c(-c5ccccc5)c5ccc([nH]5)c(-c5ccccc5)c5nc(c(-c6ccccc6)c6ccc3[nH]6)C=C5)C=C4)cc2)c2ccc(-c3ccc(F)cc3F)cc2)cc1
REMARK SMILES IDX 16 1 15 2 14 3 13 4 11 5 12 6 10 7 9 8 8 9 5 10 6 11 85 12
REMARK SMILES IDX 7 13 84 14 2 15 1 16 3 17 4 18 70 19 71 20 83 21 72 22 82 23
REMARK SMILES IDX 73 24 74 25 75 26 80 27 76 28 79 29 81 30 77 31 78 32 17 33
REMARK SMILES IDX 18 34 19 35 20 36 21 37 22 38 23 39 69 40 24 41 68 42 25 43
REMARK SMILES IDX 26 44 27 45 62 46 28 47 67 48 61 49 63 50 29 51 66 52 60 53
REMARK SMILES IDX 59 54 30 56 52 57 37 58 51 59 38 60 41 61 50 62 64 63 39 64
REMARK SMILES IDX 40 65 49 67 65 68 42 69 31 70 32 71 36 72 33 73 35 74 34 75
REMARK SMILES IDX 53 76 54 77 58 78 55 79 57 80 56 81 43 82 44 83 48 84 45 85
REMARK SMILES IDX 47 86 46 87
REMARK H PARENT 63 55 41 66
REMARK Flexibility Score: inf
ROOT
ATOM      1  O   UNL A   1      35.613  21.106  26.194  1.00  0.00    -0.374 OA
ENDROOT
BRANCH   1   2
ATOM      2  C   UNL A   1      34.231  21.467  26.173  1.00  0.00     0.202 C 
BRANCH   2   3
ATOM      3  C   UNL A   1      33.807  22.670  27.021  1.00  0.00     0.261 C 
BRANCH   3   4
ATOM      4  O   UNL A   1      33.374  23.768  26.195  1.00  0.00    -0.460 OA
BRANCH   4   5
ATOM      5  C   UNL A   1      32.109  24.195  26.443  1.00  0.00     0.338 C 
ATOM      6  O   UNL A   1      31.379  23.776  27.331  1.00  0.00    -0.246 OA
BRANCH   5   7
ATOM      7  C   UNL A   1      31.729  25.353  25.575  1.00  0.00     0.067 C 
ATOM      8  C   UNL A   1      30.790  25.214  24.608  1.00  0.00     0.024 C 
BRANCH   8   9
ATOM      9  C   UNL A   1      30.106  26.297  23.853  1.00  0.00    -0.025 A 
ATOM     10  C   UNL A   1      28.797  28.572  22.848  1.00  0.00     0.067 A 
ATOM     11  C   UNL A   1      30.114  28.313  22.477  1.00  0.00     0.021 A 
ATOM     12  C   UNL A   1      28.087  27.650  23.615  1.00  0.00     0.021 A 
ATOM     13  C   UNL A   1      30.748  27.163  22.954  1.00  0.00     0.009 A 
ATOM     14  C   UNL A   1      28.744  26.519  24.115  1.00  0.00     0.009 A 
BRANCH  10  15
ATOM     15  S   UNL A   1      28.048  30.103  22.348  1.00  0.00     0.175 S 
ATOM     16  C   UNL A   1      29.265  31.326  22.779  1.00  0.00     0.163 C 
ATOM     17  O   UNL A   1      26.887  30.324  23.196  1.00  0.00    -0.224 OA
ATOM     18  O   UNL A   1      27.925  30.067  20.907  1.00  0.00    -0.224 OA
ENDBRANCH  10  15
ENDBRANCH   8   9
BRANCH   7  19
ATOM     19  C   UNL A   1      32.351  26.648  25.907  1.00  0.00    -0.011 A 
ATOM     20  C   UNL A   1      31.832  27.419  26.956  1.00  0.00     0.009 A 
ATOM     21  C   UNL A   1      33.504  27.076  25.250  1.00  0.00     0.009 A 
ATOM     22  C   UNL A   1      32.500  28.566  27.389  1.00  0.00     0.009 A 
ATOM     23  C   UNL A   1      34.172  28.221  25.692  1.00  0.00     0.009 A 
ATOM     24  C   UNL A   1      33.701  28.969  26.786  1.00  0.00    -0.015 A 
BRANCH  24  25
ATOM     25  C   UNL A   1      34.472  30.107  27.317  1.00  0.00     0.018 A 
ATOM     26  C   UNL A   1      35.846  29.970  27.603  1.00  0.00     0.015 A 
ATOM     27  C   UNL A   1      33.891  31.370  27.519  1.00  0.00     0.133 A 
ATOM     28  C   UNL A   1      36.596  31.056  28.063  1.00  0.00     0.040 A 
ATOM     29  C   UNL A   1      34.631  32.457  27.973  1.00  0.00     0.079 A 
ATOM     30  F   UNL A   1      32.586  31.562  27.268  1.00  0.00    -0.206 F 
ATOM     31  C   UNL A   1      35.980  32.288  28.239  1.00  0.00     0.126 A 
ATOM     32  F   UNL A   1      36.704  33.330  28.667  1.00  0.00    -0.207 F 
ENDBRANCH  24  25
ENDBRANCH   7  19
ENDBRANCH   5   7
ENDBRANCH   4   5
ENDBRANCH   3   4
ENDBRANCH   2   3
ENDBRANCH   1   2
BRANCH   1  33
ATOM     33  C   UNL A   1      36.167  20.540  25.011  1.00  0.00     0.202 C 
BRANCH  33  34
ATOM     34  C   UNL A   1      37.690  20.361  24.951  1.00  0.00     0.261 C 
BRANCH  34  35
ATOM     35  O   UNL A   1      38.408  21.543  25.332  1.00  0.00    -0.460 OA
BRANCH  35  36
ATOM     36  C   UNL A   1      39.483  21.296  26.117  1.00  0.00     0.338 C 
ATOM     37  O   UNL A   1      40.165  20.281  26.144  1.00  0.00    -0.246 OA
BRANCH  36  38
ATOM     38  C   UNL A   1      39.862  22.509  26.861  1.00  0.00     0.060 A 
ATOM     39  C   UNL A   1      39.213  23.698  26.506  1.00  0.00     0.016 A 
ATOM     40  C   UNL A   1      40.884  22.509  27.813  1.00  0.00     0.016 A 
ATOM     41  C   UNL A   1      39.638  24.907  27.044  1.00  0.00     0.010 A 
ATOM     42  C   UNL A   1      41.313  23.728  28.350  1.00  0.00     0.010 A 
ATOM     43  C   UNL A   1      40.727  24.934  27.925  1.00  0.00    -0.014 A 
BRANCH  43  44
ATOM     44  C   UNL A   1      41.350  26.243  28.234  1.00  0.00     0.031 A 
ATOM     45  C   UNL A   1      42.657  26.596  27.576  1.00  0.00     0.074 A 
ATOM     46  C   UNL A   1      40.720  27.138  29.013  1.00  0.00     0.049 A 
ATOM     47  N   UNL A   1      43.336  27.713  27.628  1.00  0.00    -0.248 NA
ATOM     48  C   UNL A   1      43.278  25.553  26.743  1.00  0.00     0.031 C 
ATOM     49  C   UNL A   1      39.432  26.930  29.672  1.00  0.00     0.029 A 
ATOM     50  N   UNL A   1      41.078  28.415  29.364  1.00  0.00    -0.354 N 
ATOM     51  C   UNL A   1      44.460  27.507  26.838  1.00  0.00     0.074 A 
ATOM     52  C   UNL A   1      44.393  26.148  26.349  1.00  0.00     0.031 C 
ATOM     53  C   UNL A   1      39.101  28.048  30.341  1.00  0.00     0.029 A 
ATOM     54  C   UNL A   1      40.161  29.039  30.173  1.00  0.00     0.049 A 
ATOM     55  H   UNL A   1      41.912  28.843  29.063  1.00  0.00     0.167 HD
ATOM     56  C   UNL A   1      45.455  28.374  26.534  1.00  0.00     0.031 A 
ATOM     57  C   UNL A   1      40.178  30.271  30.715  1.00  0.00     0.031 A 
ATOM     58  C   UNL A   1      45.532  29.723  27.028  1.00  0.00     0.049 A 
ATOM     59  C   UNL A   1      41.326  31.196  30.410  1.00  0.00     0.074 A 
ATOM     60  C   UNL A   1      46.494  30.683  26.772  1.00  0.00     0.029 A 
ATOM     61  N   UNL A   1      44.609  30.300  27.886  1.00  0.00    -0.354 N 
ATOM     62  N   UNL A   1      42.367  30.999  29.638  1.00  0.00    -0.248 NA
ATOM     63  C   UNL A   1      41.287  32.522  31.042  1.00  0.00     0.031 C 
ATOM     64  C   UNL A   1      46.182  31.825  27.517  1.00  0.00     0.029 A 
ATOM     65  C   UNL A   1      44.992  31.595  28.189  1.00  0.00     0.049 A 
ATOM     66  H   UNL A   1      43.801  29.854  28.229  1.00  0.00     0.167 HD
ATOM     67  C   UNL A   1      43.091  32.184  29.668  1.00  0.00     0.074 A 
ATOM     68  C   UNL A   1      42.360  33.100  30.519  1.00  0.00     0.031 C 
ATOM     69  C   UNL A   1      44.256  32.490  29.045  1.00  0.00     0.031 A 
BRANCH  56  70
ATOM     70  C   UNL A   1      46.559  27.871  25.646  1.00  0.00    -0.014 A 
ATOM     71  C   UNL A   1      46.526  28.067  24.256  1.00  0.00     0.009 A 
ATOM     72  C   UNL A   1      47.658  27.207  26.212  1.00  0.00     0.009 A 
ATOM     73  C   UNL A   1      47.554  27.576  23.448  1.00  0.00     0.001 A 
ATOM     74  C   UNL A   1      48.698  26.742  25.405  1.00  0.00     0.001 A 
ATOM     75  C   UNL A   1      48.640  26.918  24.024  1.00  0.00     0.000 A 
ENDBRANCH  56  70
BRANCH  57  76
ATOM     76  C   UNL A   1      39.071  30.708  31.606  1.00  0.00    -0.014 A 
ATOM     77  C   UNL A   1      39.151  30.522  32.995  1.00  0.00     0.009 A 
ATOM     78  C   UNL A   1      37.916  31.292  31.065  1.00  0.00     0.009 A 
ATOM     79  C   UNL A   1      38.085  30.888  33.819  1.00  0.00     0.001 A 
ATOM     80  C   UNL A   1      36.863  31.684  31.894  1.00  0.00     0.001 A 
ATOM     81  C   UNL A   1      36.944  31.472  33.269  1.00  0.00     0.000 A 
ENDBRANCH  57  76
BRANCH  69  82
ATOM     82  C   UNL A   1      44.790  33.882  29.238  1.00  0.00    -0.014 A 
ATOM     83  C   UNL A   1      44.482  34.916  28.341  1.00  0.00     0.009 A 
ATOM     84  C   UNL A   1      45.602  34.165  30.348  1.00  0.00     0.009 A 
ATOM     85  C   UNL A   1      45.015  36.194  28.527  1.00  0.00     0.001 A 
ATOM     86  C   UNL A   1      46.106  35.450  30.549  1.00  0.00     0.001 A 
ATOM     87  C   UNL A   1      45.822  36.461  29.631  1.00  0.00     0.000 A 
ENDBRANCH  69  82
ENDBRANCH  43  44
ENDBRANCH  36  38
ENDBRANCH  35  36
ENDBRANCH  34  35
ENDBRANCH  33  34
ENDBRANCH   1  33
TORSDOF 18
ENDMDL
MODEL 2
REMARK VINA RESULT:     -12.1      4.488      9.549
REMARK SMILES CS(=O)(=O)c1ccc(/C=C(/C(=O)OCCOCCOC(=O)c2ccc(-c3c4nc(c(-c5ccccc5)c5ccc([nH]5)c(-c5ccccc5)c5nc(c(-c6ccccc6)c6ccc3[nH]6)C=C5)C=C4)cc2)c2ccc(-c3ccc(F)cc3F)cc2)cc1
REMARK SMILES IDX 16 1 15 2 14 3 13 4 11 5 12 6 10 7 9 8 8 9 5 10 6 11 85 12
REMARK SMILES IDX 7 13 84 14 2 15 1 16 3 17 4 18 70 19 71 20 83 21 72 22 82 23
REMARK SMILES IDX 73 24 74 25 75 26 80 27 76 28 79 29 81 30 77 31 78 32 17 33
REMARK SMILES IDX 18 34 19 35 20 36 21 37 22 38 23 39 69 40 24 41 68 42 25 43
REMARK SMILES IDX 26 44 27 45 62 46 28 47 67 48 61 49 63 50 29 51 66 52 60 53
REMARK SMILES IDX 59 54 30 56 52 57 37 58 51 59 38 60 41 61 50 62 64 63 39 64
REMARK SMILES IDX 40 65 49 67 65 68 42 69 31 70 32 71 36 72 33 73 35 74 34 75
REMARK SMILES IDX 53 76 54 77 58 78 55 79 57 80 56 81 43 82 44 83 48 84 45 85
REMARK SMILES IDX 47 86 46 87
REMARK H PARENT 63 55 41 66
REMARK Flexibility Score: inf
ROOT
ATOM      1  O   UNL A   1      31.727  28.668  24.970  1.00  0.00    -0.374 OA
ENDROOT
BRANCH   1   2
ATOM      2  C   UNL A   1      31.838  28.453  23.563  1.00  0.00     0.202 C 
BRANCH   2   3
ATOM      3  C   UNL A   1      31.393  27.091  23.023  1.00  0.00     0.261 C 
BRANCH   3   4
ATOM      4  O   UNL A   1      32.136  26.017  23.631  1.00  0.00    -0.460 OA
BRANCH   4   5
ATOM      5  C   UNL A   1      32.714  25.161  22.748  1.00  0.00     0.338 C 
ATOM      6  O   UNL A   1      33.041  25.437  21.602  1.00  0.00    -0.246 OA
BRANCH   5   7
ATOM      7  C   UNL A   1      33.035  23.843  23.377  1.00  0.00     0.067 C 
ATOM      8  C   UNL A   1      32.146  22.822  23.336  1.00  0.00     0.024 C 
BRANCH   8   9
ATOM      9  C   UNL A   1      32.399  21.392  23.659  1.00  0.00    -0.025 A 
ATOM     10  C   UNL A   1      33.242  18.728  23.961  1.00  0.00     0.067 A 
ATOM     11  C   UNL A   1      33.387  19.622  25.018  1.00  0.00     0.021 A 
ATOM     12  C   UNL A   1      32.573  19.112  22.800  1.00  0.00     0.021 A 
ATOM     13  C   UNL A   1      32.936  20.937  24.872  1.00  0.00     0.009 A 
ATOM     14  C   UNL A   1      32.156  20.442  22.654  1.00  0.00     0.009 A 
BRANCH  10  15
ATOM     15  S   UNL A   1      33.942  17.102  24.107  1.00  0.00     0.175 S 
ATOM     16  C   UNL A   1      32.891  16.297  25.293  1.00  0.00     0.163 C 
ATOM     17  O   UNL A   1      35.258  17.242  24.713  1.00  0.00    -0.224 OA
ATOM     18  O   UNL A   1      33.775  16.449  22.827  1.00  0.00    -0.224 OA
ENDBRANCH  10  15
ENDBRANCH   8   9
BRANCH   7  19
ATOM     19  C   UNL A   1      34.394  23.699  23.933  1.00  0.00    -0.011 A 
ATOM     20  C   UNL A   1      34.650  24.099  25.251  1.00  0.00     0.009 A 
ATOM     21  C   UNL A   1      35.407  23.089  23.194  1.00  0.00     0.009 A 
ATOM     22  C   UNL A   1      35.883  23.825  25.846  1.00  0.00     0.009 A 
ATOM     23  C   UNL A   1      36.637  22.812  23.796  1.00  0.00     0.009 A 
ATOM     24  C   UNL A   1      36.887  23.146  25.139  1.00  0.00    -0.015 A 
BRANCH  24  25
ATOM     25  C   UNL A   1      38.143  22.748  25.800  1.00  0.00     0.018 A 
ATOM     26  C   UNL A   1      38.862  23.669  26.589  1.00  0.00     0.015 A 
ATOM     27  C   UNL A   1      38.650  21.441  25.708  1.00  0.00     0.133 A 
ATOM     28  C   UNL A   1      40.028  23.288  27.257  1.00  0.00     0.040 A 
ATOM     29  C   UNL A   1      39.809  21.052  26.372  1.00  0.00     0.079 A 
ATOM     30  F   UNL A   1      38.014  20.519  24.968  1.00  0.00    -0.206 F 
ATOM     31  C   UNL A   1      40.487  21.983  27.143  1.00  0.00     0.126 A 
ATOM     32  F   UNL A   1      41.597  21.617  27.796  1.00  0.00    -0.207 F 
ENDBRANCH  24  25
ENDBRANCH   7  19
ENDBRANCH   5   7
ENDBRANCH   4   5
ENDBRANCH   3   4
ENDBRANCH   2   3
ENDBRANCH   1   2
BRANCH   1  33
ATOM     33  C   UNL A   1      31.425  29.985  25.417  1.00  0.00     0.202 C 
BRANCH  33  34
ATOM     34  C   UNL A   1      32.061  30.457  26.731  1.00  0.00     0.261 C 
BRANCH  34  35
ATOM     35  O   UNL A   1      33.493  30.503  26.675  1.00  0.00    -0.460 OA
BRANCH  35  36
ATOM     36  C   UNL A   1      34.038  31.472  27.448  1.00  0.00     0.338 C 
ATOM     37  O   UNL A   1      33.477  32.459  27.904  1.00  0.00    -0.246 OA
BRANCH  36  38
ATOM     38  C   UNL A   1      35.410  31.108  27.834  1.00  0.00     0.060 A 
ATOM     39  C   UNL A   1      35.678  29.745  28.011  1.00  0.00     0.016 A 
ATOM     40  C   UNL A   1      36.387  32.069  28.107  1.00  0.00     0.016 A 
ATOM     41  C   UNL A   1      36.899  29.341  28.538  1.00  0.00     0.010 A 
ATOM     42  C   UNL A   1      37.614  31.660  28.641  1.00  0.00     0.010 A 
ATOM     43  C   UNL A   1      37.850  30.299  28.908  1.00  0.00    -0.014 A 
BRANCH  43  44
ATOM     44  C   UNL A   1      38.996  29.868  29.744  1.00  0.00     0.031 A 
ATOM     45  C   UNL A   1      39.042  30.297  31.186  1.00  0.00     0.074 A 
ATOM     46  C   UNL A   1      39.930  29.035  29.255  1.00  0.00     0.049 A 
ATOM     47  N   UNL A   1      39.896  29.967  32.122  1.00  0.00    -0.248 NA
ATOM     48  C   UNL A   1      37.982  31.213  31.635  1.00  0.00     0.031 C 
ATOM     49  C   UNL A   1      39.970  28.517  27.888  1.00  0.00     0.029 A 
ATOM     50  N   UNL A   1      41.016  28.463  29.867  1.00  0.00    -0.354 N 
ATOM     51  C   UNL A   1      39.476  30.635  33.266  1.00  0.00     0.074 A 
ATOM     52  C   UNL A   1      38.316  31.417  32.900  1.00  0.00     0.031 C 
ATOM     53  C   UNL A   1      41.026  27.693  27.768  1.00  0.00     0.029 A 
ATOM     54  C   UNL A   1      41.742  27.642  29.040  1.00  0.00     0.049 A 
ATOM     55  H   UNL A   1      41.253  28.626  30.808  1.00  0.00     0.167 HD
ATOM     56  C   UNL A   1      39.999  30.592  34.515  1.00  0.00     0.031 A 
ATOM     57  C   UNL A   1      42.858  26.931  29.286  1.00  0.00     0.031 A 
ATOM     58  C   UNL A   1      41.159  29.825  34.879  1.00  0.00     0.049 A 
ATOM     59  C   UNL A   1      43.456  26.947  30.667  1.00  0.00     0.074 A 
ATOM     60  C   UNL A   1      41.763  29.709  36.119  1.00  0.00     0.029 A 
ATOM     61  N   UNL A   1      41.895  29.046  34.001  1.00  0.00    -0.354 N 
ATOM     62  N   UNL A   1      43.032  27.559  31.746  1.00  0.00    -0.248 NA
ATOM     63  C   UNL A   1      44.680  26.158  30.864  1.00  0.00     0.031 C 
ATOM     64  C   UNL A   1      42.896  28.900  35.979  1.00  0.00     0.029 A 
ATOM     65  C   UNL A   1      42.962  28.465  34.665  1.00  0.00     0.049 A 
ATOM     66  H   UNL A   1      41.690  28.924  33.046  1.00  0.00     0.167 HD
ATOM     67  C   UNL A   1      43.919  27.206  32.756  1.00  0.00     0.074 A 
ATOM     68  C   UNL A   1      44.892  26.311  32.163  1.00  0.00     0.031 C 
ATOM     69  C   UNL A   1      43.926  27.584  34.058  1.00  0.00     0.031 A 
BRANCH  56  70
ATOM     70  C   UNL A   1      39.331  31.430  35.569  1.00  0.00    -0.014 A 
ATOM     71  C   UNL A   1      38.265  30.928  36.333  1.00  0.00     0.009 A 
ATOM     72  C   UNL A   1      39.787  32.734  35.814  1.00  0.00     0.009 A 
ATOM     73  C   UNL A   1      37.647  31.730  37.297  1.00  0.00     0.001 A 
ATOM     74  C   UNL A   1      39.186  33.522  36.796  1.00  0.00     0.001 A 
ATOM     75  C   UNL A   1      38.111  33.024  37.530  1.00  0.00     0.000 A 
ENDBRANCH  56  70
BRANCH  57  76
ATOM     76  C   UNL A   1      43.491  26.139  28.198  1.00  0.00    -0.014 A 
ATOM     77  C   UNL A   1      44.395  26.738  27.306  1.00  0.00     0.009 A 
ATOM     78  C   UNL A   1      43.172  24.783  28.033  1.00  0.00     0.009 A 
ATOM     79  C   UNL A   1      44.945  26.000  26.256  1.00  0.00     0.001 A 
ATOM     80  C   UNL A   1      43.746  24.040  26.999  1.00  0.00     0.001 A 
ATOM     81  C   UNL A   1      44.624  24.651  26.106  1.00  0.00     0.000 A 
ENDBRANCH  57  76
BRANCH  69  82
ATOM     82  C   UNL A   1      45.003  27.004  34.932  1.00  0.00    -0.014 A 
ATOM     83  C   UNL A   1      46.230  27.660  35.116  1.00  0.00     0.009 A 
ATOM     84  C   UNL A   1      44.777  25.787  35.596  1.00  0.00     0.009 A 
ATOM     85  C   UNL A   1      47.225  27.086  35.910  1.00  0.00     0.001 A 
ATOM     86  C   UNL A   1      45.761  25.233  36.414  1.00  0.00     0.001 A 
ATOM     87  C   UNL A   1      46.989  25.877  36.560  1.00  0.00     0.000 A 
ENDBRANCH  69  82
ENDBRANCH  43  44
ENDBRANCH  36  38
ENDBRANCH  35  36
ENDBRANCH  34  35
ENDBRANCH  33  34
ENDBRANCH   1  33
TORSDOF 18
ENDMDL
MODEL 3
REMARK VINA RESULT:     -11.3      0.749      5.626
REMARK SMILES CS(=O)(=O)c1ccc(/C=C(/C(=O)OCCOCCOC(=O)c2ccc(-c3c4nc(c(-c5ccccc5)c5ccc([nH]5)c(-c5ccccc5)c5nc(c(-c6ccccc6)c6ccc3[nH]6)C=C5)C=C4)cc2)c2ccc(-c3ccc(F)cc3F)cc2)cc1
REMARK SMILES IDX 16 1 15 2 14 3 13 4 11 5 12 6 10 7 9 8 8 9 5 10 6 11 85 12
REMARK SMILES IDX 7 13 84 14 2 15 1 16 3 17 4 18 70 19 71 20 83 21 72 22 82 23
REMARK SMILES IDX 73 24 74 25 75 26 80 27 76 28 79 29 81 30 77 31 78 32 17 33
REMARK SMILES IDX 18 34 19 35 20 36 21 37 22 38 23 39 69 40 24 41 68 42 25 43
REMARK SMILES IDX 26 44 27 45 62 46 28 47 67 48 61 49 63 50 29 51 66 52 60 53
REMARK SMILES IDX 59 54 30 56 52 57 37 58 51 59 38 60 41 61 50 62 64 63 39 64
REMARK SMILES IDX 40 65 49 67 65 68 42 69 31 70 32 71 36 72 33 73 35 74 34 75
REMARK SMILES IDX 53 76 54 77 58 78 55 79 57 80 56 81 43 82 44 83 48 84 45 85
REMARK SMILES IDX 47 86 46 87
REMARK H PARENT 63 55 41 66
REMARK Flexibility Score: inf
ROOT
ATOM      1  O   UNL A   1      34.886  20.816  25.126  1.00  0.00    -0.374 OA
ENDROOT
BRANCH   1   2
ATOM      2  C   UNL A   1      34.948  21.866  26.092  1.00  0.00     0.202 C 
BRANCH   2   3
ATOM      3  C   UNL A   1      33.619  22.436  26.595  1.00  0.00     0.261 C 
BRANCH   3   4
ATOM      4  O   UNL A   1      33.258  23.635  25.883  1.00  0.00    -0.460 OA
BRANCH   4   5
ATOM      5  C   UNL A   1      32.051  24.154  26.227  1.00  0.00     0.338 C 
ATOM      6  O   UNL A   1      31.339  23.753  27.137  1.00  0.00    -0.246 OA
BRANCH   5   7
ATOM      7  C   UNL A   1      31.725  25.382  25.438  1.00  0.00     0.067 C 
ATOM      8  C   UNL A   1      30.764  25.356  24.484  1.00  0.00     0.024 C 
BRANCH   8   9
ATOM      9  C   UNL A   1      30.132  26.521  23.809  1.00  0.00    -0.025 A 
ATOM     10  C   UNL A   1      28.881  28.897  22.977  1.00  0.00     0.067 A 
ATOM     11  C   UNL A   1      30.228  28.690  22.692  1.00  0.00     0.021 A 
ATOM     12  C   UNL A   1      28.122  27.886  23.562  1.00  0.00     0.021 A 
ATOM     13  C   UNL A   1      30.836  27.492  23.080  1.00  0.00     0.009 A 
ATOM     14  C   UNL A   1      28.749  26.705  23.977  1.00  0.00     0.009 A 
BRANCH  10  15
ATOM     15  S   UNL A   1      28.156  30.475  22.603  1.00  0.00     0.175 S 
ATOM     16  C   UNL A   1      28.015  30.464  20.831  1.00  0.00     0.163 C 
ATOM     17  O   UNL A   1      29.125  31.500  22.958  1.00  0.00    -0.224 OA
ATOM     18  O   UNL A   1      26.825  30.477  23.170  1.00  0.00    -0.224 OA
ENDBRANCH  10  15
ENDBRANCH   8   9
BRANCH   7  19
ATOM     19  C   UNL A   1      32.426  26.617  25.835  1.00  0.00    -0.011 A 
ATOM     20  C   UNL A   1      31.946  27.372  26.913  1.00  0.00     0.009 A 
ATOM     21  C   UNL A   1      33.613  26.997  25.209  1.00  0.00     0.009 A 
ATOM     22  C   UNL A   1      32.683  28.452  27.405  1.00  0.00     0.009 A 
ATOM     23  C   UNL A   1      34.350  28.074  25.709  1.00  0.00     0.009 A 
ATOM     24  C   UNL A   1      33.915  28.801  26.832  1.00  0.00    -0.015 A 
BRANCH  24  25
ATOM     25  C   UNL A   1      34.752  29.861  27.422  1.00  0.00     0.018 A 
ATOM     26  C   UNL A   1      36.096  29.605  27.765  1.00  0.00     0.015 A 
ATOM     27  C   UNL A   1      34.269  31.164  27.627  1.00  0.00     0.133 A 
ATOM     28  C   UNL A   1      36.911  30.615  28.282  1.00  0.00     0.040 A 
ATOM     29  C   UNL A   1      35.075  32.176  28.138  1.00  0.00     0.079 A 
ATOM     30  F   UNL A   1      32.997  31.469  27.324  1.00  0.00    -0.206 F 
ATOM     31  C   UNL A   1      36.392  31.890  28.459  1.00  0.00     0.126 A 
ATOM     32  F   UNL A   1      37.179  32.860  28.941  1.00  0.00    -0.207 F 
ENDBRANCH  24  25
ENDBRANCH   7  19
ENDBRANCH   5   7
ENDBRANCH   4   5
ENDBRANCH   3   4
ENDBRANCH   2   3
ENDBRANCH   1   2
BRANCH   1  33
ATOM     33  C   UNL A   1      36.086  20.102  24.846  1.00  0.00     0.202 C 
BRANCH  33  34
ATOM     34  C   UNL A   1      37.378  20.913  24.683  1.00  0.00     0.261 C 
BRANCH  34  35
ATOM     35  O   UNL A   1      37.810  21.530  25.903  1.00  0.00    -0.460 OA
BRANCH  35  36
ATOM     36  C   UNL A   1      39.139  21.410  26.132  1.00  0.00     0.338 C 
ATOM     37  O   UNL A   1      39.877  20.508  25.762  1.00  0.00    -0.246 OA
BRANCH  36  38
ATOM     38  C   UNL A   1      39.660  22.630  26.771  1.00  0.00     0.060 A 
ATOM     39  C   UNL A   1      39.101  23.847  26.363  1.00  0.00     0.016 A 
ATOM     40  C   UNL A   1      40.725  22.600  27.675  1.00  0.00     0.016 A 
ATOM     41  C   UNL A   1      39.657  25.045  26.795  1.00  0.00     0.010 A 
ATOM     42  C   UNL A   1      41.286  23.808  28.106  1.00  0.00     0.010 A 
ATOM     43  C   UNL A   1      40.787  25.031  27.623  1.00  0.00    -0.014 A 
BRANCH  43  44
ATOM     44  C   UNL A   1      41.537  26.295  27.812  1.00  0.00     0.031 A 
ATOM     45  C   UNL A   1      40.998  27.320  28.774  1.00  0.00     0.074 A 
ATOM     46  C   UNL A   1      42.722  26.490  27.210  1.00  0.00     0.049 A 
ATOM     47  N   UNL A   1      41.528  28.451  29.164  1.00  0.00    -0.248 NA
ATOM     48  C   UNL A   1      39.692  27.026  29.385  1.00  0.00     0.031 C 
ATOM     49  C   UNL A   1      43.368  25.554  26.290  1.00  0.00     0.029 A 
ATOM     50  N   UNL A   1      43.603  27.538  27.302  1.00  0.00    -0.354 N 
ATOM     51  C   UNL A   1      40.621  29.002  30.061  1.00  0.00     0.074 A 
ATOM     52  C   UNL A   1      39.492  28.102  30.131  1.00  0.00     0.031 C 
ATOM     53  C   UNL A   1      44.551  26.069  25.909  1.00  0.00     0.029 A 
ATOM     54  C   UNL A   1      44.733  27.372  26.542  1.00  0.00     0.049 A 
ATOM     55  H   UNL A   1      43.439  28.332  27.860  1.00  0.00     0.167 HD
ATOM     56  C   UNL A   1      40.723  30.149  30.775  1.00  0.00     0.031 A 
ATOM     57  C   UNL A   1      45.795  28.184  26.377  1.00  0.00     0.031 A 
ATOM     58  C   UNL A   1      41.839  31.053  30.699  1.00  0.00     0.049 A 
ATOM     59  C   UNL A   1      45.857  29.482  27.136  1.00  0.00     0.074 A 
ATOM     60  C   UNL A   1      42.040  32.235  31.387  1.00  0.00     0.029 A 
ATOM     61  N   UNL A   1      42.942  30.874  29.878  1.00  0.00    -0.354 N 
ATOM     62  N   UNL A   1      45.006  29.977  28.003  1.00  0.00    -0.248 NA
ATOM     63  C   UNL A   1      47.037  30.325  26.903  1.00  0.00     0.031 C 
ATOM     64  C   UNL A   1      43.242  32.800  30.944  1.00  0.00     0.029 A 
ATOM     65  C   UNL A   1      43.816  31.937  30.025  1.00  0.00     0.049 A 
ATOM     66  H   UNL A   1      43.082  30.105  29.280  1.00  0.00     0.167 HD
ATOM     67  C   UNL A   1      45.563  31.173  28.440  1.00  0.00     0.074 A 
ATOM     68  C   UNL A   1      46.831  31.318  27.756  1.00  0.00     0.031 C 
ATOM     69  C   UNL A   1      45.071  32.069  29.330  1.00  0.00     0.031 A 
BRANCH  56  70
ATOM     70  C   UNL A   1      39.573  30.501  31.678  1.00  0.00    -0.014 A 
ATOM     71  C   UNL A   1      39.353  29.815  32.883  1.00  0.00     0.009 A 
ATOM     72  C   UNL A   1      38.708  31.548  31.325  1.00  0.00     0.009 A 
ATOM     73  C   UNL A   1      38.269  30.148  33.698  1.00  0.00     0.001 A 
ATOM     74  C   UNL A   1      37.642  31.897  32.155  1.00  0.00     0.001 A 
ATOM     75  C   UNL A   1      37.418  31.190  33.336  1.00  0.00     0.000 A 
ENDBRANCH  56  70
BRANCH  57  76
ATOM     76  C   UNL A   1      46.892  27.796  25.452  1.00  0.00    -0.014 A 
ATOM     77  C   UNL A   1      46.784  28.028  24.072  1.00  0.00     0.009 A 
ATOM     78  C   UNL A   1      48.046  27.169  25.947  1.00  0.00     0.009 A 
ATOM     79  C   UNL A   1      47.797  27.613  23.205  1.00  0.00     0.001 A 
ATOM     80  C   UNL A   1      49.070  26.781  25.080  1.00  0.00     0.001 A 
ATOM     81  C   UNL A   1      48.940  26.995  23.709  1.00  0.00     0.000 A 
ENDBRANCH  57  76
BRANCH  69  82
ATOM     82  C   UNL A   1      45.924  33.269  29.635  1.00  0.00    -0.014 A 
ATOM     83  C   UNL A   1      45.799  34.461  28.906  1.00  0.00     0.009 A 
ATOM     84  C   UNL A   1      46.858  33.208  30.682  1.00  0.00     0.009 A 
ATOM     85  C   UNL A   1      46.624  35.552  29.190  1.00  0.00     0.001 A 
ATOM     86  C   UNL A   1      47.658  34.310  30.984  1.00  0.00     0.001 A 
ATOM     87  C   UNL A   1      47.549  35.477  30.230  1.00  0.00     0.000 A 
ENDBRANCH  69  82
ENDBRANCH  43  44
ENDBRANCH  36  38
ENDBRANCH  35  36
ENDBRANCH  34  35
ENDBRANCH  33  34
ENDBRANCH   1  33
TORSDOF 18
ENDMDL
