MODEL 1
REMARK VINA RESULT:     -11.5      0.000      0.000
REMARK SMILES COC(=O)c1ccc(NC(=O)[C@@H]2CC=CC[C@@H]2C(=O)OCCOCCOC(=O)c2ccc(-c3c4nc(c(-c5ccccc5)c5ccc([nH]5)c(-c5ccccc5)c5nc(c(-c6ccccc6)c6ccc3[nH]6)C=C5)C=C4)cc2)c(C)c1
REMARK SMILES IDX 22 1 21 2 20 3 18 4 19 5 17 6 12 7 13 8 14 9 16 10 15 11
REMARK SMILES IDX 10 12 9 13 11 15 8 16 5 17 6 18 79 19 7 20 77 21 78 22 3 23
REMARK SMILES IDX 4 24 2 25 1 26 23 27 24 28 25 29 26 30 27 31 28 32 29 33
REMARK SMILES IDX 30 34 76 35 31 36 75 37 32 38 33 39 34 40 69 41 35 42 74 43
REMARK SMILES IDX 68 44 70 45 36 46 73 47 67 48 66 49 37 51 59 52 44 53 58 54
REMARK SMILES IDX 45 55 48 56 57 57 71 58 46 59 47 60 56 62 72 63 49 64 38 65
REMARK SMILES IDX 39 66 43 67 40 68 42 69 41 70 60 71 61 72 65 73 62 74 64 75
REMARK SMILES IDX 63 76 50 77 51 78 55 79 52 80 54 81 53 82
REMARK H PARENT 9 14 70 50 48 61
REMARK Flexibility Score: inf
ROOT
ATOM      1  C   UNL A   1      37.611  22.415  25.669  1.00  0.00     0.202 C 
ENDROOT
BRANCH   1   2
ATOM      2  C   UNL A   1      36.608  22.457  24.550  1.00  0.00     0.261 C 
BRANCH   2   3
ATOM      3  O   UNL A   1      35.733  23.589  24.664  1.00  0.00    -0.463 OA
BRANCH   3   4
ATOM      4  C   UNL A   1      34.604  23.493  25.430  1.00  0.00     0.310 C 
ATOM      5  O   UNL A   1      34.507  22.913  26.485  1.00  0.00    -0.252 OA
BRANCH   4   6
ATOM      6  C   UNL A   1      33.480  24.258  24.788  1.00  0.00     0.116 C 
ATOM      7  C   UNL A   1      32.114  23.771  25.232  1.00  0.00     0.097 C 
ATOM      8  C   UNL A   1      31.940  22.272  24.955  1.00  0.00     0.041 C 
ATOM      9  C   UNL A   1      32.332  21.908  23.554  1.00  0.00    -0.030 C 
ATOM     10  C   UNL A   1      33.498  24.107  23.229  1.00  0.00     0.043 C 
ATOM     11  C   UNL A   1      32.999  22.755  22.755  1.00  0.00    -0.030 C 
BRANCH   7  12
ATOM     12  C   UNL A   1      31.406  24.140  26.503  1.00  0.00     0.228 C 
ATOM     13  N   UNL A   1      30.625  25.289  26.474  1.00  0.00    -0.326 N 
ATOM     14  H   UNL A   1      30.093  25.422  27.293  1.00  0.00     0.169 HD
ATOM     15  O   UNL A   1      31.475  23.475  27.533  1.00  0.00    -0.274 OA
BRANCH  13  16
ATOM     16  C   UNL A   1      30.435  26.321  25.497  1.00  0.00     0.044 A 
ATOM     17  C   UNL A   1      30.035  28.459  23.665  1.00  0.00     0.060 A 
ATOM     18  C   UNL A   1      29.269  27.323  23.564  1.00  0.00     0.018 A 
ATOM     19  C   UNL A   1      30.998  28.552  24.676  1.00  0.00     0.021 A 
ATOM     20  C   UNL A   1      29.497  26.276  24.446  1.00  0.00     0.027 A 
ATOM     21  C   UNL A   1      31.228  27.483  25.577  1.00  0.00    -0.027 A 
ATOM     22  C   UNL A   1      32.307  27.651  26.613  1.00  0.00     0.046 C 
BRANCH  17  23
ATOM     23  C   UNL A   1      29.812  29.495  22.632  1.00  0.00     0.337 C 
ATOM     24  O   UNL A   1      30.199  29.367  21.481  1.00  0.00    -0.246 OA
BRANCH  23  25
ATOM     25  O   UNL A   1      29.162  30.589  23.095  1.00  0.00    -0.465 OA
ATOM     26  C   UNL A   1      28.191  31.144  22.197  1.00  0.00     0.282 C 
ENDBRANCH  23  25
ENDBRANCH  17  23
ENDBRANCH  13  16
ENDBRANCH   7  12
ENDBRANCH   4   6
ENDBRANCH   3   4
ENDBRANCH   2   3
ENDBRANCH   1   2
BRANCH   1  27
ATOM     27  O   UNL A   1      38.530  21.386  25.352  1.00  0.00    -0.374 OA
BRANCH  27  28
ATOM     28  C   UNL A   1      39.715  21.347  26.119  1.00  0.00     0.202 C 
BRANCH  28  29
ATOM     29  C   UNL A   1      40.315  19.939  26.179  1.00  0.00     0.261 C 
BRANCH  29  30
ATOM     30  O   UNL A   1      41.610  19.980  26.820  1.00  0.00    -0.460 OA
BRANCH  30  31
ATOM     31  C   UNL A   1      42.607  20.601  26.124  1.00  0.00     0.338 C 
ATOM     32  O   UNL A   1      43.128  20.170  25.108  1.00  0.00    -0.246 OA
BRANCH  31  33
ATOM     33  C   UNL A   1      43.166  21.728  26.929  1.00  0.00     0.060 A 
ATOM     34  C   UNL A   1      42.689  21.971  28.235  1.00  0.00     0.016 A 
ATOM     35  C   UNL A   1      43.874  22.717  26.257  1.00  0.00     0.016 A 
ATOM     36  C   UNL A   1      42.777  23.258  28.793  1.00  0.00     0.010 A 
ATOM     37  C   UNL A   1      43.837  24.000  26.754  1.00  0.00     0.010 A 
ATOM     38  C   UNL A   1      43.274  24.293  28.008  1.00  0.00    -0.014 A 
BRANCH  38  39
ATOM     39  C   UNL A   1      43.235  25.726  28.318  1.00  0.00     0.031 A 
ATOM     40  C   UNL A   1      41.963  26.439  28.068  1.00  0.00     0.074 A 
ATOM     41  C   UNL A   1      44.181  26.311  29.093  1.00  0.00     0.049 A 
ATOM     42  N   UNL A   1      41.802  27.703  28.229  1.00  0.00    -0.248 NA
ATOM     43  C   UNL A   1      40.751  25.787  27.572  1.00  0.00     0.031 C 
ATOM     44  C   UNL A   1      44.049  27.489  29.950  1.00  0.00     0.029 A 
ATOM     45  N   UNL A   1      45.505  25.934  29.300  1.00  0.00    -0.354 N 
ATOM     46  C   UNL A   1      40.453  27.952  28.241  1.00  0.00     0.074 A 
ATOM     47  C   UNL A   1      39.852  26.766  27.688  1.00  0.00     0.031 C 
ATOM     48  C   UNL A   1      45.263  27.897  30.359  1.00  0.00     0.029 A 
ATOM     49  C   UNL A   1      46.242  27.053  29.703  1.00  0.00     0.049 A 
ATOM     50  H   UNL A   1      45.865  25.025  29.183  1.00  0.00     0.167 HD
ATOM     51  C   UNL A   1      40.016  29.087  28.854  1.00  0.00     0.031 A 
ATOM     52  C   UNL A   1      47.318  27.466  28.984  1.00  0.00     0.031 A 
ATOM     53  C   UNL A   1      41.156  29.920  29.287  1.00  0.00     0.049 A 
ATOM     54  C   UNL A   1      46.934  28.801  28.409  1.00  0.00     0.074 A 
ATOM     55  C   UNL A   1      41.685  30.245  30.526  1.00  0.00     0.029 A 
ATOM     56  N   UNL A   1      42.137  30.264  28.349  1.00  0.00    -0.354 N 
ATOM     57  N   UNL A   1      45.698  29.113  28.100  1.00  0.00    -0.248 NA
ATOM     58  C   UNL A   1      47.836  29.948  28.400  1.00  0.00     0.031 C 
ATOM     59  C   UNL A   1      43.023  30.707  30.320  1.00  0.00     0.029 A 
ATOM     60  C   UNL A   1      43.304  30.686  28.958  1.00  0.00     0.049 A 
ATOM     61  H   UNL A   1      42.011  30.212  27.374  1.00  0.00     0.167 HD
ATOM     62  C   UNL A   1      45.592  30.472  28.088  1.00  0.00     0.074 A 
ATOM     63  C   UNL A   1      46.965  30.952  28.192  1.00  0.00     0.031 C 
ATOM     64  C   UNL A   1      44.427  31.179  28.160  1.00  0.00     0.031 A 
BRANCH  51  65
ATOM     65  C   UNL A   1      38.572  29.354  29.234  1.00  0.00    -0.014 A 
ATOM     66  C   UNL A   1      38.220  29.478  30.591  1.00  0.00     0.009 A 
ATOM     67  C   UNL A   1      37.498  29.451  28.327  1.00  0.00     0.009 A 
ATOM     68  C   UNL A   1      36.892  29.678  31.005  1.00  0.00     0.001 A 
ATOM     69  C   UNL A   1      36.170  29.662  28.728  1.00  0.00     0.001 A 
ATOM     70  C   UNL A   1      35.865  29.774  30.073  1.00  0.00     0.000 A 
ENDBRANCH  51  65
BRANCH  52  71
ATOM     71  C   UNL A   1      48.070  26.315  28.397  1.00  0.00    -0.014 A 
ATOM     72  C   UNL A   1      48.149  26.260  26.982  1.00  0.00     0.009 A 
ATOM     73  C   UNL A   1      49.060  25.643  29.130  1.00  0.00     0.009 A 
ATOM     74  C   UNL A   1      49.235  25.655  26.334  1.00  0.00     0.001 A 
ATOM     75  C   UNL A   1      50.160  25.060  28.475  1.00  0.00     0.001 A 
ATOM     76  C   UNL A   1      50.262  25.091  27.084  1.00  0.00     0.000 A 
ENDBRANCH  52  71
BRANCH  64  77
ATOM     77  C   UNL A   1      44.274  32.474  27.411  1.00  0.00    -0.014 A 
ATOM     78  C   UNL A   1      44.324  32.558  26.013  1.00  0.00     0.009 A 
ATOM     79  C   UNL A   1      43.854  33.625  28.107  1.00  0.00     0.009 A 
ATOM     80  C   UNL A   1      44.015  33.741  25.344  1.00  0.00     0.001 A 
ATOM     81  C   UNL A   1      43.481  34.790  27.439  1.00  0.00     0.001 A 
ATOM     82  C   UNL A   1      43.577  34.851  26.057  1.00  0.00     0.000 A 
ENDBRANCH  64  77
ENDBRANCH  38  39
ENDBRANCH  31  33
ENDBRANCH  30  31
ENDBRANCH  29  30
ENDBRANCH  28  29
ENDBRANCH  27  28
ENDBRANCH   1  27
TORSDOF 18
ENDMDL
MODEL 2
REMARK VINA RESULT:     -10.8      3.989      9.362
REMARK SMILES COC(=O)c1ccc(NC(=O)[C@@H]2CC=CC[C@@H]2C(=O)OCCOCCOC(=O)c2ccc(-c3c4nc(c(-c5ccccc5)c5ccc([nH]5)c(-c5ccccc5)c5nc(c(-c6ccccc6)c6ccc3[nH]6)C=C5)C=C4)cc2)c(C)c1
REMARK SMILES IDX 22 1 21 2 20 3 18 4 19 5 17 6 12 7 13 8 14 9 16 10 15 11
REMARK SMILES IDX 10 12 9 13 11 15 8 16 5 17 6 18 79 19 7 20 77 21 78 22 3 23
REMARK SMILES IDX 4 24 2 25 1 26 23 27 24 28 25 29 26 30 27 31 28 32 29 33
REMARK SMILES IDX 30 34 76 35 31 36 75 37 32 38 33 39 34 40 69 41 35 42 74 43
REMARK SMILES IDX 68 44 70 45 36 46 73 47 67 48 66 49 37 51 59 52 44 53 58 54
REMARK SMILES IDX 45 55 48 56 57 57 71 58 46 59 47 60 56 62 72 63 49 64 38 65
REMARK SMILES IDX 39 66 43 67 40 68 42 69 41 70 60 71 61 72 65 73 62 74 64 75
REMARK SMILES IDX 63 76 50 77 51 78 55 79 52 80 54 81 53 82
REMARK H PARENT 9 14 70 50 48 61
REMARK Flexibility Score: inf
ROOT
ATOM      1  C   UNL A   1      33.736  29.143  27.002  1.00  0.00     0.202 C 
ENDROOT
BRANCH   1   2
ATOM      2  C   UNL A   1      33.826  28.248  25.797  1.00  0.00     0.261 C 
BRANCH   2   3
ATOM      3  O   UNL A   1      33.587  26.874  26.139  1.00  0.00    -0.463 OA
BRANCH   3   4
ATOM      4  C   UNL A   1      32.312  26.459  26.408  1.00  0.00     0.310 C 
ATOM      5  O   UNL A   1      31.532  26.998  27.157  1.00  0.00    -0.252 OA
BRANCH   4   6
ATOM      6  C   UNL A   1      31.988  25.234  25.600  1.00  0.00     0.116 C 
ATOM      7  C   UNL A   1      32.028  25.493  24.106  1.00  0.00     0.097 C 
ATOM      8  C   UNL A   1      31.079  26.633  23.713  1.00  0.00     0.041 C 
ATOM      9  C   UNL A   1      29.712  26.457  24.302  1.00  0.00    -0.030 C 
ATOM     10  C   UNL A   1      30.544  24.709  25.901  1.00  0.00     0.043 C 
ATOM     11  C   UNL A   1      29.458  25.555  25.262  1.00  0.00    -0.030 C 
BRANCH   7  12
ATOM     12  C   UNL A   1      33.253  25.528  23.239  1.00  0.00     0.228 C 
ATOM     13  N   UNL A   1      33.866  24.310  22.970  1.00  0.00    -0.326 N 
ATOM     14  H   UNL A   1      34.592  24.374  22.307  1.00  0.00     0.169 HD
ATOM     15  O   UNL A   1      33.712  26.561  22.759  1.00  0.00    -0.274 OA
BRANCH  13  16
ATOM     16  C   UNL A   1      33.658  22.979  23.461  1.00  0.00     0.044 A 
ATOM     17  C   UNL A   1      33.370  20.302  24.378  1.00  0.00     0.060 A 
ATOM     18  C   UNL A   1      32.406  20.852  23.569  1.00  0.00     0.018 A 
ATOM     19  C   UNL A   1      34.488  21.066  24.734  1.00  0.00     0.021 A 
ATOM     20  C   UNL A   1      32.545  22.169  23.155  1.00  0.00     0.027 A 
ATOM     21  C   UNL A   1      34.630  22.410  24.308  1.00  0.00    -0.027 A 
ATOM     22  C   UNL A   1      35.845  23.172  24.765  1.00  0.00     0.046 C 
BRANCH  17  23
ATOM     23  C   UNL A   1      33.111  18.929  24.868  1.00  0.00     0.337 C 
ATOM     24  O   UNL A   1      32.241  18.679  25.687  1.00  0.00    -0.246 OA
BRANCH  23  25
ATOM     25  O   UNL A   1      33.940  18.000  24.336  1.00  0.00    -0.465 OA
ATOM     26  C   UNL A   1      33.530  17.476  23.066  1.00  0.00     0.282 C 
ENDBRANCH  23  25
ENDBRANCH  17  23
ENDBRANCH  13  16
ENDBRANCH   7  12
ENDBRANCH   4   6
ENDBRANCH   3   4
ENDBRANCH   2   3
ENDBRANCH   1   2
BRANCH   1  27
ATOM     27  O   UNL A   1      35.056  29.294  27.494  1.00  0.00    -0.374 OA
BRANCH  27  28
ATOM     28  C   UNL A   1      35.493  30.618  27.718  1.00  0.00     0.202 C 
BRANCH  28  29
ATOM     29  C   UNL A   1      34.333  31.618  27.690  1.00  0.00     0.261 C 
BRANCH  29  30
ATOM     30  O   UNL A   1      34.094  32.134  29.019  1.00  0.00    -0.460 OA
BRANCH  30  31
ATOM     31  C   UNL A   1      34.601  33.374  29.284  1.00  0.00     0.338 C 
ATOM     32  O   UNL A   1      34.162  34.422  28.838  1.00  0.00    -0.246 OA
BRANCH  31  33
ATOM     33  C   UNL A   1      35.929  33.249  29.956  1.00  0.00     0.060 A 
ATOM     34  C   UNL A   1      37.107  33.612  29.269  1.00  0.00     0.016 A 
ATOM     35  C   UNL A   1      36.009  32.455  31.094  1.00  0.00     0.016 A 
ATOM     36  C   UNL A   1      38.340  33.041  29.627  1.00  0.00     0.010 A 
ATOM     37  C   UNL A   1      37.191  31.799  31.351  1.00  0.00     0.010 A 
ATOM     38  C   UNL A   1      38.359  32.062  30.616  1.00  0.00    -0.014 A 
BRANCH  38  39
ATOM     39  C   UNL A   1      39.487  31.193  30.968  1.00  0.00     0.031 A 
ATOM     40  C   UNL A   1      39.699  29.988  30.138  1.00  0.00     0.074 A 
ATOM     41  C   UNL A   1      40.482  31.617  31.786  1.00  0.00     0.049 A 
ATOM     42  N   UNL A   1      40.603  29.104  30.367  1.00  0.00    -0.248 NA
ATOM     43  C   UNL A   1      38.876  29.647  28.977  1.00  0.00     0.031 C 
ATOM     44  C   UNL A   1      41.880  31.186  31.811  1.00  0.00     0.029 A 
ATOM     45  N   UNL A   1      40.446  32.583  32.788  1.00  0.00    -0.354 N 
ATOM     46  C   UNL A   1      40.731  28.337  29.237  1.00  0.00     0.074 A 
ATOM     47  C   UNL A   1      39.549  28.615  28.464  1.00  0.00     0.031 C 
ATOM     48  C   UNL A   1      42.484  31.655  32.917  1.00  0.00     0.029 A 
ATOM     49  C   UNL A   1      41.472  32.330  33.705  1.00  0.00     0.049 A 
ATOM     50  H   UNL A   1      39.802  33.325  32.843  1.00  0.00     0.167 HD
ATOM     51  C   UNL A   1      41.903  27.670  29.045  1.00  0.00     0.031 A 
ATOM     52  C   UNL A   1      41.189  32.119  35.017  1.00  0.00     0.031 A 
ATOM     53  C   UNL A   1      42.787  27.817  30.219  1.00  0.00     0.049 A 
ATOM     54  C   UNL A   1      41.552  30.685  35.284  1.00  0.00     0.074 A 
ATOM     55  C   UNL A   1      43.975  28.494  30.441  1.00  0.00     0.029 A 
ATOM     56  N   UNL A   1      42.287  27.492  31.486  1.00  0.00    -0.354 N 
ATOM     57  N   UNL A   1      41.471  29.749  34.369  1.00  0.00    -0.248 NA
ATOM     58  C   UNL A   1      42.276  30.261  36.478  1.00  0.00     0.031 C 
ATOM     59  C   UNL A   1      44.132  28.643  31.856  1.00  0.00     0.029 A 
ATOM     60  C   UNL A   1      43.056  28.039  32.497  1.00  0.00     0.049 A 
ATOM     61  H   UNL A   1      41.485  26.942  31.639  1.00  0.00     0.167 HD
ATOM     62  C   UNL A   1      42.297  28.727  34.730  1.00  0.00     0.074 A 
ATOM     63  C   UNL A   1      42.711  29.048  36.092  1.00  0.00     0.031 C 
ATOM     64  C   UNL A   1      42.761  27.749  33.900  1.00  0.00     0.031 A 
BRANCH  51  65
ATOM     65  C   UNL A   1      42.330  27.050  27.728  1.00  0.00    -0.014 A 
ATOM     66  C   UNL A   1      42.880  27.864  26.720  1.00  0.00     0.009 A 
ATOM     67  C   UNL A   1      42.185  25.691  27.385  1.00  0.00     0.009 A 
ATOM     68  C   UNL A   1      43.250  27.353  25.464  1.00  0.00     0.001 A 
ATOM     69  C   UNL A   1      42.561  25.168  26.139  1.00  0.00     0.001 A 
ATOM     70  C   UNL A   1      43.094  26.003  25.173  1.00  0.00     0.000 A 
ENDBRANCH  51  65
BRANCH  52  71
ATOM     71  C   UNL A   1      40.036  32.951  35.478  1.00  0.00    -0.014 A 
ATOM     72  C   UNL A   1      38.861  32.255  35.860  1.00  0.00     0.009 A 
ATOM     73  C   UNL A   1      40.231  34.236  36.006  1.00  0.00     0.009 A 
ATOM     74  C   UNL A   1      37.980  32.779  36.817  1.00  0.00     0.001 A 
ATOM     75  C   UNL A   1      39.357  34.746  36.984  1.00  0.00     0.001 A 
ATOM     76  C   UNL A   1      38.252  34.008  37.409  1.00  0.00     0.000 A 
ENDBRANCH  52  71
BRANCH  64  77
ATOM     77  C   UNL A   1      42.969  26.350  34.412  1.00  0.00    -0.014 A 
ATOM     78  C   UNL A   1      41.997  25.652  35.143  1.00  0.00     0.009 A 
ATOM     79  C   UNL A   1      44.089  25.616  33.973  1.00  0.00     0.009 A 
ATOM     80  C   UNL A   1      42.154  24.303  35.459  1.00  0.00     0.001 A 
ATOM     81  C   UNL A   1      44.219  24.252  34.231  1.00  0.00     0.001 A 
ATOM     82  C   UNL A   1      43.257  23.601  34.988  1.00  0.00     0.000 A 
ENDBRANCH  64  77
ENDBRANCH  38  39
ENDBRANCH  31  33
ENDBRANCH  30  31
ENDBRANCH  29  30
ENDBRANCH  28  29
ENDBRANCH  27  28
ENDBRANCH   1  27
TORSDOF 18
ENDMDL
MODEL 3
REMARK VINA RESULT:     -10.4      5.695      9.399
REMARK SMILES COC(=O)c1ccc(NC(=O)[C@@H]2CC=CC[C@@H]2C(=O)OCCOCCOC(=O)c2ccc(-c3c4nc(c(-c5ccccc5)c5ccc([nH]5)c(-c5ccccc5)c5nc(c(-c6ccccc6)c6ccc3[nH]6)C=C5)C=C4)cc2)c(C)c1
REMARK SMILES IDX 22 1 21 2 20 3 18 4 19 5 17 6 12 7 13 8 14 9 16 10 15 11
REMARK SMILES IDX 10 12 9 13 11 15 8 16 5 17 6 18 79 19 7 20 77 21 78 22 3 23
REMARK SMILES IDX 4 24 2 25 1 26 23 27 24 28 25 29 26 30 27 31 28 32 29 33
REMARK SMILES IDX 30 34 76 35 31 36 75 37 32 38 33 39 34 40 69 41 35 42 74 43
REMARK SMILES IDX 68 44 70 45 36 46 73 47 67 48 66 49 37 51 59 52 44 53 58 54
REMARK SMILES IDX 45 55 48 56 57 57 71 58 46 59 47 60 56 62 72 63 49 64 38 65
REMARK SMILES IDX 39 66 43 67 40 68 42 69 41 70 60 71 61 72 65 73 62 74 64 75
REMARK SMILES IDX 63 76 50 77 51 78 55 79 52 80 54 81 53 82
REMARK H PARENT 9 14 70 50 48 61
REMARK Flexibility Score: inf
ROOT
ATOM      1  C   UNL A   1      33.790  29.159  27.075  1.00  0.00     0.202 C 
ENDROOT
BRANCH   1   2
ATOM      2  C   UNL A   1      32.342  29.466  26.815  1.00  0.00     0.261 C 
BRANCH   2   3
ATOM      3  O   UNL A   1      31.690  28.392  26.119  1.00  0.00    -0.463 OA
BRANCH   3   4
ATOM      4  C   UNL A   1      32.229  27.917  24.955  1.00  0.00     0.310 C 
ATOM      5  O   UNL A   1      32.539  28.579  23.994  1.00  0.00    -0.252 OA
BRANCH   4   6
ATOM      6  C   UNL A   1      32.426  26.430  25.049  1.00  0.00     0.116 C 
ATOM      7  C   UNL A   1      32.207  25.728  23.722  1.00  0.00     0.097 C 
ATOM      8  C   UNL A   1      30.813  26.027  23.156  1.00  0.00     0.041 C 
ATOM      9  C   UNL A   1      29.735  25.827  24.179  1.00  0.00    -0.030 C 
ATOM     10  C   UNL A   1      31.411  25.776  26.047  1.00  0.00     0.043 C 
ATOM     11  C   UNL A   1      30.007  25.668  25.483  1.00  0.00    -0.030 C 
BRANCH   7  12
ATOM     12  C   UNL A   1      33.198  25.613  22.601  1.00  0.00     0.228 C 
ATOM     13  N   UNL A   1      33.576  24.329  22.226  1.00  0.00    -0.326 N 
ATOM     14  H   UNL A   1      34.134  24.305  21.415  1.00  0.00     0.169 HD
ATOM     15  O   UNL A   1      33.662  26.582  22.007  1.00  0.00    -0.274 OA
BRANCH  13  16
ATOM     16  C   UNL A   1      33.318  23.031  22.780  1.00  0.00     0.044 A 
ATOM     17  C   UNL A   1      32.940  20.420  23.842  1.00  0.00     0.060 A 
ATOM     18  C   UNL A   1      32.079  20.897  22.883  1.00  0.00     0.018 A 
ATOM     19  C   UNL A   1      33.999  21.225  24.277  1.00  0.00     0.021 A 
ATOM     20  C   UNL A   1      32.258  22.185  22.398  1.00  0.00     0.027 A 
ATOM     21  C   UNL A   1      34.182  22.538  23.778  1.00  0.00    -0.027 A 
ATOM     22  C   UNL A   1      35.326  23.349  24.326  1.00  0.00     0.046 C 
BRANCH  17  23
ATOM     23  C   UNL A   1      32.633  19.080  24.391  1.00  0.00     0.337 C 
ATOM     24  O   UNL A   1      32.265  18.914  25.543  1.00  0.00    -0.246 OA
BRANCH  23  25
ATOM     25  O   UNL A   1      32.819  18.076  23.503  1.00  0.00    -0.465 OA
ATOM     26  C   UNL A   1      33.483  16.918  24.025  1.00  0.00     0.282 C 
ENDBRANCH  23  25
ENDBRANCH  17  23
ENDBRANCH  13  16
ENDBRANCH   7  12
ENDBRANCH   4   6
ENDBRANCH   3   4
ENDBRANCH   2   3
ENDBRANCH   1   2
BRANCH   1  27
ATOM     27  O   UNL A   1      34.480  30.395  27.035  1.00  0.00    -0.374 OA
BRANCH  27  28
ATOM     28  C   UNL A   1      33.909  31.455  27.773  1.00  0.00     0.202 C 
BRANCH  28  29
ATOM     29  C   UNL A   1      34.801  31.888  28.941  1.00  0.00     0.261 C 
BRANCH  29  30
ATOM     30  O   UNL A   1      36.173  31.519  28.678  1.00  0.00    -0.460 OA
BRANCH  30  31
ATOM     31  C   UNL A   1      36.772  30.721  29.609  1.00  0.00     0.338 C 
ATOM     32  O   UNL A   1      36.215  29.835  30.238  1.00  0.00    -0.246 OA
BRANCH  31  33
ATOM     33  C   UNL A   1      38.118  31.267  29.959  1.00  0.00     0.060 A 
ATOM     34  C   UNL A   1      38.878  30.672  30.989  1.00  0.00     0.016 A 
ATOM     35  C   UNL A   1      38.435  32.546  29.517  1.00  0.00     0.016 A 
ATOM     36  C   UNL A   1      39.840  31.424  31.684  1.00  0.00     0.010 A 
ATOM     37  C   UNL A   1      39.280  33.313  30.287  1.00  0.00     0.010 A 
ATOM     38  C   UNL A   1      39.973  32.776  31.385  1.00  0.00    -0.014 A 
BRANCH  38  39
ATOM     39  C   UNL A   1      40.743  33.770  32.140  1.00  0.00     0.031 A 
ATOM     40  C   UNL A   1      40.082  34.397  33.305  1.00  0.00     0.074 A 
ATOM     41  C   UNL A   1      42.088  33.881  32.002  1.00  0.00     0.049 A 
ATOM     42  N   UNL A   1      40.607  35.328  34.017  1.00  0.00    -0.248 NA
ATOM     43  C   UNL A   1      38.733  34.051  33.756  1.00  0.00     0.031 C 
ATOM     44  C   UNL A   1      43.064  34.348  32.987  1.00  0.00     0.029 A 
ATOM     45  N   UNL A   1      42.890  33.557  30.912  1.00  0.00    -0.354 N 
ATOM     46  C   UNL A   1      39.884  35.421  35.179  1.00  0.00     0.074 A 
ATOM     47  C   UNL A   1      38.657  34.718  34.909  1.00  0.00     0.031 C 
ATOM     48  C   UNL A   1      44.255  34.543  32.395  1.00  0.00     0.029 A 
ATOM     49  C   UNL A   1      44.074  34.302  30.977  1.00  0.00     0.049 A 
ATOM     50  H   UNL A   1      42.663  32.908  30.208  1.00  0.00     0.167 HD
ATOM     51  C   UNL A   1      40.490  35.968  36.269  1.00  0.00     0.031 A 
ATOM     52  C   UNL A   1      44.423  35.132  29.961  1.00  0.00     0.031 A 
ATOM     53  C   UNL A   1      41.826  36.491  35.918  1.00  0.00     0.049 A 
ATOM     54  C   UNL A   1      44.345  36.522  30.527  1.00  0.00     0.074 A 
ATOM     55  C   UNL A   1      43.117  36.094  36.222  1.00  0.00     0.029 A 
ATOM     56  N   UNL A   1      41.941  37.383  34.844  1.00  0.00    -0.354 N 
ATOM     57  N   UNL A   1      43.502  36.857  31.474  1.00  0.00    -0.248 NA
ATOM     58  C   UNL A   1      45.365  37.537  30.279  1.00  0.00     0.031 C 
ATOM     59  C   UNL A   1      43.994  36.693  35.263  1.00  0.00     0.029 A 
ATOM     60  C   UNL A   1      43.244  37.473  34.389  1.00  0.00     0.049 A 
ATOM     61  H   UNL A   1      41.187  37.885  34.460  1.00  0.00     0.167 HD
ATOM     62  C   UNL A   1      43.983  37.969  32.100  1.00  0.00     0.074 A 
ATOM     63  C   UNL A   1      45.098  38.409  31.267  1.00  0.00     0.031 C 
ATOM     64  C   UNL A   1      43.602  38.417  33.331  1.00  0.00     0.031 A 
BRANCH  51  65
ATOM     65  C   UNL A   1      39.963  35.858  37.688  1.00  0.00    -0.014 A 
ATOM     66  C   UNL A   1      40.084  36.953  38.563  1.00  0.00     0.009 A 
ATOM     67  C   UNL A   1      39.381  34.705  38.250  1.00  0.00     0.009 A 
ATOM     68  C   UNL A   1      39.657  36.893  39.901  1.00  0.00     0.001 A 
ATOM     69  C   UNL A   1      38.941  34.637  39.580  1.00  0.00     0.001 A 
ATOM     70  C   UNL A   1      39.081  35.735  40.410  1.00  0.00     0.000 A 
ENDBRANCH  51  65
BRANCH  52  71
ATOM     71  C   UNL A   1      44.022  34.581  28.630  1.00  0.00    -0.014 A 
ATOM     72  C   UNL A   1      43.180  35.395  27.831  1.00  0.00     0.009 A 
ATOM     73  C   UNL A   1      44.804  33.617  27.976  1.00  0.00     0.009 A 
ATOM     74  C   UNL A   1      43.206  35.321  26.431  1.00  0.00     0.001 A 
ATOM     75  C   UNL A   1      44.844  33.565  26.571  1.00  0.00     0.001 A 
ATOM     76  C   UNL A   1      44.070  34.433  25.801  1.00  0.00     0.000 A 
ENDBRANCH  52  71
BRANCH  64  77
ATOM     77  C   UNL A   1      43.533  39.891  33.618  1.00  0.00    -0.014 A 
ATOM     78  C   UNL A   1      42.739  40.777  32.876  1.00  0.00     0.009 A 
ATOM     79  C   UNL A   1      44.115  40.389  34.801  1.00  0.00     0.009 A 
ATOM     80  C   UNL A   1      42.569  42.104  33.269  1.00  0.00     0.001 A 
ATOM     81  C   UNL A   1      43.894  41.696  35.232  1.00  0.00     0.001 A 
ATOM     82  C   UNL A   1      43.133  42.557  34.456  1.00  0.00     0.000 A 
ENDBRANCH  64  77
ENDBRANCH  38  39
ENDBRANCH  31  33
ENDBRANCH  30  31
ENDBRANCH  29  30
ENDBRANCH  28  29
ENDBRANCH  27  28
ENDBRANCH   1  27
TORSDOF 18
ENDMDL
