MODEL 1
REMARK VINA RESULT:     -10.6      0.000      0.000
REMARK SMILES Cc1nsc(NC(=O)N2CCC[C@@H](C)C2)c1C(=O)OCCOCCOC(=O)c1ccc(-c2c3nc(c(-c4ccccc4)c4ccc([nH]4)c(-c4ccccc4)c4nc(c(-c5ccccc5)c5ccc2[nH]5)C=C4)C=C3)cc1
REMARK SMILES IDX 22 1 21 2 20 3 19 4 17 5 18 6 16 7 1 8 2 9 3 10 4 11 5 12
REMARK SMILES IDX 6 13 7 14 8 16 9 17 10 18 15 19 11 20 13 21 12 22 14 23
REMARK SMILES IDX 23 24 24 25 25 26 26 27 27 28 28 29 29 30 75 31 30 32 74 33
REMARK SMILES IDX 31 34 32 35 33 36 68 37 34 38 73 39 67 40 69 41 35 42 72 43
REMARK SMILES IDX 66 44 65 45 36 47 58 48 43 49 57 50 44 51 47 52 56 53 70 54
REMARK SMILES IDX 45 55 46 56 55 58 71 59 48 60 37 61 38 62 42 63 39 64 41 65
REMARK SMILES IDX 40 66 59 67 60 68 64 69 61 70 63 71 62 72 49 73 50 74 54 75
REMARK SMILES IDX 51 76 53 77 52 78
REMARK H PARENT 6 15 69 46 47 57
REMARK Flexibility Score: inf
ROOT
ATOM      1  O   UNL A   1      33.274  29.521  27.708  1.00  0.00    -0.374 OA
ENDROOT
BRANCH   1   2
ATOM      2  C   UNL A   1      32.536  28.457  27.106  1.00  0.00     0.202 C 
BRANCH   2   3
ATOM      3  C   UNL A   1      33.280  27.589  26.082  1.00  0.00     0.261 C 
BRANCH   3   4
ATOM      4  O   UNL A   1      32.751  26.251  26.052  1.00  0.00    -0.460 OA
BRANCH   4   5
ATOM      5  C   UNL A   1      31.963  25.931  24.981  1.00  0.00     0.343 C 
ATOM      6  O   UNL A   1      30.833  26.338  24.800  1.00  0.00    -0.246 OA
BRANCH   5   7
ATOM      7  C   UNL A   1      32.749  25.265  23.949  1.00  0.00     0.117 A 
ATOM      8  C   UNL A   1      33.221  27.271  22.331  1.00  0.00     0.069 C 
ATOM      9  C   UNL A   1      33.233  25.831  22.714  1.00  0.00     0.068 A 
ATOM     10  N   UNL A   1      33.699  24.962  21.819  1.00  0.00    -0.195 NA
ATOM     11  S   UNL A   1      33.497  23.439  22.414  1.00  0.00    -0.017 S 
ATOM     12  C   UNL A   1      33.003  23.899  23.974  1.00  0.00     0.132 A 
BRANCH  12  13
ATOM     13  N   UNL A   1      32.699  22.980  24.967  1.00  0.00    -0.297 N 
ATOM     14  C   UNL A   1      33.457  21.952  25.439  1.00  0.00     0.322 C 
ATOM     15  H   UNL A   1      31.814  23.084  25.387  1.00  0.00     0.172 HD
ATOM     16  O   UNL A   1      32.897  20.878  25.670  1.00  0.00    -0.248 OA
BRANCH  14  17
ATOM     17  N   UNL A   1      34.799  22.139  25.672  1.00  0.00    -0.324 N 
ATOM     18  C   UNL A   1      35.364  23.336  26.299  1.00  0.00     0.121 C 
ATOM     19  C   UNL A   1      35.678  20.976  25.683  1.00  0.00     0.124 C 
ATOM     20  C   UNL A   1      36.723  23.714  25.709  1.00  0.00     0.022 C 
ATOM     21  C   UNL A   1      36.947  21.307  24.892  1.00  0.00     0.005 C 
ATOM     22  C   UNL A   1      37.658  22.517  25.519  1.00  0.00     0.007 C 
ATOM     23  C   UNL A   1      37.880  20.105  24.814  1.00  0.00     0.009 C 
ENDBRANCH  14  17
ENDBRANCH  12  13
ENDBRANCH   5   7
ENDBRANCH   4   5
ENDBRANCH   3   4
ENDBRANCH   2   3
ENDBRANCH   1   2
BRANCH   1  24
ATOM     24  C   UNL A   1      33.124  30.843  27.206  1.00  0.00     0.202 C 
BRANCH  24  25
ATOM     25  C   UNL A   1      33.961  31.951  27.826  1.00  0.00     0.261 C 
BRANCH  25  26
ATOM     26  O   UNL A   1      35.355  31.763  27.621  1.00  0.00    -0.460 OA
BRANCH  26  27
ATOM     27  C   UNL A   1      36.089  31.887  28.750  1.00  0.00     0.338 C 
ATOM     28  O   UNL A   1      35.919  32.680  29.658  1.00  0.00    -0.246 OA
BRANCH  27  29
ATOM     29  C   UNL A   1      37.267  31.019  28.640  1.00  0.00     0.060 A 
ATOM     30  C   UNL A   1      37.044  29.705  28.225  1.00  0.00     0.016 A 
ATOM     31  C   UNL A   1      38.498  31.427  29.178  1.00  0.00     0.016 A 
ATOM     32  C   UNL A   1      38.001  28.756  28.511  1.00  0.00     0.010 A 
ATOM     33  C   UNL A   1      39.447  30.475  29.473  1.00  0.00     0.010 A 
ATOM     34  C   UNL A   1      39.157  29.142  29.202  1.00  0.00    -0.014 A 
BRANCH  34  35
ATOM     35  C   UNL A   1      40.152  28.129  29.488  1.00  0.00     0.031 A 
ATOM     36  C   UNL A   1      40.528  28.120  30.918  1.00  0.00     0.074 A 
ATOM     37  C   UNL A   1      40.609  27.250  28.575  1.00  0.00     0.049 A 
ATOM     38  N   UNL A   1      41.647  28.513  31.423  1.00  0.00    -0.248 NA
ATOM     39  C   UNL A   1      39.479  27.842  31.913  1.00  0.00     0.031 C 
ATOM     40  C   UNL A   1      40.125  27.036  27.207  1.00  0.00     0.029 A 
ATOM     41  N   UNL A   1      41.560  26.286  28.715  1.00  0.00    -0.354 N 
ATOM     42  C   UNL A   1      41.522  28.324  32.792  1.00  0.00     0.074 A 
ATOM     43  C   UNL A   1      40.124  28.102  33.051  1.00  0.00     0.031 C 
ATOM     44  C   UNL A   1      40.626  25.871  26.731  1.00  0.00     0.029 A 
ATOM     45  C   UNL A   1      41.573  25.339  27.696  1.00  0.00     0.049 A 
ATOM     46  H   UNL A   1      42.186  26.262  29.474  1.00  0.00     0.167 HD
ATOM     47  C   UNL A   1      42.618  28.058  33.552  1.00  0.00     0.031 A 
ATOM     48  C   UNL A   1      42.297  24.193  27.670  1.00  0.00     0.031 A 
ATOM     49  C   UNL A   1      43.832  28.379  32.845  1.00  0.00     0.049 A 
ATOM     50  C   UNL A   1      43.418  24.361  28.617  1.00  0.00     0.074 A 
ATOM     51  C   UNL A   1      44.447  29.532  32.408  1.00  0.00     0.029 A 
ATOM     52  N   UNL A   1      44.363  27.338  32.126  1.00  0.00    -0.354 N 
ATOM     53  N   UNL A   1      44.402  25.183  28.409  1.00  0.00    -0.248 NA
ATOM     54  C   UNL A   1      43.269  23.899  29.989  1.00  0.00     0.031 C 
ATOM     55  C   UNL A   1      45.119  29.173  31.201  1.00  0.00     0.029 A 
ATOM     56  C   UNL A   1      44.948  27.805  30.980  1.00  0.00     0.049 A 
ATOM     57  H   UNL A   1      44.328  26.391  32.395  1.00  0.00     0.167 HD
ATOM     58  C   UNL A   1      44.687  25.699  29.661  1.00  0.00     0.074 A 
ATOM     59  C   UNL A   1      44.094  24.753  30.601  1.00  0.00     0.031 C 
ATOM     60  C   UNL A   1      45.107  26.991  29.793  1.00  0.00     0.031 A 
BRANCH  47  61
ATOM     61  C   UNL A   1      42.601  27.034  34.663  1.00  0.00    -0.014 A 
ATOM     62  C   UNL A   1      42.786  25.680  34.332  1.00  0.00     0.009 A 
ATOM     63  C   UNL A   1      42.113  27.305  35.957  1.00  0.00     0.009 A 
ATOM     64  C   UNL A   1      42.446  24.659  35.228  1.00  0.00     0.001 A 
ATOM     65  C   UNL A   1      41.807  26.291  36.866  1.00  0.00     0.001 A 
ATOM     66  C   UNL A   1      41.951  24.965  36.493  1.00  0.00     0.000 A 
ENDBRANCH  47  61
BRANCH  48  67
ATOM     67  C   UNL A   1      42.018  22.882  27.050  1.00  0.00    -0.014 A 
ATOM     68  C   UNL A   1      42.998  22.222  26.286  1.00  0.00     0.009 A 
ATOM     69  C   UNL A   1      40.904  22.136  27.471  1.00  0.00     0.009 A 
ATOM     70  C   UNL A   1      42.892  20.853  26.001  1.00  0.00     0.001 A 
ATOM     71  C   UNL A   1      40.800  20.769  27.187  1.00  0.00     0.001 A 
ATOM     72  C   UNL A   1      41.802  20.123  26.467  1.00  0.00     0.000 A 
ENDBRANCH  48  67
BRANCH  60  73
ATOM     73  C   UNL A   1      45.603  27.680  28.546  1.00  0.00    -0.014 A 
ATOM     74  C   UNL A   1      44.770  28.375  27.650  1.00  0.00     0.009 A 
ATOM     75  C   UNL A   1      46.986  27.696  28.318  1.00  0.00     0.009 A 
ATOM     76  C   UNL A   1      45.310  29.035  26.540  1.00  0.00     0.001 A 
ATOM     77  C   UNL A   1      47.526  28.374  27.224  1.00  0.00     0.001 A 
ATOM     78  C   UNL A   1      46.687  29.037  26.332  1.00  0.00     0.000 A 
ENDBRANCH  60  73
ENDBRANCH  34  35
ENDBRANCH  27  29
ENDBRANCH  26  27
ENDBRANCH  25  26
ENDBRANCH  24  25
ENDBRANCH   1  24
TORSDOF 16
ENDMDL
MODEL 2
REMARK VINA RESULT:     -10.5      1.254      1.694
REMARK SMILES Cc1nsc(NC(=O)N2CCC[C@@H](C)C2)c1C(=O)OCCOCCOC(=O)c1ccc(-c2c3nc(c(-c4ccccc4)c4ccc([nH]4)c(-c4ccccc4)c4nc(c(-c5ccccc5)c5ccc2[nH]5)C=C4)C=C3)cc1
REMARK SMILES IDX 22 1 21 2 20 3 19 4 17 5 18 6 16 7 1 8 2 9 3 10 4 11 5 12
REMARK SMILES IDX 6 13 7 14 8 16 9 17 10 18 15 19 11 20 13 21 12 22 14 23
REMARK SMILES IDX 23 24 24 25 25 26 26 27 27 28 28 29 29 30 75 31 30 32 74 33
REMARK SMILES IDX 31 34 32 35 33 36 68 37 34 38 73 39 67 40 69 41 35 42 72 43
REMARK SMILES IDX 66 44 65 45 36 47 58 48 43 49 57 50 44 51 47 52 56 53 70 54
REMARK SMILES IDX 45 55 46 56 55 58 71 59 48 60 37 61 38 62 42 63 39 64 41 65
REMARK SMILES IDX 40 66 59 67 60 68 64 69 61 70 63 71 62 72 49 73 50 74 54 75
REMARK SMILES IDX 51 76 53 77 52 78
REMARK H PARENT 6 15 69 46 47 57
REMARK Flexibility Score: inf
ROOT
ATOM      1  O   UNL A   1      32.677  30.738  26.518  1.00  0.00    -0.374 OA
ENDROOT
BRANCH   1   2
ATOM      2  C   UNL A   1      31.691  29.706  26.569  1.00  0.00     0.202 C 
BRANCH   2   3
ATOM      3  C   UNL A   1      31.887  28.611  27.626  1.00  0.00     0.261 C 
BRANCH   3   4
ATOM      4  O   UNL A   1      31.884  27.303  27.029  1.00  0.00    -0.460 OA
BRANCH   4   5
ATOM      5  C   UNL A   1      32.829  27.069  26.067  1.00  0.00     0.343 C 
ATOM      6  O   UNL A   1      34.013  27.317  26.177  1.00  0.00    -0.246 OA
BRANCH   5   7
ATOM      7  C   UNL A   1      32.281  26.234  25.005  1.00  0.00     0.117 A 
ATOM      8  C   UNL A   1      33.254  27.441  22.892  1.00  0.00     0.069 C 
ATOM      9  C   UNL A   1      32.385  26.447  23.582  1.00  0.00     0.068 A 
ATOM     10  N   UNL A   1      31.587  25.698  22.822  1.00  0.00    -0.195 NA
ATOM     11  S   UNL A   1      30.642  24.775  23.806  1.00  0.00    -0.017 S 
ATOM     12  C   UNL A   1      31.428  25.168  25.261  1.00  0.00     0.132 A 
BRANCH  12  13
ATOM     13  N   UNL A   1      31.051  24.637  26.486  1.00  0.00    -0.297 N 
ATOM     14  C   UNL A   1      31.007  23.331  26.872  1.00  0.00     0.322 C 
ATOM     15  H   UNL A   1      30.778  25.292  27.168  1.00  0.00     0.172 HD
ATOM     16  O   UNL A   1      30.044  22.960  27.548  1.00  0.00    -0.248 OA
BRANCH  14  17
ATOM     17  N   UNL A   1      32.032  22.480  26.534  1.00  0.00    -0.324 N 
ATOM     18  C   UNL A   1      33.234  22.280  27.344  1.00  0.00     0.121 C 
ATOM     19  C   UNL A   1      31.776  21.426  25.559  1.00  0.00     0.124 C 
ATOM     20  C   UNL A   1      34.482  22.058  26.488  1.00  0.00     0.022 C 
ATOM     21  C   UNL A   1      32.944  21.370  24.572  1.00  0.00     0.005 C 
ATOM     22  C   UNL A   1      34.256  21.091  25.324  1.00  0.00     0.007 C 
ATOM     23  C   UNL A   1      32.704  20.327  23.487  1.00  0.00     0.009 C 
ENDBRANCH  14  17
ENDBRANCH  12  13
ENDBRANCH   5   7
ENDBRANCH   4   5
ENDBRANCH   3   4
ENDBRANCH   2   3
ENDBRANCH   1   2
BRANCH   1  24
ATOM     24  C   UNL A   1      33.562  30.909  27.618  1.00  0.00     0.202 C 
BRANCH  24  25
ATOM     25  C   UNL A   1      34.192  32.276  27.832  1.00  0.00     0.261 C 
BRANCH  25  26
ATOM     26  O   UNL A   1      35.613  32.235  27.792  1.00  0.00    -0.460 OA
BRANCH  26  27
ATOM     27  C   UNL A   1      36.183  32.055  29.006  1.00  0.00     0.338 C 
ATOM     28  O   UNL A   1      35.910  32.632  30.042  1.00  0.00    -0.246 OA
BRANCH  27  29
ATOM     29  C   UNL A   1      37.338  31.163  28.852  1.00  0.00     0.060 A 
ATOM     30  C   UNL A   1      37.077  29.866  28.409  1.00  0.00     0.016 A 
ATOM     31  C   UNL A   1      38.588  31.529  29.377  1.00  0.00     0.016 A 
ATOM     32  C   UNL A   1      38.015  28.887  28.654  1.00  0.00     0.010 A 
ATOM     33  C   UNL A   1      39.519  30.548  29.630  1.00  0.00     0.010 A 
ATOM     34  C   UNL A   1      39.193  29.229  29.332  1.00  0.00    -0.014 A 
BRANCH  34  35
ATOM     35  C   UNL A   1      40.169  28.186  29.575  1.00  0.00     0.031 A 
ATOM     36  C   UNL A   1      40.569  28.133  30.997  1.00  0.00     0.074 A 
ATOM     37  C   UNL A   1      40.589  27.321  28.631  1.00  0.00     0.049 A 
ATOM     38  N   UNL A   1      41.706  28.487  31.491  1.00  0.00    -0.248 NA
ATOM     39  C   UNL A   1      39.532  27.854  32.003  1.00  0.00     0.031 C 
ATOM     40  C   UNL A   1      40.076  27.153  27.268  1.00  0.00     0.029 A 
ATOM     41  N   UNL A   1      41.519  26.332  28.731  1.00  0.00    -0.354 N 
ATOM     42  C   UNL A   1      41.601  28.266  32.857  1.00  0.00     0.074 A 
ATOM     43  C   UNL A   1      40.203  28.070  33.136  1.00  0.00     0.031 C 
ATOM     44  C   UNL A   1      40.541  25.989  26.754  1.00  0.00     0.029 A 
ATOM     45  C   UNL A   1      41.491  25.411  27.688  1.00  0.00     0.049 A 
ATOM     46  H   UNL A   1      42.158  26.274  29.477  1.00  0.00     0.167 HD
ATOM     47  C   UNL A   1      42.703  27.956  33.590  1.00  0.00     0.031 A 
ATOM     48  C   UNL A   1      42.188  24.249  27.621  1.00  0.00     0.031 A 
ATOM     49  C   UNL A   1      43.913  28.266  32.870  1.00  0.00     0.049 A 
ATOM     50  C   UNL A   1      43.329  24.368  28.551  1.00  0.00     0.074 A 
ATOM     51  C   UNL A   1      44.546  29.416  32.450  1.00  0.00     0.029 A 
ATOM     52  N   UNL A   1      44.406  27.232  32.115  1.00  0.00    -0.354 N 
ATOM     53  N   UNL A   1      44.328  25.172  28.345  1.00  0.00    -0.248 NA
ATOM     54  C   UNL A   1      43.193  23.874  29.913  1.00  0.00     0.031 C 
ATOM     55  C   UNL A   1      45.188  29.071  31.223  1.00  0.00     0.029 A 
ATOM     56  C   UNL A   1      44.981  27.714  30.971  1.00  0.00     0.049 A 
ATOM     57  H   UNL A   1      44.353  26.279  32.361  1.00  0.00     0.167 HD
ATOM     58  C   UNL A   1      44.647  25.649  29.604  1.00  0.00     0.074 A 
ATOM     59  C   UNL A   1      44.049  24.693  30.531  1.00  0.00     0.031 C 
ATOM     60  C   UNL A   1      45.100  26.927  29.761  1.00  0.00     0.031 A 
BRANCH  47  61
ATOM     61  C   UNL A   1      42.682  26.904  34.675  1.00  0.00    -0.014 A 
ATOM     62  C   UNL A   1      42.812  25.554  34.305  1.00  0.00     0.009 A 
ATOM     63  C   UNL A   1      42.240  27.158  35.989  1.00  0.00     0.009 A 
ATOM     64  C   UNL A   1      42.461  24.522  35.186  1.00  0.00     0.001 A 
ATOM     65  C   UNL A   1      41.924  26.132  36.881  1.00  0.00     0.001 A 
ATOM     66  C   UNL A   1      42.012  24.812  36.471  1.00  0.00     0.000 A 
ENDBRANCH  47  61
BRANCH  48  67
ATOM     67  C   UNL A   1      41.867  22.961  26.973  1.00  0.00    -0.014 A 
ATOM     68  C   UNL A   1      42.880  22.169  26.402  1.00  0.00     0.009 A 
ATOM     69  C   UNL A   1      40.615  22.363  27.196  1.00  0.00     0.009 A 
ATOM     70  C   UNL A   1      42.663  20.814  26.115  1.00  0.00     0.001 A 
ATOM     71  C   UNL A   1      40.400  21.009  26.911  1.00  0.00     0.001 A 
ATOM     72  C   UNL A   1      41.428  20.230  26.387  1.00  0.00     0.000 A 
ENDBRANCH  48  67
BRANCH  60  73
ATOM     73  C   UNL A   1      45.590  27.636  28.523  1.00  0.00    -0.014 A 
ATOM     74  C   UNL A   1      46.830  27.378  27.911  1.00  0.00     0.009 A 
ATOM     75  C   UNL A   1      44.718  28.544  27.904  1.00  0.00     0.009 A 
ATOM     76  C   UNL A   1      47.194  28.039  26.731  1.00  0.00     0.001 A 
ATOM     77  C   UNL A   1      45.072  29.185  26.717  1.00  0.00     0.001 A 
ATOM     78  C   UNL A   1      46.314  28.938  26.135  1.00  0.00     0.000 A 
ENDBRANCH  60  73
ENDBRANCH  34  35
ENDBRANCH  27  29
ENDBRANCH  26  27
ENDBRANCH  25  26
ENDBRANCH  24  25
ENDBRANCH   1  24
TORSDOF 16
ENDMDL
MODEL 3
REMARK VINA RESULT:     -10.4      2.509      7.835
REMARK SMILES Cc1nsc(NC(=O)N2CCC[C@@H](C)C2)c1C(=O)OCCOCCOC(=O)c1ccc(-c2c3nc(c(-c4ccccc4)c4ccc([nH]4)c(-c4ccccc4)c4nc(c(-c5ccccc5)c5ccc2[nH]5)C=C4)C=C3)cc1
REMARK SMILES IDX 22 1 21 2 20 3 19 4 17 5 18 6 16 7 1 8 2 9 3 10 4 11 5 12
REMARK SMILES IDX 6 13 7 14 8 16 9 17 10 18 15 19 11 20 13 21 12 22 14 23
REMARK SMILES IDX 23 24 24 25 25 26 26 27 27 28 28 29 29 30 75 31 30 32 74 33
REMARK SMILES IDX 31 34 32 35 33 36 68 37 34 38 73 39 67 40 69 41 35 42 72 43
REMARK SMILES IDX 66 44 65 45 36 47 58 48 43 49 57 50 44 51 47 52 56 53 70 54
REMARK SMILES IDX 45 55 46 56 55 58 71 59 48 60 37 61 38 62 42 63 39 64 41 65
REMARK SMILES IDX 40 66 59 67 60 68 64 69 61 70 63 71 62 72 49 73 50 74 54 75
REMARK SMILES IDX 51 76 53 77 52 78
REMARK H PARENT 6 15 69 46 47 57
REMARK Flexibility Score: inf
ROOT
ATOM      1  O   UNL A   1      36.976  23.362  24.472  1.00  0.00    -0.374 OA
ENDROOT
BRANCH   1   2
ATOM      2  C   UNL A   1      35.781  23.990  24.936  1.00  0.00     0.202 C 
BRANCH   2   3
ATOM      3  C   UNL A   1      35.099  23.366  26.160  1.00  0.00     0.261 C 
BRANCH   3   4
ATOM      4  O   UNL A   1      33.873  24.048  26.479  1.00  0.00    -0.460 OA
BRANCH   4   5
ATOM      5  C   UNL A   1      32.772  23.262  26.680  1.00  0.00     0.343 C 
ATOM      6  O   UNL A   1      32.362  22.900  27.765  1.00  0.00    -0.246 OA
BRANCH   5   7
ATOM      7  C   UNL A   1      31.997  23.142  25.451  1.00  0.00     0.117 A 
ATOM      8  C   UNL A   1      33.079  20.997  24.405  1.00  0.00     0.069 C 
ATOM      9  C   UNL A   1      32.190  22.192  24.383  1.00  0.00     0.068 A 
ATOM     10  N   UNL A   1      31.531  22.445  23.254  1.00  0.00    -0.195 NA
ATOM     11  S   UNL A   1      30.722  23.870  23.427  1.00  0.00    -0.017 S 
ATOM     12  C   UNL A   1      31.034  24.074  25.086  1.00  0.00     0.132 A 
BRANCH  12  13
ATOM     13  N   UNL A   1      30.554  25.153  25.813  1.00  0.00    -0.297 N 
ATOM     14  C   UNL A   1      31.109  26.386  25.976  1.00  0.00     0.322 C 
ATOM     15  H   UNL A   1      29.696  25.007  26.275  1.00  0.00     0.172 HD
ATOM     16  O   UNL A   1      31.065  26.896  27.099  1.00  0.00    -0.248 OA
BRANCH  14  17
ATOM     17  N   UNL A   1      31.667  27.036  24.902  1.00  0.00    -0.324 N 
ATOM     18  C   UNL A   1      33.081  26.947  24.534  1.00  0.00     0.121 C 
ATOM     19  C   UNL A   1      30.792  27.511  23.837  1.00  0.00     0.124 C 
ATOM     20  C   UNL A   1      33.620  28.265  23.976  1.00  0.00     0.022 C 
ATOM     21  C   UNL A   1      31.215  28.930  23.445  1.00  0.00     0.005 C 
ATOM     22  C   UNL A   1      32.677  28.931  22.971  1.00  0.00     0.007 C 
ATOM     23  C   UNL A   1      30.294  29.507  22.376  1.00  0.00     0.009 C 
ENDBRANCH  14  17
ENDBRANCH  12  13
ENDBRANCH   5   7
ENDBRANCH   4   5
ENDBRANCH   3   4
ENDBRANCH   2   3
ENDBRANCH   1   2
BRANCH   1  24
ATOM     24  C   UNL A   1      37.035  21.942  24.408  1.00  0.00     0.202 C 
BRANCH  24  25
ATOM     25  C   UNL A   1      38.140  21.230  25.173  1.00  0.00     0.261 C 
BRANCH  25  26
ATOM     26  O   UNL A   1      38.504  21.910  26.367  1.00  0.00    -0.460 OA
BRANCH  26  27
ATOM     27  C   UNL A   1      39.801  22.296  26.394  1.00  0.00     0.338 C 
ATOM     28  O   UNL A   1      40.752  21.721  25.899  1.00  0.00    -0.246 OA
BRANCH  27  29
ATOM     29  C   UNL A   1      39.925  23.453  27.289  1.00  0.00     0.060 A 
ATOM     30  C   UNL A   1      38.909  24.407  27.229  1.00  0.00     0.016 A 
ATOM     31  C   UNL A   1      41.132  23.697  27.964  1.00  0.00     0.016 A 
ATOM     32  C   UNL A   1      39.172  25.676  27.698  1.00  0.00     0.010 A 
ATOM     33  C   UNL A   1      41.396  24.967  28.421  1.00  0.00     0.010 A 
ATOM     34  C   UNL A   1      40.442  25.959  28.218  1.00  0.00    -0.014 A 
BRANCH  34  35
ATOM     35  C   UNL A   1      40.696  27.297  28.711  1.00  0.00     0.031 A 
ATOM     36  C   UNL A   1      41.907  27.884  28.098  1.00  0.00     0.074 A 
ATOM     37  C   UNL A   1      39.877  27.951  29.557  1.00  0.00     0.049 A 
ATOM     38  N   UNL A   1      43.038  28.099  28.679  1.00  0.00    -0.248 NA
ATOM     39  C   UNL A   1      41.933  28.060  26.636  1.00  0.00     0.031 C 
ATOM     40  C   UNL A   1      38.549  27.539  30.026  1.00  0.00     0.029 A 
ATOM     41  N   UNL A   1      40.027  29.185  30.112  1.00  0.00    -0.354 N 
ATOM     42  C   UNL A   1      43.858  28.646  27.702  1.00  0.00     0.074 A 
ATOM     43  C   UNL A   1      43.204  28.418  26.440  1.00  0.00     0.031 C 
ATOM     44  C   UNL A   1      37.931  28.597  30.604  1.00  0.00     0.029 A 
ATOM     45  C   UNL A   1      38.867  29.706  30.676  1.00  0.00     0.049 A 
ATOM     46  H   UNL A   1      40.885  29.668  30.113  1.00  0.00     0.167 HD
ATOM     47  C   UNL A   1      44.850  29.510  28.043  1.00  0.00     0.031 A 
ATOM     48  C   UNL A   1      38.694  30.967  31.144  1.00  0.00     0.031 A 
ATOM     49  C   UNL A   1      45.136  29.446  29.454  1.00  0.00     0.049 A 
ATOM     50  C   UNL A   1      40.035  31.517  31.426  1.00  0.00     0.074 A 
ATOM     51  C   UNL A   1      45.685  28.517  30.310  1.00  0.00     0.029 A 
ATOM     52  N   UNL A   1      44.417  30.329  30.220  1.00  0.00    -0.354 N 
ATOM     53  N   UNL A   1      40.788  31.083  32.393  1.00  0.00    -0.248 NA
ATOM     54  C   UNL A   1      40.717  32.296  30.404  1.00  0.00     0.031 C 
ATOM     55  C   UNL A   1      45.013  28.700  31.555  1.00  0.00     0.029 A 
ATOM     56  C   UNL A   1      44.127  29.772  31.436  1.00  0.00     0.049 A 
ATOM     57  H   UNL A   1      44.148  31.233  29.935  1.00  0.00     0.167 HD
ATOM     58  C   UNL A   1      42.069  31.121  31.871  1.00  0.00     0.074 A 
ATOM     59  C   UNL A   1      41.985  32.032  30.734  1.00  0.00     0.031 C 
ATOM     60  C   UNL A   1      42.987  30.177  32.231  1.00  0.00     0.031 A 
BRANCH  47  61
ATOM     61  C   UNL A   1      45.154  30.750  27.234  1.00  0.00    -0.014 A 
ATOM     62  C   UNL A   1      46.497  31.119  27.047  1.00  0.00     0.009 A 
ATOM     63  C   UNL A   1      44.184  31.723  26.916  1.00  0.00     0.009 A 
ATOM     64  C   UNL A   1      46.846  32.407  26.622  1.00  0.00     0.001 A 
ATOM     65  C   UNL A   1      44.527  32.996  26.458  1.00  0.00     0.001 A 
ATOM     66  C   UNL A   1      45.861  33.346  26.333  1.00  0.00     0.000 A 
ENDBRANCH  47  61
BRANCH  48  67
ATOM     67  C   UNL A   1      37.494  31.827  31.199  1.00  0.00    -0.014 A 
ATOM     68  C   UNL A   1      37.083  32.564  30.074  1.00  0.00     0.009 A 
ATOM     69  C   UNL A   1      36.578  31.676  32.254  1.00  0.00     0.009 A 
ATOM     70  C   UNL A   1      35.784  33.084  29.986  1.00  0.00     0.001 A 
ATOM     71  C   UNL A   1      35.281  32.194  32.165  1.00  0.00     0.001 A 
ATOM     72  C   UNL A   1      34.878  32.883  31.024  1.00  0.00     0.000 A 
ENDBRANCH  48  67
BRANCH  60  73
ATOM     73  C   UNL A   1      42.682  29.362  33.463  1.00  0.00    -0.014 A 
ATOM     74  C   UNL A   1      41.972  28.148  33.445  1.00  0.00     0.009 A 
ATOM     75  C   UNL A   1      43.212  29.804  34.684  1.00  0.00     0.009 A 
ATOM     76  C   UNL A   1      41.773  27.419  34.624  1.00  0.00     0.001 A 
ATOM     77  C   UNL A   1      43.033  29.067  35.854  1.00  0.00     0.001 A 
ATOM     78  C   UNL A   1      42.307  27.878  35.825  1.00  0.00     0.000 A 
ENDBRANCH  60  73
ENDBRANCH  34  35
ENDBRANCH  27  29
ENDBRANCH  26  27
ENDBRANCH  25  26
ENDBRANCH  24  25
ENDBRANCH   1  24
TORSDOF 16
ENDMDL
