MODEL 1
REMARK VINA RESULT:     -11.6      0.000      0.000
REMARK SMILES Cc1ccc(S(=O)(=O)n2cc(C(=O)C(=O)N[C@@H](Cc3c[nH]c4ccccc34)C(=O)NCC(=O)OCCOCCOC(=O)c3ccc(-c4c5nc(c(-c6ccccc6)c6ccc([nH]6)c(-c6ccccc6)c6nc(c(-c7ccccc7)c7ccc4[nH]7)C=C6)C=C5)cc3)c3ccccc32)cc1
REMARK SMILES IDX 35 1 34 2 32 3 33 4 31 5 30 6 28 7 29 8 17 10 16 11 14 12
REMARK SMILES IDX 15 13 12 15 13 16 11 17 9 18 10 19 96 20 91 21 95 22 92 23
REMARK SMILES IDX 94 24 93 25 6 26 7 27 8 28 5 29 1 30 2 31 3 32 98 33 4 34
REMARK SMILES IDX 97 35 18 36 19 37 20 38 27 39 21 40 22 41 26 42 23 44 25 45
REMARK SMILES IDX 24 46 36 47 37 48 38 49 39 50 40 51 41 52 42 53 43 54 44 55
REMARK SMILES IDX 90 56 45 57 89 58 46 59 47 60 48 61 83 62 49 63 88 64 82 65
REMARK SMILES IDX 84 66 50 67 87 68 81 69 80 70 51 72 73 73 58 74 72 75 59 76
REMARK SMILES IDX 62 77 71 78 85 79 60 80 61 81 70 83 86 84 63 85 52 86 53 87
REMARK SMILES IDX 57 88 54 89 56 90 55 91 74 92 75 93 79 94 76 95 78 96 77 97
REMARK SMILES IDX 64 98 65 99 69 100 66 101 68 102 67 103
REMARK H PARENT 30 9 16 14 21 43 84 71 62 82
REMARK Flexibility Score: inf
ROOT
ATOM      1  C   UNL A   1      39.820  21.105  25.955  1.00  0.00     0.261 C 
ENDROOT
BRANCH   1   2
ATOM      2  O   UNL A   1      38.719  22.025  25.987  1.00  0.00    -0.462 OA
BRANCH   2   3
ATOM      3  C   UNL A   1      37.568  21.540  25.452  1.00  0.00     0.325 C 
ATOM      4  O   UNL A   1      37.468  20.455  24.887  1.00  0.00    -0.250 OA
BRANCH   3   5
ATOM      5  C   UNL A   1      36.415  22.480  25.711  1.00  0.00     0.238 C 
BRANCH   5   6
ATOM      6  N   UNL A   1      35.697  22.974  24.548  1.00  0.00    -0.343 N 
ATOM      7  C   UNL A   1      34.454  22.748  24.058  1.00  0.00     0.243 C 
ATOM      8  O   UNL A   1      34.138  23.504  23.127  1.00  0.00    -0.273 OA
ATOM      9  H   UNL A   1      36.223  23.604  24.003  1.00  0.00     0.164 HD
BRANCH   7  10
ATOM     10  C   UNL A   1      33.446  21.659  24.547  1.00  0.00     0.176 C 
BRANCH  10  11
ATOM     11  N   UNL A   1      32.703  21.946  25.804  1.00  0.00    -0.337 N 
ATOM     12  C   UNL A   1      31.846  23.007  26.137  1.00  0.00     0.293 C 
ATOM     13  O   UNL A   1      31.577  23.221  27.316  1.00  0.00    -0.265 OA
ATOM     14  H   UNL A   1      32.834  21.282  26.520  1.00  0.00     0.164 HD
BRANCH  12  15
ATOM     15  C   UNL A   1      31.200  23.927  25.077  1.00  0.00     0.252 C 
ATOM     16  O   UNL A   1      30.384  23.386  24.332  1.00  0.00    -0.283 OA
BRANCH  15  17
ATOM     17  C   UNL A   1      31.576  25.361  24.862  1.00  0.00     0.054 A 
ATOM     18  N   UNL A   1      32.580  27.383  24.507  1.00  0.00    -0.240 N 
ATOM     19  C   UNL A   1      32.718  26.142  25.153  1.00  0.00     0.117 A 
ATOM     20  C   UNL A   1      31.406  27.295  23.728  1.00  0.00     0.065 A 
ATOM     21  C   UNL A   1      30.641  26.306  24.333  1.00  0.00     0.012 A 
ATOM     22  C   UNL A   1      30.837  28.209  22.816  1.00  0.00     0.028 A 
ATOM     23  C   UNL A   1      29.236  26.391  24.225  1.00  0.00     0.011 A 
ATOM     24  C   UNL A   1      29.450  28.331  22.800  1.00  0.00     0.002 A 
ATOM     25  C   UNL A   1      28.658  27.464  23.538  1.00  0.00     0.001 A 
BRANCH  18  26
ATOM     26  S   UNL A   1      32.756  29.021  25.104  1.00  0.00     0.268 S 
ATOM     27  O   UNL A   1      31.373  29.386  25.382  1.00  0.00    -0.201 OA
ATOM     28  O   UNL A   1      33.478  29.604  23.976  1.00  0.00    -0.201 OA
BRANCH  26  29
ATOM     29  C   UNL A   1      33.644  29.830  26.387  1.00  0.00     0.088 A 
ATOM     30  C   UNL A   1      36.176  30.537  29.841  1.00  0.00     0.044 C 
ATOM     31  C   UNL A   1      35.323  30.367  28.615  1.00  0.00    -0.051 A 
ATOM     32  C   UNL A   1      35.549  29.234  27.855  1.00  0.00     0.005 A 
ATOM     33  C   UNL A   1      34.286  31.250  28.226  1.00  0.00     0.005 A 
ATOM     34  C   UNL A   1      34.739  28.993  26.762  1.00  0.00     0.022 A 
ATOM     35  C   UNL A   1      33.431  30.986  27.112  1.00  0.00     0.022 A 
ENDBRANCH  26  29
ENDBRANCH  18  26
ENDBRANCH  15  17
ENDBRANCH  12  15
ENDBRANCH  10  11
BRANCH  10  36
ATOM     36  C   UNL A   1      32.592  20.947  23.441  1.00  0.00     0.072 C 
BRANCH  36  37
ATOM     37  C   UNL A   1      32.723  19.464  23.198  1.00  0.00    -0.020 A 
ATOM     38  C   UNL A   1      31.949  18.706  22.326  1.00  0.00     0.087 A 
ATOM     39  C   UNL A   1      33.662  18.544  23.774  1.00  0.00     0.003 A 
ATOM     40  N   UNL A   1      32.252  17.379  22.507  1.00  0.00    -0.361 N 
ATOM     41  C   UNL A   1      33.233  17.249  23.457  1.00  0.00     0.046 A 
ATOM     42  C   UNL A   1      34.785  18.681  24.599  1.00  0.00     0.010 A 
ATOM     43  H   UNL A   1      31.827  16.632  22.027  1.00  0.00     0.166 HD
ATOM     44  C   UNL A   1      33.745  16.098  24.071  1.00  0.00     0.026 A 
ATOM     45  C   UNL A   1      35.380  17.528  25.116  1.00  0.00     0.001 A 
ATOM     46  C   UNL A   1      34.821  16.267  24.935  1.00  0.00     0.002 A 
ENDBRANCH  36  37
ENDBRANCH  10  36
ENDBRANCH   7  10
ENDBRANCH   5   6
ENDBRANCH   3   5
ENDBRANCH   2   3
ENDBRANCH   1   2
BRANCH   1  47
ATOM     47  C   UNL A   1      41.037  21.575  26.726  1.00  0.00     0.202 C 
BRANCH  47  48
ATOM     48  O   UNL A   1      40.674  22.793  27.368  1.00  0.00    -0.374 OA
BRANCH  48  49
ATOM     49  C   UNL A   1      41.517  23.911  27.146  1.00  0.00     0.202 C 
BRANCH  49  50
ATOM     50  C   UNL A   1      40.754  25.202  26.838  1.00  0.00     0.261 C 
BRANCH  50  51
ATOM     51  O   UNL A   1      41.552  26.339  27.220  1.00  0.00    -0.460 OA
BRANCH  51  52
ATOM     52  C   UNL A   1      41.408  27.443  26.434  1.00  0.00     0.338 C 
ATOM     53  O   UNL A   1      41.750  27.529  25.269  1.00  0.00    -0.246 OA
BRANCH  52  54
ATOM     54  C   UNL A   1      41.052  28.614  27.284  1.00  0.00     0.060 A 
ATOM     55  C   UNL A   1      42.073  29.362  27.898  1.00  0.00     0.016 A 
ATOM     56  C   UNL A   1      39.736  28.740  27.723  1.00  0.00     0.016 A 
ATOM     57  C   UNL A   1      41.797  30.107  29.051  1.00  0.00     0.010 A 
ATOM     58  C   UNL A   1      39.500  29.368  28.924  1.00  0.00     0.010 A 
ATOM     59  C   UNL A   1      40.530  30.024  29.614  1.00  0.00    -0.014 A 
BRANCH  59  60
ATOM     60  C   UNL A   1      40.125  30.546  30.919  1.00  0.00     0.031 A 
ATOM     61  C   UNL A   1      39.315  31.787  30.891  1.00  0.00     0.074 A 
ATOM     62  C   UNL A   1      40.215  29.802  32.048  1.00  0.00     0.049 A 
ATOM     63  N   UNL A   1      38.649  32.235  31.887  1.00  0.00    -0.248 NA
ATOM     64  C   UNL A   1      39.143  32.613  29.695  1.00  0.00     0.031 C 
ATOM     65  C   UNL A   1      39.522  30.006  33.316  1.00  0.00     0.029 A 
ATOM     66  N   UNL A   1      41.012  28.685  32.327  1.00  0.00    -0.354 N 
ATOM     67  C   UNL A   1      37.859  33.271  31.472  1.00  0.00     0.074 A 
ATOM     68  C   UNL A   1      38.177  33.455  30.082  1.00  0.00     0.031 C 
ATOM     69  C   UNL A   1      40.076  29.256  34.282  1.00  0.00     0.029 A 
ATOM     70  C   UNL A   1      41.286  28.713  33.706  1.00  0.00     0.049 A 
ATOM     71  H   UNL A   1      41.320  28.010  31.681  1.00  0.00     0.167 HD
ATOM     72  C   UNL A   1      37.006  33.799  32.388  1.00  0.00     0.031 A 
ATOM     73  C   UNL A   1      42.540  28.987  34.158  1.00  0.00     0.031 A 
ATOM     74  C   UNL A   1      37.432  33.420  33.749  1.00  0.00     0.049 A 
ATOM     75  C   UNL A   1      42.459  30.302  34.905  1.00  0.00     0.074 A 
ATOM     76  C   UNL A   1      36.898  32.665  34.776  1.00  0.00     0.029 A 
ATOM     77  N   UNL A   1      38.780  33.632  34.093  1.00  0.00    -0.354 N 
ATOM     78  N   UNL A   1      41.734  31.333  34.522  1.00  0.00    -0.248 NA
ATOM     79  C   UNL A   1      42.905  30.394  36.293  1.00  0.00     0.031 C 
ATOM     80  C   UNL A   1      37.973  32.308  35.654  1.00  0.00     0.029 A 
ATOM     81  C   UNL A   1      39.154  32.879  35.190  1.00  0.00     0.049 A 
ATOM     82  H   UNL A   1      39.383  34.243  33.612  1.00  0.00     0.167 HD
ATOM     83  C   UNL A   1      41.464  32.100  35.633  1.00  0.00     0.074 A 
ATOM     84  C   UNL A   1      42.267  31.504  36.697  1.00  0.00     0.031 C 
ATOM     85  C   UNL A   1      40.474  33.032  35.797  1.00  0.00     0.031 A 
BRANCH  72  86
ATOM     86  C   UNL A   1      35.741  34.546  32.029  1.00  0.00    -0.014 A 
ATOM     87  C   UNL A   1      35.234  35.527  32.899  1.00  0.00     0.009 A 
ATOM     88  C   UNL A   1      34.937  34.262  30.907  1.00  0.00     0.009 A 
ATOM     89  C   UNL A   1      34.009  36.176  32.663  1.00  0.00     0.001 A 
ATOM     90  C   UNL A   1      33.724  34.918  30.651  1.00  0.00     0.001 A 
ATOM     91  C   UNL A   1      33.257  35.877  31.534  1.00  0.00     0.000 A 
ENDBRANCH  72  86
BRANCH  73  92
ATOM     92  C   UNL A   1      43.587  28.378  33.279  1.00  0.00    -0.014 A 
ATOM     93  C   UNL A   1      43.929  27.032  33.562  1.00  0.00     0.009 A 
ATOM     94  C   UNL A   1      43.833  28.843  31.982  1.00  0.00     0.009 A 
ATOM     95  C   UNL A   1      44.308  26.138  32.553  1.00  0.00     0.001 A 
ATOM     96  C   UNL A   1      44.242  27.946  30.974  1.00  0.00     0.001 A 
ATOM     97  C   UNL A   1      44.424  26.589  31.247  1.00  0.00     0.000 A 
ENDBRANCH  73  92
BRANCH  85  98
ATOM     98  C   UNL A   1      40.693  34.244  36.672  1.00  0.00    -0.014 A 
ATOM     99  C   UNL A   1      41.827  35.062  36.582  1.00  0.00     0.009 A 
ATOM    100  C   UNL A   1      39.633  34.713  37.480  1.00  0.00     0.009 A 
ATOM    101  C   UNL A   1      41.914  36.265  37.286  1.00  0.00     0.001 A 
ATOM    102  C   UNL A   1      39.695  35.937  38.142  1.00  0.00     0.001 A 
ATOM    103  C   UNL A   1      40.843  36.708  38.052  1.00  0.00     0.000 A 
ENDBRANCH  85  98
ENDBRANCH  59  60
ENDBRANCH  52  54
ENDBRANCH  51  52
ENDBRANCH  50  51
ENDBRANCH  49  50
ENDBRANCH  48  49
ENDBRANCH  47  48
ENDBRANCH   1  47
TORSDOF 23
ENDMDL
MODEL 2
REMARK VINA RESULT:     -11.2      5.849     12.779
REMARK SMILES Cc1ccc(S(=O)(=O)n2cc(C(=O)C(=O)N[C@@H](Cc3c[nH]c4ccccc34)C(=O)NCC(=O)OCCOCCOC(=O)c3ccc(-c4c5nc(c(-c6ccccc6)c6ccc([nH]6)c(-c6ccccc6)c6nc(c(-c7ccccc7)c7ccc4[nH]7)C=C6)C=C5)cc3)c3ccccc32)cc1
REMARK SMILES IDX 35 1 34 2 32 3 33 4 31 5 30 6 28 7 29 8 17 10 16 11 14 12
REMARK SMILES IDX 15 13 12 15 13 16 11 17 9 18 10 19 96 20 91 21 95 22 92 23
REMARK SMILES IDX 94 24 93 25 6 26 7 27 8 28 5 29 1 30 2 31 3 32 98 33 4 34
REMARK SMILES IDX 97 35 18 36 19 37 20 38 27 39 21 40 22 41 26 42 23 44 25 45
REMARK SMILES IDX 24 46 36 47 37 48 38 49 39 50 40 51 41 52 42 53 43 54 44 55
REMARK SMILES IDX 90 56 45 57 89 58 46 59 47 60 48 61 83 62 49 63 88 64 82 65
REMARK SMILES IDX 84 66 50 67 87 68 81 69 80 70 51 72 73 73 58 74 72 75 59 76
REMARK SMILES IDX 62 77 71 78 85 79 60 80 61 81 70 83 86 84 63 85 52 86 53 87
REMARK SMILES IDX 57 88 54 89 56 90 55 91 74 92 75 93 79 94 76 95 78 96 77 97
REMARK SMILES IDX 64 98 65 99 69 100 66 101 68 102 67 103
REMARK H PARENT 30 9 16 14 21 43 84 71 62 82
REMARK Flexibility Score: inf
ROOT
ATOM      1  C   UNL A   1      46.077  32.554  33.209  1.00  0.00     0.261 C 
ENDROOT
BRANCH   1   2
ATOM      2  O   UNL A   1      46.983  31.651  33.859  1.00  0.00    -0.462 OA
BRANCH   2   3
ATOM      3  C   UNL A   1      46.397  30.830  34.771  1.00  0.00     0.325 C 
ATOM      4  O   UNL A   1      46.468  29.605  34.750  1.00  0.00    -0.250 OA
BRANCH   3   5
ATOM      5  C   UNL A   1      45.713  31.630  35.853  1.00  0.00     0.238 C 
BRANCH   5   6
ATOM      6  N   UNL A   1      44.590  30.998  36.526  1.00  0.00    -0.343 N 
ATOM      7  C   UNL A   1      43.333  30.676  36.134  1.00  0.00     0.243 C 
ATOM      8  O   UNL A   1      42.719  29.974  36.951  1.00  0.00    -0.273 OA
ATOM      9  H   UNL A   1      44.782  30.752  37.460  1.00  0.00     0.164 HD
BRANCH   7  10
ATOM     10  C   UNL A   1      42.634  31.107  34.805  1.00  0.00     0.176 C 
BRANCH  10  11
ATOM     11  N   UNL A   1      41.817  30.077  34.110  1.00  0.00    -0.337 N 
ATOM     12  C   UNL A   1      40.500  29.646  34.342  1.00  0.00     0.293 C 
ATOM     13  O   UNL A   1      40.116  28.583  33.860  1.00  0.00    -0.265 OA
ATOM     14  H   UNL A   1      42.272  29.623  33.364  1.00  0.00     0.164 HD
BRANCH  12  15
ATOM     15  C   UNL A   1      39.485  30.461  35.175  1.00  0.00     0.252 C 
ATOM     16  O   UNL A   1      39.334  30.089  36.338  1.00  0.00    -0.283 OA
BRANCH  15  17
ATOM     17  C   UNL A   1      38.643  31.573  34.629  1.00  0.00     0.054 A 
ATOM     18  N   UNL A   1      37.343  33.410  34.235  1.00  0.00    -0.240 N 
ATOM     19  C   UNL A   1      37.591  32.365  35.142  1.00  0.00     0.117 A 
ATOM     20  C   UNL A   1      38.335  33.310  33.235  1.00  0.00     0.065 A 
ATOM     21  C   UNL A   1      38.747  31.983  33.262  1.00  0.00     0.012 A 
ATOM     22  C   UNL A   1      38.618  34.145  32.132  1.00  0.00     0.028 A 
ATOM     23  C   UNL A   1      39.221  31.408  32.063  1.00  0.00     0.011 A 
ATOM     24  C   UNL A   1      38.997  33.535  30.939  1.00  0.00     0.002 A 
ATOM     25  C   UNL A   1      39.246  32.173  30.892  1.00  0.00     0.001 A 
BRANCH  18  26
ATOM     26  S   UNL A   1      35.853  33.984  33.514  1.00  0.00     0.268 S 
ATOM     27  O   UNL A   1      35.932  35.417  33.766  1.00  0.00    -0.201 OA
ATOM     28  O   UNL A   1      34.904  33.142  34.239  1.00  0.00    -0.201 OA
BRANCH  26  29
ATOM     29  C   UNL A   1      35.075  33.903  31.940  1.00  0.00     0.088 A 
ATOM     30  C   UNL A   1      34.075  32.708  27.888  1.00  0.00     0.044 C 
ATOM     31  C   UNL A   1      34.340  33.143  29.303  1.00  0.00    -0.051 A 
ATOM     32  C   UNL A   1      34.914  32.206  30.142  1.00  0.00     0.005 A 
ATOM     33  C   UNL A   1      34.095  34.444  29.805  1.00  0.00     0.005 A 
ATOM     34  C   UNL A   1      35.249  32.580  31.429  1.00  0.00     0.022 A 
ATOM     35  C   UNL A   1      34.467  34.840  31.127  1.00  0.00     0.022 A 
ENDBRANCH  26  29
ENDBRANCH  18  26
ENDBRANCH  15  17
ENDBRANCH  12  15
ENDBRANCH  10  11
BRANCH  10  36
ATOM     36  C   UNL A   1      42.020  32.550  34.771  1.00  0.00     0.072 C 
BRANCH  36  37
ATOM     37  C   UNL A   1      42.343  33.502  33.647  1.00  0.00    -0.020 A 
ATOM     38  C   UNL A   1      42.459  34.884  33.753  1.00  0.00     0.087 A 
ATOM     39  C   UNL A   1      42.617  33.200  32.271  1.00  0.00     0.003 A 
ATOM     40  N   UNL A   1      42.591  35.414  32.493  1.00  0.00    -0.361 N 
ATOM     41  C   UNL A   1      42.596  34.406  31.561  1.00  0.00     0.046 A 
ATOM     42  C   UNL A   1      42.800  32.015  31.548  1.00  0.00     0.010 A 
ATOM     43  H   UNL A   1      42.669  36.373  32.288  1.00  0.00     0.166 HD
ATOM     44  C   UNL A   1      42.555  34.474  30.161  1.00  0.00     0.026 A 
ATOM     45  C   UNL A   1      42.887  32.087  30.156  1.00  0.00     0.001 A 
ATOM     46  C   UNL A   1      42.676  33.277  29.466  1.00  0.00     0.002 A 
ENDBRANCH  36  37
ENDBRANCH  10  36
ENDBRANCH   7  10
ENDBRANCH   5   6
ENDBRANCH   3   5
ENDBRANCH   2   3
ENDBRANCH   1   2
BRANCH   1  47
ATOM     47  C   UNL A   1      46.551  33.994  33.192  1.00  0.00     0.202 C 
BRANCH  47  48
ATOM     48  O   UNL A   1      47.092  34.236  31.897  1.00  0.00    -0.374 OA
BRANCH  48  49
ATOM     49  C   UNL A   1      48.387  34.810  31.842  1.00  0.00     0.202 C 
BRANCH  49  50
ATOM     50  C   UNL A   1      49.411  33.941  31.106  1.00  0.00     0.261 C 
BRANCH  50  51
ATOM     51  O   UNL A   1      49.257  32.566  31.508  1.00  0.00    -0.460 OA
BRANCH  51  52
ATOM     52  C   UNL A   1      49.304  31.655  30.497  1.00  0.00     0.338 C 
ATOM     53  O   UNL A   1      50.116  31.647  29.590  1.00  0.00    -0.246 OA
BRANCH  52  54
ATOM     54  C   UNL A   1      48.046  30.855  30.491  1.00  0.00     0.060 A 
ATOM     55  C   UNL A   1      48.083  29.501  30.872  1.00  0.00     0.016 A 
ATOM     56  C   UNL A   1      46.945  31.355  29.799  1.00  0.00     0.016 A 
ATOM     57  C   UNL A   1      47.094  28.620  30.417  1.00  0.00     0.010 A 
ATOM     58  C   UNL A   1      46.052  30.463  29.251  1.00  0.00     0.010 A 
ATOM     59  C   UNL A   1      46.138  29.090  29.525  1.00  0.00    -0.014 A 
BRANCH  59  60
ATOM     60  C   UNL A   1      45.174  28.280  28.781  1.00  0.00     0.031 A 
ATOM     61  C   UNL A   1      43.853  28.095  29.429  1.00  0.00     0.074 A 
ATOM     62  C   UNL A   1      45.353  27.974  27.472  1.00  0.00     0.049 A 
ATOM     63  N   UNL A   1      42.811  27.662  28.828  1.00  0.00    -0.248 NA
ATOM     64  C   UNL A   1      43.583  28.444  30.825  1.00  0.00     0.031 C 
ATOM     65  C   UNL A   1      44.351  27.532  26.509  1.00  0.00     0.029 A 
ATOM     66  N   UNL A   1      46.526  27.951  26.708  1.00  0.00    -0.354 N 
ATOM     67  C   UNL A   1      41.726  27.805  29.648  1.00  0.00     0.074 A 
ATOM     68  C   UNL A   1      42.250  28.329  30.880  1.00  0.00     0.031 C 
ATOM     69  C   UNL A   1      44.942  27.050  25.403  1.00  0.00     0.029 A 
ATOM     70  C   UNL A   1      46.350  26.965  25.721  1.00  0.00     0.049 A 
ATOM     71  H   UNL A   1      47.321  28.517  26.837  1.00  0.00     0.167 HD
ATOM     72  C   UNL A   1      40.514  27.487  29.124  1.00  0.00     0.031 A 
ATOM     73  C   UNL A   1      47.057  25.804  25.768  1.00  0.00     0.031 A 
ATOM     74  C   UNL A   1      40.689  26.644  27.926  1.00  0.00     0.049 A 
ATOM     75  C   UNL A   1      46.056  24.691  26.000  1.00  0.00     0.074 A 
ATOM     76  C   UNL A   1      40.413  26.777  26.578  1.00  0.00     0.029 A 
ATOM     77  N   UNL A   1      41.533  25.524  28.033  1.00  0.00    -0.354 N 
ATOM     78  N   UNL A   1      45.015  24.779  26.803  1.00  0.00    -0.248 NA
ATOM     79  C   UNL A   1      45.977  23.562  25.076  1.00  0.00     0.031 C 
ATOM     80  C   UNL A   1      41.216  25.819  25.876  1.00  0.00     0.029 A 
ATOM     81  C   UNL A   1      41.949  25.074  26.795  1.00  0.00     0.049 A 
ATOM     82  H   UNL A   1      41.796  25.110  28.887  1.00  0.00     0.167 HD
ATOM     83  C   UNL A   1      44.074  23.867  26.383  1.00  0.00     0.074 A 
ATOM     84  C   UNL A   1      44.747  23.094  25.343  1.00  0.00     0.031 C 
ATOM     85  C   UNL A   1      42.733  23.848  26.660  1.00  0.00     0.031 A 
BRANCH  72  86
ATOM     86  C   UNL A   1      39.203  28.038  29.638  1.00  0.00    -0.014 A 
ATOM     87  C   UNL A   1      38.444  28.908  28.835  1.00  0.00     0.009 A 
ATOM     88  C   UNL A   1      38.705  27.834  30.941  1.00  0.00     0.009 A 
ATOM     89  C   UNL A   1      37.272  29.528  29.303  1.00  0.00     0.001 A 
ATOM     90  C   UNL A   1      37.527  28.432  31.411  1.00  0.00     0.001 A 
ATOM     91  C   UNL A   1      36.809  29.285  30.590  1.00  0.00     0.000 A 
ENDBRANCH  72  86
BRANCH  73  92
ATOM     92  C   UNL A   1      48.456  26.029  26.247  1.00  0.00    -0.014 A 
ATOM     93  C   UNL A   1      48.743  25.577  27.560  1.00  0.00     0.009 A 
ATOM     94  C   UNL A   1      49.534  26.157  25.364  1.00  0.00     0.009 A 
ATOM     95  C   UNL A   1      50.007  25.088  27.914  1.00  0.00     0.001 A 
ATOM     96  C   UNL A   1      50.813  25.690  25.733  1.00  0.00     0.001 A 
ATOM     97  C   UNL A   1      51.034  25.107  26.982  1.00  0.00     0.000 A 
ENDBRANCH  73  92
BRANCH  85  98
ATOM     98  C   UNL A   1      41.990  22.538  26.783  1.00  0.00    -0.014 A 
ATOM     99  C   UNL A   1      40.772  22.282  26.137  1.00  0.00     0.009 A 
ATOM    100  C   UNL A   1      42.627  21.438  27.399  1.00  0.00     0.009 A 
ATOM    101  C   UNL A   1      40.204  21.006  26.137  1.00  0.00     0.001 A 
ATOM    102  C   UNL A   1      42.089  20.154  27.356  1.00  0.00     0.001 A 
ATOM    103  C   UNL A   1      40.870  19.941  26.732  1.00  0.00     0.000 A 
ENDBRANCH  85  98
ENDBRANCH  59  60
ENDBRANCH  52  54
ENDBRANCH  51  52
ENDBRANCH  50  51
ENDBRANCH  49  50
ENDBRANCH  48  49
ENDBRANCH  47  48
ENDBRANCH   1  47
TORSDOF 23
ENDMDL
MODEL 3
REMARK VINA RESULT:     -10.8      2.117      5.445
REMARK SMILES Cc1ccc(S(=O)(=O)n2cc(C(=O)C(=O)N[C@@H](Cc3c[nH]c4ccccc34)C(=O)NCC(=O)OCCOCCOC(=O)c3ccc(-c4c5nc(c(-c6ccccc6)c6ccc([nH]6)c(-c6ccccc6)c6nc(c(-c7ccccc7)c7ccc4[nH]7)C=C6)C=C5)cc3)c3ccccc32)cc1
REMARK SMILES IDX 35 1 34 2 32 3 33 4 31 5 30 6 28 7 29 8 17 10 16 11 14 12
REMARK SMILES IDX 15 13 12 15 13 16 11 17 9 18 10 19 96 20 91 21 95 22 92 23
REMARK SMILES IDX 94 24 93 25 6 26 7 27 8 28 5 29 1 30 2 31 3 32 98 33 4 34
REMARK SMILES IDX 97 35 18 36 19 37 20 38 27 39 21 40 22 41 26 42 23 44 25 45
REMARK SMILES IDX 24 46 36 47 37 48 38 49 39 50 40 51 41 52 42 53 43 54 44 55
REMARK SMILES IDX 90 56 45 57 89 58 46 59 47 60 48 61 83 62 49 63 88 64 82 65
REMARK SMILES IDX 84 66 50 67 87 68 81 69 80 70 51 72 73 73 58 74 72 75 59 76
REMARK SMILES IDX 62 77 71 78 85 79 60 80 61 81 70 83 86 84 63 85 52 86 53 87
REMARK SMILES IDX 57 88 54 89 56 90 55 91 74 92 75 93 79 94 76 95 78 96 77 97
REMARK SMILES IDX 64 98 65 99 69 100 66 101 68 102 67 103
REMARK H PARENT 30 9 16 14 21 43 84 71 62 82
REMARK Flexibility Score: inf
ROOT
ATOM      1  C   UNL A   1      39.017  21.377  25.872  1.00  0.00     0.261 C 
ENDROOT
BRANCH   1   2
ATOM      2  O   UNL A   1      38.160  22.189  25.054  1.00  0.00    -0.462 OA
BRANCH   2   3
ATOM      3  C   UNL A   1      36.879  22.275  25.498  1.00  0.00     0.325 C 
ATOM      4  O   UNL A   1      36.287  21.379  26.093  1.00  0.00    -0.250 OA
BRANCH   3   5
ATOM      5  C   UNL A   1      36.308  23.647  25.230  1.00  0.00     0.238 C 
BRANCH   5   6
ATOM      6  N   UNL A   1      35.374  23.763  24.122  1.00  0.00    -0.343 N 
ATOM      7  C   UNL A   1      34.161  23.214  23.867  1.00  0.00     0.243 C 
ATOM      8  O   UNL A   1      33.587  23.704  22.884  1.00  0.00    -0.273 OA
ATOM      9  H   UNL A   1      35.686  24.367  23.410  1.00  0.00     0.164 HD
BRANCH   7  10
ATOM     10  C   UNL A   1      33.473  22.064  24.672  1.00  0.00     0.176 C 
BRANCH  10  11
ATOM     11  N   UNL A   1      33.266  22.293  26.127  1.00  0.00    -0.337 N 
ATOM     12  C   UNL A   1      32.335  23.099  26.802  1.00  0.00     0.293 C 
ATOM     13  O   UNL A   1      32.523  23.385  27.982  1.00  0.00    -0.265 OA
ATOM     14  H   UNL A   1      33.883  21.798  26.714  1.00  0.00     0.164 HD
BRANCH  12  15
ATOM     15  C   UNL A   1      31.055  23.644  26.130  1.00  0.00     0.252 C 
ATOM     16  O   UNL A   1      30.166  22.816  25.932  1.00  0.00    -0.283 OA
BRANCH  15  17
ATOM     17  C   UNL A   1      30.891  25.051  25.643  1.00  0.00     0.054 A 
ATOM     18  N   UNL A   1      30.189  27.110  24.943  1.00  0.00    -0.240 N 
ATOM     19  C   UNL A   1      29.902  25.734  24.898  1.00  0.00     0.117 A 
ATOM     20  C   UNL A   1      31.285  27.258  25.821  1.00  0.00     0.065 A 
ATOM     21  C   UNL A   1      31.925  26.025  25.814  1.00  0.00     0.012 A 
ATOM     22  C   UNL A   1      31.930  28.418  26.300  1.00  0.00     0.028 A 
ATOM     23  C   UNL A   1      33.317  25.995  26.049  1.00  0.00     0.011 A 
ATOM     24  C   UNL A   1      33.315  28.380  26.434  1.00  0.00     0.002 A 
ATOM     25  C   UNL A   1      34.008  27.193  26.259  1.00  0.00     0.001 A 
BRANCH  18  26
ATOM     26  S   UNL A   1      30.305  28.308  23.669  1.00  0.00     0.268 S 
ATOM     27  O   UNL A   1      30.197  27.482  22.473  1.00  0.00    -0.201 OA
ATOM     28  O   UNL A   1      31.573  28.927  24.046  1.00  0.00    -0.201 OA
BRANCH  26  29
ATOM     29  C   UNL A   1      29.459  29.778  23.209  1.00  0.00     0.088 A 
ATOM     30  C   UNL A   1      27.699  32.953  20.830  1.00  0.00     0.044 C 
ATOM     31  C   UNL A   1      28.248  31.867  21.711  1.00  0.00    -0.051 A 
ATOM     32  C   UNL A   1      28.377  30.613  21.142  1.00  0.00     0.005 A 
ATOM     33  C   UNL A   1      28.684  32.054  23.046  1.00  0.00     0.005 A 
ATOM     34  C   UNL A   1      28.950  29.599  21.886  1.00  0.00     0.022 A 
ATOM     35  C   UNL A   1      29.301  31.014  23.806  1.00  0.00     0.022 A 
ENDBRANCH  26  29
ENDBRANCH  18  26
ENDBRANCH  15  17
ENDBRANCH  12  15
ENDBRANCH  10  11
BRANCH  10  36
ATOM     36  C   UNL A   1      32.290  21.321  23.961  1.00  0.00     0.072 C 
BRANCH  36  37
ATOM     37  C   UNL A   1      32.490  19.959  23.345  1.00  0.00    -0.020 A 
ATOM     38  C   UNL A   1      31.827  19.459  22.230  1.00  0.00     0.087 A 
ATOM     39  C   UNL A   1      33.399  18.923  23.746  1.00  0.00     0.003 A 
ATOM     40  N   UNL A   1      32.153  18.133  22.080  1.00  0.00    -0.361 N 
ATOM     41  C   UNL A   1      33.044  17.758  23.054  1.00  0.00     0.046 A 
ATOM     42  C   UNL A   1      34.433  18.839  24.686  1.00  0.00     0.010 A 
ATOM     43  H   UNL A   1      31.800  17.541  21.378  1.00  0.00     0.166 HD
ATOM     44  C   UNL A   1      33.531  16.487  23.387  1.00  0.00     0.026 A 
ATOM     45  C   UNL A   1      35.013  17.592  24.933  1.00  0.00     0.001 A 
ATOM     46  C   UNL A   1      34.514  16.423  24.368  1.00  0.00     0.002 A 
ENDBRANCH  36  37
ENDBRANCH  10  36
ENDBRANCH   7  10
ENDBRANCH   5   6
ENDBRANCH   3   5
ENDBRANCH   2   3
ENDBRANCH   1   2
BRANCH   1  47
ATOM     47  C   UNL A   1      39.999  22.171  26.710  1.00  0.00     0.202 C 
BRANCH  47  48
ATOM     48  O   UNL A   1      39.669  23.546  26.540  1.00  0.00    -0.374 OA
BRANCH  48  49
ATOM     49  C   UNL A   1      39.881  24.398  27.654  1.00  0.00     0.202 C 
BRANCH  49  50
ATOM     50  C   UNL A   1      41.003  25.417  27.440  1.00  0.00     0.261 C 
BRANCH  50  51
ATOM     51  O   UNL A   1      41.245  26.136  28.665  1.00  0.00    -0.460 OA
BRANCH  51  52
ATOM     52  C   UNL A   1      42.124  27.171  28.569  1.00  0.00     0.338 C 
ATOM     53  O   UNL A   1      43.322  27.065  28.378  1.00  0.00    -0.246 OA
BRANCH  52  54
ATOM     54  C   UNL A   1      41.466  28.426  29.029  1.00  0.00     0.060 A 
ATOM     55  C   UNL A   1      42.037  29.670  28.703  1.00  0.00     0.016 A 
ATOM     56  C   UNL A   1      40.509  28.342  30.039  1.00  0.00     0.016 A 
ATOM     57  C   UNL A   1      41.768  30.792  29.496  1.00  0.00     0.010 A 
ATOM     58  C   UNL A   1      40.351  29.414  30.887  1.00  0.00     0.010 A 
ATOM     59  C   UNL A   1      41.003  30.632  30.645  1.00  0.00    -0.014 A 
BRANCH  59  60
ATOM     60  C   UNL A   1      40.803  31.626  31.699  1.00  0.00     0.031 A 
ATOM     61  C   UNL A   1      41.911  31.764  32.673  1.00  0.00     0.074 A 
ATOM     62  C   UNL A   1      39.824  32.562  31.624  1.00  0.00     0.049 A 
ATOM     63  N   UNL A   1      42.040  32.745  33.484  1.00  0.00    -0.248 NA
ATOM     64  C   UNL A   1      43.018  30.811  32.777  1.00  0.00     0.031 C 
ATOM     65  C   UNL A   1      39.729  33.820  32.356  1.00  0.00     0.029 A 
ATOM     66  N   UNL A   1      38.639  32.565  30.880  1.00  0.00    -0.354 N 
ATOM     67  C   UNL A   1      43.262  32.670  34.091  1.00  0.00     0.074 A 
ATOM     68  C   UNL A   1      43.857  31.458  33.596  1.00  0.00     0.031 C 
ATOM     69  C   UNL A   1      38.495  34.339  32.242  1.00  0.00     0.029 A 
ATOM     70  C   UNL A   1      37.698  33.310  31.614  1.00  0.00     0.049 A 
ATOM     71  H   UNL A   1      38.492  32.130  30.009  1.00  0.00     0.167 HD
ATOM     72  C   UNL A   1      43.605  33.697  34.912  1.00  0.00     0.031 A 
ATOM     73  C   UNL A   1      36.636  32.695  32.203  1.00  0.00     0.031 A 
ATOM     74  C   UNL A   1      42.400  34.453  35.302  1.00  0.00     0.049 A 
ATOM     75  C   UNL A   1      36.815  32.849  33.698  1.00  0.00     0.074 A 
ATOM     76  C   UNL A   1      41.935  35.739  35.102  1.00  0.00     0.029 A 
ATOM     77  N   UNL A   1      41.302  33.723  35.794  1.00  0.00    -0.354 N 
ATOM     78  N   UNL A   1      37.970  32.755  34.325  1.00  0.00    -0.248 NA
ATOM     79  C   UNL A   1      35.768  33.466  34.510  1.00  0.00     0.031 C 
ATOM     80  C   UNL A   1      40.521  35.729  35.339  1.00  0.00     0.029 A 
ATOM     81  C   UNL A   1      40.130  34.450  35.724  1.00  0.00     0.049 A 
ATOM     82  H   UNL A   1      41.362  32.805  36.145  1.00  0.00     0.167 HD
ATOM     83  C   UNL A   1      37.872  33.452  35.509  1.00  0.00     0.074 A 
ATOM     84  C   UNL A   1      36.462  33.822  35.603  1.00  0.00     0.031 C 
ATOM     85  C   UNL A   1      38.886  33.935  36.292  1.00  0.00     0.031 A 
BRANCH  72  86
ATOM     86  C   UNL A   1      45.032  34.066  35.249  1.00  0.00    -0.014 A 
ATOM     87  C   UNL A   1      45.449  35.405  35.168  1.00  0.00     0.009 A 
ATOM     88  C   UNL A   1      46.048  33.135  35.548  1.00  0.00     0.009 A 
ATOM     89  C   UNL A   1      46.788  35.787  35.371  1.00  0.00     0.001 A 
ATOM     90  C   UNL A   1      47.382  33.507  35.773  1.00  0.00     0.001 A 
ATOM     91  C   UNL A   1      47.754  34.838  35.680  1.00  0.00     0.000 A 
ENDBRANCH  72  86
BRANCH  73  92
ATOM     92  C   UNL A   1      36.097  31.589  31.351  1.00  0.00    -0.014 A 
ATOM     93  C   UNL A   1      35.513  31.982  30.121  1.00  0.00     0.009 A 
ATOM     94  C   UNL A   1      36.577  30.278  31.443  1.00  0.00     0.009 A 
ATOM     95  C   UNL A   1      35.582  31.175  28.978  1.00  0.00     0.001 A 
ATOM     96  C   UNL A   1      36.621  29.457  30.297  1.00  0.00     0.001 A 
ATOM     97  C   UNL A   1      36.177  29.925  29.058  1.00  0.00     0.000 A 
ENDBRANCH  73  92
BRANCH  85  98
ATOM     98  C   UNL A   1      38.732  34.008  37.793  1.00  0.00    -0.014 A 
ATOM     99  C   UNL A   1      39.195  35.085  38.561  1.00  0.00     0.009 A 
ATOM    100  C   UNL A   1      37.909  33.066  38.450  1.00  0.00     0.009 A 
ATOM    101  C   UNL A   1      38.885  35.196  39.919  1.00  0.00     0.001 A 
ATOM    102  C   UNL A   1      37.554  33.201  39.790  1.00  0.00     0.001 A 
ATOM    103  C   UNL A   1      38.053  34.264  40.527  1.00  0.00     0.000 A 
ENDBRANCH  85  98
ENDBRANCH  59  60
ENDBRANCH  52  54
ENDBRANCH  51  52
ENDBRANCH  50  51
ENDBRANCH  49  50
ENDBRANCH  48  49
ENDBRANCH  47  48
ENDBRANCH   1  47
TORSDOF 23
ENDMDL
