MODEL 1
REMARK VINA RESULT:     -12.1      0.000      0.000
REMARK SMILES O=C(N[C@@H](Cc1c[nH]c2ccccc12)C(=O)N[C@@H](CO)C(=O)OCCOCCOC(=O)c1ccc(-c2c3nc(c(-c4ccccc4)c4ccc([nH]4)c(-c4ccccc4)c4nc(c(-c5ccccc5)c5ccc2[nH]5)C=C4)C=C3)cc1)c1ccc(F)cc1
REMARK SMILES IDX 25 1 24 2 23 3 21 4 22 5 18 6 17 7 15 8 16 9 4 11 3 12 1 13
REMARK SMILES IDX 2 14 80 16 81 17 86 18 82 19 85 20 83 21 84 22 5 23 6 24
REMARK SMILES IDX 7 25 14 26 8 27 9 28 13 29 10 31 12 32 11 33 19 34 20 35
REMARK SMILES IDX 26 37 27 38 28 39 29 40 30 41 31 42 32 43 33 44 79 45 34 46
REMARK SMILES IDX 78 47 35 48 36 49 37 50 72 51 38 52 77 53 71 54 73 55 39 56
REMARK SMILES IDX 76 57 70 58 69 59 40 61 62 62 47 63 61 64 48 65 51 66 60 67
REMARK SMILES IDX 74 68 49 69 50 70 59 72 75 73 52 74 41 75 42 76 46 77 43 78
REMARK SMILES IDX 45 79 44 80 63 81 64 82 68 83 65 84 67 85 66 86 53 87 54 88
REMARK SMILES IDX 58 89 55 90 57 91 56 92
REMARK H PARENT 17 10 3 15 8 30 20 36 73 60 51 71
REMARK Flexibility Score: inf
ROOT
ATOM      1  C   UNL A   1      38.674  21.348  25.388  1.00  0.00     0.202 C 
ENDROOT
BRANCH   1   2
ATOM      2  C   UNL A   1      37.153  21.590  25.211  1.00  0.00     0.261 C 
BRANCH   2   3
ATOM      3  O   UNL A   1      36.746  22.585  24.262  1.00  0.00    -0.462 OA
BRANCH   3   4
ATOM      4  C   UNL A   1      36.259  23.659  24.939  1.00  0.00     0.331 C 
ATOM      5  O   UNL A   1      36.900  24.203  25.848  1.00  0.00    -0.250 OA
BRANCH   4   6
ATOM      6  C   UNL A   1      34.725  24.222  24.410  1.00  0.00     0.218 C 
BRANCH   6   7
ATOM      7  N   UNL A   1      34.470  25.548  25.457  1.00  0.00    -0.339 N 
ATOM      8  C   UNL A   1      33.349  26.165  26.001  1.00  0.00     0.243 C 
ATOM      9  O   UNL A   1      33.592  27.154  26.714  1.00  0.00    -0.273 OA
ATOM     10  H   UNL A   1      35.311  25.974  25.741  1.00  0.00     0.164 HD
BRANCH   8  11
ATOM     11  C   UNL A   1      31.786  25.835  25.704  1.00  0.00     0.176 C 
BRANCH  11  12
ATOM     12  N   UNL A   1      31.017  25.022  26.685  1.00  0.00    -0.340 N 
ATOM     13  O   UNL A   1      29.826  23.363  27.549  1.00  0.00    -0.269 OA
ATOM     14  C   UNL A   1      30.811  23.697  26.893  1.00  0.00     0.251 C 
ATOM     15  H   UNL A   1      30.542  25.581  27.342  1.00  0.00     0.164 HD
BRANCH  14  16
ATOM     16  C   UNL A   1      31.678  22.662  26.330  1.00  0.00     0.040 A 
ATOM     17  C   UNL A   1      31.427  22.105  25.077  1.00  0.00     0.017 A 
ATOM     18  C   UNL A   1      32.845  22.343  27.041  1.00  0.00     0.017 A 
ATOM     19  C   UNL A   1      32.337  21.190  24.549  1.00  0.00     0.040 A 
ATOM     20  C   UNL A   1      33.747  21.424  26.512  1.00  0.00     0.040 A 
ATOM     21  C   UNL A   1      33.481  20.853  25.273  1.00  0.00     0.123 A 
ATOM     22  F   UNL A   1      34.349  19.973  24.759  1.00  0.00    -0.207 F 
ENDBRANCH  14  16
ENDBRANCH  11  12
BRANCH  11  23
ATOM     23  C   UNL A   1      30.916  27.035  25.330  1.00  0.00     0.072 C 
BRANCH  23  24
ATOM     24  C   UNL A   1      30.992  27.444  23.870  1.00  0.00    -0.020 A 
ATOM     25  C   UNL A   1      32.118  28.096  23.358  1.00  0.00     0.087 A 
ATOM     26  C   UNL A   1      29.834  27.766  23.030  1.00  0.00     0.003 A 
ATOM     27  N   UNL A   1      31.833  29.058  22.391  1.00  0.00    -0.361 N 
ATOM     28  C   UNL A   1      30.473  29.242  22.303  1.00  0.00     0.046 A 
ATOM     29  C   UNL A   1      28.029  27.696  23.356  1.00  0.00     0.010 A 
ATOM     30  H   UNL A   1      32.504  29.536  21.852  1.00  0.00     0.166 HD
ATOM     31  C   UNL A   1      29.387  30.646  21.941  1.00  0.00     0.026 A 
ATOM     32  C   UNL A   1      26.983  29.133  23.121  1.00  0.00     0.001 A 
ATOM     33  C   UNL A   1      27.673  30.600  22.434  1.00  0.00     0.002 A 
ENDBRANCH  23  24
ENDBRANCH  11  23
ENDBRANCH   8  11
ENDBRANCH   6   7
BRANCH   6  34
ATOM     34  C   UNL A   1      33.642  23.748  22.548  1.00  0.00     0.193 C 
BRANCH  34  35
ATOM     35  O   UNL A   1      32.185  24.127  22.121  1.00  0.00    -0.394 OA
ATOM     36  H   UNL A   1      31.834  23.445  21.527  1.00  0.00     0.210 HD
ENDBRANCH  34  35
ENDBRANCH   6  34
ENDBRANCH   4   6
ENDBRANCH   3   4
ENDBRANCH   2   3
ENDBRANCH   1   2
BRANCH   1  37
ATOM     37  O   UNL A   1      39.368  21.722  26.569  1.00  0.00    -0.374 OA
BRANCH  37  38
ATOM     38  C   UNL A   1      40.590  21.095  26.933  1.00  0.00     0.202 C 
BRANCH  38  39
ATOM     39  C   UNL A   1      41.900  21.460  26.227  1.00  0.00     0.261 C 
BRANCH  39  40
ATOM     40  O   UNL A   1      41.935  22.810  25.745  1.00  0.00    -0.460 OA
BRANCH  40  41
ATOM     41  C   UNL A   1      42.903  23.578  26.297  1.00  0.00     0.338 C 
ATOM     42  O   UNL A   1      44.108  23.489  26.141  1.00  0.00    -0.246 OA
BRANCH  41  43
ATOM     43  C   UNL A   1      42.286  24.721  26.981  1.00  0.00     0.060 A 
ATOM     44  C   UNL A   1      42.933  25.962  26.899  1.00  0.00     0.016 A 
ATOM     45  C   UNL A   1      41.149  24.551  27.770  1.00  0.00     0.016 A 
ATOM     46  C   UNL A   1      42.455  27.043  27.623  1.00  0.00     0.010 A 
ATOM     47  C   UNL A   1      40.696  25.626  28.534  1.00  0.00     0.010 A 
ATOM     48  C   UNL A   1      41.372  26.859  28.488  1.00  0.00    -0.014 A 
BRANCH  48  49
ATOM     49  C   UNL A   1      41.106  27.894  29.504  1.00  0.00     0.031 A 
ATOM     50  C   UNL A   1      41.993  27.938  30.714  1.00  0.00     0.074 A 
ATOM     51  C   UNL A   1      40.140  28.804  29.313  1.00  0.00     0.049 A 
ATOM     52  N   UNL A   1      41.938  28.732  31.751  1.00  0.00    -0.248 NA
ATOM     53  C   UNL A   1      43.091  26.957  30.760  1.00  0.00     0.031 C 
ATOM     54  C   UNL A   1      39.280  28.894  28.133  1.00  0.00     0.029 A 
ATOM     55  N   UNL A   1      39.721  29.830  30.117  1.00  0.00    -0.354 N 
ATOM     56  C   UNL A   1      42.984  28.336  32.577  1.00  0.00     0.074 A 
ATOM     57  C   UNL A   1      43.640  27.221  31.934  1.00  0.00     0.031 C 
ATOM     58  C   UNL A   1      38.424  29.916  28.298  1.00  0.00     0.029 A 
ATOM     59  C   UNL A   1      38.651  30.521  29.608  1.00  0.00     0.049 A 
ATOM     60  H   UNL A   1      40.146  30.051  30.977  1.00  0.00     0.167 HD
ATOM     61  C   UNL A   1      43.359  28.861  33.766  1.00  0.00     0.031 A 
ATOM     62  C   UNL A   1      37.924  31.511  30.158  1.00  0.00     0.031 A 
ATOM     63  C   UNL A   1      42.680  29.957  34.401  1.00  0.00     0.049 A 
ATOM     64  C   UNL A   1      38.300  32.011  31.527  1.00  0.00     0.074 A 
ATOM     65  C   UNL A   1      42.969  30.570  35.607  1.00  0.00     0.029 A 
ATOM     66  N   UNL A   1      41.564  30.597  33.881  1.00  0.00    -0.354 N 
ATOM     67  N   UNL A   1      39.293  31.639  32.300  1.00  0.00    -0.248 NA
ATOM     68  C   UNL A   1      37.458  33.071  32.097  1.00  0.00     0.031 C 
ATOM     69  C   UNL A   1      41.989  31.537  35.847  1.00  0.00     0.029 A 
ATOM     70  C   UNL A   1      41.133  31.578  34.757  1.00  0.00     0.049 A 
ATOM     71  H   UNL A   1      41.143  30.384  33.017  1.00  0.00     0.167 HD
ATOM     72  C   UNL A   1      39.214  32.440  33.433  1.00  0.00     0.074 A 
ATOM     73  C   UNL A   1      38.085  33.328  33.236  1.00  0.00     0.031 C 
ATOM     74  C   UNL A   1      40.004  32.446  34.535  1.00  0.00     0.031 A 
BRANCH  61  75
ATOM     75  C   UNL A   1      44.516  28.214  34.475  1.00  0.00    -0.014 A 
ATOM     76  C   UNL A   1      44.322  27.361  35.574  1.00  0.00     0.009 A 
ATOM     77  C   UNL A   1      45.823  28.449  34.023  1.00  0.00     0.009 A 
ATOM     78  C   UNL A   1      45.418  26.787  36.225  1.00  0.00     0.001 A 
ATOM     79  C   UNL A   1      46.913  27.849  34.654  1.00  0.00     0.001 A 
ATOM     80  C   UNL A   1      46.710  27.026  35.761  1.00  0.00     0.000 A 
ENDBRANCH  61  75
BRANCH  62  81
ATOM     81  C   UNL A   1      36.755  32.069  29.431  1.00  0.00    -0.014 A 
ATOM     82  C   UNL A   1      35.511  31.421  29.463  1.00  0.00     0.009 A 
ATOM     83  C   UNL A   1      36.881  33.255  28.689  1.00  0.00     0.009 A 
ATOM     84  C   UNL A   1      34.428  31.934  28.745  1.00  0.00     0.001 A 
ATOM     85  C   UNL A   1      35.788  33.783  27.999  1.00  0.00     0.001 A 
ATOM     86  C   UNL A   1      34.565  33.116  28.020  1.00  0.00     0.000 A 
ENDBRANCH  62  81
BRANCH  74  87
ATOM     87  C   UNL A   1      39.700  33.471  35.592  1.00  0.00    -0.014 A 
ATOM     88  C   UNL A   1      38.883  33.170  36.692  1.00  0.00     0.009 A 
ATOM     89  C   UNL A   1      40.280  34.747  35.504  1.00  0.00     0.009 A 
ATOM     90  C   UNL A   1      38.624  34.140  37.664  1.00  0.00     0.001 A 
ATOM     91  C   UNL A   1      40.048  35.702  36.495  1.00  0.00     0.001 A 
ATOM     92  C   UNL A   1      39.211  35.401  37.567  1.00  0.00     0.000 A 
ENDBRANCH  74  87
ENDBRANCH  48  49
ENDBRANCH  41  43
ENDBRANCH  40  41
ENDBRANCH  39  40
ENDBRANCH  38  39
ENDBRANCH  37  38
ENDBRANCH   1  37
TORSDOF 22
ENDMDL
MODEL 2
REMARK VINA RESULT:     -11.8      3.470      4.793
REMARK SMILES O=C(N[C@@H](Cc1c[nH]c2ccccc12)C(=O)N[C@@H](CO)C(=O)OCCOCCOC(=O)c1ccc(-c2c3nc(c(-c4ccccc4)c4ccc([nH]4)c(-c4ccccc4)c4nc(c(-c5ccccc5)c5ccc2[nH]5)C=C4)C=C3)cc1)c1ccc(F)cc1
REMARK SMILES IDX 25 1 24 2 23 3 21 4 22 5 18 6 17 7 15 8 16 9 4 11 3 12 1 13
REMARK SMILES IDX 2 14 80 16 81 17 86 18 82 19 85 20 83 21 84 22 5 23 6 24
REMARK SMILES IDX 7 25 14 26 8 27 9 28 13 29 10 31 12 32 11 33 19 34 20 35
REMARK SMILES IDX 26 37 27 38 28 39 29 40 30 41 31 42 32 43 33 44 79 45 34 46
REMARK SMILES IDX 78 47 35 48 36 49 37 50 72 51 38 52 77 53 71 54 73 55 39 56
REMARK SMILES IDX 76 57 70 58 69 59 40 61 62 62 47 63 61 64 48 65 51 66 60 67
REMARK SMILES IDX 74 68 49 69 50 70 59 72 75 73 52 74 41 75 42 76 46 77 43 78
REMARK SMILES IDX 45 79 44 80 63 81 64 82 68 83 65 84 67 85 66 86 53 87 54 88
REMARK SMILES IDX 58 89 55 90 57 91 56 92
REMARK H PARENT 17 10 3 15 8 30 20 36 73 60 51 71
REMARK Flexibility Score: inf
ROOT
ATOM      1  C   UNL A   1      37.471  19.769  24.898  1.00  0.00     0.202 C 
ENDROOT
BRANCH   1   2
ATOM      2  C   UNL A   1      36.169  20.502  25.311  1.00  0.00     0.261 C 
BRANCH   2   3
ATOM      3  O   UNL A   1      34.925  19.935  24.879  1.00  0.00    -0.462 OA
BRANCH   3   4
ATOM      4  C   UNL A   1      33.906  20.661  25.414  1.00  0.00     0.331 C 
ATOM      5  O   UNL A   1      34.041  21.295  26.468  1.00  0.00    -0.250 OA
BRANCH   4   6
ATOM      6  C   UNL A   1      32.453  20.665  24.498  1.00  0.00     0.218 C 
BRANCH   6   7
ATOM      7  N   UNL A   1      31.448  21.656  25.461  1.00  0.00    -0.339 N 
ATOM      8  C   UNL A   1      30.952  22.951  25.351  1.00  0.00     0.243 C 
ATOM      9  O   UNL A   1      30.258  23.327  26.310  1.00  0.00    -0.273 OA
ATOM     10  H   UNL A   1      31.150  21.207  26.285  1.00  0.00     0.164 HD
BRANCH   8  11
ATOM     11  C   UNL A   1      31.286  24.052  24.203  1.00  0.00     0.176 C 
BRANCH  11  12
ATOM     12  N   UNL A   1      31.933  23.609  22.939  1.00  0.00    -0.340 N 
ATOM     13  O   UNL A   1      33.367  23.496  21.252  1.00  0.00    -0.269 OA
ATOM     14  C   UNL A   1      33.205  23.558  22.470  1.00  0.00     0.251 C 
ATOM     15  H   UNL A   1      31.280  23.272  22.284  1.00  0.00     0.164 HD
BRANCH  14  16
ATOM     16  C   UNL A   1      34.376  23.625  23.343  1.00  0.00     0.040 A 
ATOM     17  C   UNL A   1      35.600  23.076  22.962  1.00  0.00     0.017 A 
ATOM     18  C   UNL A   1      34.257  24.373  24.524  1.00  0.00     0.017 A 
ATOM     19  C   UNL A   1      36.707  23.249  23.792  1.00  0.00     0.040 A 
ATOM     20  C   UNL A   1      35.363  24.537  25.352  1.00  0.00     0.040 A 
ATOM     21  C   UNL A   1      36.576  23.970  24.980  1.00  0.00     0.123 A 
ATOM     22  F   UNL A   1      37.644  24.130  25.771  1.00  0.00    -0.207 F 
ENDBRANCH  14  16
ENDBRANCH  11  12
BRANCH  11  23
ATOM     23  C   UNL A   1      30.133  24.980  23.822  1.00  0.00     0.072 C 
BRANCH  23  24
ATOM     24  C   UNL A   1      30.549  26.395  23.460  1.00  0.00    -0.020 A 
ATOM     25  C   UNL A   1      31.061  26.698  22.195  1.00  0.00     0.087 A 
ATOM     26  C   UNL A   1      31.026  27.397  24.418  1.00  0.00     0.003 A 
ATOM     27  N   UNL A   1      32.064  27.665  22.200  1.00  0.00    -0.361 N 
ATOM     28  C   UNL A   1      32.419  27.962  23.495  1.00  0.00     0.046 A 
ATOM     29  C   UNL A   1      31.178  27.365  26.247  1.00  0.00     0.010 A 
ATOM     30  H   UNL A   1      32.461  28.073  21.397  1.00  0.00     0.166 HD
ATOM     31  C   UNL A   1      33.953  28.445  24.329  1.00  0.00     0.026 A 
ATOM     32  C   UNL A   1      32.739  27.714  27.058  1.00  0.00     0.001 A 
ATOM     33  C   UNL A   1      34.117  28.233  26.092  1.00  0.00     0.002 A 
ENDBRANCH  23  24
ENDBRANCH  11  23
ENDBRANCH   8  11
ENDBRANCH   6   7
BRANCH   6  34
ATOM     34  C   UNL A   1      32.134  20.055  22.403  1.00  0.00     0.193 C 
BRANCH  34  35
ATOM     35  O   UNL A   1      31.493  20.855  21.221  1.00  0.00    -0.394 OA
ATOM     36  H   UNL A   1      30.862  20.288  20.750  1.00  0.00     0.210 HD
ENDBRANCH  34  35
ENDBRANCH   6  34
ENDBRANCH   4   6
ENDBRANCH   3   4
ENDBRANCH   2   3
ENDBRANCH   1   2
BRANCH   1  37
ATOM     37  O   UNL A   1      38.754  20.210  25.318  1.00  0.00    -0.374 OA
BRANCH  37  38
ATOM     38  C   UNL A   1      39.758  19.283  25.709  1.00  0.00     0.202 C 
BRANCH  38  39
ATOM     39  C   UNL A   1      41.087  19.768  26.297  1.00  0.00     0.261 C 
BRANCH  39  40
ATOM     40  O   UNL A   1      41.491  21.058  25.817  1.00  0.00    -0.460 OA
BRANCH  40  41
ATOM     41  C   UNL A   1      42.823  21.192  25.625  1.00  0.00     0.338 C 
ATOM     42  O   UNL A   1      43.571  20.445  25.017  1.00  0.00    -0.246 OA
BRANCH  41  43
ATOM     43  C   UNL A   1      43.250  22.519  26.084  1.00  0.00     0.060 A 
ATOM     44  C   UNL A   1      43.468  22.700  27.458  1.00  0.00     0.016 A 
ATOM     45  C   UNL A   1      43.336  23.588  25.193  1.00  0.00     0.016 A 
ATOM     46  C   UNL A   1      43.757  23.961  27.954  1.00  0.00     0.010 A 
ATOM     47  C   UNL A   1      43.581  24.864  25.698  1.00  0.00     0.010 A 
ATOM     48  C   UNL A   1      43.753  25.054  27.082  1.00  0.00    -0.014 A 
BRANCH  48  49
ATOM     49  C   UNL A   1      43.702  26.409  27.661  1.00  0.00     0.031 A 
ATOM     50  C   UNL A   1      45.001  27.095  27.967  1.00  0.00     0.074 A 
ATOM     51  C   UNL A   1      42.526  27.027  27.847  1.00  0.00     0.049 A 
ATOM     52  N   UNL A   1      45.212  28.267  28.505  1.00  0.00    -0.248 NA
ATOM     53  C   UNL A   1      46.230  26.360  27.618  1.00  0.00     0.031 C 
ATOM     54  C   UNL A   1      41.215  26.476  27.505  1.00  0.00     0.029 A 
ATOM     55  N   UNL A   1      42.250  28.261  28.371  1.00  0.00    -0.354 N 
ATOM     56  C   UNL A   1      46.594  28.403  28.570  1.00  0.00     0.074 A 
ATOM     57  C   UNL A   1      47.170  27.189  28.040  1.00  0.00     0.031 C 
ATOM     58  C   UNL A   1      40.269  27.368  27.842  1.00  0.00     0.029 A 
ATOM     59  C   UNL A   1      40.907  28.529  28.459  1.00  0.00     0.049 A 
ATOM     60  H   UNL A   1      42.946  28.894  28.659  1.00  0.00     0.167 HD
ATOM     61  C   UNL A   1      47.313  29.452  29.032  1.00  0.00     0.031 A 
ATOM     62  C   UNL A   1      40.273  29.583  29.004  1.00  0.00     0.031 A 
ATOM     63  C   UNL A   1      46.721  30.644  29.576  1.00  0.00     0.049 A 
ATOM     64  C   UNL A   1      41.095  30.693  29.603  1.00  0.00     0.074 A 
ATOM     65  C   UNL A   1      47.351  31.769  30.077  1.00  0.00     0.029 A 
ATOM     66  N   UNL A   1      45.356  30.857  29.700  1.00  0.00    -0.354 N 
ATOM     67  N   UNL A   1      42.400  30.820  29.656  1.00  0.00    -0.248 NA
ATOM     68  C   UNL A   1      40.356  31.806  30.213  1.00  0.00     0.031 C 
ATOM     69  C   UNL A   1      46.367  32.635  30.563  1.00  0.00     0.029 A 
ATOM     70  C   UNL A   1      45.123  32.083  30.298  1.00  0.00     0.049 A 
ATOM     71  H   UNL A   1      44.657  30.229  29.405  1.00  0.00     0.167 HD
ATOM     72  C   UNL A   1      42.638  32.041  30.275  1.00  0.00     0.074 A 
ATOM     73  C   UNL A   1      41.341  32.620  30.564  1.00  0.00     0.031 C 
ATOM     74  C   UNL A   1      43.820  32.633  30.576  1.00  0.00     0.031 A 
BRANCH  61  75
ATOM     75  C   UNL A   1      48.810  29.324  29.021  1.00  0.00    -0.014 A 
ATOM     76  C   UNL A   1      49.577  29.751  27.924  1.00  0.00     0.009 A 
ATOM     77  C   UNL A   1      49.467  28.782  30.136  1.00  0.00     0.009 A 
ATOM     78  C   UNL A   1      50.967  29.603  27.933  1.00  0.00     0.001 A 
ATOM     79  C   UNL A   1      50.857  28.665  30.156  1.00  0.00     0.001 A 
ATOM     80  C   UNL A   1      51.605  29.067  29.051  1.00  0.00     0.000 A 
ENDBRANCH  61  75
BRANCH  62  81
ATOM     81  C   UNL A   1      38.788  29.623  29.038  1.00  0.00    -0.014 A 
ATOM     82  C   UNL A   1      38.056  30.081  27.932  1.00  0.00     0.009 A 
ATOM     83  C   UNL A   1      38.093  29.211  30.187  1.00  0.00     0.009 A 
ATOM     84  C   UNL A   1      36.660  30.150  27.988  1.00  0.00     0.001 A 
ATOM     85  C   UNL A   1      36.698  29.250  30.227  1.00  0.00     0.001 A 
ATOM     86  C   UNL A   1      35.984  29.730  29.131  1.00  0.00     0.000 A 
ENDBRANCH  62  81
BRANCH  74  87
ATOM     87  C   UNL A   1      43.764  33.995  31.212  1.00  0.00    -0.014 A 
ATOM     88  C   UNL A   1      43.743  34.152  32.606  1.00  0.00     0.009 A 
ATOM     89  C   UNL A   1      43.777  35.139  30.397  1.00  0.00     0.009 A 
ATOM     90  C   UNL A   1      43.700  35.430  33.170  1.00  0.00     0.001 A 
ATOM     91  C   UNL A   1      43.769  36.413  30.965  1.00  0.00     0.001 A 
ATOM     92  C   UNL A   1      43.719  36.557  32.349  1.00  0.00     0.000 A 
ENDBRANCH  74  87
ENDBRANCH  48  49
ENDBRANCH  41  43
ENDBRANCH  40  41
ENDBRANCH  39  40
ENDBRANCH  38  39
ENDBRANCH  37  38
ENDBRANCH   1  37
TORSDOF 22
ENDMDL
MODEL 3
REMARK VINA RESULT:     -11.7      6.327      9.476
REMARK SMILES O=C(N[C@@H](Cc1c[nH]c2ccccc12)C(=O)N[C@@H](CO)C(=O)OCCOCCOC(=O)c1ccc(-c2c3nc(c(-c4ccccc4)c4ccc([nH]4)c(-c4ccccc4)c4nc(c(-c5ccccc5)c5ccc2[nH]5)C=C4)C=C3)cc1)c1ccc(F)cc1
REMARK SMILES IDX 25 1 24 2 23 3 21 4 22 5 18 6 17 7 15 8 16 9 4 11 3 12 1 13
REMARK SMILES IDX 2 14 80 16 81 17 86 18 82 19 85 20 83 21 84 22 5 23 6 24
REMARK SMILES IDX 7 25 14 26 8 27 9 28 13 29 10 31 12 32 11 33 19 34 20 35
REMARK SMILES IDX 26 37 27 38 28 39 29 40 30 41 31 42 32 43 33 44 79 45 34 46
REMARK SMILES IDX 78 47 35 48 36 49 37 50 72 51 38 52 77 53 71 54 73 55 39 56
REMARK SMILES IDX 76 57 70 58 69 59 40 61 62 62 47 63 61 64 48 65 51 66 60 67
REMARK SMILES IDX 74 68 49 69 50 70 59 72 75 73 52 74 41 75 42 76 46 77 43 78
REMARK SMILES IDX 45 79 44 80 63 81 64 82 68 83 65 84 67 85 66 86 53 87 54 88
REMARK SMILES IDX 58 89 55 90 57 91 56 92
REMARK H PARENT 17 10 3 15 8 30 20 36 73 60 51 71
REMARK Flexibility Score: inf
ROOT
ATOM      1  C   UNL A   1      38.732  21.544  25.467  1.00  0.00     0.202 C 
ENDROOT
BRANCH   1   2
ATOM      2  C   UNL A   1      37.213  21.430  25.182  1.00  0.00     0.261 C 
BRANCH   2   3
ATOM      3  O   UNL A   1      36.651  22.326  24.214  1.00  0.00    -0.462 OA
BRANCH   3   4
ATOM      4  C   UNL A   1      36.183  23.428  24.859  1.00  0.00     0.331 C 
ATOM      5  O   UNL A   1      36.813  23.958  25.784  1.00  0.00    -0.250 OA
BRANCH   4   6
ATOM      6  C   UNL A   1      34.693  24.044  24.267  1.00  0.00     0.218 C 
BRANCH   6   7
ATOM      7  N   UNL A   1      34.485  25.429  25.246  1.00  0.00    -0.339 N 
ATOM      8  C   UNL A   1      33.389  26.085  25.794  1.00  0.00     0.243 C 
ATOM      9  O   UNL A   1      33.664  27.110  26.441  1.00  0.00    -0.273 OA
ATOM     10  H   UNL A   1      35.339  25.862  25.476  1.00  0.00     0.164 HD
BRANCH   8  11
ATOM     11  C   UNL A   1      31.814  25.753  25.572  1.00  0.00     0.176 C 
BRANCH  11  12
ATOM     12  N   UNL A   1      31.095  24.934  26.585  1.00  0.00    -0.340 N 
ATOM     13  O   UNL A   1      30.027  23.232  27.523  1.00  0.00    -0.269 OA
ATOM     14  C   UNL A   1      30.994  23.610  26.863  1.00  0.00     0.251 C 
ATOM     15  H   UNL A   1      30.563  25.486  27.203  1.00  0.00     0.164 HD
BRANCH  14  16
ATOM     16  C   UNL A   1      31.953  22.621  26.373  1.00  0.00     0.040 A 
ATOM     17  C   UNL A   1      33.088  22.281  27.108  1.00  0.00     0.017 A 
ATOM     18  C   UNL A   1      31.624  21.934  25.195  1.00  0.00     0.017 A 
ATOM     19  C   UNL A   1      33.920  21.265  26.637  1.00  0.00     0.040 A 
ATOM     20  C   UNL A   1      32.460  20.925  24.727  1.00  0.00     0.040 A 
ATOM     21  C   UNL A   1      33.603  20.604  25.450  1.00  0.00     0.123 A 
ATOM     22  F   UNL A   1      34.407  19.631  25.005  1.00  0.00    -0.207 F 
ENDBRANCH  14  16
ENDBRANCH  11  12
BRANCH  11  23
ATOM     23  C   UNL A   1      30.924  26.953  25.247  1.00  0.00     0.072 C 
BRANCH  23  24
ATOM     24  C   UNL A   1      30.973  27.405  23.797  1.00  0.00    -0.020 A 
ATOM     25  C   UNL A   1      32.093  28.062  23.281  1.00  0.00     0.087 A 
ATOM     26  C   UNL A   1      29.800  27.762  22.993  1.00  0.00     0.003 A 
ATOM     27  N   UNL A   1      31.796  29.055  22.349  1.00  0.00    -0.361 N 
ATOM     28  C   UNL A   1      30.437  29.253  22.296  1.00  0.00     0.046 A 
ATOM     29  C   UNL A   1      28.002  27.696  23.356  1.00  0.00     0.010 A 
ATOM     30  H   UNL A   1      32.460  29.543  21.811  1.00  0.00     0.166 HD
ATOM     31  C   UNL A   1      29.355  30.676  21.999  1.00  0.00     0.026 A 
ATOM     32  C   UNL A   1      26.964  29.148  23.186  1.00  0.00     0.001 A 
ATOM     33  C   UNL A   1      27.652  30.630  22.528  1.00  0.00     0.002 A 
ENDBRANCH  23  24
ENDBRANCH  11  23
ENDBRANCH   8  11
ENDBRANCH   6   7
BRANCH   6  34
ATOM     34  C   UNL A   1      33.629  23.541  22.402  1.00  0.00     0.193 C 
BRANCH  34  35
ATOM     35  O   UNL A   1      33.011  24.491  21.322  1.00  0.00    -0.394 OA
ATOM     36  H   UNL A   1      33.358  25.389  21.444  1.00  0.00     0.210 HD
ENDBRANCH  34  35
ENDBRANCH   6  34
ENDBRANCH   4   6
ENDBRANCH   3   4
ENDBRANCH   2   3
ENDBRANCH   1   2
BRANCH   1  37
ATOM     37  O   UNL A   1      39.239  21.880  26.751  1.00  0.00    -0.374 OA
BRANCH  37  38
ATOM     38  C   UNL A   1      40.624  21.766  27.046  1.00  0.00     0.202 C 
BRANCH  38  39
ATOM     39  C   UNL A   1      41.640  22.735  26.431  1.00  0.00     0.261 C 
BRANCH  39  40
ATOM     40  O   UNL A   1      41.111  24.046  26.193  1.00  0.00    -0.460 OA
BRANCH  40  41
ATOM     41  C   UNL A   1      41.352  24.935  27.185  1.00  0.00     0.338 C 
ATOM     42  O   UNL A   1      40.708  25.111  28.205  1.00  0.00    -0.246 OA
BRANCH  41  43
ATOM     43  C   UNL A   1      42.665  25.556  26.974  1.00  0.00     0.060 A 
ATOM     44  C   UNL A   1      43.434  25.866  28.105  1.00  0.00     0.016 A 
ATOM     45  C   UNL A   1      43.086  25.916  25.694  1.00  0.00     0.016 A 
ATOM     46  C   UNL A   1      44.627  26.557  27.964  1.00  0.00     0.010 A 
ATOM     47  C   UNL A   1      44.262  26.652  25.558  1.00  0.00     0.010 A 
ATOM     48  C   UNL A   1      45.011  27.004  26.696  1.00  0.00    -0.014 A 
BRANCH  48  49
ATOM     49  C   UNL A   1      46.067  28.029  26.607  1.00  0.00     0.031 A 
ATOM     50  C   UNL A   1      45.661  29.470  26.701  1.00  0.00     0.074 A 
ATOM     51  C   UNL A   1      47.357  27.672  26.509  1.00  0.00     0.049 A 
ATOM     52  N   UNL A   1      46.399  30.545  26.620  1.00  0.00    -0.248 NA
ATOM     53  C   UNL A   1      44.228  29.736  26.919  1.00  0.00     0.031 C 
ATOM     54  C   UNL A   1      47.857  26.298  26.492  1.00  0.00     0.029 A 
ATOM     55  N   UNL A   1      48.481  28.445  26.404  1.00  0.00    -0.354 N 
ATOM     56  C   UNL A   1      45.520  31.612  26.763  1.00  0.00     0.074 A 
ATOM     57  C   UNL A   1      44.194  31.058  26.913  1.00  0.00     0.031 C 
ATOM     58  C   UNL A   1      49.195  26.327  26.370  1.00  0.00     0.029 A 
ATOM     59  C   UNL A   1      49.634  27.716  26.260  1.00  0.00     0.049 A 
ATOM     60  H   UNL A   1      48.465  29.429  26.429  1.00  0.00     0.167 HD
ATOM     61  C   UNL A   1      45.800  32.936  26.768  1.00  0.00     0.031 A 
ATOM     62  C   UNL A   1      50.894  28.131  26.034  1.00  0.00     0.031 A 
ATOM     63  C   UNL A   1      47.123  33.469  26.596  1.00  0.00     0.049 A 
ATOM     64  C   UNL A   1      51.165  29.609  25.944  1.00  0.00     0.074 A 
ATOM     65  C   UNL A   1      47.525  34.793  26.581  1.00  0.00     0.029 A 
ATOM     66  N   UNL A   1      48.260  32.700  26.396  1.00  0.00    -0.354 N 
ATOM     67  N   UNL A   1      50.331  30.613  26.087  1.00  0.00    -0.248 NA
ATOM     68  C   UNL A   1      52.550  30.011  25.667  1.00  0.00     0.031 C 
ATOM     69  C   UNL A   1      48.895  34.825  26.307  1.00  0.00     0.029 A 
ATOM     70  C   UNL A   1      49.360  33.522  26.226  1.00  0.00     0.049 A 
ATOM     71  H   UNL A   1      48.280  31.716  26.379  1.00  0.00     0.167 HD
ATOM     72  C   UNL A   1      51.096  31.764  25.949  1.00  0.00     0.074 A 
ATOM     73  C   UNL A   1      52.462  31.332  25.727  1.00  0.00     0.031 C 
ATOM     74  C   UNL A   1      50.709  33.063  26.004  1.00  0.00     0.031 A 
BRANCH  61  75
ATOM     75  C   UNL A   1      44.645  33.887  26.907  1.00  0.00    -0.014 A 
ATOM     76  C   UNL A   1      43.966  34.391  25.785  1.00  0.00     0.009 A 
ATOM     77  C   UNL A   1      44.216  34.274  28.186  1.00  0.00     0.009 A 
ATOM     78  C   UNL A   1      42.907  35.288  25.942  1.00  0.00     0.001 A 
ATOM     79  C   UNL A   1      43.137  35.144  28.342  1.00  0.00     0.001 A 
ATOM     80  C   UNL A   1      42.489  35.658  27.220  1.00  0.00     0.000 A 
ENDBRANCH  61  75
BRANCH  62  81
ATOM     81  C   UNL A   1      51.984  27.138  25.847  1.00  0.00    -0.014 A 
ATOM     82  C   UNL A   1      52.762  26.711  26.933  1.00  0.00     0.009 A 
ATOM     83  C   UNL A   1      52.258  26.619  24.571  1.00  0.00     0.009 A 
ATOM     84  C   UNL A   1      53.809  25.805  26.739  1.00  0.00     0.001 A 
ATOM     85  C   UNL A   1      53.283  25.689  24.386  1.00  0.00     0.001 A 
ATOM     86  C   UNL A   1      54.064  25.291  25.469  1.00  0.00     0.000 A 
ENDBRANCH  62  81
BRANCH  74  87
ATOM     87  C   UNL A   1      51.782  34.106  25.863  1.00  0.00    -0.014 A 
ATOM     88  C   UNL A   1      52.101  34.668  24.618  1.00  0.00     0.009 A 
ATOM     89  C   UNL A   1      52.454  34.565  27.009  1.00  0.00     0.009 A 
ATOM     90  C   UNL A   1      53.097  35.643  24.518  1.00  0.00     0.001 A 
ATOM     91  C   UNL A   1      53.423  35.564  26.911  1.00  0.00     0.001 A 
ATOM     92  C   UNL A   1      53.751  36.092  25.664  1.00  0.00     0.000 A 
ENDBRANCH  74  87
ENDBRANCH  48  49
ENDBRANCH  41  43
ENDBRANCH  40  41
ENDBRANCH  39  40
ENDBRANCH  38  39
ENDBRANCH  37  38
ENDBRANCH   1  37
TORSDOF 22
ENDMDL
