MODEL 1
REMARK VINA RESULT:      -8.6      0.000      0.000
REMARK SMILES CC1(C)CC[C@@]2(C(=O)OCCOCCOC(=O)c3ccc(-c4c5nc(c(-c6ccccc6)c6ccc([nH]6)c(-c6ccccc6)c6nc(c(-c7ccccc7)c7ccc4[nH]7)C=C6)C=C5)cc3)CC[C@@]3(C)C(=CC[C@H]4[C@@]5(C)CC[C@H](O)C(C)(C)[C@@H]5CC[C@]43C)[C@@H]2C1
REMARK SMILES IDX 13 1 12 2 11 3 10 4 9 5 7 6 8 7 6 8 1 9 2 10 3 11 4 12 89 13
REMARK SMILES IDX 5 14 88 15 70 16 66 17 68 18 71 19 67 20 69 21 86 22 72 23
REMARK SMILES IDX 73 24 85 25 87 26 74 27 84 28 75 29 76 30 83 31 77 32 80 33
REMARK SMILES IDX 78 34 81 35 82 36 79 37 14 39 15 40 16 41 17 42 18 43 19 44
REMARK SMILES IDX 65 45 20 46 64 47 21 48 22 49 23 50 58 51 24 52 63 53 57 54
REMARK SMILES IDX 59 55 25 56 62 57 56 58 55 59 26 61 48 62 33 63 47 64 34 65
REMARK SMILES IDX 37 66 46 67 60 68 35 69 36 70 45 72 61 73 38 74 27 75 28 76
REMARK SMILES IDX 32 77 29 78 31 79 30 80 49 81 50 82 54 83 51 84 53 85 52 86
REMARK SMILES IDX 39 87 40 88 44 89 41 90 43 91 42 92
REMARK H PARENT 79 38 59 60 37 71
REMARK Flexibility Score: inf
ROOT
ATOM      1  C   UNL A   1      43.710  37.383  37.760  1.00  0.00     0.202 C 
ENDROOT
BRANCH   1   2
ATOM      2  O   UNL A   1      43.696  37.877  36.438  1.00  0.00    -0.374 OA
BRANCH   2   3
ATOM      3  C   UNL A   1      43.738  36.828  35.511  1.00  0.00     0.202 C 
BRANCH   3   4
ATOM      4  C   UNL A   1      43.158  37.013  34.152  1.00  0.00     0.261 C 
BRANCH   4   5
ATOM      5  O   UNL A   1      42.087  36.163  34.047  1.00  0.00    -0.463 OA
BRANCH   5   6
ATOM      6  C   UNL A   1      42.280  35.342  32.986  1.00  0.00     0.312 C 
ATOM      7  O   UNL A   1      42.921  35.742  32.056  1.00  0.00    -0.252 OA
BRANCH   6   8
ATOM      8  C   UNL A   1      41.875  33.835  33.220  1.00  0.00     0.075 C 
ATOM      9  C   UNL A   1      37.783  33.360  31.634  1.00  0.00     0.011 C 
ATOM     10  C   UNL A   1      39.266  33.779  31.483  1.00  0.00    -0.035 C 
ATOM     11  C   UNL A   1      39.290  34.399  30.053  1.00  0.00     0.011 C 
ATOM     12  C   UNL A   1      39.528  34.778  32.630  1.00  0.00     0.007 C 
ATOM     13  C   UNL A   1      40.203  32.529  31.549  1.00  0.00     0.015 C 
ATOM     14  C   UNL A   1      40.451  34.214  33.771  1.00  0.00     0.020 C 
ATOM     15  C   UNL A   1      41.622  32.568  32.308  1.00  0.00     0.033 C 
ATOM     16  C   UNL A   1      42.835  31.867  31.546  1.00  0.00    -0.063 C 
ATOM     17  C   UNL A   1      42.989  33.309  34.169  1.00  0.00     0.020 C 
ATOM     18  C   UNL A   1      44.332  31.790  32.049  1.00  0.00    -0.006 C 
ATOM     19  C   UNL A   1      42.539  31.198  30.417  1.00  0.00    -0.027 C 
ATOM     20  C   UNL A   1      44.273  32.559  33.545  1.00  0.00     0.013 C 
ATOM     21  C   UNL A   1      44.560  30.320  32.615  1.00  0.00     0.017 C 
ATOM     22  C   UNL A   1      45.471  31.993  30.513  1.00  0.00    -0.020 C 
ATOM     23  C   UNL A   1      42.843  31.909  29.125  1.00  0.00     0.032 C 
ATOM     24  C   UNL A   1      44.240  32.576  29.105  1.00  0.00     0.006 C 
ATOM     25  C   UNL A   1      47.374  32.600  30.254  1.00  0.00     0.008 C 
ATOM     26  C   UNL A   1      45.834  30.467  30.182  1.00  0.00     0.012 C 
ATOM     27  C   UNL A   1      44.519  34.180  28.004  1.00  0.00    -0.025 C 
ATOM     28  C   UNL A   1      47.795  34.077  28.887  1.00  0.00     0.005 C 
ATOM     29  C   UNL A   1      44.141  33.841  26.571  1.00  0.00     0.012 C 
ATOM     30  C   UNL A   1      43.493  35.366  28.058  1.00  0.00     0.010 C 
ATOM     31  C   UNL A   1      46.250  35.001  28.031  1.00  0.00     0.003 C 
ATOM     32  C   UNL A   1      43.707  36.541  27.091  1.00  0.00     0.033 C 
ATOM     33  C   UNL A   1      46.391  36.413  27.295  1.00  0.00    -0.006 C 
ATOM     34  C   UNL A   1      45.032  37.249  27.336  1.00  0.00     0.120 C 
ATOM     35  C   UNL A   1      46.950  36.265  25.887  1.00  0.00     0.014 C 
ATOM     36  C   UNL A   1      47.375  37.333  28.093  1.00  0.00     0.014 C 
BRANCH  34  37
ATOM     37  O   UNL A   1      45.093  38.392  26.479  1.00  0.00    -0.393 OA
ATOM     38  H   UNL A   1      46.006  38.717  26.440  1.00  0.00     0.210 HD
ENDBRANCH  34  37
ENDBRANCH   6   8
ENDBRANCH   5   6
ENDBRANCH   4   5
ENDBRANCH   3   4
ENDBRANCH   2   3
ENDBRANCH   1   2
BRANCH   1  39
ATOM     39  C   UNL A   1      43.239  35.954  37.899  1.00  0.00     0.261 C 
BRANCH  39  40
ATOM     40  O   UNL A   1      41.438  35.382  38.102  1.00  0.00    -0.460 OA
BRANCH  40  41
ATOM     41  C   UNL A   1      40.139  34.405  37.531  1.00  0.00     0.338 C 
ATOM     42  O   UNL A   1      38.956  34.778  37.479  1.00  0.00    -0.246 OA
BRANCH  41  43
ATOM     43  C   UNL A   1      40.155  32.881  37.124  1.00  0.00     0.060 A 
ATOM     44  C   UNL A   1      39.098  32.049  36.693  1.00  0.00     0.016 A 
ATOM     45  C   UNL A   1      41.364  32.210  37.206  1.00  0.00     0.016 A 
ATOM     46  C   UNL A   1      39.344  30.840  35.919  1.00  0.00     0.010 A 
ATOM     47  C   UNL A   1      41.596  31.051  36.389  1.00  0.00     0.010 A 
ATOM     48  C   UNL A   1      40.642  30.413  35.562  1.00  0.00    -0.014 A 
BRANCH  48  49
ATOM     49  C   UNL A   1      40.961  29.406  34.370  1.00  0.00     0.031 A 
ATOM     50  C   UNL A   1      40.162  29.380  33.029  1.00  0.00     0.074 A 
ATOM     51  C   UNL A   1      41.868  28.370  34.424  1.00  0.00     0.049 A 
ATOM     52  N   UNL A   1      40.527  28.902  31.847  1.00  0.00    -0.248 NA
ATOM     53  C   UNL A   1      38.776  29.867  33.008  1.00  0.00     0.031 C 
ATOM     54  C   UNL A   1      42.571  27.859  35.607  1.00  0.00     0.029 A 
ATOM     55  N   UNL A   1      42.362  27.525  33.417  1.00  0.00    -0.354 N 
ATOM     56  C   UNL A   1      39.465  29.142  30.970  1.00  0.00     0.074 A 
ATOM     57  C   UNL A   1      38.396  29.675  31.760  1.00  0.00     0.031 C 
ATOM     58  C   UNL A   1      43.447  26.895  35.254  1.00  0.00     0.029 A 
ATOM     59  C   UNL A   1      43.397  26.682  33.809  1.00  0.00     0.049 A 
ATOM     60  H   UNL A   1      42.002  27.528  32.500  1.00  0.00     0.167 HD
ATOM     61  C   UNL A   1      39.337  28.999  29.627  1.00  0.00     0.031 A 
ATOM     62  C   UNL A   1      44.244  25.870  33.121  1.00  0.00     0.031 A 
ATOM     63  C   UNL A   1      40.290  28.364  28.773  1.00  0.00     0.049 A 
ATOM     64  C   UNL A   1      44.179  25.761  31.606  1.00  0.00     0.074 A 
ATOM     65  C   UNL A   1      40.307  28.295  27.390  1.00  0.00     0.029 A 
ATOM     66  N   UNL A   1      41.364  27.632  29.230  1.00  0.00    -0.354 N 
ATOM     67  N   UNL A   1      43.342  26.322  30.770  1.00  0.00    -0.248 NA
ATOM     68  C   UNL A   1      45.207  24.933  30.936  1.00  0.00     0.031 C 
ATOM     69  C   UNL A   1      41.377  27.479  27.010  1.00  0.00     0.029 A 
ATOM     70  C   UNL A   1      42.047  27.091  28.158  1.00  0.00     0.049 A 
ATOM     71  H   UNL A   1      41.607  27.513  30.177  1.00  0.00     0.167 HD
ATOM     72  C   UNL A   1      43.766  25.954  29.492  1.00  0.00     0.074 A 
ATOM     73  C   UNL A   1      44.941  25.133  29.653  1.00  0.00     0.031 C 
ATOM     74  C   UNL A   1      43.223  26.280  28.295  1.00  0.00     0.031 A 
BRANCH  61  75
ATOM     75  C   UNL A   1      38.121  29.632  28.988  1.00  0.00    -0.014 A 
ATOM     76  C   UNL A   1      38.067  31.032  28.840  1.00  0.00     0.009 A 
ATOM     77  C   UNL A   1      37.042  28.866  28.527  1.00  0.00     0.009 A 
ATOM     78  C   UNL A   1      36.939  31.653  28.304  1.00  0.00     0.001 A 
ATOM     79  C   UNL A   1      35.926  29.489  27.957  1.00  0.00     0.001 A 
ATOM     80  C   UNL A   1      35.869  30.879  27.860  1.00  0.00     0.000 A 
ENDBRANCH  61  75
BRANCH  62  81
ATOM     81  C   UNL A   1      45.357  25.129  33.816  1.00  0.00    -0.014 A 
ATOM     82  C   UNL A   1      46.605  25.754  34.017  1.00  0.00     0.009 A 
ATOM     83  C   UNL A   1      45.228  23.784  34.193  1.00  0.00     0.009 A 
ATOM     84  C   UNL A   1      47.692  25.049  34.550  1.00  0.00     0.001 A 
ATOM     85  C   UNL A   1      46.309  23.088  34.757  1.00  0.00     0.001 A 
ATOM     86  C   UNL A   1      47.542  23.717  34.927  1.00  0.00     0.000 A 
ENDBRANCH  62  81
BRANCH  74  87
ATOM     87  C   UNL A   1      43.888  25.799  27.036  1.00  0.00    -0.014 A 
ATOM     88  C   UNL A   1      44.927  26.522  26.431  1.00  0.00     0.009 A 
ATOM     89  C   UNL A   1      43.537  24.546  26.505  1.00  0.00     0.009 A 
ATOM     90  C   UNL A   1      45.582  26.012  25.306  1.00  0.00     0.001 A 
ATOM     91  C   UNL A   1      44.210  24.027  25.398  1.00  0.00     0.001 A 
ATOM     92  C   UNL A   1      45.228  24.764  24.796  1.00  0.00     0.000 A 
ENDBRANCH  74  87
ENDBRANCH  48  49
ENDBRANCH  41  43
ENDBRANCH  40  41
ENDBRANCH  39  40
ENDBRANCH   1  39
TORSDOF 15
ENDMDL
MODEL 2
REMARK VINA RESULT:      -8.6      3.241      6.550
REMARK SMILES CC1(C)CC[C@@]2(C(=O)OCCOCCOC(=O)c3ccc(-c4c5nc(c(-c6ccccc6)c6ccc([nH]6)c(-c6ccccc6)c6nc(c(-c7ccccc7)c7ccc4[nH]7)C=C6)C=C5)cc3)CC[C@@]3(C)C(=CC[C@H]4[C@@]5(C)CC[C@H](O)C(C)(C)[C@@H]5CC[C@]43C)[C@@H]2C1
REMARK SMILES IDX 13 1 12 2 11 3 10 4 9 5 7 6 8 7 6 8 1 9 2 10 3 11 4 12 89 13
REMARK SMILES IDX 5 14 88 15 70 16 66 17 68 18 71 19 67 20 69 21 86 22 72 23
REMARK SMILES IDX 73 24 85 25 87 26 74 27 84 28 75 29 76 30 83 31 77 32 80 33
REMARK SMILES IDX 78 34 81 35 82 36 79 37 14 39 15 40 16 41 17 42 18 43 19 44
REMARK SMILES IDX 65 45 20 46 64 47 21 48 22 49 23 50 58 51 24 52 63 53 57 54
REMARK SMILES IDX 59 55 25 56 62 57 56 58 55 59 26 61 48 62 33 63 47 64 34 65
REMARK SMILES IDX 37 66 46 67 60 68 35 69 36 70 45 72 61 73 38 74 27 75 28 76
REMARK SMILES IDX 32 77 29 78 31 79 30 80 49 81 50 82 54 83 51 84 53 85 52 86
REMARK SMILES IDX 39 87 40 88 44 89 41 90 43 91 42 92
REMARK H PARENT 79 38 59 60 37 71
REMARK Flexibility Score: inf
ROOT
ATOM      1  C   UNL A   1      41.404  31.036  35.017  1.00  0.00     0.202 C 
ENDROOT
BRANCH   1   2
ATOM      2  O   UNL A   1      41.340  31.467  33.675  1.00  0.00    -0.374 OA
BRANCH   2   3
ATOM      3  C   UNL A   1      40.742  32.731  33.585  1.00  0.00     0.202 C 
BRANCH   3   4
ATOM      4  C   UNL A   1      39.367  32.864  33.029  1.00  0.00     0.261 C 
BRANCH   4   5
ATOM      5  O   UNL A   1      39.141  31.772  32.231  1.00  0.00    -0.463 OA
BRANCH   5   6
ATOM      6  C   UNL A   1      37.975  31.190  32.602  1.00  0.00     0.312 C 
ATOM      7  O   UNL A   1      37.431  31.573  33.599  1.00  0.00    -0.252 OA
BRANCH   6   8
ATOM      8  C   UNL A   1      37.311  30.260  31.514  1.00  0.00     0.075 C 
ATOM      9  C   UNL A   1      35.509  32.930  28.495  1.00  0.00     0.011 C 
ATOM     10  C   UNL A   1      36.708  32.441  29.344  1.00  0.00    -0.035 C 
ATOM     11  C   UNL A   1      37.820  33.466  28.965  1.00  0.00     0.011 C 
ATOM     12  C   UNL A   1      36.228  32.514  30.809  1.00  0.00     0.007 C 
ATOM     13  C   UNL A   1      37.133  30.998  28.922  1.00  0.00     0.015 C 
ATOM     14  C   UNL A   1      35.986  31.110  31.474  1.00  0.00     0.020 C 
ATOM     15  C   UNL A   1      37.592  29.895  30.002  1.00  0.00     0.033 C 
ATOM     16  C   UNL A   1      38.871  29.028  29.606  1.00  0.00    -0.063 C 
ATOM     17  C   UNL A   1      37.342  28.855  32.177  1.00  0.00     0.020 C 
ATOM     18  C   UNL A   1      39.548  27.908  30.492  1.00  0.00    -0.006 C 
ATOM     19  C   UNL A   1      39.362  29.200  28.365  1.00  0.00    -0.027 C 
ATOM     20  C   UNL A   1      38.566  27.855  31.858  1.00  0.00     0.013 C 
ATOM     21  C   UNL A   1      39.096  26.503  29.895  1.00  0.00     0.017 C 
ATOM     22  C   UNL A   1      41.451  28.045  30.248  1.00  0.00    -0.020 C 
ATOM     23  C   UNL A   1      40.586  30.071  28.250  1.00  0.00     0.032 C 
ATOM     24  C   UNL A   1      41.668  29.751  29.310  1.00  0.00     0.006 C 
ATOM     25  C   UNL A   1      43.045  27.495  31.349  1.00  0.00     0.008 C 
ATOM     26  C   UNL A   1      41.715  26.901  29.157  1.00  0.00     0.012 C 
ATOM     27  C   UNL A   1      42.869  31.186  29.913  1.00  0.00    -0.025 C 
ATOM     28  C   UNL A   1      44.513  28.871  31.773  1.00  0.00     0.005 C 
ATOM     29  C   UNL A   1      43.565  31.765  28.692  1.00  0.00     0.012 C 
ATOM     30  C   UNL A   1      42.289  32.585  30.321  1.00  0.00     0.010 C 
ATOM     31  C   UNL A   1      44.174  30.764  31.252  1.00  0.00     0.003 C 
ATOM     32  C   UNL A   1      43.288  33.698  30.676  1.00  0.00     0.033 C 
ATOM     33  C   UNL A   1      44.993  31.988  31.872  1.00  0.00    -0.006 C 
ATOM     34  C   UNL A   1      44.139  33.338  31.884  1.00  0.00     0.120 C 
ATOM     35  C   UNL A   1      46.351  32.157  31.205  1.00  0.00     0.014 C 
ATOM     36  C   UNL A   1      45.250  31.740  33.396  1.00  0.00     0.014 C 
BRANCH  34  37
ATOM     37  O   UNL A   1      44.950  34.468  32.213  1.00  0.00    -0.393 OA
ATOM     38  H   UNL A   1      44.430  35.280  32.106  1.00  0.00     0.210 HD
ENDBRANCH  34  37
ENDBRANCH   6   8
ENDBRANCH   5   6
ENDBRANCH   4   5
ENDBRANCH   3   4
ENDBRANCH   2   3
ENDBRANCH   1   2
BRANCH   1  39
ATOM     39  C   UNL A   1      40.604  29.789  35.313  1.00  0.00     0.261 C 
BRANCH  39  40
ATOM     40  O   UNL A   1      41.075  28.420  36.544  1.00  0.00    -0.460 OA
BRANCH  40  41
ATOM     41  C   UNL A   1      41.793  26.877  36.813  1.00  0.00     0.338 C 
ATOM     42  O   UNL A   1      41.571  26.167  37.807  1.00  0.00    -0.246 OA
BRANCH  41  43
ATOM     43  C   UNL A   1      42.927  26.158  35.984  1.00  0.00     0.060 A 
ATOM     44  C   UNL A   1      42.917  24.900  35.341  1.00  0.00     0.016 A 
ATOM     45  C   UNL A   1      44.140  26.813  35.856  1.00  0.00     0.016 A 
ATOM     46  C   UNL A   1      43.830  24.592  34.250  1.00  0.00     0.010 A 
ATOM     47  C   UNL A   1      44.995  26.527  34.738  1.00  0.00     0.010 A 
ATOM     48  C   UNL A   1      44.787  25.515  33.771  1.00  0.00    -0.014 A 
BRANCH  48  49
ATOM     49  C   UNL A   1      45.473  25.434  32.336  1.00  0.00     0.031 A 
ATOM     50  C   UNL A   1      44.824  24.718  31.111  1.00  0.00     0.074 A 
ATOM     51  C   UNL A   1      46.750  25.859  32.040  1.00  0.00     0.049 A 
ATOM     52  N   UNL A   1      45.065  24.889  29.818  1.00  0.00    -0.248 NA
ATOM     53  C   UNL A   1      43.857  23.637  31.340  1.00  0.00     0.031 C 
ATOM     54  C   UNL A   1      47.793  26.280  32.984  1.00  0.00     0.029 A 
ATOM     55  N   UNL A   1      47.412  26.000  30.809  1.00  0.00    -0.354 N 
ATOM     56  C   UNL A   1      44.206  24.025  29.131  1.00  0.00     0.074 A 
ATOM     57  C   UNL A   1      43.540  23.237  30.124  1.00  0.00     0.031 C 
ATOM     58  C   UNL A   1      48.884  26.712  32.317  1.00  0.00     0.029 A 
ATOM     59  C   UNL A   1      48.659  26.612  30.877  1.00  0.00     0.049 A 
ATOM     60  H   UNL A   1      47.021  25.690  29.960  1.00  0.00     0.167 HD
ATOM     61  C   UNL A   1      43.917  23.879  27.813  1.00  0.00     0.031 A 
ATOM     62  C   UNL A   1      49.514  27.084  29.929  1.00  0.00     0.031 A 
ATOM     63  C   UNL A   1      44.611  24.522  26.743  1.00  0.00     0.049 A 
ATOM     64  C   UNL A   1      49.173  27.012  28.449  1.00  0.00     0.074 A 
ATOM     65  C   UNL A   1      44.302  24.538  25.394  1.00  0.00     0.029 A 
ATOM     66  N   UNL A   1      45.794  25.211  26.898  1.00  0.00    -0.354 N 
ATOM     67  N   UNL A   1      48.129  26.481  27.865  1.00  0.00    -0.248 NA
ATOM     68  C   UNL A   1      50.116  27.644  27.500  1.00  0.00     0.031 C 
ATOM     69  C   UNL A   1      45.329  25.208  24.722  1.00  0.00     0.029 A 
ATOM     70  C   UNL A   1      46.242  25.647  25.667  1.00  0.00     0.049 A 
ATOM     71  H   UNL A   1      46.250  25.368  27.756  1.00  0.00     0.167 HD
ATOM     72  C   UNL A   1      48.268  26.752  26.503  1.00  0.00     0.074 A 
ATOM     73  C   UNL A   1      49.488  27.505  26.340  1.00  0.00     0.031 C 
ATOM     74  C   UNL A   1      47.446  26.406  25.484  1.00  0.00     0.031 A 
BRANCH  61  75
ATOM     75  C   UNL A   1      42.717  23.024  27.471  1.00  0.00    -0.014 A 
ATOM     76  C   UNL A   1      42.904  21.826  26.752  1.00  0.00     0.009 A 
ATOM     77  C   UNL A   1      41.418  23.381  27.856  1.00  0.00     0.009 A 
ATOM     78  C   UNL A   1      41.815  21.042  26.374  1.00  0.00     0.001 A 
ATOM     79  C   UNL A   1      40.331  22.573  27.506  1.00  0.00     0.001 A 
ATOM     80  C   UNL A   1      40.528  21.415  26.754  1.00  0.00     0.000 A 
ENDBRANCH  61  75
BRANCH  62  81
ATOM     81  C   UNL A   1      50.785  27.801  30.308  1.00  0.00    -0.014 A 
ATOM     82  C   UNL A   1      50.781  29.200  30.486  1.00  0.00     0.009 A 
ATOM     83  C   UNL A   1      52.014  27.130  30.398  1.00  0.00     0.009 A 
ATOM     84  C   UNL A   1      51.970  29.905  30.718  1.00  0.00     0.001 A 
ATOM     85  C   UNL A   1      53.199  27.835  30.663  1.00  0.00     0.001 A 
ATOM     86  C   UNL A   1      53.178  29.221  30.814  1.00  0.00     0.000 A 
ENDBRANCH  62  81
BRANCH  74  87
ATOM     87  C   UNL A   1      47.784  26.853  24.089  1.00  0.00    -0.014 A 
ATOM     88  C   UNL A   1      47.113  27.923  23.478  1.00  0.00     0.009 A 
ATOM     89  C   UNL A   1      48.864  26.257  23.415  1.00  0.00     0.009 A 
ATOM     90  C   UNL A   1      47.501  28.370  22.211  1.00  0.00     0.001 A 
ATOM     91  C   UNL A   1      49.265  26.722  22.162  1.00  0.00     0.001 A 
ATOM     92  C   UNL A   1      48.579  27.774  21.558  1.00  0.00     0.000 A 
ENDBRANCH  74  87
ENDBRANCH  48  49
ENDBRANCH  41  43
ENDBRANCH  40  41
ENDBRANCH  39  40
ENDBRANCH   1  39
TORSDOF 15
ENDMDL
MODEL 3
REMARK VINA RESULT:      -8.4      3.733      7.164
REMARK SMILES CC1(C)CC[C@@]2(C(=O)OCCOCCOC(=O)c3ccc(-c4c5nc(c(-c6ccccc6)c6ccc([nH]6)c(-c6ccccc6)c6nc(c(-c7ccccc7)c7ccc4[nH]7)C=C6)C=C5)cc3)CC[C@@]3(C)C(=CC[C@H]4[C@@]5(C)CC[C@H](O)C(C)(C)[C@@H]5CC[C@]43C)[C@@H]2C1
REMARK SMILES IDX 13 1 12 2 11 3 10 4 9 5 7 6 8 7 6 8 1 9 2 10 3 11 4 12 89 13
REMARK SMILES IDX 5 14 88 15 70 16 66 17 68 18 71 19 67 20 69 21 86 22 72 23
REMARK SMILES IDX 73 24 85 25 87 26 74 27 84 28 75 29 76 30 83 31 77 32 80 33
REMARK SMILES IDX 78 34 81 35 82 36 79 37 14 39 15 40 16 41 17 42 18 43 19 44
REMARK SMILES IDX 65 45 20 46 64 47 21 48 22 49 23 50 58 51 24 52 63 53 57 54
REMARK SMILES IDX 59 55 25 56 62 57 56 58 55 59 26 61 48 62 33 63 47 64 34 65
REMARK SMILES IDX 37 66 46 67 60 68 35 69 36 70 45 72 61 73 38 74 27 75 28 76
REMARK SMILES IDX 32 77 29 78 31 79 30 80 49 81 50 82 54 83 51 84 53 85 52 86
REMARK SMILES IDX 39 87 40 88 44 89 41 90 43 91 42 92
REMARK H PARENT 79 38 59 60 37 71
REMARK Flexibility Score: inf
ROOT
ATOM      1  C   UNL A   1      39.818  31.303  36.064  1.00  0.00     0.202 C 
ENDROOT
BRANCH   1   2
ATOM      2  O   UNL A   1      38.440  31.021  35.951  1.00  0.00    -0.374 OA
BRANCH   2   3
ATOM      3  C   UNL A   1      37.840  31.842  34.987  1.00  0.00     0.202 C 
BRANCH   3   4
ATOM      4  C   UNL A   1      37.352  31.253  33.709  1.00  0.00     0.261 C 
BRANCH   4   5
ATOM      5  O   UNL A   1      38.445  30.761  33.043  1.00  0.00    -0.463 OA
BRANCH   5   6
ATOM      6  C   UNL A   1      38.263  29.437  32.817  1.00  0.00     0.312 C 
ATOM      7  O   UNL A   1      37.392  28.865  33.409  1.00  0.00    -0.252 OA
BRANCH   6   8
ATOM      8  C   UNL A   1      39.040  28.854  31.574  1.00  0.00     0.075 C 
ATOM      9  C   UNL A   1      37.152  30.578  27.976  1.00  0.00     0.011 C 
ATOM     10  C   UNL A   1      37.837  30.716  29.358  1.00  0.00    -0.035 C 
ATOM     11  C   UNL A   1      37.755  32.251  29.615  1.00  0.00     0.011 C 
ATOM     12  C   UNL A   1      36.995  29.850  30.319  1.00  0.00     0.007 C 
ATOM     13  C   UNL A   1      39.328  30.256  29.284  1.00  0.00     0.015 C 
ATOM     14  C   UNL A   1      37.714  28.533  30.789  1.00  0.00     0.020 C 
ATOM     15  C   UNL A   1      40.023  29.424  30.474  1.00  0.00     0.033 C 
ATOM     16  C   UNL A   1      41.499  29.881  30.870  1.00  0.00    -0.063 C 
ATOM     17  C   UNL A   1      39.902  27.717  32.192  1.00  0.00     0.020 C 
ATOM     18  C   UNL A   1      42.390  29.259  32.018  1.00  0.00    -0.006 C 
ATOM     19  C   UNL A   1      42.073  30.818  30.095  1.00  0.00    -0.027 C 
ATOM     20  C   UNL A   1      41.424  28.023  32.626  1.00  0.00     0.013 C 
ATOM     21  C   UNL A   1      43.464  28.316  31.317  1.00  0.00     0.017 C 
ATOM     22  C   UNL A   1      43.354  30.701  32.849  1.00  0.00    -0.020 C 
ATOM     23  C   UNL A   1      42.072  32.222  30.638  1.00  0.00     0.032 C 
ATOM     24  C   UNL A   1      42.489  32.304  32.128  1.00  0.00     0.006 C 
ATOM     25  C   UNL A   1      44.198  30.959  34.660  1.00  0.00     0.008 C 
ATOM     26  C   UNL A   1      44.776  30.597  32.118  1.00  0.00     0.012 C 
ATOM     27  C   UNL A   1      41.775  33.758  33.242  1.00  0.00    -0.025 C 
ATOM     28  C   UNL A   1      43.733  32.624  35.772  1.00  0.00     0.005 C 
ATOM     29  C   UNL A   1      42.133  35.079  32.582  1.00  0.00     0.012 C 
ATOM     30  C   UNL A   1      40.243  34.093  33.220  1.00  0.00     0.010 C 
ATOM     31  C   UNL A   1      42.283  33.808  35.089  1.00  0.00     0.003 C 
ATOM     32  C   UNL A   1      39.766  35.311  34.027  1.00  0.00     0.033 C 
ATOM     33  C   UNL A   1      41.530  34.871  36.016  1.00  0.00    -0.006 C 
ATOM     34  C   UNL A   1      40.041  35.154  35.516  1.00  0.00     0.120 C 
ATOM     35  C   UNL A   1      42.344  36.144  36.195  1.00  0.00     0.014 C 
ATOM     36  C   UNL A   1      41.296  34.263  37.439  1.00  0.00     0.014 C 
BRANCH  34  37
ATOM     37  O   UNL A   1      39.462  36.270  36.197  1.00  0.00    -0.393 OA
ATOM     38  H   UNL A   1      39.446  36.093  37.151  1.00  0.00     0.210 HD
ENDBRANCH  34  37
ENDBRANCH   6   8
ENDBRANCH   5   6
ENDBRANCH   4   5
ENDBRANCH   3   4
ENDBRANCH   2   3
ENDBRANCH   1   2
BRANCH   1  39
ATOM     39  C   UNL A   1      40.725  30.223  35.525  1.00  0.00     0.261 C 
BRANCH  39  40
ATOM     40  O   UNL A   1      40.972  28.492  36.268  1.00  0.00    -0.460 OA
BRANCH  40  41
ATOM     41  C   UNL A   1      41.546  26.880  36.066  1.00  0.00     0.338 C 
ATOM     42  O   UNL A   1      40.905  25.865  36.384  1.00  0.00    -0.246 OA
BRANCH  41  43
ATOM     43  C   UNL A   1      42.974  26.391  35.608  1.00  0.00     0.060 A 
ATOM     44  C   UNL A   1      43.433  25.088  35.315  1.00  0.00     0.016 A 
ATOM     45  C   UNL A   1      43.967  27.348  35.478  1.00  0.00     0.016 A 
ATOM     46  C   UNL A   1      44.597  24.858  34.471  1.00  0.00     0.010 A 
ATOM     47  C   UNL A   1      45.076  27.115  34.594  1.00  0.00     0.010 A 
ATOM     48  C   UNL A   1      45.347  25.912  33.902  1.00  0.00    -0.014 A 
BRANCH  48  49
ATOM     49  C   UNL A   1      46.306  25.753  32.640  1.00  0.00     0.031 A 
ATOM     50  C   UNL A   1      45.784  25.608  31.176  1.00  0.00     0.074 A 
ATOM     51  C   UNL A   1      47.673  25.594  32.694  1.00  0.00     0.049 A 
ATOM     52  N   UNL A   1      46.416  25.850  30.036  1.00  0.00    -0.248 NA
ATOM     53  C   UNL A   1      44.441  25.062  30.942  1.00  0.00     0.031 C 
ATOM     54  C   UNL A   1      48.497  25.344  33.884  1.00  0.00     0.029 A 
ATOM     55  N   UNL A   1      48.644  25.609  31.679  1.00  0.00    -0.354 N 
ATOM     56  C   UNL A   1      45.504  25.588  29.007  1.00  0.00     0.074 A 
ATOM     57  C   UNL A   1      44.335  25.043  29.628  1.00  0.00     0.031 C 
ATOM     58  C   UNL A   1      49.806  25.333  33.555  1.00  0.00     0.029 A 
ATOM     59  C   UNL A   1      49.962  25.570  32.122  1.00  0.00     0.049 A 
ATOM     60  H   UNL A   1      48.409  25.646  30.723  1.00  0.00     0.167 HD
ATOM     61  C   UNL A   1      45.553  25.795  27.667  1.00  0.00     0.031 A 
ATOM     62  C   UNL A   1      51.157  25.745  31.496  1.00  0.00     0.031 A 
ATOM     63  C   UNL A   1      46.709  26.211  26.940  1.00  0.00     0.049 A 
ATOM     64  C   UNL A   1      51.233  26.066  30.012  1.00  0.00     0.074 A 
ATOM     65  C   UNL A   1      46.814  26.574  25.608  1.00  0.00     0.029 A 
ATOM     66  N   UNL A   1      47.978  26.256  27.475  1.00  0.00    -0.354 N 
ATOM     67  N   UNL A   1      50.267  26.163  29.135  1.00  0.00    -0.248 NA
ATOM     68  C   UNL A   1      52.570  26.341  29.441  1.00  0.00     0.031 C 
ATOM     69  C   UNL A   1      48.164  26.802  25.326  1.00  0.00     0.029 A 
ATOM     70  C   UNL A   1      48.881  26.627  26.498  1.00  0.00     0.049 A 
ATOM     71  H   UNL A   1      48.207  26.054  28.411  1.00  0.00     0.167 HD
ATOM     72  C   UNL A   1      50.868  26.549  27.937  1.00  0.00     0.074 A 
ATOM     73  C   UNL A   1      52.282  26.684  28.193  1.00  0.00     0.031 C 
ATOM     74  C   UNL A   1      50.289  26.777  26.734  1.00  0.00     0.031 A 
BRANCH  61  75
ATOM     75  C   UNL A   1      44.253  25.640  26.908  1.00  0.00    -0.014 A 
ATOM     76  C   UNL A   1      43.364  26.731  26.829  1.00  0.00     0.009 A 
ATOM     77  C   UNL A   1      43.906  24.443  26.268  1.00  0.00     0.009 A 
ATOM     78  C   UNL A   1      42.135  26.606  26.184  1.00  0.00     0.001 A 
ATOM     79  C   UNL A   1      42.687  24.332  25.590  1.00  0.00     0.001 A 
ATOM     80  C   UNL A   1      41.798  25.407  25.561  1.00  0.00     0.000 A 
ENDBRANCH  61  75
BRANCH  62  81
ATOM     81  C   UNL A   1      52.453  25.740  32.266  1.00  0.00    -0.014 A 
ATOM     82  C   UNL A   1      53.150  24.531  32.469  1.00  0.00     0.009 A 
ATOM     83  C   UNL A   1      52.952  26.897  32.882  1.00  0.00     0.009 A 
ATOM     84  C   UNL A   1      54.290  24.478  33.283  1.00  0.00     0.001 A 
ATOM     85  C   UNL A   1      54.112  26.849  33.671  1.00  0.00     0.001 A 
ATOM     86  C   UNL A   1      54.775  25.639  33.878  1.00  0.00     0.000 A 
ENDBRANCH  62  81
BRANCH  74  87
ATOM     87  C   UNL A   1      51.144  27.232  25.585  1.00  0.00    -0.014 A 
ATOM     88  C   UNL A   1      51.719  26.318  24.689  1.00  0.00     0.009 A 
ATOM     89  C   UNL A   1      51.290  28.607  25.335  1.00  0.00     0.009 A 
ATOM     90  C   UNL A   1      52.444  26.772  23.583  1.00  0.00     0.001 A 
ATOM     91  C   UNL A   1      51.991  29.058  24.216  1.00  0.00     0.001 A 
ATOM     92  C   UNL A   1      52.573  28.140  23.344  1.00  0.00     0.000 A 
ENDBRANCH  74  87
ENDBRANCH  48  49
ENDBRANCH  41  43
ENDBRANCH  40  41
ENDBRANCH  39  40
ENDBRANCH   1  39
TORSDOF 15
ENDMDL
