MODEL 1
REMARK VINA RESULT:     -10.7      0.000      0.000
REMARK SMILES CCn1ncc(NC(=O)[C@@H]2CCCC[C@@H]2C(=O)OCCOCCOC(=O)c2ccc(-c3c4nc(c(-c5ccccc5)c5ccc([nH]5)c(-c5ccccc5)c5nc(c(-c6ccccc6)c6ccc3[nH]6)C=C5)C=C4)cc2)c1C(=O)Nc1cnn(C)c1C
REMARK SMILES IDX 20 1 19 2 18 3 16 4 17 5 15 6 10 7 11 8 12 9 14 10 13 11
REMARK SMILES IDX 8 12 7 13 9 15 6 16 3 17 4 18 75 19 5 20 2 21 1 22 76 23
REMARK SMILES IDX 77 24 78 25 79 27 80 28 84 29 81 30 82 31 85 32 83 33 21 34
REMARK SMILES IDX 22 35 23 36 24 37 25 38 26 39 27 40 28 41 74 42 29 43 73 44
REMARK SMILES IDX 30 45 31 46 32 47 67 48 33 49 72 50 66 51 68 52 34 53 71 54
REMARK SMILES IDX 65 55 64 56 35 58 57 59 42 60 56 61 43 62 46 63 55 64 69 65
REMARK SMILES IDX 44 66 45 67 54 69 70 70 47 71 36 72 37 73 41 74 38 75 40 76
REMARK SMILES IDX 39 77 58 78 59 79 63 80 60 81 62 82 61 83 48 84 49 85 53 86
REMARK SMILES IDX 50 87 52 88 51 89
REMARK H PARENT 7 14 78 26 68 57 46 68
REMARK Flexibility Score: inf
ROOT
ATOM      1  C   UNL A   1      35.859  22.140  24.549  1.00  0.00     0.202 C 
ENDROOT
BRANCH   1   2
ATOM      2  C   UNL A   1      35.287  23.266  23.620  1.00  0.00     0.261 C 
BRANCH   2   3
ATOM      3  O   UNL A   1      34.207  24.157  24.009  1.00  0.00    -0.463 OA
BRANCH   3   4
ATOM      4  C   UNL A   1      33.105  24.169  23.217  1.00  0.00     0.309 C 
ATOM      5  O   UNL A   1      32.975  24.987  22.307  1.00  0.00    -0.252 OA
BRANCH   4   6
ATOM      6  C   UNL A   1      31.926  23.262  23.645  1.00  0.00     0.111 C 
ATOM      7  C   UNL A   1      31.355  22.954  25.037  1.00  0.00     0.093 C 
ATOM      8  C   UNL A   1      31.593  21.614  25.746  1.00  0.00     0.014 C 
ATOM      9  C   UNL A   1      32.193  20.469  24.957  1.00  0.00     0.001 C 
ATOM     10  C   UNL A   1      31.926  21.934  22.838  1.00  0.00     0.016 C 
ATOM     11  C   UNL A   1      32.588  20.740  23.516  1.00  0.00     0.001 C 
BRANCH   7  12
ATOM     12  C   UNL A   1      31.042  23.982  26.091  1.00  0.00     0.228 C 
ATOM     13  N   UNL A   1      30.952  25.306  26.026  1.00  0.00    -0.322 N 
ATOM     14  H   UNL A   1      31.024  25.672  26.937  1.00  0.00     0.170 HD
ATOM     15  O   UNL A   1      30.897  23.562  27.257  1.00  0.00    -0.274 OA
BRANCH  13  16
ATOM     16  C   UNL A   1      30.793  26.349  25.142  1.00  0.00     0.092 A 
ATOM     17  N   UNL A   1      30.485  28.022  23.617  1.00  0.00    -0.258 N 
ATOM     18  N   UNL A   1      29.514  27.088  23.432  1.00  0.00    -0.178 NA
ATOM     19  C   UNL A   1      31.533  27.453  24.640  1.00  0.00     0.150 A 
ATOM     20  C   UNL A   1      29.550  26.333  24.493  1.00  0.00     0.162 A 
BRANCH  17  21
ATOM     21  C   UNL A   1      30.128  29.175  22.687  1.00  0.00     0.142 C 
ATOM     22  C   UNL A   1      28.870  30.110  22.433  1.00  0.00     0.029 C 
ENDBRANCH  17  21
BRANCH  19  23
ATOM     23  C   UNL A   1      32.847  27.936  25.435  1.00  0.00     0.276 C 
ATOM     24  O   UNL A   1      33.639  27.073  25.837  1.00  0.00    -0.267 OA
ATOM     25  N   UNL A   1      33.526  29.211  25.430  1.00  0.00    -0.318 N 
ATOM     26  H   UNL A   1      34.004  29.451  24.603  1.00  0.00     0.170 HD
BRANCH  25  27
ATOM     27  C   UNL A   1      33.578  30.170  26.503  1.00  0.00     0.082 A 
ATOM     28  C   UNL A   1      32.614  31.097  26.983  1.00  0.00     0.161 A 
ATOM     29  C   UNL A   1      34.668  30.409  27.347  1.00  0.00     0.059 A 
ATOM     30  N   UNL A   1      33.158  32.035  27.776  1.00  0.00    -0.179 NA
ATOM     31  N   UNL A   1      34.459  31.692  27.829  1.00  0.00    -0.271 N 
ATOM     32  C   UNL A   1      35.950  29.704  27.621  1.00  0.00     0.068 C 
ATOM     33  C   UNL A   1      35.475  32.722  28.000  1.00  0.00     0.174 C 
ENDBRANCH  25  27
ENDBRANCH  19  23
ENDBRANCH  13  16
ENDBRANCH   7  12
ENDBRANCH   4   6
ENDBRANCH   3   4
ENDBRANCH   2   3
ENDBRANCH   1   2
BRANCH   1  34
ATOM     34  O   UNL A   1      36.790  22.226  25.652  1.00  0.00    -0.374 OA
BRANCH  34  35
ATOM     35  C   UNL A   1      37.818  23.204  25.706  1.00  0.00     0.202 C 
BRANCH  35  36
ATOM     36  C   UNL A   1      38.914  23.487  26.915  1.00  0.00     0.261 C 
BRANCH  36  37
ATOM     37  O   UNL A   1      39.876  24.692  27.080  1.00  0.00    -0.460 OA
BRANCH  37  38
ATOM     38  C   UNL A   1      40.399  25.770  26.414  1.00  0.00     0.338 C 
ATOM     39  O   UNL A   1      40.934  25.953  25.303  1.00  0.00    -0.246 OA
BRANCH  38  40
ATOM     40  C   UNL A   1      40.638  26.803  27.329  1.00  0.00     0.060 A 
ATOM     41  C   UNL A   1      40.629  26.342  28.639  1.00  0.00     0.016 A 
ATOM     42  C   UNL A   1      40.695  28.133  26.929  1.00  0.00     0.016 A 
ATOM     43  C   UNL A   1      40.420  27.267  29.591  1.00  0.00     0.010 A 
ATOM     44  C   UNL A   1      40.474  29.073  27.879  1.00  0.00     0.010 A 
ATOM     45  C   UNL A   1      40.336  28.607  29.183  1.00  0.00    -0.014 A 
BRANCH  45  46
ATOM     46  C   UNL A   1      40.544  29.509  30.258  1.00  0.00     0.031 A 
ATOM     47  C   UNL A   1      39.323  30.300  30.539  1.00  0.00     0.074 A 
ATOM     48  C   UNL A   1      41.716  29.586  30.882  1.00  0.00     0.049 A 
ATOM     49  N   UNL A   1      39.148  31.560  30.327  1.00  0.00    -0.248 NA
ATOM     50  C   UNL A   1      38.090  29.550  30.842  1.00  0.00     0.031 C 
ATOM     51  C   UNL A   1      42.820  28.639  30.914  1.00  0.00     0.029 A 
ATOM     52  N   UNL A   1      42.038  30.518  31.786  1.00  0.00    -0.354 N 
ATOM     53  C   UNL A   1      37.805  31.795  30.589  1.00  0.00     0.074 A 
ATOM     54  C   UNL A   1      37.175  30.510  30.730  1.00  0.00     0.031 C 
ATOM     55  C   UNL A   1      43.541  28.901  32.029  1.00  0.00     0.029 A 
ATOM     56  C   UNL A   1      42.990  30.089  32.674  1.00  0.00     0.049 A 
ATOM     57  H   UNL A   1      41.635  31.415  31.811  1.00  0.00     0.167 HD
ATOM     58  C   UNL A   1      37.338  33.037  30.875  1.00  0.00     0.031 A 
ATOM     59  C   UNL A   1      43.121  30.604  33.915  1.00  0.00     0.031 A 
ATOM     60  C   UNL A   1      38.260  34.064  30.473  1.00  0.00     0.049 A 
ATOM     61  C   UNL A   1      42.419  31.926  33.938  1.00  0.00     0.074 A 
ATOM     62  C   UNL A   1      38.768  34.474  29.254  1.00  0.00     0.029 A 
ATOM     63  N   UNL A   1      39.122  34.555  31.427  1.00  0.00    -0.354 N 
ATOM     64  N   UNL A   1      42.805  32.957  33.234  1.00  0.00    -0.248 NA
ATOM     65  C   UNL A   1      41.021  31.974  34.361  1.00  0.00     0.031 C 
ATOM     66  C   UNL A   1      40.142  34.764  29.507  1.00  0.00     0.029 A 
ATOM     67  C   UNL A   1      40.378  34.551  30.869  1.00  0.00     0.049 A 
ATOM     68  H   UNL A   1      38.885  34.853  32.334  1.00  0.00     0.167 HD
ATOM     69  C   UNL A   1      41.635  33.565  32.785  1.00  0.00     0.074 A 
ATOM     70  C   UNL A   1      40.573  32.982  33.601  1.00  0.00     0.031 C 
ATOM     71  C   UNL A   1      41.591  34.259  31.605  1.00  0.00     0.031 A 
BRANCH  58  72
ATOM     72  C   UNL A   1      36.235  33.262  31.869  1.00  0.00    -0.014 A 
ATOM     73  C   UNL A   1      35.114  34.007  31.478  1.00  0.00     0.009 A 
ATOM     74  C   UNL A   1      36.377  33.002  33.249  1.00  0.00     0.009 A 
ATOM     75  C   UNL A   1      34.226  34.525  32.427  1.00  0.00     0.001 A 
ATOM     76  C   UNL A   1      35.470  33.480  34.193  1.00  0.00     0.001 A 
ATOM     77  C   UNL A   1      34.410  34.269  33.783  1.00  0.00     0.000 A 
ENDBRANCH  58  72
BRANCH  59  78
ATOM     78  C   UNL A   1      43.470  29.824  35.114  1.00  0.00    -0.014 A 
ATOM     79  C   UNL A   1      42.639  28.784  35.540  1.00  0.00     0.009 A 
ATOM     80  C   UNL A   1      44.721  29.971  35.747  1.00  0.00     0.009 A 
ATOM     81  C   UNL A   1      43.050  27.920  36.561  1.00  0.00     0.001 A 
ATOM     82  C   UNL A   1      45.126  29.121  36.775  1.00  0.00     0.001 A 
ATOM     83  C   UNL A   1      44.291  28.086  37.174  1.00  0.00     0.000 A 
ENDBRANCH  59  78
BRANCH  71  84
ATOM     84  C   UNL A   1      42.892  34.478  30.865  1.00  0.00    -0.014 A 
ATOM     85  C   UNL A   1      43.631  35.670  30.974  1.00  0.00     0.009 A 
ATOM     86  C   UNL A   1      43.473  33.407  30.172  1.00  0.00     0.009 A 
ATOM     87  C   UNL A   1      44.883  35.806  30.368  1.00  0.00     0.001 A 
ATOM     88  C   UNL A   1      44.735  33.533  29.584  1.00  0.00     0.001 A 
ATOM     89  C   UNL A   1      45.435  34.736  29.673  1.00  0.00     0.000 A 
ENDBRANCH  71  84
ENDBRANCH  45  46
ENDBRANCH  38  40
ENDBRANCH  37  38
ENDBRANCH  36  37
ENDBRANCH  35  36
ENDBRANCH  34  35
ENDBRANCH   1  34
TORSDOF 19
ENDMDL
MODEL 2
REMARK VINA RESULT:     -10.3      3.878      9.419
REMARK SMILES CCn1ncc(NC(=O)[C@@H]2CCCC[C@@H]2C(=O)OCCOCCOC(=O)c2ccc(-c3c4nc(c(-c5ccccc5)c5ccc([nH]5)c(-c5ccccc5)c5nc(c(-c6ccccc6)c6ccc3[nH]6)C=C5)C=C4)cc2)c1C(=O)Nc1cnn(C)c1C
REMARK SMILES IDX 20 1 19 2 18 3 16 4 17 5 15 6 10 7 11 8 12 9 14 10 13 11
REMARK SMILES IDX 8 12 7 13 9 15 6 16 3 17 4 18 75 19 5 20 2 21 1 22 76 23
REMARK SMILES IDX 77 24 78 25 79 27 80 28 84 29 81 30 82 31 85 32 83 33 21 34
REMARK SMILES IDX 22 35 23 36 24 37 25 38 26 39 27 40 28 41 74 42 29 43 73 44
REMARK SMILES IDX 30 45 31 46 32 47 67 48 33 49 72 50 66 51 68 52 34 53 71 54
REMARK SMILES IDX 65 55 64 56 35 58 57 59 42 60 56 61 43 62 46 63 55 64 69 65
REMARK SMILES IDX 44 66 45 67 54 69 70 70 47 71 36 72 37 73 41 74 38 75 40 76
REMARK SMILES IDX 39 77 58 78 59 79 63 80 60 81 62 82 61 83 48 84 49 85 53 86
REMARK SMILES IDX 50 87 52 88 51 89
REMARK H PARENT 7 14 78 26 68 57 46 68
REMARK Flexibility Score: inf
ROOT
ATOM      1  C   UNL A   1      33.321  31.156  26.935  1.00  0.00     0.202 C 
ENDROOT
BRANCH   1   2
ATOM      2  C   UNL A   1      32.365  29.943  27.212  1.00  0.00     0.261 C 
BRANCH   2   3
ATOM      3  O   UNL A   1      31.601  29.270  26.175  1.00  0.00    -0.463 OA
BRANCH   3   4
ATOM      4  C   UNL A   1      31.954  27.992  25.885  1.00  0.00     0.309 C 
ATOM      5  O   UNL A   1      33.081  27.564  26.127  1.00  0.00    -0.252 OA
BRANCH   4   6
ATOM      6  C   UNL A   1      30.955  27.166  25.037  1.00  0.00     0.111 C 
ATOM      7  C   UNL A   1      30.884  25.655  24.766  1.00  0.00     0.093 C 
ATOM      8  C   UNL A   1      31.294  25.040  23.421  1.00  0.00     0.014 C 
ATOM      9  C   UNL A   1      31.539  25.961  22.244  1.00  0.00     0.001 C 
ATOM     10  C   UNL A   1      30.623  27.894  23.705  1.00  0.00     0.016 C 
ATOM     11  C   UNL A   1      31.427  27.456  22.486  1.00  0.00     0.001 C 
BRANCH   7  12
ATOM     12  C   UNL A   1      30.994  24.582  25.815  1.00  0.00     0.228 C 
ATOM     13  N   UNL A   1      31.905  23.633  26.008  1.00  0.00    -0.322 N 
ATOM     14  H   UNL A   1      31.520  22.941  26.591  1.00  0.00     0.170 HD
ATOM     15  O   UNL A   1      30.051  24.494  26.627  1.00  0.00    -0.274 OA
BRANCH  13  16
ATOM     16  C   UNL A   1      33.194  23.275  25.686  1.00  0.00     0.092 A 
ATOM     17  N   UNL A   1      35.344  22.760  25.112  1.00  0.00    -0.258 N 
ATOM     18  N   UNL A   1      35.236  24.113  25.205  1.00  0.00    -0.178 NA
ATOM     19  C   UNL A   1      33.905  22.139  25.214  1.00  0.00     0.150 A 
ATOM     20  C   UNL A   1      34.108  24.331  25.816  1.00  0.00     0.162 A 
BRANCH  17  21
ATOM     21  C   UNL A   1      36.826  22.482  24.889  1.00  0.00     0.142 C 
ATOM     22  C   UNL A   1      38.150  22.490  25.766  1.00  0.00     0.029 C 
ENDBRANCH  17  21
BRANCH  19  23
ATOM     23  C   UNL A   1      33.206  20.692  25.298  1.00  0.00     0.276 C 
ATOM     24  O   UNL A   1      32.522  20.427  26.296  1.00  0.00    -0.267 OA
ATOM     25  N   UNL A   1      32.861  19.758  24.250  1.00  0.00    -0.318 N 
ATOM     26  H   UNL A   1      32.123  20.020  23.653  1.00  0.00     0.170 HD
BRANCH  25  27
ATOM     27  C   UNL A   1      33.482  18.487  23.982  1.00  0.00     0.082 A 
ATOM     28  C   UNL A   1      32.997  17.321  23.330  1.00  0.00     0.161 A 
ATOM     29  C   UNL A   1      34.780  18.108  24.344  1.00  0.00     0.059 A 
ATOM     30  N   UNL A   1      33.759  16.243  23.577  1.00  0.00    -0.179 NA
ATOM     31  N   UNL A   1      34.745  16.722  24.358  1.00  0.00    -0.271 N 
ATOM     32  C   UNL A   1      35.976  18.835  24.851  1.00  0.00     0.068 C 
ATOM     33  C   UNL A   1      35.372  15.857  25.349  1.00  0.00     0.174 C 
ENDBRANCH  25  27
ENDBRANCH  19  23
ENDBRANCH  13  16
ENDBRANCH   7  12
ENDBRANCH   4   6
ENDBRANCH   3   4
ENDBRANCH   2   3
ENDBRANCH   1   2
BRANCH   1  34
ATOM     34  O   UNL A   1      33.401  32.446  27.583  1.00  0.00    -0.374 OA
BRANCH  34  35
ATOM     35  C   UNL A   1      34.354  32.730  28.597  1.00  0.00     0.202 C 
BRANCH  35  36
ATOM     36  C   UNL A   1      35.197  31.671  29.550  1.00  0.00     0.261 C 
BRANCH  36  37
ATOM     37  O   UNL A   1      36.344  30.710  29.141  1.00  0.00    -0.460 OA
BRANCH  37  38
ATOM     38  C   UNL A   1      36.643  29.655  28.319  1.00  0.00     0.338 C 
ATOM     39  O   UNL A   1      35.983  28.828  27.659  1.00  0.00    -0.246 OA
BRANCH  38  40
ATOM     40  C   UNL A   1      37.973  29.271  28.529  1.00  0.00     0.060 A 
ATOM     41  C   UNL A   1      38.801  29.699  27.499  1.00  0.00     0.016 A 
ATOM     42  C   UNL A   1      38.331  28.420  29.568  1.00  0.00     0.016 A 
ATOM     43  C   UNL A   1      39.969  29.048  27.369  1.00  0.00     0.010 A 
ATOM     44  C   UNL A   1      39.501  27.749  29.440  1.00  0.00     0.010 A 
ATOM     45  C   UNL A   1      40.282  28.082  28.337  1.00  0.00    -0.014 A 
BRANCH  45  46
ATOM     46  C   UNL A   1      41.667  27.776  28.361  1.00  0.00     0.031 A 
ATOM     47  C   UNL A   1      41.954  26.527  27.617  1.00  0.00     0.074 A 
ATOM     48  C   UNL A   1      42.538  28.552  28.998  1.00  0.00     0.049 A 
ATOM     49  N   UNL A   1      42.325  25.395  28.112  1.00  0.00    -0.248 NA
ATOM     50  C   UNL A   1      41.527  26.471  26.206  1.00  0.00     0.031 C 
ATOM     51  C   UNL A   1      42.410  29.933  29.438  1.00  0.00     0.029 A 
ATOM     52  N   UNL A   1      43.824  28.245  29.205  1.00  0.00    -0.354 N 
ATOM     53  C   UNL A   1      42.300  24.502  27.049  1.00  0.00     0.074 A 
ATOM     54  C   UNL A   1      41.645  25.170  25.957  1.00  0.00     0.031 C 
ATOM     55  C   UNL A   1      43.662  30.430  29.569  1.00  0.00     0.029 A 
ATOM     56  C   UNL A   1      44.620  29.354  29.334  1.00  0.00     0.049 A 
ATOM     57  H   UNL A   1      44.162  27.323  29.258  1.00  0.00     0.167 HD
ATOM     58  C   UNL A   1      43.003  23.342  27.073  1.00  0.00     0.031 A 
ATOM     59  C   UNL A   1      45.941  29.345  29.057  1.00  0.00     0.031 A 
ATOM     60  C   UNL A   1      43.395  22.977  28.407  1.00  0.00     0.049 A 
ATOM     61  C   UNL A   1      46.399  27.920  29.059  1.00  0.00     0.074 A 
ATOM     62  C   UNL A   1      42.699  22.645  29.554  1.00  0.00     0.029 A 
ATOM     63  N   UNL A   1      44.658  23.337  28.821  1.00  0.00    -0.354 N 
ATOM     64  N   UNL A   1      46.397  27.165  30.126  1.00  0.00    -0.248 NA
ATOM     65  C   UNL A   1      46.407  27.181  27.798  1.00  0.00     0.031 C 
ATOM     66  C   UNL A   1      43.413  23.279  30.614  1.00  0.00     0.029 A 
ATOM     67  C   UNL A   1      44.519  23.926  30.055  1.00  0.00     0.049 A 
ATOM     68  H   UNL A   1      45.498  23.199  28.329  1.00  0.00     0.167 HD
ATOM     69  C   UNL A   1      45.997  25.903  29.694  1.00  0.00     0.074 A 
ATOM     70  C   UNL A   1      46.126  25.947  28.239  1.00  0.00     0.031 C 
ATOM     71  C   UNL A   1      45.322  25.041  30.516  1.00  0.00     0.031 A 
BRANCH  58  72
ATOM     72  C   UNL A   1      43.654  22.781  25.840  1.00  0.00    -0.014 A 
ATOM     73  C   UNL A   1      43.662  21.391  25.654  1.00  0.00     0.009 A 
ATOM     74  C   UNL A   1      44.490  23.542  24.996  1.00  0.00     0.009 A 
ATOM     75  C   UNL A   1      44.519  20.795  24.721  1.00  0.00     0.001 A 
ATOM     76  C   UNL A   1      45.312  22.954  24.037  1.00  0.00     0.001 A 
ATOM     77  C   UNL A   1      45.349  21.576  23.922  1.00  0.00     0.000 A 
ENDBRANCH  58  72
BRANCH  59  78
ATOM     78  C   UNL A   1      46.673  30.455  28.424  1.00  0.00    -0.014 A 
ATOM     79  C   UNL A   1      46.412  30.800  27.095  1.00  0.00     0.009 A 
ATOM     80  C   UNL A   1      47.503  31.310  29.178  1.00  0.00     0.009 A 
ATOM     81  C   UNL A   1      46.960  31.963  26.543  1.00  0.00     0.001 A 
ATOM     82  C   UNL A   1      48.063  32.461  28.625  1.00  0.00     0.001 A 
ATOM     83  C   UNL A   1      47.780  32.792  27.306  1.00  0.00     0.000 A 
ENDBRANCH  59  78
BRANCH  71  84
ATOM     84  C   UNL A   1      45.147  25.437  31.965  1.00  0.00    -0.014 A 
ATOM     85  C   UNL A   1      46.064  25.064  32.965  1.00  0.00     0.009 A 
ATOM     86  C   UNL A   1      44.131  26.338  32.311  1.00  0.00     0.009 A 
ATOM     87  C   UNL A   1      45.941  25.534  34.276  1.00  0.00     0.001 A 
ATOM     88  C   UNL A   1      44.018  26.827  33.616  1.00  0.00     0.001 A 
ATOM     89  C   UNL A   1      44.917  26.417  34.600  1.00  0.00     0.000 A 
ENDBRANCH  71  84
ENDBRANCH  45  46
ENDBRANCH  38  40
ENDBRANCH  37  38
ENDBRANCH  36  37
ENDBRANCH  35  36
ENDBRANCH  34  35
ENDBRANCH   1  34
TORSDOF 19
ENDMDL
MODEL 3
REMARK VINA RESULT:     -10.0      2.327      6.307
REMARK SMILES CCn1ncc(NC(=O)[C@@H]2CCCC[C@@H]2C(=O)OCCOCCOC(=O)c2ccc(-c3c4nc(c(-c5ccccc5)c5ccc([nH]5)c(-c5ccccc5)c5nc(c(-c6ccccc6)c6ccc3[nH]6)C=C5)C=C4)cc2)c1C(=O)Nc1cnn(C)c1C
REMARK SMILES IDX 20 1 19 2 18 3 16 4 17 5 15 6 10 7 11 8 12 9 14 10 13 11
REMARK SMILES IDX 8 12 7 13 9 15 6 16 3 17 4 18 75 19 5 20 2 21 1 22 76 23
REMARK SMILES IDX 77 24 78 25 79 27 80 28 84 29 81 30 82 31 85 32 83 33 21 34
REMARK SMILES IDX 22 35 23 36 24 37 25 38 26 39 27 40 28 41 74 42 29 43 73 44
REMARK SMILES IDX 30 45 31 46 32 47 67 48 33 49 72 50 66 51 68 52 34 53 71 54
REMARK SMILES IDX 65 55 64 56 35 58 57 59 42 60 56 61 43 62 46 63 55 64 69 65
REMARK SMILES IDX 44 66 45 67 54 69 70 70 47 71 36 72 37 73 41 74 38 75 40 76
REMARK SMILES IDX 39 77 58 78 59 79 63 80 60 81 62 82 61 83 48 84 49 85 53 86
REMARK SMILES IDX 50 87 52 88 51 89
REMARK H PARENT 7 14 78 26 68 57 46 68
REMARK Flexibility Score: inf
ROOT
ATOM      1  C   UNL A   1      38.813  21.737  25.724  1.00  0.00     0.202 C 
ENDROOT
BRANCH   1   2
ATOM      2  C   UNL A   1      37.480  22.548  25.886  1.00  0.00     0.261 C 
BRANCH   2   3
ATOM      3  O   UNL A   1      36.181  22.051  25.466  1.00  0.00    -0.463 OA
BRANCH   3   4
ATOM      4  C   UNL A   1      35.824  22.278  24.176  1.00  0.00     0.309 C 
ATOM      5  O   UNL A   1      36.506  22.982  23.434  1.00  0.00    -0.252 OA
BRANCH   4   6
ATOM      6  C   UNL A   1      34.415  21.800  23.745  1.00  0.00     0.111 C 
ATOM      7  C   UNL A   1      33.179  22.600  23.308  1.00  0.00     0.093 C 
ATOM      8  C   UNL A   1      31.957  22.789  24.218  1.00  0.00     0.014 C 
ATOM      9  C   UNL A   1      31.856  21.962  25.482  1.00  0.00     0.001 C 
ATOM     10  C   UNL A   1      33.921  20.638  24.652  1.00  0.00     0.016 C 
ATOM     11  C   UNL A   1      33.012  21.034  25.810  1.00  0.00     0.001 C 
BRANCH   7  12
ATOM     12  C   UNL A   1      33.184  23.723  22.307  1.00  0.00     0.228 C 
ATOM     13  N   UNL A   1      32.959  25.026  22.447  1.00  0.00    -0.322 N 
ATOM     14  H   UNL A   1      32.756  25.407  21.563  1.00  0.00     0.170 HD
ATOM     15  O   UNL A   1      33.366  23.408  21.113  1.00  0.00    -0.274 OA
BRANCH  13  16
ATOM     16  C   UNL A   1      32.910  26.031  23.385  1.00  0.00     0.092 A 
ATOM     17  N   UNL A   1      32.865  27.643  25.003  1.00  0.00    -0.258 N 
ATOM     18  N   UNL A   1      33.848  26.753  25.309  1.00  0.00    -0.178 NA
ATOM     19  C   UNL A   1      32.034  27.069  23.800  1.00  0.00     0.150 A 
ATOM     20  C   UNL A   1      34.030  26.050  24.229  1.00  0.00     0.162 A 
BRANCH  17  21
ATOM     21  C   UNL A   1      32.997  28.767  26.023  1.00  0.00     0.142 C 
ATOM     22  C   UNL A   1      32.332  29.153  27.413  1.00  0.00     0.029 C 
ENDBRANCH  17  21
BRANCH  19  23
ATOM     23  C   UNL A   1      30.840  27.520  22.819  1.00  0.00     0.276 C 
ATOM     24  O   UNL A   1      30.992  27.363  21.600  1.00  0.00    -0.267 OA
ATOM     25  N   UNL A   1      29.430  27.698  23.083  1.00  0.00    -0.318 N 
ATOM     26  H   UNL A   1      28.908  26.880  23.254  1.00  0.00     0.170 HD
BRANCH  25  27
ATOM     27  C   UNL A   1      28.707  28.942  23.125  1.00  0.00     0.082 A 
ATOM     28  C   UNL A   1      27.379  29.271  22.741  1.00  0.00     0.161 A 
ATOM     29  C   UNL A   1      29.201  30.172  23.576  1.00  0.00     0.059 A 
ATOM     30  N   UNL A   1      27.194  30.597  22.626  1.00  0.00    -0.179 NA
ATOM     31  N   UNL A   1      28.389  31.116  22.966  1.00  0.00    -0.271 N 
ATOM     32  C   UNL A   1      30.412  30.596  24.329  1.00  0.00     0.068 C 
ATOM     33  C   UNL A   1      28.828  32.374  22.377  1.00  0.00     0.174 C 
ENDBRANCH  25  27
ENDBRANCH  19  23
ENDBRANCH  13  16
ENDBRANCH   7  12
ENDBRANCH   4   6
ENDBRANCH   3   4
ENDBRANCH   2   3
ENDBRANCH   1   2
BRANCH   1  34
ATOM     34  O   UNL A   1      39.834  21.419  26.696  1.00  0.00    -0.374 OA
BRANCH  34  35
ATOM     35  C   UNL A   1      41.213  21.361  26.361  1.00  0.00     0.202 C 
BRANCH  35  36
ATOM     36  C   UNL A   1      42.260  22.611  26.072  1.00  0.00     0.261 C 
BRANCH  36  37
ATOM     37  O   UNL A   1      42.825  23.646  27.080  1.00  0.00    -0.460 OA
BRANCH  37  38
ATOM     38  C   UNL A   1      42.778  24.026  28.396  1.00  0.00     0.338 C 
ATOM     39  O   UNL A   1      42.782  23.432  29.493  1.00  0.00    -0.246 OA
BRANCH  38  40
ATOM     40  C   UNL A   1      42.325  25.349  28.477  1.00  0.00     0.060 A 
ATOM     41  C   UNL A   1      43.039  26.079  29.418  1.00  0.00     0.016 A 
ATOM     42  C   UNL A   1      41.187  25.772  27.802  1.00  0.00     0.016 A 
ATOM     43  C   UNL A   1      42.442  27.190  29.883  1.00  0.00     0.010 A 
ATOM     44  C   UNL A   1      40.571  26.885  28.270  1.00  0.00     0.010 A 
ATOM     45  C   UNL A   1      41.217  27.556  29.303  1.00  0.00    -0.014 A 
BRANCH  45  46
ATOM     46  C   UNL A   1      40.896  28.917  29.543  1.00  0.00     0.031 A 
ATOM     47  C   UNL A   1      41.954  29.817  29.026  1.00  0.00     0.074 A 
ATOM     48  C   UNL A   1      39.775  29.265  30.166  1.00  0.00     0.049 A 
ATOM     49  N   UNL A   1      42.775  30.529  29.720  1.00  0.00    -0.248 NA
ATOM     50  C   UNL A   1      42.295  29.702  27.595  1.00  0.00     0.031 C 
ATOM     51  C   UNL A   1      38.553  28.506  30.385  1.00  0.00     0.029 A 
ATOM     52  N   UNL A   1      39.483  30.506  30.573  1.00  0.00    -0.354 N 
ATOM     53  C   UNL A   1      43.671  31.059  28.801  1.00  0.00     0.074 A 
ATOM     54  C   UNL A   1      43.435  30.387  27.551  1.00  0.00     0.031 C 
ATOM     55  C   UNL A   1      37.558  29.398  30.599  1.00  0.00     0.029 A 
ATOM     56  C   UNL A   1      38.134  30.739  30.640  1.00  0.00     0.049 A 
ATOM     57  H   UNL A   1      40.164  31.180  30.799  1.00  0.00     0.167 HD
ATOM     58  C   UNL A   1      44.411  32.162  29.077  1.00  0.00     0.031 A 
ATOM     59  C   UNL A   1      37.596  31.973  30.534  1.00  0.00     0.031 A 
ATOM     60  C   UNL A   1      44.469  32.432  30.488  1.00  0.00     0.049 A 
ATOM     61  C   UNL A   1      38.682  32.970  30.796  1.00  0.00     0.074 A 
ATOM     62  C   UNL A   1      44.979  31.748  31.575  1.00  0.00     0.029 A 
ATOM     63  N   UNL A   1      43.571  33.341  31.000  1.00  0.00    -0.354 N 
ATOM     64  N   UNL A   1      39.280  33.094  31.951  1.00  0.00    -0.248 NA
ATOM     65  C   UNL A   1      39.440  33.500  29.664  1.00  0.00     0.031 C 
ATOM     66  C   UNL A   1      44.021  31.941  32.613  1.00  0.00     0.029 A 
ATOM     67  C   UNL A   1      43.007  32.761  32.110  1.00  0.00     0.049 A 
ATOM     68  H   UNL A   1      43.372  34.235  30.641  1.00  0.00     0.167 HD
ATOM     69  C   UNL A   1      40.621  33.331  31.657  1.00  0.00     0.074 A 
ATOM     70  C   UNL A   1      40.637  33.680  30.238  1.00  0.00     0.031 C 
ATOM     71  C   UNL A   1      41.624  32.940  32.503  1.00  0.00     0.031 A 
BRANCH  58  72
ATOM     72  C   UNL A   1      44.731  33.188  28.027  1.00  0.00    -0.014 A 
ATOM     73  C   UNL A   1      46.074  33.500  27.774  1.00  0.00     0.009 A 
ATOM     74  C   UNL A   1      43.762  34.051  27.473  1.00  0.00     0.009 A 
ATOM     75  C   UNL A   1      46.425  34.654  27.065  1.00  0.00     0.001 A 
ATOM     76  C   UNL A   1      44.107  35.178  26.730  1.00  0.00     0.001 A 
ATOM     77  C   UNL A   1      45.442  35.497  26.553  1.00  0.00     0.000 A 
ENDBRANCH  58  72
BRANCH  59  78
ATOM     78  C   UNL A   1      36.331  32.279  29.845  1.00  0.00    -0.014 A 
ATOM     79  C   UNL A   1      35.614  33.432  30.177  1.00  0.00     0.009 A 
ATOM     80  C   UNL A   1      35.910  31.539  28.721  1.00  0.00     0.009 A 
ATOM     81  C   UNL A   1      34.516  33.831  29.407  1.00  0.00     0.001 A 
ATOM     82  C   UNL A   1      34.806  31.927  27.962  1.00  0.00     0.001 A 
ATOM     83  C   UNL A   1      34.115  33.082  28.301  1.00  0.00     0.000 A 
ENDBRANCH  59  78
BRANCH  71  84
ATOM     84  C   UNL A   1      41.232  32.370  33.848  1.00  0.00    -0.014 A 
ATOM     85  C   UNL A   1      40.882  31.018  34.022  1.00  0.00     0.009 A 
ATOM     86  C   UNL A   1      41.373  33.163  34.995  1.00  0.00     0.009 A 
ATOM     87  C   UNL A   1      40.630  30.490  35.292  1.00  0.00     0.001 A 
ATOM     88  C   UNL A   1      41.143  32.632  36.268  1.00  0.00     0.001 A 
ATOM     89  C   UNL A   1      40.762  31.299  36.415  1.00  0.00     0.000 A 
ENDBRANCH  71  84
ENDBRANCH  45  46
ENDBRANCH  38  40
ENDBRANCH  37  38
ENDBRANCH  36  37
ENDBRANCH  35  36
ENDBRANCH  34  35
ENDBRANCH   1  34
TORSDOF 19
ENDMDL
