MODEL 1
REMARK VINA RESULT:     -10.9      0.000      0.000
REMARK SMILES O=C(NCc1ccc(C(=O)OCCOCCOC(=O)c2ccc(-c3c4nc(c(-c5ccccc5)c5ccc([nH]5)c(-c5ccccc5)c5nc(c(-c6ccccc6)c6ccc3[nH]6)C=C5)C=C4)cc2)cc1)Nc1ccccc1Br
REMARK SMILES IDX 13 1 12 2 11 3 9 4 10 5 8 6 5 7 6 8 69 9 7 10 68 11 4 12
REMARK SMILES IDX 3 13 1 14 2 15 70 16 71 19 72 20 76 21 73 22 75 23 77 24
REMARK SMILES IDX 74 25 14 26 15 27 16 28 17 29 18 30 19 31 20 32 21 33 67 34
REMARK SMILES IDX 22 35 66 36 23 37 24 38 25 39 60 40 26 41 65 42 59 43 61 44
REMARK SMILES IDX 27 45 64 46 58 47 57 48 28 50 50 51 35 52 49 53 36 54 39 55
REMARK SMILES IDX 48 56 62 57 37 58 38 59 47 61 63 62 40 63 29 64 30 65 34 66
REMARK SMILES IDX 31 67 33 68 32 69 51 70 52 71 56 72 53 73 55 74 54 75 41 76
REMARK SMILES IDX 42 77 46 78 43 79 45 80 44 81
REMARK H PARENT 3 17 70 18 61 49 39 60
REMARK Flexibility Score: inf
ROOT
ATOM      1  C   UNL A   1      35.014  33.010  28.046  1.00  0.00     0.202 C 
ENDROOT
BRANCH   1   2
ATOM      2  C   UNL A   1      33.946  31.964  28.381  1.00  0.00     0.261 C 
BRANCH   2   3
ATOM      3  O   UNL A   1      33.616  31.166  27.232  1.00  0.00    -0.460 OA
BRANCH   3   4
ATOM      4  C   UNL A   1      32.309  31.201  26.877  1.00  0.00     0.338 C 
ATOM      5  O   UNL A   1      31.605  32.196  26.795  1.00  0.00    -0.246 OA
BRANCH   4   6
ATOM      6  C   UNL A   1      31.837  29.857  26.464  1.00  0.00     0.060 A 
ATOM      7  C   UNL A   1      31.117  27.223  25.800  1.00  0.00    -0.029 A 
ATOM      8  C   UNL A   1      31.457  27.552  27.117  1.00  0.00     0.006 A 
ATOM      9  C   UNL A   1      31.079  28.242  24.830  1.00  0.00     0.006 A 
ATOM     10  C   UNL A   1      31.815  28.859  27.445  1.00  0.00     0.016 A 
ATOM     11  C   UNL A   1      31.438  29.554  25.158  1.00  0.00     0.016 A 
BRANCH   7  12
ATOM     12  C   UNL A   1      30.857  25.786  25.422  1.00  0.00     0.153 C 
BRANCH  12  13
ATOM     13  N   UNL A   1      31.170  24.906  26.529  1.00  0.00    -0.334 N 
ATOM     14  O   UNL A   1      31.792  23.090  27.634  1.00  0.00    -0.248 OA
ATOM     15  C   UNL A   1      31.790  23.698  26.567  1.00  0.00     0.319 C 
ATOM     16  N   UNL A   1      32.428  23.300  25.426  1.00  0.00    -0.307 N 
ATOM     17  H   UNL A   1      30.882  25.242  27.409  1.00  0.00     0.165 HD
ATOM     18  H   UNL A   1      32.477  23.941  24.681  1.00  0.00     0.171 HD
BRANCH  16  19
ATOM     19  C   UNL A   1      33.023  22.029  25.241  1.00  0.00     0.057 A 
ATOM     20  C   UNL A   1      32.137  20.970  24.980  1.00  0.00     0.027 A 
ATOM     21  C   UNL A   1      34.400  21.750  25.308  1.00  0.00     0.041 A 
ATOM     22  C   UNL A   1      32.611  19.685  24.702  1.00  0.00     0.002 A 
ATOM     23  C   UNL A   1      34.869  20.458  25.027  1.00  0.00     0.018 A 
ATOM     24  Br  UNL A   1      35.694  22.972  25.983  1.00  0.00    -0.049 Br
ATOM     25  C   UNL A   1      33.979  19.433  24.708  1.00  0.00     0.001 A 
ENDBRANCH  16  19
ENDBRANCH  12  13
ENDBRANCH   7  12
ENDBRANCH   4   6
ENDBRANCH   3   4
ENDBRANCH   2   3
ENDBRANCH   1   2
BRANCH   1  26
ATOM     26  O   UNL A   1      34.718  34.352  28.433  1.00  0.00    -0.374 OA
BRANCH  26  27
ATOM     27  C   UNL A   1      33.337  34.719  28.490  1.00  0.00     0.202 C 
BRANCH  27  28
ATOM     28  C   UNL A   1      32.959  35.724  29.584  1.00  0.00     0.261 C 
BRANCH  28  29
ATOM     29  O   UNL A   1      32.409  35.068  30.742  1.00  0.00    -0.460 OA
BRANCH  29  30
ATOM     30  C   UNL A   1      32.753  35.621  31.928  1.00  0.00     0.338 C 
ATOM     31  O   UNL A   1      32.133  36.463  32.564  1.00  0.00    -0.246 OA
BRANCH  30  32
ATOM     32  C   UNL A   1      33.935  34.933  32.479  1.00  0.00     0.060 A 
ATOM     33  C   UNL A   1      35.181  35.545  32.297  1.00  0.00     0.016 A 
ATOM     34  C   UNL A   1      33.840  33.689  33.106  1.00  0.00     0.016 A 
ATOM     35  C   UNL A   1      36.345  34.892  32.697  1.00  0.00     0.010 A 
ATOM     36  C   UNL A   1      35.011  33.030  33.500  1.00  0.00     0.010 A 
ATOM     37  C   UNL A   1      36.270  33.615  33.268  1.00  0.00    -0.014 A 
BRANCH  37  38
ATOM     38  C   UNL A   1      37.514  32.844  33.500  1.00  0.00     0.031 A 
ATOM     39  C   UNL A   1      38.285  33.059  34.773  1.00  0.00     0.074 A 
ATOM     40  C   UNL A   1      37.939  31.939  32.600  1.00  0.00     0.049 A 
ATOM     41  N   UNL A   1      39.394  32.492  35.175  1.00  0.00    -0.248 NA
ATOM     42  C   UNL A   1      37.733  34.042  35.718  1.00  0.00     0.031 C 
ATOM     43  C   UNL A   1      37.262  31.612  31.346  1.00  0.00     0.029 A 
ATOM     44  N   UNL A   1      39.046  31.130  32.609  1.00  0.00    -0.354 N 
ATOM     45  C   UNL A   1      39.676  33.053  36.414  1.00  0.00     0.074 A 
ATOM     46  C   UNL A   1      38.639  34.025  36.685  1.00  0.00     0.031 C 
ATOM     47  C   UNL A   1      37.973  30.671  30.702  1.00  0.00     0.029 A 
ATOM     48  C   UNL A   1      39.167  30.352  31.485  1.00  0.00     0.049 A 
ATOM     49  H   UNL A   1      39.692  31.107  33.352  1.00  0.00     0.167 HD
ATOM     50  C   UNL A   1      40.703  32.781  37.254  1.00  0.00     0.031 A 
ATOM     51  C   UNL A   1      40.137  29.494  31.119  1.00  0.00     0.031 A 
ATOM     52  C   UNL A   1      41.743  31.826  36.983  1.00  0.00     0.049 A 
ATOM     53  C   UNL A   1      41.305  29.259  32.038  1.00  0.00     0.074 A 
ATOM     54  C   UNL A   1      42.812  31.463  37.784  1.00  0.00     0.029 A 
ATOM     55  N   UNL A   1      41.850  31.088  35.815  1.00  0.00    -0.354 N 
ATOM     56  N   UNL A   1      41.539  29.769  33.223  1.00  0.00    -0.248 NA
ATOM     57  C   UNL A   1      42.337  28.322  31.571  1.00  0.00     0.031 C 
ATOM     58  C   UNL A   1      43.597  30.546  37.077  1.00  0.00     0.029 A 
ATOM     59  C   UNL A   1      42.984  30.295  35.860  1.00  0.00     0.049 A 
ATOM     60  H   UNL A   1      41.214  31.122  35.064  1.00  0.00     0.167 HD
ATOM     61  C   UNL A   1      42.731  29.198  33.652  1.00  0.00     0.074 A 
ATOM     62  C   UNL A   1      43.163  28.292  32.609  1.00  0.00     0.031 C 
ATOM     63  C   UNL A   1      43.406  29.403  34.810  1.00  0.00     0.031 A 
BRANCH  50  64
ATOM     64  C   UNL A   1      40.768  33.560  38.538  1.00  0.00    -0.014 A 
ATOM     65  C   UNL A   1      40.161  33.086  39.712  1.00  0.00     0.009 A 
ATOM     66  C   UNL A   1      41.475  34.771  38.581  1.00  0.00     0.009 A 
ATOM     67  C   UNL A   1      40.232  33.827  40.893  1.00  0.00     0.001 A 
ATOM     68  C   UNL A   1      41.567  35.497  39.770  1.00  0.00     0.001 A 
ATOM     69  C   UNL A   1      40.938  35.029  40.922  1.00  0.00     0.000 A 
ENDBRANCH  50  64
BRANCH  51  70
ATOM     70  C   UNL A   1      40.057  28.799  29.808  1.00  0.00    -0.014 A 
ATOM     71  C   UNL A   1      39.408  27.561  29.689  1.00  0.00     0.009 A 
ATOM     72  C   UNL A   1      40.644  29.370  28.668  1.00  0.00     0.009 A 
ATOM     73  C   UNL A   1      39.367  26.899  28.459  1.00  0.00     0.001 A 
ATOM     74  C   UNL A   1      40.577  28.720  27.433  1.00  0.00     0.001 A 
ATOM     75  C   UNL A   1      39.946  27.482  27.332  1.00  0.00     0.000 A 
ENDBRANCH  51  70
BRANCH  63  76
ATOM     76  C   UNL A   1      44.667  28.614  35.022  1.00  0.00    -0.014 A 
ATOM     77  C   UNL A   1      45.919  29.123  34.639  1.00  0.00     0.009 A 
ATOM     78  C   UNL A   1      44.606  27.359  35.650  1.00  0.00     0.009 A 
ATOM     79  C   UNL A   1      47.079  28.375  34.853  1.00  0.00     0.001 A 
ATOM     80  C   UNL A   1      45.771  26.628  35.887  1.00  0.00     0.001 A 
ATOM     81  C   UNL A   1      47.004  27.132  35.480  1.00  0.00     0.000 A 
ENDBRANCH  63  76
ENDBRANCH  37  38
ENDBRANCH  30  32
ENDBRANCH  29  30
ENDBRANCH  28  29
ENDBRANCH  27  28
ENDBRANCH  26  27
ENDBRANCH   1  26
TORSDOF 17
ENDMDL
MODEL 2
REMARK VINA RESULT:     -10.9      4.562      7.590
REMARK SMILES O=C(NCc1ccc(C(=O)OCCOCCOC(=O)c2ccc(-c3c4nc(c(-c5ccccc5)c5ccc([nH]5)c(-c5ccccc5)c5nc(c(-c6ccccc6)c6ccc3[nH]6)C=C5)C=C4)cc2)cc1)Nc1ccccc1Br
REMARK SMILES IDX 13 1 12 2 11 3 9 4 10 5 8 6 5 7 6 8 69 9 7 10 68 11 4 12
REMARK SMILES IDX 3 13 1 14 2 15 70 16 71 19 72 20 76 21 73 22 75 23 77 24
REMARK SMILES IDX 74 25 14 26 15 27 16 28 17 29 18 30 19 31 20 32 21 33 67 34
REMARK SMILES IDX 22 35 66 36 23 37 24 38 25 39 60 40 26 41 65 42 59 43 61 44
REMARK SMILES IDX 27 45 64 46 58 47 57 48 28 50 50 51 35 52 49 53 36 54 39 55
REMARK SMILES IDX 48 56 62 57 37 58 38 59 47 61 63 62 40 63 29 64 30 65 34 66
REMARK SMILES IDX 31 67 33 68 32 69 51 70 52 71 56 72 53 73 55 74 54 75 41 76
REMARK SMILES IDX 42 77 46 78 43 79 45 80 44 81
REMARK H PARENT 3 17 70 18 61 49 39 60
REMARK Flexibility Score: inf
ROOT
ATOM      1  C   UNL A   1      33.419  34.804  32.809  1.00  0.00     0.202 C 
ENDROOT
BRANCH   1   2
ATOM      2  C   UNL A   1      34.845  35.355  32.905  1.00  0.00     0.261 C 
BRANCH   2   3
ATOM      3  O   UNL A   1      35.795  34.308  33.162  1.00  0.00    -0.460 OA
BRANCH   3   4
ATOM      4  C   UNL A   1      35.975  34.017  34.473  1.00  0.00     0.338 C 
ATOM      5  O   UNL A   1      35.200  34.264  35.385  1.00  0.00    -0.246 OA
BRANCH   4   6
ATOM      6  C   UNL A   1      37.213  33.225  34.674  1.00  0.00     0.060 A 
ATOM      7  C   UNL A   1      39.426  31.540  35.071  1.00  0.00    -0.029 A 
ATOM      8  C   UNL A   1      38.415  31.178  34.174  1.00  0.00     0.006 A 
ATOM      9  C   UNL A   1      39.349  32.786  35.720  1.00  0.00     0.006 A 
ATOM     10  C   UNL A   1      37.316  32.015  33.979  1.00  0.00     0.016 A 
ATOM     11  C   UNL A   1      38.247  33.627  35.525  1.00  0.00     0.016 A 
BRANCH   7  12
ATOM     12  C   UNL A   1      40.546  30.577  35.377  1.00  0.00     0.153 C 
BRANCH  12  13
ATOM     13  N   UNL A   1      40.751  29.668  34.267  1.00  0.00    -0.334 N 
ATOM     14  O   UNL A   1      41.483  27.929  33.108  1.00  0.00    -0.248 OA
ATOM     15  C   UNL A   1      41.289  28.422  34.216  1.00  0.00     0.319 C 
ATOM     16  N   UNL A   1      41.496  27.793  35.411  1.00  0.00    -0.307 N 
ATOM     17  H   UNL A   1      40.448  30.016  33.397  1.00  0.00     0.165 HD
ATOM     18  H   UNL A   1      41.164  28.237  36.225  1.00  0.00     0.171 HD
BRANCH  16  19
ATOM     19  C   UNL A   1      42.153  26.548  35.560  1.00  0.00     0.057 A 
ATOM     20  C   UNL A   1      41.334  25.409  35.469  1.00  0.00     0.027 A 
ATOM     21  C   UNL A   1      43.528  26.369  35.796  1.00  0.00     0.041 A 
ATOM     22  C   UNL A   1      41.880  24.124  35.521  1.00  0.00     0.002 A 
ATOM     23  C   UNL A   1      44.069  25.075  35.846  1.00  0.00     0.018 A 
ATOM     24  Br  UNL A   1      44.709  27.780  36.285  1.00  0.00    -0.049 Br
ATOM     25  C   UNL A   1      43.250  23.957  35.692  1.00  0.00     0.001 A 
ENDBRANCH  16  19
ENDBRANCH  12  13
ENDBRANCH   7  12
ENDBRANCH   4   6
ENDBRANCH   3   4
ENDBRANCH   2   3
ENDBRANCH   1   2
BRANCH   1  26
ATOM     26  O   UNL A   1      32.536  35.504  31.934  1.00  0.00    -0.374 OA
BRANCH  26  27
ATOM     27  C   UNL A   1      33.133  36.400  30.993  1.00  0.00     0.202 C 
BRANCH  27  28
ATOM     28  C   UNL A   1      33.083  35.958  29.526  1.00  0.00     0.261 C 
BRANCH  28  29
ATOM     29  O   UNL A   1      32.564  34.622  29.390  1.00  0.00    -0.460 OA
BRANCH  29  30
ATOM     30  C   UNL A   1      33.221  33.841  28.502  1.00  0.00     0.338 C 
ATOM     31  O   UNL A   1      32.886  33.574  27.356  1.00  0.00    -0.246 OA
BRANCH  30  32
ATOM     32  C   UNL A   1      34.541  33.468  29.042  1.00  0.00     0.060 A 
ATOM     33  C   UNL A   1      35.673  33.901  28.339  1.00  0.00     0.016 A 
ATOM     34  C   UNL A   1      34.675  32.662  30.174  1.00  0.00     0.016 A 
ATOM     35  C   UNL A   1      36.942  33.488  28.736  1.00  0.00     0.010 A 
ATOM     36  C   UNL A   1      35.951  32.241  30.568  1.00  0.00     0.010 A 
ATOM     37  C   UNL A   1      37.087  32.626  29.832  1.00  0.00    -0.014 A 
BRANCH  37  38
ATOM     38  C   UNL A   1      38.412  32.029  30.121  1.00  0.00     0.031 A 
ATOM     39  C   UNL A   1      39.369  32.765  31.017  1.00  0.00     0.074 A 
ATOM     40  C   UNL A   1      38.749  30.829  29.617  1.00  0.00     0.049 A 
ATOM     41  N   UNL A   1      40.574  32.425  31.400  1.00  0.00    -0.248 NA
ATOM     42  C   UNL A   1      38.908  34.055  31.554  1.00  0.00     0.031 C 
ATOM     43  C   UNL A   1      37.897  30.000  28.766  1.00  0.00     0.029 A 
ATOM     44  N   UNL A   1      39.905  30.102  29.750  1.00  0.00    -0.354 N 
ATOM     45  C   UNL A   1      41.017  33.459  32.215  1.00  0.00     0.074 A 
ATOM     46  C   UNL A   1      39.965  34.452  32.249  1.00  0.00     0.031 C 
ATOM     47  C   UNL A   1      38.563  28.876  28.449  1.00  0.00     0.029 A 
ATOM     48  C   UNL A   1      39.895  28.922  29.050  1.00  0.00     0.049 A 
ATOM     49  H   UNL A   1      40.669  30.398  30.297  1.00  0.00     0.167 HD
ATOM     50  C   UNL A   1      42.191  33.571  32.879  1.00  0.00     0.031 A 
ATOM     51  C   UNL A   1      40.856  27.992  28.898  1.00  0.00     0.031 A 
ATOM     52  C   UNL A   1      43.245  32.593  32.837  1.00  0.00     0.049 A 
ATOM     53  C   UNL A   1      42.179  28.171  29.591  1.00  0.00     0.074 A 
ATOM     54  C   UNL A   1      44.462  32.607  33.497  1.00  0.00     0.029 A 
ATOM     55  N   UNL A   1      43.211  31.431  32.084  1.00  0.00    -0.354 N 
ATOM     56  N   UNL A   1      42.571  29.136  30.387  1.00  0.00    -0.248 NA
ATOM     57  C   UNL A   1      43.191  27.128  29.368  1.00  0.00     0.031 C 
ATOM     58  C   UNL A   1      45.188  31.479  33.100  1.00  0.00     0.029 A 
ATOM     59  C   UNL A   1      44.398  30.734  32.238  1.00  0.00     0.049 A 
ATOM     60  H   UNL A   1      42.455  31.142  31.524  1.00  0.00     0.167 HD
ATOM     61  C   UNL A   1      43.861  28.804  30.780  1.00  0.00     0.074 A 
ATOM     62  C   UNL A   1      44.182  27.542  30.146  1.00  0.00     0.031 C 
ATOM     63  C   UNL A   1      44.706  29.483  31.595  1.00  0.00     0.031 A 
BRANCH  50  64
ATOM     64  C   UNL A   1      42.411  34.821  33.685  1.00  0.00    -0.014 A 
ATOM     65  C   UNL A   1      42.021  34.900  35.031  1.00  0.00     0.009 A 
ATOM     66  C   UNL A   1      43.046  35.925  33.095  1.00  0.00     0.009 A 
ATOM     67  C   UNL A   1      42.233  36.072  35.760  1.00  0.00     0.001 A 
ATOM     68  C   UNL A   1      43.280  37.086  33.834  1.00  0.00     0.001 A 
ATOM     69  C   UNL A   1      42.866  37.162  35.163  1.00  0.00     0.000 A 
ENDBRANCH  50  64
BRANCH  51  70
ATOM     70  C   UNL A   1      40.610  26.806  28.036  1.00  0.00    -0.014 A 
ATOM     71  C   UNL A   1      41.081  26.769  26.715  1.00  0.00     0.009 A 
ATOM     72  C   UNL A   1      39.888  25.709  28.531  1.00  0.00     0.009 A 
ATOM     73  C   UNL A   1      40.816  25.665  25.901  1.00  0.00     0.001 A 
ATOM     74  C   UNL A   1      39.648  24.594  27.724  1.00  0.00     0.001 A 
ATOM     75  C   UNL A   1      40.105  24.577  26.408  1.00  0.00     0.000 A 
ENDBRANCH  51  70
BRANCH  63  76
ATOM     76  C   UNL A   1      46.046  28.861  31.871  1.00  0.00    -0.014 A 
ATOM     77  C   UNL A   1      46.217  27.927  32.906  1.00  0.00     0.009 A 
ATOM     78  C   UNL A   1      47.144  29.185  31.058  1.00  0.00     0.009 A 
ATOM     79  C   UNL A   1      47.469  27.355  33.138  1.00  0.00     0.001 A 
ATOM     80  C   UNL A   1      48.388  28.589  31.277  1.00  0.00     0.001 A 
ATOM     81  C   UNL A   1      48.551  27.683  32.322  1.00  0.00     0.000 A 
ENDBRANCH  63  76
ENDBRANCH  37  38
ENDBRANCH  30  32
ENDBRANCH  29  30
ENDBRANCH  28  29
ENDBRANCH  27  28
ENDBRANCH  26  27
ENDBRANCH   1  26
TORSDOF 17
ENDMDL
MODEL 3
REMARK VINA RESULT:     -10.6      6.698     12.927
REMARK SMILES O=C(NCc1ccc(C(=O)OCCOCCOC(=O)c2ccc(-c3c4nc(c(-c5ccccc5)c5ccc([nH]5)c(-c5ccccc5)c5nc(c(-c6ccccc6)c6ccc3[nH]6)C=C5)C=C4)cc2)cc1)Nc1ccccc1Br
REMARK SMILES IDX 13 1 12 2 11 3 9 4 10 5 8 6 5 7 6 8 69 9 7 10 68 11 4 12
REMARK SMILES IDX 3 13 1 14 2 15 70 16 71 19 72 20 76 21 73 22 75 23 77 24
REMARK SMILES IDX 74 25 14 26 15 27 16 28 17 29 18 30 19 31 20 32 21 33 67 34
REMARK SMILES IDX 22 35 66 36 23 37 24 38 25 39 60 40 26 41 65 42 59 43 61 44
REMARK SMILES IDX 27 45 64 46 58 47 57 48 28 50 50 51 35 52 49 53 36 54 39 55
REMARK SMILES IDX 48 56 62 57 37 58 38 59 47 61 63 62 40 63 29 64 30 65 34 66
REMARK SMILES IDX 31 67 33 68 32 69 51 70 52 71 56 72 53 73 55 74 54 75 41 76
REMARK SMILES IDX 42 77 46 78 43 79 45 80 44 81
REMARK H PARENT 3 17 70 18 61 49 39 60
REMARK Flexibility Score: inf
ROOT
ATOM      1  C   UNL A   1      45.769  21.999  24.616  1.00  0.00     0.202 C 
ENDROOT
BRANCH   1   2
ATOM      2  C   UNL A   1      46.581  23.296  24.573  1.00  0.00     0.261 C 
BRANCH   2   3
ATOM      3  O   UNL A   1      46.070  24.266  25.501  1.00  0.00    -0.460 OA
BRANCH   3   4
ATOM      4  C   UNL A   1      45.062  25.034  25.019  1.00  0.00     0.338 C 
ATOM      5  O   UNL A   1      44.185  24.679  24.247  1.00  0.00    -0.246 OA
BRANCH   4   6
ATOM      6  C   UNL A   1      45.070  26.375  25.651  1.00  0.00     0.060 A 
ATOM      7  C   UNL A   1      44.929  28.980  26.696  1.00  0.00    -0.029 A 
ATOM      8  C   UNL A   1      43.758  28.279  26.386  1.00  0.00     0.006 A 
ATOM      9  C   UNL A   1      46.171  28.338  26.538  1.00  0.00     0.006 A 
ATOM     10  C   UNL A   1      43.829  26.987  25.866  1.00  0.00     0.016 A 
ATOM     11  C   UNL A   1      46.244  27.041  26.017  1.00  0.00     0.016 A 
BRANCH   7  12
ATOM     12  C   UNL A   1      44.854  30.421  27.134  1.00  0.00     0.153 C 
BRANCH  12  13
ATOM     13  N   UNL A   1      44.953  31.305  25.990  1.00  0.00    -0.334 N 
ATOM     14  O   UNL A   1      44.761  33.124  24.742  1.00  0.00    -0.248 OA
ATOM     15  C   UNL A   1      44.759  32.644  25.872  1.00  0.00     0.319 C 
ATOM     16  N   UNL A   1      44.657  33.354  27.035  1.00  0.00    -0.307 N 
ATOM     17  H   UNL A   1      45.203  30.856  25.150  1.00  0.00     0.165 HD
ATOM     18  H   UNL A   1      44.816  32.875  27.880  1.00  0.00     0.171 HD
BRANCH  16  19
ATOM     19  C   UNL A   1      44.337  34.731  27.109  1.00  0.00     0.057 A 
ATOM     20  C   UNL A   1      42.973  35.050  27.004  1.00  0.00     0.027 A 
ATOM     21  C   UNL A   1      45.261  35.780  27.267  1.00  0.00     0.041 A 
ATOM     22  C   UNL A   1      42.527  36.367  27.141  1.00  0.00     0.002 A 
ATOM     23  C   UNL A   1      44.806  37.101  27.406  1.00  0.00     0.018 A 
ATOM     24  Br  UNL A   1      47.144  35.568  27.082  1.00  0.00    -0.049 Br
ATOM     25  C   UNL A   1      43.443  37.391  27.360  1.00  0.00     0.001 A 
ENDBRANCH  16  19
ENDBRANCH  12  13
ENDBRANCH   7  12
ENDBRANCH   4   6
ENDBRANCH   3   4
ENDBRANCH   2   3
ENDBRANCH   1   2
BRANCH   1  26
ATOM     26  O   UNL A   1      46.392  20.891  25.264  1.00  0.00    -0.374 OA
BRANCH  26  27
ATOM     27  C   UNL A   1      45.668  19.658  25.279  1.00  0.00     0.202 C 
BRANCH  27  28
ATOM     28  C   UNL A   1      44.172  19.760  24.954  1.00  0.00     0.261 C 
BRANCH  28  29
ATOM     29  O   UNL A   1      43.359  19.246  26.025  1.00  0.00    -0.460 OA
BRANCH  29  30
ATOM     30  C   UNL A   1      42.082  19.694  26.037  1.00  0.00     0.338 C 
ATOM     31  O   UNL A   1      41.076  19.082  25.706  1.00  0.00    -0.246 OA
BRANCH  30  32
ATOM     32  C   UNL A   1      42.020  21.014  26.691  1.00  0.00     0.060 A 
ATOM     33  C   UNL A   1      41.870  22.136  25.867  1.00  0.00     0.016 A 
ATOM     34  C   UNL A   1      42.165  21.162  28.072  1.00  0.00     0.016 A 
ATOM     35  C   UNL A   1      41.915  23.416  26.415  1.00  0.00     0.010 A 
ATOM     36  C   UNL A   1      42.217  22.449  28.621  1.00  0.00     0.010 A 
ATOM     37  C   UNL A   1      42.126  23.581  27.791  1.00  0.00    -0.014 A 
BRANCH  37  38
ATOM     38  C   UNL A   1      42.377  24.937  28.333  1.00  0.00     0.031 A 
ATOM     39  C   UNL A   1      43.762  25.300  28.792  1.00  0.00     0.074 A 
ATOM     40  C   UNL A   1      41.389  25.848  28.388  1.00  0.00     0.049 A 
ATOM     41  N   UNL A   1      44.199  26.426  29.298  1.00  0.00    -0.248 NA
ATOM     42  C   UNL A   1      44.791  24.256  28.667  1.00  0.00     0.031 C 
ATOM     43  C   UNL A   1      40.014  25.632  27.940  1.00  0.00     0.029 A 
ATOM     44  N   UNL A   1      41.397  27.140  28.848  1.00  0.00    -0.354 N 
ATOM     45  C   UNL A   1      45.549  26.225  29.555  1.00  0.00     0.074 A 
ATOM     46  C   UNL A   1      45.853  24.861  29.178  1.00  0.00     0.031 C 
ATOM     47  C   UNL A   1      39.307  26.756  28.152  1.00  0.00     0.029 A 
ATOM     48  C   UNL A   1      40.173  27.756  28.775  1.00  0.00     0.049 A 
ATOM     49  H   UNL A   1      42.204  27.585  29.196  1.00  0.00     0.167 HD
ATOM     50  C   UNL A   1      46.456  27.096  30.055  1.00  0.00     0.031 A 
ATOM     51  C   UNL A   1      39.789  28.982  29.180  1.00  0.00     0.031 A 
ATOM     52  C   UNL A   1      46.154  28.448  30.444  1.00  0.00     0.049 A 
ATOM     53  C   UNL A   1      40.800  29.910  29.797  1.00  0.00     0.074 A 
ATOM     54  C   UNL A   1      47.013  29.415  30.938  1.00  0.00     0.029 A 
ATOM     55  N   UNL A   1      44.894  29.020  30.391  1.00  0.00    -0.354 N 
ATOM     56  N   UNL A   1      42.081  29.719  30.000  1.00  0.00    -0.248 NA
ATOM     57  C   UNL A   1      40.311  31.226  30.233  1.00  0.00     0.031 C 
ATOM     58  C   UNL A   1      46.260  30.556  31.237  1.00  0.00     0.029 A 
ATOM     59  C   UNL A   1      44.944  30.317  30.873  1.00  0.00     0.049 A 
ATOM     60  H   UNL A   1      44.082  28.572  30.059  1.00  0.00     0.167 HD
ATOM     61  C   UNL A   1      42.554  30.897  30.564  1.00  0.00     0.074 A 
ATOM     62  C   UNL A   1      41.428  31.802  30.657  1.00  0.00     0.031 C 
ATOM     63  C   UNL A   1      43.813  31.204  30.967  1.00  0.00     0.031 A 
BRANCH  50  64
ATOM     64  C   UNL A   1      47.861  26.597  30.245  1.00  0.00    -0.014 A 
ATOM     65  C   UNL A   1      48.810  26.677  29.213  1.00  0.00     0.009 A 
ATOM     66  C   UNL A   1      48.249  26.068  31.485  1.00  0.00     0.009 A 
ATOM     67  C   UNL A   1      50.109  26.205  29.410  1.00  0.00     0.001 A 
ATOM     68  C   UNL A   1      49.556  25.621  31.687  1.00  0.00     0.001 A 
ATOM     69  C   UNL A   1      50.482  25.682  30.647  1.00  0.00     0.000 A 
ENDBRANCH  50  64
BRANCH  51  70
ATOM     70  C   UNL A   1      38.371  29.401  29.030  1.00  0.00    -0.014 A 
ATOM     71  C   UNL A   1      37.899  29.915  27.813  1.00  0.00     0.009 A 
ATOM     72  C   UNL A   1      37.485  29.301  30.114  1.00  0.00     0.009 A 
ATOM     73  C   UNL A   1      36.573  30.337  27.691  1.00  0.00     0.001 A 
ATOM     74  C   UNL A   1      36.153  29.699  29.982  1.00  0.00     0.001 A 
ATOM     75  C   UNL A   1      35.701  30.224  28.773  1.00  0.00     0.000 A 
ENDBRANCH  51  70
BRANCH  63  76
ATOM     76  C   UNL A   1      44.043  32.583  31.517  1.00  0.00    -0.014 A 
ATOM     77  C   UNL A   1      44.172  33.695  30.669  1.00  0.00     0.009 A 
ATOM     78  C   UNL A   1      44.092  32.778  32.907  1.00  0.00     0.009 A 
ATOM     79  C   UNL A   1      44.377  34.969  31.204  1.00  0.00     0.001 A 
ATOM     80  C   UNL A   1      44.269  34.057  33.438  1.00  0.00     0.001 A 
ATOM     81  C   UNL A   1      44.421  35.149  32.586  1.00  0.00     0.000 A 
ENDBRANCH  63  76
ENDBRANCH  37  38
ENDBRANCH  30  32
ENDBRANCH  29  30
ENDBRANCH  28  29
ENDBRANCH  27  28
ENDBRANCH  26  27
ENDBRANCH   1  26
TORSDOF 17
ENDMDL
