MODEL 1
REMARK VINA RESULT:     -12.1      0.000      0.000
REMARK SMILES COc1ccccc1[C@@H]1C[N@@H+](Cc2cn3cc(C)ccc3n2)C[C@H]1C(=O)OCCOCCOC(=O)c1ccc(-c2c3nc(c(-c4ccccc4)c4ccc([nH]4)c(-c4ccccc4)c4nc(c(-c5ccccc5)c5ccc2[nH]5)C=C4)C=C3)cc1
REMARK SMILES IDX 30 1 29 2 28 3 27 4 25 5 26 6 24 7 9 8 10 9 11 10 23 11 8 13
REMARK SMILES IDX 3 14 4 15 5 16 7 17 6 18 2 19 1 20 12 21 13 22 14 23 22 24
REMARK SMILES IDX 15 25 21 26 16 27 20 28 17 29 19 30 18 31 31 32 32 33 33 34
REMARK SMILES IDX 34 35 35 36 36 37 37 38 83 39 38 40 82 41 39 42 40 43 41 44
REMARK SMILES IDX 76 45 42 46 81 47 75 48 77 49 43 50 80 51 74 52 73 53 44 55
REMARK SMILES IDX 66 56 51 57 65 58 52 59 55 60 64 61 78 62 53 63 54 64 63 66
REMARK SMILES IDX 79 67 56 68 45 69 46 70 50 71 47 72 49 73 48 74 67 75 68 76
REMARK SMILES IDX 72 77 69 78 71 79 70 80 57 81 58 82 62 83 59 84 61 85 60 86
REMARK H PARENT 11 12 77 54 55 65
REMARK Flexibility Score: inf
ROOT
ATOM      1  O   UNL A   1      40.597  20.983  25.800  1.00  0.00    -0.374 OA
ENDROOT
BRANCH   1   2
ATOM      2  C   UNL A   1      39.770  22.053  26.251  1.00  0.00     0.202 C 
BRANCH   2   3
ATOM      3  C   UNL A   1      38.345  22.016  25.688  1.00  0.00     0.261 C 
BRANCH   3   4
ATOM      4  O   UNL A   1      37.561  23.175  26.057  1.00  0.00    -0.463 OA
BRANCH   4   5
ATOM      5  C   UNL A   1      36.632  23.576  25.153  1.00  0.00     0.315 C 
ATOM      6  O   UNL A   1      36.843  23.659  23.947  1.00  0.00    -0.252 OA
BRANCH   5   7
ATOM      7  C   UNL A   1      35.316  24.046  25.744  1.00  0.00     0.167 C 
ATOM      8  C   UNL A   1      34.086  24.332  24.882  1.00  0.00     0.098 C 
ATOM      9  C   UNL A   1      32.913  24.084  25.847  1.00  0.00     0.272 C 
ATOM     10  N   UNL A   1      33.370  23.116  26.859  1.00  0.00    -0.329 N 
ATOM     11  C   UNL A   1      34.835  23.035  26.787  1.00  0.00     0.278 C 
ATOM     12  H   UNL A   1      33.073  23.478  27.764  1.00  0.00     0.348 HD
BRANCH   8  13
ATOM     13  C   UNL A   1      33.944  25.624  24.076  1.00  0.00     0.004 A 
ATOM     14  C   UNL A   1      34.020  26.945  24.537  1.00  0.00     0.122 A 
ATOM     15  C   UNL A   1      33.930  28.029  23.637  1.00  0.00     0.047 A 
ATOM     16  C   UNL A   1      33.661  27.831  22.284  1.00  0.00     0.004 A 
ATOM     17  C   UNL A   1      33.575  25.477  22.718  1.00  0.00     0.008 A 
ATOM     18  C   UNL A   1      33.429  26.545  21.832  1.00  0.00     0.001 A 
BRANCH  14  19
ATOM     19  O   UNL A   1      33.806  27.292  25.846  1.00  0.00    -0.496 OA
ATOM     20  C   UNL A   1      32.529  27.816  26.155  1.00  0.00     0.278 C 
ENDBRANCH  14  19
ENDBRANCH   8  13
BRANCH  10  21
ATOM     21  C   UNL A   1      32.703  21.791  26.874  1.00  0.00     0.321 C 
BRANCH  21  22
ATOM     22  C   UNL A   1      33.067  20.941  25.692  1.00  0.00     0.114 A 
ATOM     23  C   UNL A   1      34.330  20.523  25.303  1.00  0.00     0.122 A 
ATOM     24  N   UNL A   1      32.104  20.231  25.019  1.00  0.00    -0.228 NA
ATOM     25  N   UNL A   1      34.104  19.265  24.800  1.00  0.00    -0.306 N 
ATOM     26  C   UNL A   1      32.732  19.149  24.626  1.00  0.00     0.137 A 
ATOM     27  C   UNL A   1      34.983  18.188  24.754  1.00  0.00     0.096 A 
ATOM     28  C   UNL A   1      32.212  17.848  24.430  1.00  0.00     0.048 A 
ATOM     29  C   UNL A   1      34.473  16.945  24.698  1.00  0.00    -0.034 A 
ATOM     30  C   UNL A   1      33.030  16.794  24.571  1.00  0.00     0.009 A 
ATOM     31  C   UNL A   1      35.281  15.704  24.823  1.00  0.00     0.046 C 
ENDBRANCH  21  22
ENDBRANCH  10  21
ENDBRANCH   5   7
ENDBRANCH   4   5
ENDBRANCH   3   4
ENDBRANCH   2   3
ENDBRANCH   1   2
BRANCH   1  32
ATOM     32  C   UNL A   1      41.409  20.379  26.804  1.00  0.00     0.202 C 
BRANCH  32  33
ATOM     33  C   UNL A   1      42.259  19.220  26.282  1.00  0.00     0.261 C 
BRANCH  33  34
ATOM     34  O   UNL A   1      42.797  19.499  24.980  1.00  0.00    -0.460 OA
BRANCH  34  35
ATOM     35  C   UNL A   1      44.147  19.433  24.808  1.00  0.00     0.338 C 
ATOM     36  O   UNL A   1      44.863  18.449  24.907  1.00  0.00    -0.246 OA
BRANCH  35  37
ATOM     37  C   UNL A   1      44.624  20.837  24.802  1.00  0.00     0.060 A 
ATOM     38  C   UNL A   1      45.558  21.219  25.763  1.00  0.00     0.016 A 
ATOM     39  C   UNL A   1      43.870  21.802  24.154  1.00  0.00     0.016 A 
ATOM     40  C   UNL A   1      45.464  22.493  26.328  1.00  0.00     0.010 A 
ATOM     41  C   UNL A   1      43.759  23.052  24.741  1.00  0.00     0.010 A 
ATOM     42  C   UNL A   1      44.437  23.346  25.926  1.00  0.00    -0.014 A 
BRANCH  42  43
ATOM     43  C   UNL A   1      44.112  24.585  26.639  1.00  0.00     0.031 A 
ATOM     44  C   UNL A   1      45.028  25.706  26.341  1.00  0.00     0.074 A 
ATOM     45  C   UNL A   1      43.032  24.861  27.409  1.00  0.00     0.049 A 
ATOM     46  N   UNL A   1      46.134  25.928  26.964  1.00  0.00    -0.248 NA
ATOM     47  C   UNL A   1      44.807  26.575  25.177  1.00  0.00     0.031 C 
ATOM     48  C   UNL A   1      41.808  24.087  27.633  1.00  0.00     0.029 A 
ATOM     49  N   UNL A   1      42.776  26.019  28.095  1.00  0.00    -0.354 N 
ATOM     50  C   UNL A   1      46.638  27.096  26.426  1.00  0.00     0.074 A 
ATOM     51  C   UNL A   1      45.932  27.296  25.185  1.00  0.00     0.031 C 
ATOM     52  C   UNL A   1      40.869  24.878  28.219  1.00  0.00     0.029 A 
ATOM     53  C   UNL A   1      41.479  26.146  28.588  1.00  0.00     0.049 A 
ATOM     54  H   UNL A   1      43.461  26.713  28.232  1.00  0.00     0.167 HD
ATOM     55  C   UNL A   1      47.383  27.949  27.180  1.00  0.00     0.031 A 
ATOM     56  C   UNL A   1      40.972  27.209  29.268  1.00  0.00     0.031 A 
ATOM     57  C   UNL A   1      47.647  27.402  28.494  1.00  0.00     0.049 A 
ATOM     58  C   UNL A   1      42.119  27.890  29.914  1.00  0.00     0.074 A 
ATOM     59  C   UNL A   1      48.195  26.226  28.971  1.00  0.00     0.029 A 
ATOM     60  N   UNL A   1      46.910  27.919  29.537  1.00  0.00    -0.354 N 
ATOM     61  N   UNL A   1      42.799  27.359  30.887  1.00  0.00    -0.248 NA
ATOM     62  C   UNL A   1      42.769  28.998  29.233  1.00  0.00     0.031 C 
ATOM     63  C   UNL A   1      47.367  25.855  30.073  1.00  0.00     0.029 A 
ATOM     64  C   UNL A   1      46.421  26.863  30.264  1.00  0.00     0.049 A 
ATOM     65  H   UNL A   1      46.763  28.874  29.729  1.00  0.00     0.167 HD
ATOM     66  C   UNL A   1      44.112  27.708  30.617  1.00  0.00     0.074 A 
ATOM     67  C   UNL A   1      44.016  28.832  29.687  1.00  0.00     0.031 C 
ATOM     68  C   UNL A   1      45.137  26.861  30.931  1.00  0.00     0.031 A 
BRANCH  55  69
ATOM     69  C   UNL A   1      47.531  29.420  26.907  1.00  0.00    -0.014 A 
ATOM     70  C   UNL A   1      48.766  30.025  27.196  1.00  0.00     0.009 A 
ATOM     71  C   UNL A   1      46.457  30.277  26.607  1.00  0.00     0.009 A 
ATOM     72  C   UNL A   1      48.902  31.415  27.242  1.00  0.00     0.001 A 
ATOM     73  C   UNL A   1      46.601  31.666  26.605  1.00  0.00     0.001 A 
ATOM     74  C   UNL A   1      47.818  32.235  26.949  1.00  0.00     0.000 A 
ENDBRANCH  55  69
BRANCH  56  75
ATOM     75  C   UNL A   1      39.606  27.766  29.394  1.00  0.00    -0.014 A 
ATOM     76  C   UNL A   1      38.978  27.853  30.653  1.00  0.00     0.009 A 
ATOM     77  C   UNL A   1      39.043  28.502  28.339  1.00  0.00     0.009 A 
ATOM     78  C   UNL A   1      37.872  28.690  30.860  1.00  0.00     0.001 A 
ATOM     79  C   UNL A   1      37.934  29.336  28.546  1.00  0.00     0.001 A 
ATOM     80  C   UNL A   1      37.362  29.446  29.810  1.00  0.00     0.000 A 
ENDBRANCH  56  75
BRANCH  68  81
ATOM     81  C   UNL A   1      44.833  25.674  31.821  1.00  0.00    -0.014 A 
ATOM     82  C   UNL A   1      44.760  25.753  33.225  1.00  0.00     0.009 A 
ATOM     83  C   UNL A   1      44.473  24.461  31.215  1.00  0.00     0.009 A 
ATOM     84  C   UNL A   1      44.375  24.650  33.995  1.00  0.00     0.001 A 
ATOM     85  C   UNL A   1      44.061  23.366  31.981  1.00  0.00     0.001 A 
ATOM     86  C   UNL A   1      44.020  23.458  33.370  1.00  0.00     0.000 A 
ENDBRANCH  68  81
ENDBRANCH  42  43
ENDBRANCH  35  37
ENDBRANCH  34  35
ENDBRANCH  33  34
ENDBRANCH  32  33
ENDBRANCH   1  32
TORSDOF 18
ENDMDL
MODEL 2
REMARK VINA RESULT:     -11.9      1.484      4.216
REMARK SMILES COc1ccccc1[C@@H]1C[N@@H+](Cc2cn3cc(C)ccc3n2)C[C@H]1C(=O)OCCOCCOC(=O)c1ccc(-c2c3nc(c(-c4ccccc4)c4ccc([nH]4)c(-c4ccccc4)c4nc(c(-c5ccccc5)c5ccc2[nH]5)C=C4)C=C3)cc1
REMARK SMILES IDX 30 1 29 2 28 3 27 4 25 5 26 6 24 7 9 8 10 9 11 10 23 11 8 13
REMARK SMILES IDX 3 14 4 15 5 16 7 17 6 18 2 19 1 20 12 21 13 22 14 23 22 24
REMARK SMILES IDX 15 25 21 26 16 27 20 28 17 29 19 30 18 31 31 32 32 33 33 34
REMARK SMILES IDX 34 35 35 36 36 37 37 38 83 39 38 40 82 41 39 42 40 43 41 44
REMARK SMILES IDX 76 45 42 46 81 47 75 48 77 49 43 50 80 51 74 52 73 53 44 55
REMARK SMILES IDX 66 56 51 57 65 58 52 59 55 60 64 61 78 62 53 63 54 64 63 66
REMARK SMILES IDX 79 67 56 68 45 69 46 70 50 71 47 72 49 73 48 74 67 75 68 76
REMARK SMILES IDX 72 77 69 78 71 79 70 80 57 81 58 82 62 83 59 84 61 85 60 86
REMARK H PARENT 11 12 77 54 55 65
REMARK Flexibility Score: inf
ROOT
ATOM      1  O   UNL A   1      40.639  20.543  27.114  1.00  0.00    -0.374 OA
ENDROOT
BRANCH   1   2
ATOM      2  C   UNL A   1      39.804  21.654  26.797  1.00  0.00     0.202 C 
BRANCH   2   3
ATOM      3  C   UNL A   1      38.996  21.475  25.507  1.00  0.00     0.261 C 
BRANCH   3   4
ATOM      4  O   UNL A   1      37.585  21.749  25.681  1.00  0.00    -0.463 OA
BRANCH   4   5
ATOM      5  C   UNL A   1      36.733  20.837  25.150  1.00  0.00     0.315 C 
ATOM      6  O   UNL A   1      37.044  19.675  24.900  1.00  0.00    -0.252 OA
BRANCH   5   7
ATOM      7  C   UNL A   1      35.371  21.376  24.756  1.00  0.00     0.167 C 
ATOM      8  C   UNL A   1      34.069  20.668  25.131  1.00  0.00     0.098 C 
ATOM      9  C   UNL A   1      33.043  21.815  25.177  1.00  0.00     0.272 C 
ATOM     10  N   UNL A   1      33.777  23.052  25.496  1.00  0.00    -0.329 N 
ATOM     11  C   UNL A   1      35.211  22.799  25.294  1.00  0.00     0.278 C 
ATOM     12  H   UNL A   1      33.443  23.765  24.850  1.00  0.00     0.348 HD
BRANCH   8  13
ATOM     13  C   UNL A   1      33.568  19.437  24.373  1.00  0.00     0.004 A 
ATOM     14  C   UNL A   1      32.810  19.396  23.195  1.00  0.00     0.122 A 
ATOM     15  C   UNL A   1      32.487  18.162  22.591  1.00  0.00     0.047 A 
ATOM     16  C   UNL A   1      32.815  16.948  23.192  1.00  0.00     0.004 A 
ATOM     17  C   UNL A   1      33.792  18.186  24.995  1.00  0.00     0.008 A 
ATOM     18  C   UNL A   1      33.426  16.963  24.432  1.00  0.00     0.001 A 
BRANCH  14  19
ATOM     19  O   UNL A   1      32.037  20.443  22.768  1.00  0.00    -0.496 OA
ATOM     20  C   UNL A   1      31.700  20.453  21.394  1.00  0.00     0.278 C 
ENDBRANCH  14  19
ENDBRANCH   8  13
BRANCH  10  21
ATOM     21  C   UNL A   1      33.468  23.705  26.791  1.00  0.00     0.321 C 
BRANCH  21  22
ATOM     22  C   UNL A   1      32.679  24.971  26.634  1.00  0.00     0.114 A 
ATOM     23  C   UNL A   1      33.082  26.154  26.036  1.00  0.00     0.122 A 
ATOM     24  N   UNL A   1      31.319  24.975  26.828  1.00  0.00    -0.228 NA
ATOM     25  N   UNL A   1      31.932  26.613  25.440  1.00  0.00    -0.306 N 
ATOM     26  C   UNL A   1      30.886  25.873  25.976  1.00  0.00     0.137 A 
ATOM     27  C   UNL A   1      31.812  27.416  24.310  1.00  0.00     0.096 A 
ATOM     28  C   UNL A   1      29.645  25.922  25.299  1.00  0.00     0.048 A 
ATOM     29  C   UNL A   1      30.672  27.358  23.599  1.00  0.00    -0.034 A 
ATOM     30  C   UNL A   1      29.578  26.544  24.112  1.00  0.00     0.009 A 
ATOM     31  C   UNL A   1      30.473  28.019  22.284  1.00  0.00     0.046 C 
ENDBRANCH  21  22
ENDBRANCH  10  21
ENDBRANCH   5   7
ENDBRANCH   4   5
ENDBRANCH   3   4
ENDBRANCH   2   3
ENDBRANCH   1   2
BRANCH   1  32
ATOM     32  C   UNL A   1      42.000  20.673  26.712  1.00  0.00     0.202 C 
BRANCH  32  33
ATOM     33  C   UNL A   1      42.552  19.423  26.026  1.00  0.00     0.261 C 
BRANCH  33  34
ATOM     34  O   UNL A   1      43.130  19.729  24.746  1.00  0.00    -0.460 OA
BRANCH  34  35
ATOM     35  C   UNL A   1      44.484  19.669  24.615  1.00  0.00     0.338 C 
ATOM     36  O   UNL A   1      45.198  18.683  24.708  1.00  0.00    -0.246 OA
BRANCH  35  37
ATOM     37  C   UNL A   1      44.960  21.073  24.663  1.00  0.00     0.060 A 
ATOM     38  C   UNL A   1      45.826  21.441  25.691  1.00  0.00     0.016 A 
ATOM     39  C   UNL A   1      44.250  22.048  23.980  1.00  0.00     0.016 A 
ATOM     40  C   UNL A   1      45.691  22.705  26.268  1.00  0.00     0.010 A 
ATOM     41  C   UNL A   1      44.098  23.289  24.577  1.00  0.00     0.010 A 
ATOM     42  C   UNL A   1      44.694  23.565  25.810  1.00  0.00    -0.014 A 
BRANCH  42  43
ATOM     43  C   UNL A   1      44.320  24.793  26.518  1.00  0.00     0.031 A 
ATOM     44  C   UNL A   1      45.227  25.932  26.263  1.00  0.00     0.074 A 
ATOM     45  C   UNL A   1      43.206  25.044  27.247  1.00  0.00     0.049 A 
ATOM     46  N   UNL A   1      46.304  26.168  26.930  1.00  0.00    -0.248 NA
ATOM     47  C   UNL A   1      45.035  26.804  25.097  1.00  0.00     0.031 C 
ATOM     48  C   UNL A   1      41.987  24.247  27.418  1.00  0.00     0.029 A 
ATOM     49  N   UNL A   1      42.902  26.193  27.931  1.00  0.00    -0.354 N 
ATOM     50  C   UNL A   1      46.807  27.349  26.420  1.00  0.00     0.074 A 
ATOM     51  C   UNL A   1      46.146  27.546  25.154  1.00  0.00     0.031 C 
ATOM     52  C   UNL A   1      41.013  25.017  27.972  1.00  0.00     0.029 A 
ATOM     53  C   UNL A   1      41.586  26.293  28.373  1.00  0.00     0.049 A 
ATOM     54  H   UNL A   1      43.569  26.898  28.099  1.00  0.00     0.167 HD
ATOM     55  C   UNL A   1      47.507  28.209  27.208  1.00  0.00     0.031 A 
ATOM     56  C   UNL A   1      41.034  27.343  29.040  1.00  0.00     0.031 A 
ATOM     57  C   UNL A   1      47.729  27.657  28.528  1.00  0.00     0.049 A 
ATOM     58  C   UNL A   1      42.143  28.039  29.734  1.00  0.00     0.074 A 
ATOM     59  C   UNL A   1      48.279  26.487  29.018  1.00  0.00     0.029 A 
ATOM     60  N   UNL A   1      46.944  28.153  29.545  1.00  0.00    -0.354 N 
ATOM     61  N   UNL A   1      42.794  27.513  30.729  1.00  0.00    -0.248 NA
ATOM     62  C   UNL A   1      42.799  29.163  29.087  1.00  0.00     0.031 C 
ATOM     63  C   UNL A   1      47.415  26.094  30.085  1.00  0.00     0.029 A 
ATOM     64  C   UNL A   1      46.445  27.084  30.245  1.00  0.00     0.049 A 
ATOM     65  H   UNL A   1      46.772  29.104  29.736  1.00  0.00     0.167 HD
ATOM     66  C   UNL A   1      44.110  27.886  30.513  1.00  0.00     0.074 A 
ATOM     67  C   UNL A   1      44.030  29.015  29.587  1.00  0.00     0.031 C 
ATOM     68  C   UNL A   1      45.137  27.055  30.862  1.00  0.00     0.031 A 
BRANCH  55  69
ATOM     69  C   UNL A   1      47.639  29.684  26.951  1.00  0.00    -0.014 A 
ATOM     70  C   UNL A   1      48.880  30.292  27.211  1.00  0.00     0.009 A 
ATOM     71  C   UNL A   1      46.553  30.539  26.694  1.00  0.00     0.009 A 
ATOM     72  C   UNL A   1      49.010  31.682  27.271  1.00  0.00     0.001 A 
ATOM     73  C   UNL A   1      46.690  31.929  26.707  1.00  0.00     0.001 A 
ATOM     74  C   UNL A   1      47.913  32.500  27.022  1.00  0.00     0.000 A 
ENDBRANCH  55  69
BRANCH  56  75
ATOM     75  C   UNL A   1      39.654  27.875  29.117  1.00  0.00    -0.014 A 
ATOM     76  C   UNL A   1      38.961  27.903  30.343  1.00  0.00     0.009 A 
ATOM     77  C   UNL A   1      39.135  28.644  28.063  1.00  0.00     0.009 A 
ATOM     78  C   UNL A   1      37.832  28.715  30.525  1.00  0.00     0.001 A 
ATOM     79  C   UNL A   1      38.004  29.453  28.244  1.00  0.00     0.001 A 
ATOM     80  C   UNL A   1      37.366  29.505  29.480  1.00  0.00     0.000 A 
ENDBRANCH  56  75
BRANCH  68  81
ATOM     81  C   UNL A   1      44.820  25.856  31.731  1.00  0.00    -0.014 A 
ATOM     82  C   UNL A   1      44.388  24.617  31.220  1.00  0.00     0.009 A 
ATOM     83  C   UNL A   1      45.098  25.936  33.104  1.00  0.00     0.009 A 
ATOM     84  C   UNL A   1      44.207  23.510  32.056  1.00  0.00     0.001 A 
ATOM     85  C   UNL A   1      44.946  24.823  33.937  1.00  0.00     0.001 A 
ATOM     86  C   UNL A   1      44.493  23.613  33.415  1.00  0.00     0.000 A 
ENDBRANCH  68  81
ENDBRANCH  42  43
ENDBRANCH  35  37
ENDBRANCH  34  35
ENDBRANCH  33  34
ENDBRANCH  32  33
ENDBRANCH   1  32
TORSDOF 18
ENDMDL
MODEL 3
REMARK VINA RESULT:     -11.5      2.747      5.798
REMARK SMILES COc1ccccc1[C@@H]1C[N@@H+](Cc2cn3cc(C)ccc3n2)C[C@H]1C(=O)OCCOCCOC(=O)c1ccc(-c2c3nc(c(-c4ccccc4)c4ccc([nH]4)c(-c4ccccc4)c4nc(c(-c5ccccc5)c5ccc2[nH]5)C=C4)C=C3)cc1
REMARK SMILES IDX 30 1 29 2 28 3 27 4 25 5 26 6 24 7 9 8 10 9 11 10 23 11 8 13
REMARK SMILES IDX 3 14 4 15 5 16 7 17 6 18 2 19 1 20 12 21 13 22 14 23 22 24
REMARK SMILES IDX 15 25 21 26 16 27 20 28 17 29 19 30 18 31 31 32 32 33 33 34
REMARK SMILES IDX 34 35 35 36 36 37 37 38 83 39 38 40 82 41 39 42 40 43 41 44
REMARK SMILES IDX 76 45 42 46 81 47 75 48 77 49 43 50 80 51 74 52 73 53 44 55
REMARK SMILES IDX 66 56 51 57 65 58 52 59 55 60 64 61 78 62 53 63 54 64 63 66
REMARK SMILES IDX 79 67 56 68 45 69 46 70 50 71 47 72 49 73 48 74 67 75 68 76
REMARK SMILES IDX 72 77 69 78 71 79 70 80 57 81 58 82 62 83 59 84 61 85 60 86
REMARK H PARENT 11 12 77 54 55 65
REMARK Flexibility Score: inf
ROOT
ATOM      1  O   UNL A   1      39.305  20.899  25.310  1.00  0.00    -0.374 OA
ENDROOT
BRANCH   1   2
ATOM      2  C   UNL A   1      37.899  21.062  25.478  1.00  0.00     0.202 C 
BRANCH   2   3
ATOM      3  C   UNL A   1      37.357  22.387  24.930  1.00  0.00     0.261 C 
BRANCH   3   4
ATOM      4  O   UNL A   1      36.223  22.212  24.047  1.00  0.00    -0.463 OA
BRANCH   4   5
ATOM      5  C   UNL A   1      35.385  23.273  23.940  1.00  0.00     0.315 C 
ATOM      6  O   UNL A   1      35.589  24.362  24.469  1.00  0.00    -0.252 OA
BRANCH   5   7
ATOM      7  C   UNL A   1      34.083  22.998  23.211  1.00  0.00     0.167 C 
ATOM      8  C   UNL A   1      32.877  22.360  23.900  1.00  0.00     0.098 C 
ATOM      9  C   UNL A   1      31.683  22.896  23.090  1.00  0.00     0.272 C 
ATOM     10  N   UNL A   1      32.087  24.189  22.510  1.00  0.00    -0.329 N 
ATOM     11  C   UNL A   1      33.548  24.301  22.614  1.00  0.00     0.278 C 
ATOM     12  H   UNL A   1      31.795  24.175  21.534  1.00  0.00     0.348 HD
BRANCH   8  13
ATOM     13  C   UNL A   1      32.799  20.856  24.170  1.00  0.00     0.004 A 
ATOM     14  C   UNL A   1      33.237  20.156  25.302  1.00  0.00     0.122 A 
ATOM     15  C   UNL A   1      33.026  18.765  25.414  1.00  0.00     0.047 A 
ATOM     16  C   UNL A   1      32.473  18.025  24.370  1.00  0.00     0.004 A 
ATOM     17  C   UNL A   1      32.334  20.053  23.102  1.00  0.00     0.008 A 
ATOM     18  C   UNL A   1      32.174  18.669  23.184  1.00  0.00     0.001 A 
BRANCH  14  19
ATOM     19  O   UNL A   1      34.189  20.644  26.158  1.00  0.00    -0.496 OA
ATOM     20  C   UNL A   1      33.719  21.446  27.226  1.00  0.00     0.278 C 
ENDBRANCH  14  19
ENDBRANCH   8  13
BRANCH  10  21
ATOM     21  C   UNL A   1      31.365  25.395  22.983  1.00  0.00     0.321 C 
BRANCH  21  22
ATOM     22  C   UNL A   1      32.202  26.264  23.874  1.00  0.00     0.114 A 
ATOM     23  C   UNL A   1      32.715  27.522  23.596  1.00  0.00     0.122 A 
ATOM     24  N   UNL A   1      32.302  25.997  25.217  1.00  0.00    -0.228 NA
ATOM     25  N   UNL A   1      32.646  28.164  24.809  1.00  0.00    -0.306 N 
ATOM     26  C   UNL A   1      32.414  27.183  25.764  1.00  0.00     0.137 A 
ATOM     27  C   UNL A   1      32.512  29.528  25.052  1.00  0.00     0.096 A 
ATOM     28  C   UNL A   1      31.981  27.613  27.040  1.00  0.00     0.048 A 
ATOM     29  C   UNL A   1      31.977  29.921  26.221  1.00  0.00    -0.034 A 
ATOM     30  C   UNL A   1      31.673  28.906  27.220  1.00  0.00     0.009 A 
ATOM     31  C   UNL A   1      31.612  31.326  26.541  1.00  0.00     0.046 C 
ENDBRANCH  21  22
ENDBRANCH  10  21
ENDBRANCH   5   7
ENDBRANCH   4   5
ENDBRANCH   3   4
ENDBRANCH   2   3
ENDBRANCH   1   2
BRANCH   1  32
ATOM     32  C   UNL A   1      40.047  20.747  26.518  1.00  0.00     0.202 C 
BRANCH  32  33
ATOM     33  C   UNL A   1      41.556  20.897  26.326  1.00  0.00     0.261 C 
BRANCH  33  34
ATOM     34  O   UNL A   1      41.876  21.995  25.456  1.00  0.00    -0.460 OA
BRANCH  34  35
ATOM     35  C   UNL A   1      42.647  23.006  25.945  1.00  0.00     0.338 C 
ATOM     36  O   UNL A   1      43.838  23.193  25.754  1.00  0.00    -0.246 OA
BRANCH  35  37
ATOM     37  C   UNL A   1      41.844  23.649  27.012  1.00  0.00     0.060 A 
ATOM     38  C   UNL A   1      40.640  24.255  26.657  1.00  0.00     0.016 A 
ATOM     39  C   UNL A   1      42.460  23.993  28.206  1.00  0.00     0.016 A 
ATOM     40  C   UNL A   1      40.268  25.442  27.291  1.00  0.00     0.010 A 
ATOM     41  C   UNL A   1      42.104  25.188  28.808  1.00  0.00     0.010 A 
ATOM     42  C   UNL A   1      41.108  25.996  28.255  1.00  0.00    -0.014 A 
BRANCH  42  43
ATOM     43  C   UNL A   1      40.925  27.353  28.780  1.00  0.00     0.031 A 
ATOM     44  C   UNL A   1      41.773  28.370  28.124  1.00  0.00     0.074 A 
ATOM     45  C   UNL A   1      40.007  27.800  29.671  1.00  0.00     0.049 A 
ATOM     46  N   UNL A   1      42.976  28.657  28.486  1.00  0.00    -0.248 NA
ATOM     47  C   UNL A   1      41.343  29.026  26.882  1.00  0.00     0.031 C 
ATOM     48  C   UNL A   1      38.842  27.122  30.249  1.00  0.00     0.029 A 
ATOM     49  N   UNL A   1      39.885  29.069  30.172  1.00  0.00    -0.354 N 
ATOM     50  C   UNL A   1      43.376  29.693  27.664  1.00  0.00     0.074 A 
ATOM     51  C   UNL A   1      42.453  29.697  26.556  1.00  0.00     0.031 C 
ATOM     52  C   UNL A   1      38.030  28.037  30.843  1.00  0.00     0.029 A 
ATOM     53  C   UNL A   1      38.703  29.328  30.860  1.00  0.00     0.049 A 
ATOM     54  H   UNL A   1      40.586  29.751  30.055  1.00  0.00     0.167 HD
ATOM     55  C   UNL A   1      44.250  30.638  28.104  1.00  0.00     0.031 A 
ATOM     56  C   UNL A   1      38.333  30.512  31.419  1.00  0.00     0.031 A 
ATOM     57  C   UNL A   1      44.750  30.323  29.425  1.00  0.00     0.049 A 
ATOM     58  C   UNL A   1      39.582  31.254  31.712  1.00  0.00     0.074 A 
ATOM     59  C   UNL A   1      45.374  29.230  29.999  1.00  0.00     0.029 A 
ATOM     60  N   UNL A   1      44.221  31.042  30.474  1.00  0.00    -0.354 N 
ATOM     61  N   UNL A   1      40.429  30.879  32.625  1.00  0.00    -0.248 NA
ATOM     62  C   UNL A   1      40.099  32.200  30.737  1.00  0.00     0.031 C 
ATOM     63  C   UNL A   1      44.762  29.090  31.281  1.00  0.00     0.029 A 
ATOM     64  C   UNL A   1      43.871  30.149  31.455  1.00  0.00     0.049 A 
ATOM     65  H   UNL A   1      44.115  32.020  30.514  1.00  0.00     0.167 HD
ATOM     66  C   UNL A   1      41.670  31.126  32.063  1.00  0.00     0.074 A 
ATOM     67  C   UNL A   1      41.407  32.071  30.979  1.00  0.00     0.031 C 
ATOM     68  C   UNL A   1      42.733  30.312  32.334  1.00  0.00     0.031 A 
BRANCH  55  69
ATOM     69  C   UNL A   1      44.349  32.031  27.549  1.00  0.00    -0.014 A 
ATOM     70  C   UNL A   1      43.720  33.071  28.255  1.00  0.00     0.009 A 
ATOM     71  C   UNL A   1      44.823  32.333  26.259  1.00  0.00     0.009 A 
ATOM     72  C   UNL A   1      43.521  34.327  27.676  1.00  0.00     0.001 A 
ATOM     73  C   UNL A   1      44.668  33.602  25.696  1.00  0.00     0.001 A 
ATOM     74  C   UNL A   1      43.993  34.591  26.395  1.00  0.00     0.000 A 
ENDBRANCH  55  69
BRANCH  56  75
ATOM     75  C   UNL A   1      37.016  31.132  31.688  1.00  0.00    -0.014 A 
ATOM     76  C   UNL A   1      36.716  31.662  32.960  1.00  0.00     0.009 A 
ATOM     77  C   UNL A   1      36.173  31.490  30.623  1.00  0.00     0.009 A 
ATOM     78  C   UNL A   1      35.657  32.562  33.143  1.00  0.00     0.001 A 
ATOM     79  C   UNL A   1      35.111  32.388  30.809  1.00  0.00     0.001 A 
ATOM     80  C   UNL A   1      34.867  32.940  32.063  1.00  0.00     0.000 A 
ENDBRANCH  56  75
BRANCH  68  81
ATOM     81  C   UNL A   1      42.595  29.312  33.464  1.00  0.00    -0.014 A 
ATOM     82  C   UNL A   1      41.964  28.062  33.322  1.00  0.00     0.009 A 
ATOM     83  C   UNL A   1      43.247  29.582  34.676  1.00  0.00     0.009 A 
ATOM     84  C   UNL A   1      41.953  27.132  34.367  1.00  0.00     0.001 A 
ATOM     85  C   UNL A   1      43.262  28.643  35.712  1.00  0.00     0.001 A 
ATOM     86  C   UNL A   1      42.609  27.422  35.560  1.00  0.00     0.000 A 
ENDBRANCH  68  81
ENDBRANCH  42  43
ENDBRANCH  35  37
ENDBRANCH  34  35
ENDBRANCH  33  34
ENDBRANCH  32  33
ENDBRANCH   1  32
TORSDOF 18
ENDMDL
