MODEL 1
REMARK VINA RESULT:     -10.6      0.000      0.000
REMARK SMILES O=C(OCCOCCOC(=O)[C@H]1CCc2[nH]nc(C(F)(F)F)c2C1)c1ccc(-c2c3nc(c(-c4ccccc4)c4ccc([nH]4)c(-c4ccccc4)c4nc(c(-c5ccccc5)c5ccc2[nH]5)C=C4)C=C3)cc1
REMARK SMILES IDX 5 1 4 2 3 3 2 4 1 5 25 6 26 7 72 8 27 9 71 10 28 11 29 12
REMARK SMILES IDX 30 13 65 14 31 15 70 16 64 17 66 18 32 19 69 20 63 21 62 22
REMARK SMILES IDX 33 24 55 25 40 26 54 27 41 28 44 29 53 30 67 31 42 32 43 33
REMARK SMILES IDX 52 35 68 36 45 37 34 38 35 39 39 40 36 41 38 42 37 43 56 44
REMARK SMILES IDX 57 45 61 46 58 47 60 48 59 49 46 50 47 51 51 52 48 53 50 54
REMARK SMILES IDX 49 55 6 56 7 57 8 58 9 59 10 60 11 61 12 62 13 63 24 64
REMARK SMILES IDX 14 65 23 66 15 67 18 68 16 69 17 70 19 72 20 73 21 74 22 75
REMARK H PARENT 66 23 44 34 16 71
REMARK Flexibility Score: inf
ROOT
ATOM      1  C   UNL A   1      31.387  32.025  26.705  1.00  0.00     0.202 C 
ENDROOT
BRANCH   1   2
ATOM      2  C   UNL A   1      32.454  33.119  26.884  1.00  0.00     0.261 C 
BRANCH   2   3
ATOM      3  O   UNL A   1      32.155  34.007  27.994  1.00  0.00    -0.460 OA
BRANCH   3   4
ATOM      4  C   UNL A   1      33.048  34.496  28.906  1.00  0.00     0.338 C 
ATOM      5  O   UNL A   1      32.790  35.445  29.624  1.00  0.00    -0.246 OA
BRANCH   4   6
ATOM      6  C   UNL A   1      34.359  33.821  29.018  1.00  0.00     0.060 A 
ATOM      7  C   UNL A   1      34.443  32.650  29.743  1.00  0.00     0.016 A 
ATOM      8  C   UNL A   1      35.520  34.345  28.455  1.00  0.00     0.016 A 
ATOM      9  C   UNL A   1      35.643  32.209  30.227  1.00  0.00     0.010 A 
ATOM     10  C   UNL A   1      36.753  33.736  28.737  1.00  0.00     0.010 A 
ATOM     11  C   UNL A   1      36.822  32.696  29.680  1.00  0.00    -0.014 A 
BRANCH  11  12
ATOM     12  C   UNL A   1      38.073  32.092  30.190  1.00  0.00     0.031 A 
ATOM     13  C   UNL A   1      38.681  32.613  31.455  1.00  0.00     0.074 A 
ATOM     14  C   UNL A   1      38.524  30.954  29.614  1.00  0.00     0.049 A 
ATOM     15  N   UNL A   1      39.795  32.253  32.034  1.00  0.00    -0.248 NA
ATOM     16  C   UNL A   1      37.953  33.680  32.162  1.00  0.00     0.031 C 
ATOM     17  C   UNL A   1      37.922  30.298  28.442  1.00  0.00     0.029 A 
ATOM     18  N   UNL A   1      39.521  30.093  29.981  1.00  0.00    -0.354 N 
ATOM     19  C   UNL A   1      39.936  33.096  33.127  1.00  0.00     0.074 A 
ATOM     20  C   UNL A   1      38.791  33.976  33.144  1.00  0.00     0.031 C 
ATOM     21  C   UNL A   1      38.465  29.086  28.281  1.00  0.00     0.029 A 
ATOM     22  C   UNL A   1      39.569  28.949  29.216  1.00  0.00     0.049 A 
ATOM     23  H   UNL A   1      40.145  30.272  30.721  1.00  0.00     0.167 HD
ATOM     24  C   UNL A   1      40.951  33.135  34.020  1.00  0.00     0.031 A 
ATOM     25  C   UNL A   1      40.443  27.929  29.228  1.00  0.00     0.031 A 
ATOM     26  C   UNL A   1      42.064  32.226  33.979  1.00  0.00     0.049 A 
ATOM     27  C   UNL A   1      41.587  28.026  30.190  1.00  0.00     0.074 A 
ATOM     28  C   UNL A   1      43.214  32.219  34.744  1.00  0.00     0.029 A 
ATOM     29  N   UNL A   1      42.142  31.134  33.123  1.00  0.00    -0.354 N 
ATOM     30  N   UNL A   1      41.802  28.926  31.122  1.00  0.00    -0.248 NA
ATOM     31  C   UNL A   1      42.632  27.004  30.078  1.00  0.00     0.031 C 
ATOM     32  C   UNL A   1      44.002  31.139  34.330  1.00  0.00     0.029 A 
ATOM     33  C   UNL A   1      43.319  30.444  33.342  1.00  0.00     0.049 A 
ATOM     34  H   UNL A   1      41.459  30.887  32.458  1.00  0.00     0.167 HD
ATOM     35  C   UNL A   1      43.016  28.592  31.696  1.00  0.00     0.074 A 
ATOM     36  C   UNL A   1      43.463  27.375  31.041  1.00  0.00     0.031 C 
ATOM     37  C   UNL A   1      43.718  29.240  32.657  1.00  0.00     0.031 A 
BRANCH  24  38
ATOM     38  C   UNL A   1      40.927  34.245  35.031  1.00  0.00    -0.014 A 
ATOM     39  C   UNL A   1      40.344  34.081  36.297  1.00  0.00     0.009 A 
ATOM     40  C   UNL A   1      41.459  35.498  34.687  1.00  0.00     0.009 A 
ATOM     41  C   UNL A   1      40.263  35.160  37.182  1.00  0.00     0.001 A 
ATOM     42  C   UNL A   1      41.398  36.567  35.582  1.00  0.00     0.001 A 
ATOM     43  C   UNL A   1      40.789  36.401  36.825  1.00  0.00     0.000 A 
ENDBRANCH  24  38
BRANCH  25  44
ATOM     44  C   UNL A   1      40.341  26.827  28.229  1.00  0.00    -0.014 A 
ATOM     45  C   UNL A   1      39.629  25.653  28.510  1.00  0.00     0.009 A 
ATOM     46  C   UNL A   1      40.964  26.950  26.974  1.00  0.00     0.009 A 
ATOM     47  C   UNL A   1      39.557  24.623  27.564  1.00  0.00     0.001 A 
ATOM     48  C   UNL A   1      40.856  25.941  26.016  1.00  0.00     0.001 A 
ATOM     49  C   UNL A   1      40.163  24.772  26.316  1.00  0.00     0.000 A 
ENDBRANCH  25  44
BRANCH  37  50
ATOM     50  C   UNL A   1      45.021  28.617  33.052  1.00  0.00    -0.014 A 
ATOM     51  C   UNL A   1      46.215  28.969  32.404  1.00  0.00     0.009 A 
ATOM     52  C   UNL A   1      45.050  27.675  34.090  1.00  0.00     0.009 A 
ATOM     53  C   UNL A   1      47.413  28.356  32.765  1.00  0.00     0.001 A 
ATOM     54  C   UNL A   1      46.255  27.084  34.467  1.00  0.00     0.001 A 
ATOM     55  C   UNL A   1      47.432  27.417  33.797  1.00  0.00     0.000 A 
ENDBRANCH  37  50
ENDBRANCH  11  12
ENDBRANCH   4   6
ENDBRANCH   3   4
ENDBRANCH   2   3
ENDBRANCH   1   2
BRANCH   1  56
ATOM     56  O   UNL A   1      31.753  30.698  27.070  1.00  0.00    -0.374 OA
BRANCH  56  57
ATOM     57  C   UNL A   1      33.089  30.315  26.716  1.00  0.00     0.202 C 
BRANCH  57  58
ATOM     58  C   UNL A   1      33.069  29.461  25.452  1.00  0.00     0.261 C 
BRANCH  58  59
ATOM     59  O   UNL A   1      31.702  29.170  25.121  1.00  0.00    -0.463 OA
BRANCH  59  60
ATOM     60  C   UNL A   1      31.323  27.866  25.151  1.00  0.00     0.309 C 
ATOM     61  O   UNL A   1      31.299  27.166  26.156  1.00  0.00    -0.252 OA
BRANCH  60  62
ATOM     62  C   UNL A   1      30.965  27.364  23.757  1.00  0.00     0.104 C 
ATOM     63  C   UNL A   1      30.043  26.108  23.812  1.00  0.00     0.022 C 
ATOM     64  C   UNL A   1      30.426  28.473  22.823  1.00  0.00     0.055 C 
ATOM     65  C   UNL A   1      28.509  26.318  23.832  1.00  0.00     0.057 C 
ATOM     66  C   UNL A   1      28.973  28.701  23.031  1.00  0.00     0.006 A 
ATOM     67  C   UNL A   1      28.132  27.687  23.415  1.00  0.00     0.039 A 
ATOM     68  C   UNL A   1      28.156  29.869  22.990  1.00  0.00     0.169 A 
ATOM     69  N   UNL A   1      26.879  28.218  23.455  1.00  0.00    -0.282 N 
ATOM     70  N   UNL A   1      26.866  29.539  23.228  1.00  0.00    -0.171 NA
ATOM     71  H   UNL A   1      26.068  27.688  23.633  1.00  0.00     0.190 HD
BRANCH  68  72
ATOM     72  C   UNL A   1      28.586  31.302  22.774  1.00  0.00     0.435 C 
ATOM     73  F   UNL A   1      27.546  32.137  22.509  1.00  0.00    -0.164 F 
ATOM     74  F   UNL A   1      29.244  31.807  23.852  1.00  0.00    -0.164 F 
ATOM     75  F   UNL A   1      29.446  31.424  21.723  1.00  0.00    -0.164 F 
ENDBRANCH  68  72
ENDBRANCH  60  62
ENDBRANCH  59  60
ENDBRANCH  58  59
ENDBRANCH  57  58
ENDBRANCH  56  57
ENDBRANCH   1  56
TORSDOF 15
ENDMDL
MODEL 2
REMARK VINA RESULT:     -10.5      2.491      3.112
REMARK SMILES O=C(OCCOCCOC(=O)[C@H]1CCc2[nH]nc(C(F)(F)F)c2C1)c1ccc(-c2c3nc(c(-c4ccccc4)c4ccc([nH]4)c(-c4ccccc4)c4nc(c(-c5ccccc5)c5ccc2[nH]5)C=C4)C=C3)cc1
REMARK SMILES IDX 5 1 4 2 3 3 2 4 1 5 25 6 26 7 72 8 27 9 71 10 28 11 29 12
REMARK SMILES IDX 30 13 65 14 31 15 70 16 64 17 66 18 32 19 69 20 63 21 62 22
REMARK SMILES IDX 33 24 55 25 40 26 54 27 41 28 44 29 53 30 67 31 42 32 43 33
REMARK SMILES IDX 52 35 68 36 45 37 34 38 35 39 39 40 36 41 38 42 37 43 56 44
REMARK SMILES IDX 57 45 61 46 58 47 60 48 59 49 46 50 47 51 51 52 48 53 50 54
REMARK SMILES IDX 49 55 6 56 7 57 8 58 9 59 10 60 11 61 12 62 13 63 24 64
REMARK SMILES IDX 14 65 23 66 15 67 18 68 16 69 17 70 19 72 20 73 21 74 22 75
REMARK H PARENT 66 23 44 34 16 71
REMARK Flexibility Score: inf
ROOT
ATOM      1  C   UNL A   1      31.406  31.378  26.451  1.00  0.00     0.202 C 
ENDROOT
BRANCH   1   2
ATOM      2  C   UNL A   1      31.877  32.842  26.449  1.00  0.00     0.261 C 
BRANCH   2   3
ATOM      3  O   UNL A   1      31.879  33.425  27.779  1.00  0.00    -0.460 OA
BRANCH   3   4
ATOM      4  C   UNL A   1      32.865  34.199  28.326  1.00  0.00     0.338 C 
ATOM      5  O   UNL A   1      32.678  35.357  28.648  1.00  0.00    -0.246 OA
BRANCH   4   6
ATOM      6  C   UNL A   1      34.191  33.578  28.538  1.00  0.00     0.060 A 
ATOM      7  C   UNL A   1      34.264  32.397  29.246  1.00  0.00     0.016 A 
ATOM      8  C   UNL A   1      35.371  34.165  28.086  1.00  0.00     0.016 A 
ATOM      9  C   UNL A   1      35.438  31.998  29.824  1.00  0.00     0.010 A 
ATOM     10  C   UNL A   1      36.601  33.602  28.463  1.00  0.00     0.010 A 
ATOM     11  C   UNL A   1      36.636  32.547  29.390  1.00  0.00    -0.014 A 
BRANCH  11  12
ATOM     12  C   UNL A   1      37.864  31.986  29.995  1.00  0.00     0.031 A 
ATOM     13  C   UNL A   1      38.349  32.518  31.307  1.00  0.00     0.074 A 
ATOM     14  C   UNL A   1      38.404  30.871  29.450  1.00  0.00     0.049 A 
ATOM     15  N   UNL A   1      39.425  32.196  31.972  1.00  0.00    -0.248 NA
ATOM     16  C   UNL A   1      37.526  33.550  31.961  1.00  0.00     0.031 C 
ATOM     17  C   UNL A   1      37.923  30.204  28.230  1.00  0.00     0.029 A 
ATOM     18  N   UNL A   1      39.401  30.046  29.891  1.00  0.00    -0.354 N 
ATOM     19  C   UNL A   1      39.446  33.033  33.078  1.00  0.00     0.074 A 
ATOM     20  C   UNL A   1      38.270  33.869  33.009  1.00  0.00     0.031 C 
ATOM     21  C   UNL A   1      38.525  29.015  28.105  1.00  0.00     0.029 A 
ATOM     22  C   UNL A   1      39.554  28.912  29.125  1.00  0.00     0.049 A 
ATOM     23  H   UNL A   1      39.957  30.242  30.679  1.00  0.00     0.167 HD
ATOM     24  C   UNL A   1      40.384  33.103  34.050  1.00  0.00     0.031 A 
ATOM     25  C   UNL A   1      40.464  27.926  29.201  1.00  0.00     0.031 A 
ATOM     26  C   UNL A   1      41.531  32.238  34.092  1.00  0.00     0.049 A 
ATOM     27  C   UNL A   1      41.522  28.058  30.253  1.00  0.00     0.074 A 
ATOM     28  C   UNL A   1      42.616  32.268  34.947  1.00  0.00     0.029 A 
ATOM     29  N   UNL A   1      41.720  31.157  33.240  1.00  0.00    -0.354 N 
ATOM     30  N   UNL A   1      41.627  28.957  31.204  1.00  0.00    -0.248 NA
ATOM     31  C   UNL A   1      42.612  27.078  30.218  1.00  0.00     0.031 C 
ATOM     32  C   UNL A   1      43.476  31.222  34.591  1.00  0.00     0.029 A 
ATOM     33  C   UNL A   1      42.902  30.511  33.547  1.00  0.00     0.049 A 
ATOM     34  H   UNL A   1      41.102  30.891  32.520  1.00  0.00     0.167 HD
ATOM     35  C   UNL A   1      42.804  28.664  31.871  1.00  0.00     0.074 A 
ATOM     36  C   UNL A   1      43.348  27.471  31.247  1.00  0.00     0.031 C 
ATOM     37  C   UNL A   1      43.400  29.329  32.890  1.00  0.00     0.031 A 
BRANCH  24  38
ATOM     38  C   UNL A   1      40.236  34.202  35.062  1.00  0.00    -0.014 A 
ATOM     39  C   UNL A   1      40.795  35.474  34.861  1.00  0.00     0.009 A 
ATOM     40  C   UNL A   1      39.562  33.940  36.265  1.00  0.00     0.009 A 
ATOM     41  C   UNL A   1      40.712  36.447  35.861  1.00  0.00     0.001 A 
ATOM     42  C   UNL A   1      39.460  34.923  37.252  1.00  0.00     0.001 A 
ATOM     43  C   UNL A   1      40.046  36.172  37.054  1.00  0.00     0.000 A 
ENDBRANCH  24  38
BRANCH  25  44
ATOM     44  C   UNL A   1      40.485  26.830  28.191  1.00  0.00    -0.014 A 
ATOM     45  C   UNL A   1      41.171  26.970  26.976  1.00  0.00     0.009 A 
ATOM     46  C   UNL A   1      39.810  25.622  28.443  1.00  0.00     0.009 A 
ATOM     47  C   UNL A   1      41.167  25.935  26.035  1.00  0.00     0.001 A 
ATOM     48  C   UNL A   1      39.841  24.574  27.522  1.00  0.00     0.001 A 
ATOM     49  C   UNL A   1      40.510  24.736  26.312  1.00  0.00     0.000 A 
ENDBRANCH  25  44
BRANCH  37  50
ATOM     50  C   UNL A   1      44.690  28.753  33.385  1.00  0.00    -0.014 A 
ATOM     51  C   UNL A   1      45.919  29.162  32.841  1.00  0.00     0.009 A 
ATOM     52  C   UNL A   1      44.673  27.798  34.411  1.00  0.00     0.009 A 
ATOM     53  C   UNL A   1      47.107  28.592  33.293  1.00  0.00     0.001 A 
ATOM     54  C   UNL A   1      45.866  27.250  34.879  1.00  0.00     0.001 A 
ATOM     55  C   UNL A   1      47.080  27.640  34.313  1.00  0.00     0.000 A 
ENDBRANCH  37  50
ENDBRANCH  11  12
ENDBRANCH   4   6
ENDBRANCH   3   4
ENDBRANCH   2   3
ENDBRANCH   1   2
BRANCH   1  56
ATOM     56  O   UNL A   1      32.196  30.444  27.182  1.00  0.00    -0.374 OA
BRANCH  56  57
ATOM     57  C   UNL A   1      32.658  29.316  26.427  1.00  0.00     0.202 C 
BRANCH  57  58
ATOM     58  C   UNL A   1      31.848  28.077  26.793  1.00  0.00     0.261 C 
BRANCH  58  59
ATOM     59  O   UNL A   1      31.165  27.615  25.617  1.00  0.00    -0.463 OA
BRANCH  59  60
ATOM     60  C   UNL A   1      30.692  26.342  25.636  1.00  0.00     0.309 C 
ATOM     61  O   UNL A   1      30.907  25.528  26.525  1.00  0.00    -0.252 OA
BRANCH  60  62
ATOM     62  C   UNL A   1      29.884  26.036  24.381  1.00  0.00     0.104 C 
ATOM     63  C   UNL A   1      29.669  27.307  23.505  1.00  0.00     0.022 C 
ATOM     64  C   UNL A   1      30.427  24.830  23.577  1.00  0.00     0.055 C 
ATOM     65  C   UNL A   1      30.718  27.641  22.416  1.00  0.00     0.057 C 
ATOM     66  C   UNL A   1      31.535  25.233  22.674  1.00  0.00     0.006 A 
ATOM     67  C   UNL A   1      31.590  26.485  22.114  1.00  0.00     0.039 A 
ATOM     68  C   UNL A   1      32.731  24.581  22.251  1.00  0.00     0.169 A 
ATOM     69  N   UNL A   1      32.684  26.499  21.305  1.00  0.00    -0.282 N 
ATOM     70  N   UNL A   1      33.407  25.373  21.387  1.00  0.00    -0.171 NA
ATOM     71  H   UNL A   1      32.921  27.256  20.722  1.00  0.00     0.190 HD
BRANCH  68  72
ATOM     72  C   UNL A   1      33.267  23.238  22.689  1.00  0.00     0.435 C 
ATOM     73  F   UNL A   1      34.594  23.084  22.435  1.00  0.00    -0.164 F 
ATOM     74  F   UNL A   1      33.085  23.023  24.020  1.00  0.00    -0.164 F 
ATOM     75  F   UNL A   1      32.639  22.206  22.056  1.00  0.00    -0.164 F 
ENDBRANCH  68  72
ENDBRANCH  60  62
ENDBRANCH  59  60
ENDBRANCH  58  59
ENDBRANCH  57  58
ENDBRANCH  56  57
ENDBRANCH   1  56
TORSDOF 15
ENDMDL
MODEL 3
REMARK VINA RESULT:     -10.5      4.985      9.220
REMARK SMILES O=C(OCCOCCOC(=O)[C@H]1CCc2[nH]nc(C(F)(F)F)c2C1)c1ccc(-c2c3nc(c(-c4ccccc4)c4ccc([nH]4)c(-c4ccccc4)c4nc(c(-c5ccccc5)c5ccc2[nH]5)C=C4)C=C3)cc1
REMARK SMILES IDX 5 1 4 2 3 3 2 4 1 5 25 6 26 7 72 8 27 9 71 10 28 11 29 12
REMARK SMILES IDX 30 13 65 14 31 15 70 16 64 17 66 18 32 19 69 20 63 21 62 22
REMARK SMILES IDX 33 24 55 25 40 26 54 27 41 28 44 29 53 30 67 31 42 32 43 33
REMARK SMILES IDX 52 35 68 36 45 37 34 38 35 39 39 40 36 41 38 42 37 43 56 44
REMARK SMILES IDX 57 45 61 46 58 47 60 48 59 49 46 50 47 51 51 52 48 53 50 54
REMARK SMILES IDX 49 55 6 56 7 57 8 58 9 59 10 60 11 61 12 62 13 63 24 64
REMARK SMILES IDX 14 65 23 66 15 67 18 68 16 69 17 70 19 72 20 73 21 74 22 75
REMARK H PARENT 66 23 44 34 16 71
REMARK Flexibility Score: inf
ROOT
ATOM      1  C   UNL A   1      35.666  21.097  25.375  1.00  0.00     0.202 C 
ENDROOT
BRANCH   1   2
ATOM      2  C   UNL A   1      36.975  20.469  24.865  1.00  0.00     0.261 C 
BRANCH   2   3
ATOM      3  O   UNL A   1      38.119  21.343  25.055  1.00  0.00    -0.460 OA
BRANCH   3   4
ATOM      4  C   UNL A   1      39.139  21.164  25.947  1.00  0.00     0.338 C 
ATOM      5  O   UNL A   1      39.619  20.069  26.174  1.00  0.00    -0.246 OA
BRANCH   4   6
ATOM      6  C   UNL A   1      39.671  22.360  26.635  1.00  0.00     0.060 A 
ATOM      7  C   UNL A   1      39.095  23.587  26.374  1.00  0.00     0.016 A 
ATOM      8  C   UNL A   1      40.759  22.301  27.502  1.00  0.00     0.016 A 
ATOM      9  C   UNL A   1      39.770  24.747  26.633  1.00  0.00     0.010 A 
ATOM     10  C   UNL A   1      41.309  23.497  27.992  1.00  0.00     0.010 A 
ATOM     11  C   UNL A   1      40.850  24.732  27.504  1.00  0.00    -0.014 A 
BRANCH  11  12
ATOM     12  C   UNL A   1      41.458  26.046  27.808  1.00  0.00     0.031 A 
ATOM     13  C   UNL A   1      42.716  26.455  27.108  1.00  0.00     0.074 A 
ATOM     14  C   UNL A   1      40.756  26.928  28.557  1.00  0.00     0.049 A 
ATOM     15  N   UNL A   1      43.428  27.538  27.273  1.00  0.00    -0.248 NA
ATOM     16  C   UNL A   1      43.255  25.531  26.095  1.00  0.00     0.031 C 
ATOM     17  C   UNL A   1      39.453  26.659  29.186  1.00  0.00     0.029 A 
ATOM     18  N   UNL A   1      40.977  28.248  28.837  1.00  0.00    -0.354 N 
ATOM     19  C   UNL A   1      44.530  27.390  26.443  1.00  0.00     0.074 A 
ATOM     20  C   UNL A   1      44.391  26.123  25.762  1.00  0.00     0.031 C 
ATOM     21  C   UNL A   1      38.936  27.804  29.647  1.00  0.00     0.029 A 
ATOM     22  C   UNL A   1      39.938  28.848  29.510  1.00  0.00     0.049 A 
ATOM     23  H   UNL A   1      41.801  28.724  28.583  1.00  0.00     0.167 HD
ATOM     24  C   UNL A   1      45.572  28.238  26.288  1.00  0.00     0.031 A 
ATOM     25  C   UNL A   1      39.827  30.089  30.016  1.00  0.00     0.031 A 
ATOM     26  C   UNL A   1      45.662  29.500  26.970  1.00  0.00     0.049 A 
ATOM     27  C   UNL A   1      41.018  30.987  29.875  1.00  0.00     0.074 A 
ATOM     28  C   UNL A   1      46.705  30.404  26.998  1.00  0.00     0.029 A 
ATOM     29  N   UNL A   1      44.637  30.043  27.734  1.00  0.00    -0.354 N 
ATOM     30  N   UNL A   1      42.135  30.774  29.218  1.00  0.00    -0.248 NA
ATOM     31  C   UNL A   1      40.961  32.271  30.580  1.00  0.00     0.031 C 
ATOM     32  C   UNL A   1      46.321  31.483  27.804  1.00  0.00     0.029 A 
ATOM     33  C   UNL A   1      45.020  31.272  28.237  1.00  0.00     0.049 A 
ATOM     34  H   UNL A   1      43.764  29.615  27.895  1.00  0.00     0.167 HD
ATOM     35  C   UNL A   1      42.924  31.888  29.445  1.00  0.00     0.074 A 
ATOM     36  C   UNL A   1      42.134  32.797  30.257  1.00  0.00     0.031 C 
ATOM     37  C   UNL A   1      44.195  32.134  29.045  1.00  0.00     0.031 A 
BRANCH  24  38
ATOM     38  C   UNL A   1      46.710  27.769  25.426  1.00  0.00    -0.014 A 
ATOM     39  C   UNL A   1      46.782  28.084  24.060  1.00  0.00     0.009 A 
ATOM     40  C   UNL A   1      47.705  26.954  25.988  1.00  0.00     0.009 A 
ATOM     41  C   UNL A   1      47.809  27.560  23.269  1.00  0.00     0.001 A 
ATOM     42  C   UNL A   1      48.742  26.452  25.200  1.00  0.00     0.001 A 
ATOM     43  C   UNL A   1      48.787  26.746  23.838  1.00  0.00     0.000 A 
ENDBRANCH  24  38
BRANCH  25  44
ATOM     44  C   UNL A   1      38.622  30.489  30.794  1.00  0.00    -0.014 A 
ATOM     45  C   UNL A   1      38.535  30.259  32.175  1.00  0.00     0.009 A 
ATOM     46  C   UNL A   1      37.538  31.114  30.150  1.00  0.00     0.009 A 
ATOM     47  C   UNL A   1      37.388  30.630  32.886  1.00  0.00     0.001 A 
ATOM     48  C   UNL A   1      36.413  31.522  30.868  1.00  0.00     0.001 A 
ATOM     49  C   UNL A   1      36.333  31.268  32.233  1.00  0.00     0.000 A 
ENDBRANCH  25  44
BRANCH  37  50
ATOM     50  C   UNL A   1      44.776  33.446  29.473  1.00  0.00    -0.014 A 
ATOM     51  C   UNL A   1      45.492  33.560  30.676  1.00  0.00     0.009 A 
ATOM     52  C   UNL A   1      44.610  34.575  28.658  1.00  0.00     0.009 A 
ATOM     53  C   UNL A   1      45.999  34.796  31.072  1.00  0.00     0.001 A 
ATOM     54  C   UNL A   1      45.141  35.803  29.046  1.00  0.00     0.001 A 
ATOM     55  C   UNL A   1      45.826  35.915  30.256  1.00  0.00     0.000 A 
ENDBRANCH  37  50
ENDBRANCH  11  12
ENDBRANCH   4   6
ENDBRANCH   3   4
ENDBRANCH   2   3
ENDBRANCH   1   2
BRANCH   1  56
ATOM     56  O   UNL A   1      34.743  21.560  24.393  1.00  0.00    -0.374 OA
BRANCH  56  57
ATOM     57  C   UNL A   1      35.147  22.741  23.687  1.00  0.00     0.202 C 
BRANCH  57  58
ATOM     58  C   UNL A   1      33.921  23.564  23.305  1.00  0.00     0.261 C 
BRANCH  58  59
ATOM     59  O   UNL A   1      34.186  24.944  23.604  1.00  0.00    -0.463 OA
BRANCH  59  60
ATOM     60  C   UNL A   1      33.180  25.828  23.384  1.00  0.00     0.309 C 
ATOM     61  O   UNL A   1      32.602  25.981  22.315  1.00  0.00    -0.252 OA
BRANCH  60  62
ATOM     62  C   UNL A   1      32.881  26.645  24.637  1.00  0.00     0.104 C 
ATOM     63  C   UNL A   1      31.474  27.315  24.570  1.00  0.00     0.022 C 
ATOM     64  C   UNL A   1      33.119  25.865  25.952  1.00  0.00     0.055 C 
ATOM     65  C   UNL A   1      30.256  26.534  25.120  1.00  0.00     0.057 C 
ATOM     66  C   UNL A   1      31.946  25.028  26.308  1.00  0.00     0.006 A 
ATOM     67  C   UNL A   1      30.667  25.401  25.979  1.00  0.00     0.039 A 
ATOM     68  C   UNL A   1      31.815  23.748  26.923  1.00  0.00     0.169 A 
ATOM     69  N   UNL A   1      29.841  24.453  26.500  1.00  0.00    -0.282 N 
ATOM     70  N   UNL A   1      30.506  23.430  27.053  1.00  0.00    -0.171 NA
ATOM     71  H   UNL A   1      28.858  24.513  26.474  1.00  0.00     0.190 HD
BRANCH  68  72
ATOM     72  C   UNL A   1      32.912  22.799  27.347  1.00  0.00     0.435 C 
ATOM     73  F   UNL A   1      32.814  21.574  26.764  1.00  0.00    -0.164 F 
ATOM     74  F   UNL A   1      34.150  23.284  27.057  1.00  0.00    -0.164 F 
ATOM     75  F   UNL A   1      32.905  22.579  28.692  1.00  0.00    -0.164 F 
ENDBRANCH  68  72
ENDBRANCH  60  62
ENDBRANCH  59  60
ENDBRANCH  58  59
ENDBRANCH  57  58
ENDBRANCH  56  57
ENDBRANCH   1  56
TORSDOF 15
ENDMDL
