MODEL 1
REMARK VINA RESULT:     -10.2      0.000      0.000
REMARK SMILES C[C@@H](C(=O)OCCOCCOC(=O)c1ccc(-c2c3nc(c(-c4ccccc4)c4ccc([nH]4)c(-c4ccccc4)c4nc(c(-c5ccccc5)c5ccc2[nH]5)C=C4)C=C3)cc1)c1ccc(Cc2cccs2)cc1F
REMARK SMILES IDX 7 1 6 2 5 3 3 4 4 5 2 6 1 7 62 8 63 9 73 10 64 11 72 12
REMARK SMILES IDX 74 13 65 14 66 15 67 16 68 17 71 18 69 19 70 20 8 21 9 22
REMARK SMILES IDX 10 23 11 24 12 25 13 26 14 27 15 28 61 29 16 30 60 31 17 32
REMARK SMILES IDX 18 33 19 34 54 35 20 36 59 37 53 38 55 39 21 40 58 41 52 42
REMARK SMILES IDX 51 43 22 45 44 46 29 47 43 48 30 49 33 50 42 51 56 52 31 53
REMARK SMILES IDX 32 54 41 56 57 57 34 58 23 59 24 60 28 61 25 62 27 63 26 64
REMARK SMILES IDX 45 65 46 66 50 67 47 68 49 69 48 70 35 71 36 72 40 73 37 74
REMARK SMILES IDX 39 75 38 76
REMARK H PARENT 55 44 33 55
REMARK Flexibility Score: inf
ROOT
ATOM      1  C   UNL A   1      33.790  29.219  26.734  1.00  0.00     0.202 C 
ENDROOT
BRANCH   1   2
ATOM      2  C   UNL A   1      33.995  28.236  25.580  1.00  0.00     0.261 C 
BRANCH   2   3
ATOM      3  O   UNL A   1      32.960  27.235  25.591  1.00  0.00    -0.463 OA
BRANCH   3   4
ATOM      4  C   UNL A   1      33.302  26.034  25.054  1.00  0.00     0.313 C 
ATOM      5  O   UNL A   1      34.042  25.225  25.605  1.00  0.00    -0.252 OA
BRANCH   4   6
ATOM      6  C   UNL A   1      32.658  25.782  23.685  1.00  0.00     0.129 C 
ATOM      7  C   UNL A   1      33.602  25.942  22.487  1.00  0.00     0.025 C 
BRANCH   6   8
ATOM      8  C   UNL A   1      31.345  26.549  23.581  1.00  0.00     0.002 A 
ATOM      9  C   UNL A   1      31.337  27.750  22.851  1.00  0.00     0.008 A 
ATOM     10  C   UNL A   1      30.122  26.095  24.087  1.00  0.00     0.127 A 
ATOM     11  C   UNL A   1      30.153  28.453  22.629  1.00  0.00     0.004 A 
ATOM     12  C   UNL A   1      28.936  26.809  23.892  1.00  0.00     0.043 A 
ATOM     13  F   UNL A   1      30.046  24.938  24.759  1.00  0.00    -0.207 F 
ATOM     14  C   UNL A   1      28.937  27.995  23.151  1.00  0.00    -0.040 A 
BRANCH  14  15
ATOM     15  C   UNL A   1      27.662  28.774  22.913  1.00  0.00     0.082 C 
BRANCH  15  16
ATOM     16  C   UNL A   1      27.896  30.239  22.671  1.00  0.00     0.009 A 
ATOM     17  C   UNL A   1      28.055  31.254  23.598  1.00  0.00     0.016 A 
ATOM     18  S   UNL A   1      28.037  30.838  21.069  1.00  0.00    -0.149 S 
ATOM     19  C   UNL A   1      28.273  32.523  22.990  1.00  0.00     0.012 A 
ATOM     20  C   UNL A   1      28.296  32.436  21.617  1.00  0.00     0.065 A 
ENDBRANCH  15  16
ENDBRANCH  14  15
ENDBRANCH   6   8
ENDBRANCH   4   6
ENDBRANCH   3   4
ENDBRANCH   2   3
ENDBRANCH   1   2
BRANCH   1  21
ATOM     21  O   UNL A   1      32.439  29.623  26.972  1.00  0.00    -0.374 OA
BRANCH  21  22
ATOM     22  C   UNL A   1      32.165  31.024  26.949  1.00  0.00     0.202 C 
BRANCH  22  23
ATOM     23  C   UNL A   1      33.171  31.920  27.683  1.00  0.00     0.261 C 
BRANCH  23  24
ATOM     24  O   UNL A   1      32.936  33.319  27.439  1.00  0.00    -0.460 OA
BRANCH  24  25
ATOM     25  C   UNL A   1      33.235  34.132  28.479  1.00  0.00     0.338 C 
ATOM     26  O   UNL A   1      32.516  34.984  28.988  1.00  0.00    -0.246 OA
BRANCH  25  27
ATOM     27  C   UNL A   1      34.529  33.748  29.071  1.00  0.00     0.060 A 
ATOM     28  C   UNL A   1      35.683  34.015  28.322  1.00  0.00     0.016 A 
ATOM     29  C   UNL A   1      34.617  33.080  30.295  1.00  0.00     0.016 A 
ATOM     30  C   UNL A   1      36.924  33.567  28.765  1.00  0.00     0.010 A 
ATOM     31  C   UNL A   1      35.865  32.621  30.735  1.00  0.00     0.010 A 
ATOM     32  C   UNL A   1      37.016  32.829  29.954  1.00  0.00    -0.014 A 
BRANCH  32  33
ATOM     33  C   UNL A   1      38.290  32.147  30.282  1.00  0.00     0.031 A 
ATOM     34  C   UNL A   1      39.233  32.797  31.259  1.00  0.00     0.074 A 
ATOM     35  C   UNL A   1      38.584  30.942  29.762  1.00  0.00     0.049 A 
ATOM     36  N   UNL A   1      40.387  32.371  31.705  1.00  0.00    -0.248 NA
ATOM     37  C   UNL A   1      38.815  34.097  31.807  1.00  0.00     0.031 C 
ATOM     38  C   UNL A   1      37.734  30.187  28.842  1.00  0.00     0.029 A 
ATOM     39  N   UNL A   1      39.684  30.143  29.942  1.00  0.00    -0.354 N 
ATOM     40  C   UNL A   1      40.834  33.351  32.582  1.00  0.00     0.074 A 
ATOM     41  C   UNL A   1      39.843  34.405  32.586  1.00  0.00     0.031 C 
ATOM     42  C   UNL A   1      38.347  29.029  28.538  1.00  0.00     0.029 A 
ATOM     43  C   UNL A   1      39.640  28.976  29.218  1.00  0.00     0.049 A 
ATOM     44  H   UNL A   1      40.434  30.381  30.533  1.00  0.00     0.167 HD
ATOM     45  C   UNL A   1      41.965  33.371  33.326  1.00  0.00     0.031 A 
ATOM     46  C   UNL A   1      40.545  27.986  29.108  1.00  0.00     0.031 A 
ATOM     47  C   UNL A   1      42.960  32.333  33.318  1.00  0.00     0.049 A 
ATOM     48  C   UNL A   1      41.831  28.067  29.885  1.00  0.00     0.074 A 
ATOM     49  C   UNL A   1      44.134  32.256  34.047  1.00  0.00     0.029 A 
ATOM     50  N   UNL A   1      42.902  31.193  32.533  1.00  0.00    -0.354 N 
ATOM     51  N   UNL A   1      42.229  28.986  30.732  1.00  0.00    -0.248 NA
ATOM     52  C   UNL A   1      42.791  26.969  29.694  1.00  0.00     0.031 C 
ATOM     53  C   UNL A   1      44.810  31.093  33.666  1.00  0.00     0.029 A 
ATOM     54  C   UNL A   1      44.031  30.420  32.737  1.00  0.00     0.049 A 
ATOM     55  H   UNL A   1      42.165  30.966  31.920  1.00  0.00     0.167 HD
ATOM     56  C   UNL A   1      43.470  28.565  31.193  1.00  0.00     0.074 A 
ATOM     57  C   UNL A   1      43.754  27.303  30.542  1.00  0.00     0.031 C 
ATOM     58  C   UNL A   1      44.300  29.168  32.080  1.00  0.00     0.031 A 
BRANCH  45  59
ATOM     59  C   UNL A   1      42.202  34.578  34.188  1.00  0.00    -0.014 A 
ATOM     60  C   UNL A   1      42.749  35.757  33.657  1.00  0.00     0.009 A 
ATOM     61  C   UNL A   1      41.848  34.544  35.546  1.00  0.00     0.009 A 
ATOM     62  C   UNL A   1      42.966  36.866  34.477  1.00  0.00     0.001 A 
ATOM     63  C   UNL A   1      42.043  35.662  36.358  1.00  0.00     0.001 A 
ATOM     64  C   UNL A   1      42.609  36.820  35.824  1.00  0.00     0.000 A 
ENDBRANCH  45  59
BRANCH  46  65
ATOM     65  C   UNL A   1      40.277  26.829  28.214  1.00  0.00    -0.014 A 
ATOM     66  C   UNL A   1      39.544  25.724  28.670  1.00  0.00     0.009 A 
ATOM     67  C   UNL A   1      40.775  26.819  26.902  1.00  0.00     0.009 A 
ATOM     68  C   UNL A   1      39.333  24.623  27.838  1.00  0.00     0.001 A 
ATOM     69  C   UNL A   1      40.541  25.728  26.063  1.00  0.00     0.001 A 
ATOM     70  C   UNL A   1      39.828  24.628  26.534  1.00  0.00     0.000 A 
ENDBRANCH  46  65
BRANCH  58  71
ATOM     71  C   UNL A   1      45.578  28.456  32.421  1.00  0.00    -0.014 A 
ATOM     72  C   UNL A   1      45.632  27.513  33.458  1.00  0.00     0.009 A 
ATOM     73  C   UNL A   1      46.734  28.704  31.664  1.00  0.00     0.009 A 
ATOM     74  C   UNL A   1      46.827  26.851  33.748  1.00  0.00     0.001 A 
ATOM     75  C   UNL A   1      47.920  28.023  31.939  1.00  0.00     0.001 A 
ATOM     76  C   UNL A   1      47.968  27.104  32.987  1.00  0.00     0.000 A 
ENDBRANCH  58  71
ENDBRANCH  32  33
ENDBRANCH  25  27
ENDBRANCH  24  25
ENDBRANCH  23  24
ENDBRANCH  22  23
ENDBRANCH  21  22
ENDBRANCH   1  21
TORSDOF 17
ENDMDL
MODEL 2
REMARK VINA RESULT:     -10.1      1.989      6.261
REMARK SMILES C[C@@H](C(=O)OCCOCCOC(=O)c1ccc(-c2c3nc(c(-c4ccccc4)c4ccc([nH]4)c(-c4ccccc4)c4nc(c(-c5ccccc5)c5ccc2[nH]5)C=C4)C=C3)cc1)c1ccc(Cc2cccs2)cc1F
REMARK SMILES IDX 7 1 6 2 5 3 3 4 4 5 2 6 1 7 62 8 63 9 73 10 64 11 72 12
REMARK SMILES IDX 74 13 65 14 66 15 67 16 68 17 71 18 69 19 70 20 8 21 9 22
REMARK SMILES IDX 10 23 11 24 12 25 13 26 14 27 15 28 61 29 16 30 60 31 17 32
REMARK SMILES IDX 18 33 19 34 54 35 20 36 59 37 53 38 55 39 21 40 58 41 52 42
REMARK SMILES IDX 51 43 22 45 44 46 29 47 43 48 30 49 33 50 42 51 56 52 31 53
REMARK SMILES IDX 32 54 41 56 57 57 34 58 23 59 24 60 28 61 25 62 27 63 26 64
REMARK SMILES IDX 45 65 46 66 50 67 47 68 49 69 48 70 35 71 36 72 40 73 37 74
REMARK SMILES IDX 39 75 38 76
REMARK H PARENT 55 44 33 55
REMARK Flexibility Score: inf
ROOT
ATOM      1  C   UNL A   1      33.135  28.972  27.177  1.00  0.00     0.202 C 
ENDROOT
BRANCH   1   2
ATOM      2  C   UNL A   1      32.214  27.751  27.136  1.00  0.00     0.261 C 
BRANCH   2   3
ATOM      3  O   UNL A   1      32.850  26.674  26.423  1.00  0.00    -0.463 OA
BRANCH   3   4
ATOM      4  C   UNL A   1      32.037  25.642  26.077  1.00  0.00     0.313 C 
ATOM      5  O   UNL A   1      31.472  24.914  26.887  1.00  0.00    -0.252 OA
BRANCH   4   6
ATOM      6  C   UNL A   1      31.885  25.481  24.559  1.00  0.00     0.129 C 
ATOM      7  C   UNL A   1      33.194  25.557  23.765  1.00  0.00     0.025 C 
BRANCH   6   8
ATOM      8  C   UNL A   1      30.766  26.385  24.052  1.00  0.00     0.002 A 
ATOM      9  C   UNL A   1      29.440  25.946  24.209  1.00  0.00     0.008 A 
ATOM     10  C   UNL A   1      30.962  27.665  23.523  1.00  0.00     0.127 A 
ATOM     11  C   UNL A   1      28.363  26.761  23.863  1.00  0.00     0.004 A 
ATOM     12  C   UNL A   1      29.888  28.476  23.147  1.00  0.00     0.043 A 
ATOM     13  F   UNL A   1      32.198  28.165  23.380  1.00  0.00    -0.207 F 
ATOM     14  C   UNL A   1      28.572  28.035  23.322  1.00  0.00    -0.040 A 
BRANCH  14  15
ATOM     15  C   UNL A   1      27.395  28.906  22.938  1.00  0.00     0.082 C 
BRANCH  15  16
ATOM     16  C   UNL A   1      27.801  30.257  22.417  1.00  0.00     0.009 A 
ATOM     17  C   UNL A   1      28.028  30.647  21.109  1.00  0.00     0.016 A 
ATOM     18  S   UNL A   1      28.003  31.574  23.498  1.00  0.00    -0.149 S 
ATOM     19  C   UNL A   1      28.385  32.020  21.000  1.00  0.00     0.012 A 
ATOM     20  C   UNL A   1      28.400  32.645  22.226  1.00  0.00     0.065 A 
ENDBRANCH  15  16
ENDBRANCH  14  15
ENDBRANCH   6   8
ENDBRANCH   4   6
ENDBRANCH   3   4
ENDBRANCH   2   3
ENDBRANCH   1   2
BRANCH   1  21
ATOM     21  O   UNL A   1      32.485  30.243  27.092  1.00  0.00    -0.374 OA
BRANCH  21  22
ATOM     22  C   UNL A   1      33.258  31.394  27.433  1.00  0.00     0.202 C 
BRANCH  22  23
ATOM     23  C   UNL A   1      32.508  32.733  27.438  1.00  0.00     0.261 C 
BRANCH  23  24
ATOM     24  O   UNL A   1      33.402  33.860  27.396  1.00  0.00    -0.460 OA
BRANCH  24  25
ATOM     25  C   UNL A   1      33.375  34.644  28.498  1.00  0.00     0.338 C 
ATOM     26  O   UNL A   1      32.526  35.476  28.798  1.00  0.00    -0.246 OA
BRANCH  25  27
ATOM     27  C   UNL A   1      34.448  34.253  29.430  1.00  0.00     0.060 A 
ATOM     28  C   UNL A   1      35.768  34.374  28.976  1.00  0.00     0.016 A 
ATOM     29  C   UNL A   1      34.178  33.713  30.689  1.00  0.00     0.016 A 
ATOM     30  C   UNL A   1      36.821  33.906  29.756  1.00  0.00     0.010 A 
ATOM     31  C   UNL A   1      35.237  33.234  31.469  1.00  0.00     0.010 A 
ATOM     32  C   UNL A   1      36.559  33.294  30.989  1.00  0.00    -0.014 A 
BRANCH  32  33
ATOM     33  C   UNL A   1      37.653  32.579  31.687  1.00  0.00     0.031 A 
ATOM     34  C   UNL A   1      38.308  31.407  31.007  1.00  0.00     0.074 A 
ATOM     35  C   UNL A   1      38.097  32.996  32.887  1.00  0.00     0.049 A 
ATOM     36  N   UNL A   1      39.292  30.652  31.423  1.00  0.00    -0.248 NA
ATOM     37  C   UNL A   1      37.784  31.043  29.681  1.00  0.00     0.031 C 
ATOM     38  C   UNL A   1      37.579  34.144  33.629  1.00  0.00     0.029 A 
ATOM     39  N   UNL A   1      39.092  32.496  33.687  1.00  0.00    -0.354 N 
ATOM     40  C   UNL A   1      39.503  29.722  30.412  1.00  0.00     0.074 A 
ATOM     41  C   UNL A   1      38.528  29.989  29.377  1.00  0.00     0.031 C 
ATOM     42  C   UNL A   1      38.264  34.261  34.780  1.00  0.00     0.029 A 
ATOM     43  C   UNL A   1      39.246  33.182  34.867  1.00  0.00     0.049 A 
ATOM     44  H   UNL A   1      39.643  31.718  33.441  1.00  0.00     0.167 HD
ATOM     45  C   UNL A   1      40.431  28.738  30.346  1.00  0.00     0.031 A 
ATOM     46  C   UNL A   1      40.076  32.957  35.903  1.00  0.00     0.031 A 
ATOM     47  C   UNL A   1      41.394  28.460  31.376  1.00  0.00     0.049 A 
ATOM     48  C   UNL A   1      41.045  31.807  35.840  1.00  0.00     0.074 A 
ATOM     49  C   UNL A   1      42.383  27.492  31.395  1.00  0.00     0.029 A 
ATOM     50  N   UNL A   1      41.483  29.146  32.576  1.00  0.00    -0.354 N 
ATOM     51  N   UNL A   1      41.253  30.953  34.867  1.00  0.00    -0.248 NA
ATOM     52  C   UNL A   1      41.900  31.596  37.018  1.00  0.00     0.031 C 
ATOM     53  C   UNL A   1      43.038  27.560  32.629  1.00  0.00     0.029 A 
ATOM     54  C   UNL A   1      42.490  28.606  33.356  1.00  0.00     0.049 A 
ATOM     55  H   UNL A   1      40.913  29.906  32.836  1.00  0.00     0.167 HD
ATOM     56  C   UNL A   1      42.277  30.122  35.304  1.00  0.00     0.074 A 
ATOM     57  C   UNL A   1      42.656  30.582  36.624  1.00  0.00     0.031 C 
ATOM     58  C   UNL A   1      42.854  29.072  34.668  1.00  0.00     0.031 A 
BRANCH  45  59
ATOM     59  C   UNL A   1      40.421  27.864  29.124  1.00  0.00    -0.014 A 
ATOM     60  C   UNL A   1      39.698  26.660  29.095  1.00  0.00     0.009 A 
ATOM     61  C   UNL A   1      41.124  28.263  27.977  1.00  0.00     0.009 A 
ATOM     62  C   UNL A   1      39.707  25.859  27.951  1.00  0.00     0.001 A 
ATOM     63  C   UNL A   1      41.111  27.473  26.827  1.00  0.00     0.001 A 
ATOM     64  C   UNL A   1      40.409  26.267  26.817  1.00  0.00     0.000 A 
ENDBRANCH  45  59
BRANCH  46  65
ATOM     65  C   UNL A   1      40.021  33.831  37.104  1.00  0.00    -0.014 A 
ATOM     66  C   UNL A   1      40.859  34.949  37.215  1.00  0.00     0.009 A 
ATOM     67  C   UNL A   1      39.140  33.534  38.155  1.00  0.00     0.009 A 
ATOM     68  C   UNL A   1      40.832  35.741  38.365  1.00  0.00     0.001 A 
ATOM     69  C   UNL A   1      39.096  34.342  39.293  1.00  0.00     0.001 A 
ATOM     70  C   UNL A   1      39.948  35.440  39.401  1.00  0.00     0.000 A 
ENDBRANCH  46  65
BRANCH  58  71
ATOM     71  C   UNL A   1      43.976  28.370  35.377  1.00  0.00    -0.014 A 
ATOM     72  C   UNL A   1      43.735  27.268  36.209  1.00  0.00     0.009 A 
ATOM     73  C   UNL A   1      45.299  28.794  35.173  1.00  0.00     0.009 A 
ATOM     74  C   UNL A   1      44.796  26.620  36.847  1.00  0.00     0.001 A 
ATOM     75  C   UNL A   1      46.359  28.129  35.791  1.00  0.00     0.001 A 
ATOM     76  C   UNL A   1      46.105  27.049  36.635  1.00  0.00     0.000 A 
ENDBRANCH  58  71
ENDBRANCH  32  33
ENDBRANCH  25  27
ENDBRANCH  24  25
ENDBRANCH  23  24
ENDBRANCH  22  23
ENDBRANCH  21  22
ENDBRANCH   1  21
TORSDOF 17
ENDMDL
MODEL 3
REMARK VINA RESULT:     -10.1      4.369      8.795
REMARK SMILES C[C@@H](C(=O)OCCOCCOC(=O)c1ccc(-c2c3nc(c(-c4ccccc4)c4ccc([nH]4)c(-c4ccccc4)c4nc(c(-c5ccccc5)c5ccc2[nH]5)C=C4)C=C3)cc1)c1ccc(Cc2cccs2)cc1F
REMARK SMILES IDX 7 1 6 2 5 3 3 4 4 5 2 6 1 7 62 8 63 9 73 10 64 11 72 12
REMARK SMILES IDX 74 13 65 14 66 15 67 16 68 17 71 18 69 19 70 20 8 21 9 22
REMARK SMILES IDX 10 23 11 24 12 25 13 26 14 27 15 28 61 29 16 30 60 31 17 32
REMARK SMILES IDX 18 33 19 34 54 35 20 36 59 37 53 38 55 39 21 40 58 41 52 42
REMARK SMILES IDX 51 43 22 45 44 46 29 47 43 48 30 49 33 50 42 51 56 52 31 53
REMARK SMILES IDX 32 54 41 56 57 57 34 58 23 59 24 60 28 61 25 62 27 63 26 64
REMARK SMILES IDX 45 65 46 66 50 67 47 68 49 69 48 70 35 71 36 72 40 73 37 74
REMARK SMILES IDX 39 75 38 76
REMARK H PARENT 55 44 33 55
REMARK Flexibility Score: inf
ROOT
ATOM      1  C   UNL A   1      37.013  21.757  24.680  1.00  0.00     0.202 C 
ENDROOT
BRANCH   1   2
ATOM      2  C   UNL A   1      35.766  21.008  25.155  1.00  0.00     0.261 C 
BRANCH   2   3
ATOM      3  O   UNL A   1      34.607  21.466  24.434  1.00  0.00    -0.463 OA
BRANCH   3   4
ATOM      4  C   UNL A   1      33.524  21.766  25.198  1.00  0.00     0.313 C 
ATOM      5  O   UNL A   1      32.387  21.369  24.960  1.00  0.00    -0.252 OA
BRANCH   4   6
ATOM      6  C   UNL A   1      33.866  22.650  26.405  1.00  0.00     0.129 C 
ATOM      7  C   UNL A   1      33.432  22.087  27.763  1.00  0.00     0.025 C 
BRANCH   6   8
ATOM      8  C   UNL A   1      33.435  24.087  26.132  1.00  0.00     0.002 A 
ATOM      9  C   UNL A   1      32.184  24.505  26.618  1.00  0.00     0.008 A 
ATOM     10  C   UNL A   1      34.238  25.049  25.510  1.00  0.00     0.127 A 
ATOM     11  C   UNL A   1      31.767  25.831  26.495  1.00  0.00     0.004 A 
ATOM     12  C   UNL A   1      33.815  26.372  25.358  1.00  0.00     0.043 A 
ATOM     13  F   UNL A   1      35.460  24.732  25.057  1.00  0.00    -0.207 F 
ATOM     14  C   UNL A   1      32.574  26.781  25.858  1.00  0.00    -0.040 A 
BRANCH  14  15
ATOM     15  C   UNL A   1      32.105  28.213  25.720  1.00  0.00     0.082 C 
BRANCH  15  16
ATOM     16  C   UNL A   1      31.106  28.407  24.612  1.00  0.00     0.009 A 
ATOM     17  C   UNL A   1      30.493  27.449  23.824  1.00  0.00     0.016 A 
ATOM     18  S   UNL A   1      30.557  29.981  24.211  1.00  0.00    -0.149 S 
ATOM     19  C   UNL A   1      29.588  28.013  22.881  1.00  0.00     0.012 A 
ATOM     20  C   UNL A   1      29.520  29.382  22.991  1.00  0.00     0.065 A 
ENDBRANCH  15  16
ENDBRANCH  14  15
ENDBRANCH   6   8
ENDBRANCH   4   6
ENDBRANCH   3   4
ENDBRANCH   2   3
ENDBRANCH   1   2
BRANCH   1  21
ATOM     21  O   UNL A   1      38.262  21.239  25.143  1.00  0.00    -0.374 OA
BRANCH  21  22
ATOM     22  C   UNL A   1      38.444  19.824  25.078  1.00  0.00     0.202 C 
BRANCH  22  23
ATOM     23  C   UNL A   1      39.495  19.234  26.027  1.00  0.00     0.261 C 
BRANCH  23  24
ATOM     24  O   UNL A   1      40.761  19.021  25.378  1.00  0.00    -0.460 OA
BRANCH  24  25
ATOM     25  C   UNL A   1      41.840  19.169  26.180  1.00  0.00     0.338 C 
ATOM     26  O   UNL A   1      42.683  18.323  26.456  1.00  0.00    -0.246 OA
BRANCH  25  27
ATOM     27  C   UNL A   1      41.994  20.580  26.575  1.00  0.00     0.060 A 
ATOM     28  C   UNL A   1      42.076  21.529  25.547  1.00  0.00     0.016 A 
ATOM     29  C   UNL A   1      42.127  20.968  27.910  1.00  0.00     0.016 A 
ATOM     30  C   UNL A   1      42.347  22.862  25.846  1.00  0.00     0.010 A 
ATOM     31  C   UNL A   1      42.409  22.307  28.209  1.00  0.00     0.010 A 
ATOM     32  C   UNL A   1      42.557  23.251  27.176  1.00  0.00    -0.014 A 
BRANCH  32  33
ATOM     33  C   UNL A   1      43.089  24.605  27.456  1.00  0.00     0.031 A 
ATOM     34  C   UNL A   1      42.137  25.684  27.898  1.00  0.00     0.074 A 
ATOM     35  C   UNL A   1      44.406  24.863  27.370  1.00  0.00     0.049 A 
ATOM     36  N   UNL A   1      42.384  26.929  28.215  1.00  0.00    -0.248 NA
ATOM     37  C   UNL A   1      40.718  25.304  28.000  1.00  0.00     0.031 C 
ATOM     38  C   UNL A   1      45.436  23.894  26.999  1.00  0.00     0.029 A 
ATOM     39  N   UNL A   1      45.099  26.025  27.596  1.00  0.00    -0.354 N 
ATOM     40  C   UNL A   1      41.154  27.482  28.550  1.00  0.00     0.074 A 
ATOM     41  C   UNL A   1      40.159  26.447  28.372  1.00  0.00     0.031 C 
ATOM     42  C   UNL A   1      46.634  24.504  27.023  1.00  0.00     0.029 A 
ATOM     43  C   UNL A   1      46.451  25.909  27.384  1.00  0.00     0.049 A 
ATOM     44  H   UNL A   1      44.669  26.863  27.883  1.00  0.00     0.167 HD
ATOM     45  C   UNL A   1      40.877  28.737  28.976  1.00  0.00     0.031 A 
ATOM     46  C   UNL A   1      47.426  26.834  27.460  1.00  0.00     0.031 A 
ATOM     47  C   UNL A   1      41.860  29.773  29.142  1.00  0.00     0.049 A 
ATOM     48  C   UNL A   1      47.082  28.244  27.860  1.00  0.00     0.074 A 
ATOM     49  C   UNL A   1      41.678  31.073  29.581  1.00  0.00     0.029 A 
ATOM     50  N   UNL A   1      43.210  29.629  28.867  1.00  0.00    -0.354 N 
ATOM     51  N   UNL A   1      45.919  28.746  28.200  1.00  0.00    -0.248 NA
ATOM     52  C   UNL A   1      48.188  29.212  27.891  1.00  0.00     0.031 C 
ATOM     53  C   UNL A   1      42.911  31.730  29.524  1.00  0.00     0.029 A 
ATOM     54  C   UNL A   1      43.870  30.822  29.100  1.00  0.00     0.049 A 
ATOM     55  H   UNL A   1      43.637  28.799  28.554  1.00  0.00     0.167 HD
ATOM     56  C   UNL A   1      46.159  30.079  28.511  1.00  0.00     0.074 A 
ATOM     57  C   UNL A   1      47.577  30.304  28.330  1.00  0.00     0.031 C 
ATOM     58  C   UNL A   1      45.281  31.032  28.913  1.00  0.00     0.031 A 
BRANCH  45  59
ATOM     59  C   UNL A   1      39.439  29.066  29.257  1.00  0.00    -0.014 A 
ATOM     60  C   UNL A   1      38.880  28.863  30.529  1.00  0.00     0.009 A 
ATOM     61  C   UNL A   1      38.638  29.611  28.242  1.00  0.00     0.009 A 
ATOM     62  C   UNL A   1      37.539  29.170  30.769  1.00  0.00     0.001 A 
ATOM     63  C   UNL A   1      37.305  29.940  28.490  1.00  0.00     0.001 A 
ATOM     64  C   UNL A   1      36.754  29.712  29.751  1.00  0.00     0.000 A 
ENDBRANCH  45  59
BRANCH  46  65
ATOM     65  C   UNL A   1      48.829  26.464  27.137  1.00  0.00    -0.014 A 
ATOM     66  C   UNL A   1      49.319  26.584  25.828  1.00  0.00     0.009 A 
ATOM     67  C   UNL A   1      49.678  25.967  28.137  1.00  0.00     0.009 A 
ATOM     68  C   UNL A   1      50.625  26.194  25.523  1.00  0.00     0.001 A 
ATOM     69  C   UNL A   1      50.992  25.601  27.835  1.00  0.00     0.001 A 
ATOM     70  C   UNL A   1      51.461  25.708  26.527  1.00  0.00     0.000 A 
ENDBRANCH  46  65
BRANCH  58  71
ATOM     71  C   UNL A   1      45.835  32.395  29.214  1.00  0.00    -0.014 A 
ATOM     72  C   UNL A   1      46.363  32.703  30.477  1.00  0.00     0.009 A 
ATOM     73  C   UNL A   1      45.869  33.369  28.205  1.00  0.00     0.009 A 
ATOM     74  C   UNL A   1      46.888  33.973  30.731  1.00  0.00     0.001 A 
ATOM     75  C   UNL A   1      46.417  34.628  28.454  1.00  0.00     0.001 A 
ATOM     76  C   UNL A   1      46.917  34.932  29.719  1.00  0.00     0.000 A 
ENDBRANCH  58  71
ENDBRANCH  32  33
ENDBRANCH  25  27
ENDBRANCH  24  25
ENDBRANCH  23  24
ENDBRANCH  22  23
ENDBRANCH  21  22
ENDBRANCH   1  21
TORSDOF 17
ENDMDL
