MODEL 1
REMARK VINA RESULT:      -9.9      0.000      0.000
REMARK SMILES CC(C)[NH2+][C@]1(C(=O)OCCOCCOC(=O)c2ccc(-c3c4nc(c(-c5ccccc5)c5ccc([nH]5)c(-c5ccccc5)c5nc(c(-c6ccccc6)c6ccc3[nH]6)C=C5)C=C4)cc2)CCC[C@@H](Sc2nnnn2C)C1
REMARK SMILES IDX 11 1 10 2 9 3 8 4 6 5 7 6 5 7 65 8 76 9 66 10 68 11 67 12
REMARK SMILES IDX 4 13 2 16 1 17 3 18 69 19 70 20 71 21 74 22 72 23 73 24
REMARK SMILES IDX 75 25 12 26 13 27 14 28 15 29 16 30 17 31 18 32 64 33 19 34
REMARK SMILES IDX 63 35 20 36 21 37 22 38 57 39 23 40 62 41 56 42 58 43 24 44
REMARK SMILES IDX 61 45 55 46 54 47 25 49 47 50 32 51 46 52 33 53 36 54 45 55
REMARK SMILES IDX 59 56 34 57 35 58 44 60 60 61 37 62 26 63 27 64 31 65 28 66
REMARK SMILES IDX 30 67 29 68 48 69 49 70 53 71 50 72 52 73 51 74 38 75 39 76
REMARK SMILES IDX 43 77 40 78 42 79 41 80
REMARK H PARENT 4 14 4 15 58 48 36 59
REMARK Flexibility Score: inf
ROOT
ATOM      1  O   UNL A   1      32.046  27.530  24.677  1.00  0.00    -0.374 OA
ENDROOT
BRANCH   1   2
ATOM      2  C   UNL A   1      31.952  26.258  24.047  1.00  0.00     0.202 C 
BRANCH   2   3
ATOM      3  C   UNL A   1      33.258  25.579  23.629  1.00  0.00     0.261 C 
BRANCH   3   4
ATOM      4  O   UNL A   1      33.184  24.141  23.650  1.00  0.00    -0.459 OA
BRANCH   4   5
ATOM      5  C   UNL A   1      34.384  23.506  23.535  1.00  0.00     0.368 C 
ATOM      6  O   UNL A   1      35.187  23.708  22.624  1.00  0.00    -0.245 OA
BRANCH   5   7
ATOM      7  C   UNL A   1      34.687  22.491  24.701  1.00  0.00     0.195 C 
ATOM      8  C   UNL A   1      34.320  23.169  26.035  1.00  0.00     0.081 C 
ATOM      9  C   UNL A   1      33.775  21.254  24.520  1.00  0.00     0.096 C 
ATOM     10  C   UNL A   1      34.361  22.253  27.257  1.00  0.00     0.008 C 
ATOM     11  C   UNL A   1      33.722  20.306  25.725  1.00  0.00     0.061 C 
ATOM     12  C   UNL A   1      33.489  21.021  27.064  1.00  0.00     0.015 C 
BRANCH   7  13
ATOM     13  N   UNL A   1      36.098  22.102  24.454  1.00  0.00    -0.330 N 
ATOM     14  H   UNL A   1      36.057  21.361  23.755  1.00  0.00     0.347 HD
ATOM     15  H   UNL A   1      36.505  23.016  24.249  1.00  0.00     0.347 HD
BRANCH  13  16
ATOM     16  C   UNL A   1      37.027  21.627  25.468  1.00  0.00     0.176 C 
ATOM     17  C   UNL A   1      37.663  20.360  24.870  1.00  0.00     0.075 C 
ATOM     18  C   UNL A   1      38.171  22.587  25.809  1.00  0.00     0.075 C 
ENDBRANCH  13  16
ENDBRANCH   7  13
BRANCH  11  19
ATOM     19  S   UNL A   1      32.457  19.002  25.374  1.00  0.00    -0.081 SA
BRANCH  19  20
ATOM     20  C   UNL A   1      33.326  17.820  24.460  1.00  0.00     0.209 A 
ATOM     21  N   UNL A   1      34.173  16.949  24.960  1.00  0.00    -0.102 NA
ATOM     22  N   UNL A   1      33.215  17.590  23.119  1.00  0.00    -0.224 N 
ATOM     23  N   UNL A   1      34.561  16.152  23.910  1.00  0.00    -0.023 NA
ATOM     24  N   UNL A   1      33.966  16.522  22.785  1.00  0.00    -0.045 NA
ATOM     25  C   UNL A   1      32.435  18.235  22.102  1.00  0.00     0.179 C 
ENDBRANCH  19  20
ENDBRANCH  11  19
ENDBRANCH   5   7
ENDBRANCH   4   5
ENDBRANCH   3   4
ENDBRANCH   2   3
ENDBRANCH   1   2
BRANCH   1  26
ATOM     26  C   UNL A   1      33.259  27.846  25.355  1.00  0.00     0.202 C 
BRANCH  26  27
ATOM     27  C   UNL A   1      33.322  29.190  26.092  1.00  0.00     0.261 C 
BRANCH  27  28
ATOM     28  O   UNL A   1      33.954  29.083  27.382  1.00  0.00    -0.460 OA
BRANCH  28  29
ATOM     29  C   UNL A   1      34.550  30.220  27.816  1.00  0.00     0.338 C 
ATOM     30  O   UNL A   1      34.023  31.308  28.009  1.00  0.00    -0.246 OA
BRANCH  29  31
ATOM     31  C   UNL A   1      35.934  29.934  28.230  1.00  0.00     0.060 A 
ATOM     32  C   UNL A   1      36.937  30.036  27.256  1.00  0.00     0.016 A 
ATOM     33  C   UNL A   1      36.241  29.513  29.524  1.00  0.00     0.016 A 
ATOM     34  C   UNL A   1      38.251  29.693  27.567  1.00  0.00     0.010 A 
ATOM     35  C   UNL A   1      37.558  29.154  29.830  1.00  0.00     0.010 A 
ATOM     36  C   UNL A   1      38.563  29.222  28.849  1.00  0.00    -0.014 A 
BRANCH  36  37
ATOM     37  C   UNL A   1      39.929  28.728  29.143  1.00  0.00     0.031 A 
ATOM     38  C   UNL A   1      40.927  29.644  29.790  1.00  0.00     0.074 A 
ATOM     39  C   UNL A   1      40.273  27.467  28.830  1.00  0.00     0.049 A 
ATOM     40  N   UNL A   1      42.188  29.430  30.066  1.00  0.00    -0.248 NA
ATOM     41  C   UNL A   1      40.440  30.976  30.186  1.00  0.00     0.031 C 
ATOM     42  C   UNL A   1      39.378  26.463  28.254  1.00  0.00     0.029 A 
ATOM     43  N   UNL A   1      41.478  26.821  28.941  1.00  0.00    -0.354 N 
ATOM     44  C   UNL A   1      42.649  30.598  30.660  1.00  0.00     0.074 A 
ATOM     45  C   UNL A   1      41.537  31.524  30.689  1.00  0.00     0.031 C 
ATOM     46  C   UNL A   1      40.074  25.334  28.036  1.00  0.00     0.029 A 
ATOM     47  C   UNL A   1      41.466  25.549  28.427  1.00  0.00     0.049 A 
ATOM     48  H   UNL A   1      42.274  27.230  29.352  1.00  0.00     0.167 HD
ATOM     49  C   UNL A   1      43.886  30.874  31.135  1.00  0.00     0.031 A 
ATOM     50  C   UNL A   1      42.471  24.668  28.257  1.00  0.00     0.031 A 
ATOM     51  C   UNL A   1      44.997  29.961  31.085  1.00  0.00     0.049 A 
ATOM     52  C   UNL A   1      43.861  25.039  28.693  1.00  0.00     0.074 A 
ATOM     53  C   UNL A   1      46.283  30.139  31.566  1.00  0.00     0.029 A 
ATOM     54  N   UNL A   1      44.959  28.704  30.502  1.00  0.00    -0.354 N 
ATOM     55  N   UNL A   1      44.277  26.133  29.285  1.00  0.00    -0.248 NA
ATOM     56  C   UNL A   1      44.923  24.055  28.434  1.00  0.00     0.031 C 
ATOM     57  C   UNL A   1      47.039  29.015  31.219  1.00  0.00     0.029 A 
ATOM     58  C   UNL A   1      46.209  28.113  30.572  1.00  0.00     0.049 A 
ATOM     59  H   UNL A   1      44.161  28.292  30.100  1.00  0.00     0.167 HD
ATOM     60  C   UNL A   1      45.642  25.963  29.483  1.00  0.00     0.074 A 
ATOM     61  C   UNL A   1      45.980  24.653  28.965  1.00  0.00     0.031 C 
ATOM     62  C   UNL A   1      46.535  26.816  30.041  1.00  0.00     0.031 A 
BRANCH  49  63
ATOM     63  C   UNL A   1      44.118  32.240  31.716  1.00  0.00    -0.014 A 
ATOM     64  C   UNL A   1      43.884  32.505  33.075  1.00  0.00     0.009 A 
ATOM     65  C   UNL A   1      44.623  33.263  30.901  1.00  0.00     0.009 A 
ATOM     66  C   UNL A   1      44.127  33.777  33.597  1.00  0.00     0.001 A 
ATOM     67  C   UNL A   1      44.888  34.528  31.430  1.00  0.00     0.001 A 
ATOM     68  C   UNL A   1      44.632  34.785  32.776  1.00  0.00     0.000 A 
ENDBRANCH  49  63
BRANCH  50  69
ATOM     69  C   UNL A   1      42.209  23.362  27.601  1.00  0.00    -0.014 A 
ATOM     70  C   UNL A   1      42.422  23.193  26.225  1.00  0.00     0.009 A 
ATOM     71  C   UNL A   1      41.726  22.278  28.352  1.00  0.00     0.009 A 
ATOM     72  C   UNL A   1      42.139  21.971  25.612  1.00  0.00     0.001 A 
ATOM     73  C   UNL A   1      41.469  21.049  27.741  1.00  0.00     0.001 A 
ATOM     74  C   UNL A   1      41.669  20.899  26.369  1.00  0.00     0.000 A 
ENDBRANCH  50  69
BRANCH  62  75
ATOM     75  C   UNL A   1      47.962  26.356  30.132  1.00  0.00    -0.014 A 
ATOM     76  C   UNL A   1      48.452  25.740  31.295  1.00  0.00     0.009 A 
ATOM     77  C   UNL A   1      48.815  26.498  29.027  1.00  0.00     0.009 A 
ATOM     78  C   UNL A   1      49.775  25.300  31.357  1.00  0.00     0.001 A 
ATOM     79  C   UNL A   1      50.130  26.032  29.082  1.00  0.00     0.001 A 
ATOM     80  C   UNL A   1      50.611  25.441  30.249  1.00  0.00     0.000 A 
ENDBRANCH  62  75
ENDBRANCH  36  37
ENDBRANCH  29  31
ENDBRANCH  28  29
ENDBRANCH  27  28
ENDBRANCH  26  27
ENDBRANCH   1  26
TORSDOF 18
ENDMDL
MODEL 2
REMARK VINA RESULT:      -9.6      3.481      5.106
REMARK SMILES CC(C)[NH2+][C@]1(C(=O)OCCOCCOC(=O)c2ccc(-c3c4nc(c(-c5ccccc5)c5ccc([nH]5)c(-c5ccccc5)c5nc(c(-c6ccccc6)c6ccc3[nH]6)C=C5)C=C4)cc2)CCC[C@@H](Sc2nnnn2C)C1
REMARK SMILES IDX 11 1 10 2 9 3 8 4 6 5 7 6 5 7 65 8 76 9 66 10 68 11 67 12
REMARK SMILES IDX 4 13 2 16 1 17 3 18 69 19 70 20 71 21 74 22 72 23 73 24
REMARK SMILES IDX 75 25 12 26 13 27 14 28 15 29 16 30 17 31 18 32 64 33 19 34
REMARK SMILES IDX 63 35 20 36 21 37 22 38 57 39 23 40 62 41 56 42 58 43 24 44
REMARK SMILES IDX 61 45 55 46 54 47 25 49 47 50 32 51 46 52 33 53 36 54 45 55
REMARK SMILES IDX 59 56 34 57 35 58 44 60 60 61 37 62 26 63 27 64 31 65 28 66
REMARK SMILES IDX 30 67 29 68 48 69 49 70 53 71 50 72 52 73 51 74 38 75 39 76
REMARK SMILES IDX 43 77 40 78 42 79 41 80
REMARK H PARENT 4 14 4 15 58 48 36 59
REMARK Flexibility Score: inf
ROOT
ATOM      1  O   UNL A   1      32.698  31.058  27.172  1.00  0.00    -0.374 OA
ENDROOT
BRANCH   1   2
ATOM      2  C   UNL A   1      32.804  29.971  26.259  1.00  0.00     0.202 C 
BRANCH   2   3
ATOM      3  C   UNL A   1      31.821  28.810  26.426  1.00  0.00     0.261 C 
BRANCH   3   4
ATOM      4  O   UNL A   1      32.462  27.567  26.770  1.00  0.00    -0.459 OA
BRANCH   4   5
ATOM      5  C   UNL A   1      31.759  26.450  26.432  1.00  0.00     0.368 C 
ATOM      6  O   UNL A   1      30.585  26.253  26.744  1.00  0.00    -0.245 OA
BRANCH   5   7
ATOM      7  C   UNL A   1      32.573  25.418  25.563  1.00  0.00     0.195 C 
ATOM      8  C   UNL A   1      34.050  25.855  25.556  1.00  0.00     0.081 C 
ATOM      9  C   UNL A   1      32.481  24.030  26.241  1.00  0.00     0.096 C 
ATOM     10  C   UNL A   1      35.016  24.854  24.926  1.00  0.00     0.008 C 
ATOM     11  C   UNL A   1      33.456  22.978  25.698  1.00  0.00     0.061 C 
ATOM     12  C   UNL A   1      34.902  23.480  25.573  1.00  0.00     0.015 C 
BRANCH   7  13
ATOM     13  N   UNL A   1      31.824  25.390  24.281  1.00  0.00    -0.330 N 
ATOM     14  H   UNL A   1      31.858  24.420  23.969  1.00  0.00     0.347 HD
ATOM     15  H   UNL A   1      30.952  25.834  24.571  1.00  0.00     0.347 HD
BRANCH  13  16
ATOM     16  C   UNL A   1      32.141  26.186  23.106  1.00  0.00     0.176 C 
ATOM     17  C   UNL A   1      32.564  25.170  22.031  1.00  0.00     0.075 C 
ATOM     18  C   UNL A   1      30.976  26.995  22.527  1.00  0.00     0.075 C 
ENDBRANCH  13  16
ENDBRANCH   7  13
BRANCH  11  19
ATOM     19  S   UNL A   1      33.307  21.462  26.748  1.00  0.00    -0.081 SA
BRANCH  19  20
ATOM     20  C   UNL A   1      33.203  20.174  25.600  1.00  0.00     0.209 A 
ATOM     21  N   UNL A   1      32.092  19.583  25.224  1.00  0.00    -0.102 NA
ATOM     22  N   UNL A   1      34.238  19.636  24.889  1.00  0.00    -0.224 N 
ATOM     23  N   UNL A   1      32.450  18.690  24.243  1.00  0.00    -0.023 NA
ATOM     24  N   UNL A   1      33.756  18.729  24.017  1.00  0.00    -0.045 NA
ATOM     25  C   UNL A   1      35.645  19.911  24.897  1.00  0.00     0.179 C 
ENDBRANCH  19  20
ENDBRANCH  11  19
ENDBRANCH   5   7
ENDBRANCH   4   5
ENDBRANCH   3   4
ENDBRANCH   2   3
ENDBRANCH   1   2
BRANCH   1  26
ATOM     26  C   UNL A   1      31.702  32.043  26.916  1.00  0.00     0.202 C 
BRANCH  26  27
ATOM     27  C   UNL A   1      32.153  33.508  26.893  1.00  0.00     0.261 C 
BRANCH  27  28
ATOM     28  O   UNL A   1      32.282  34.067  28.215  1.00  0.00    -0.460 OA
BRANCH  28  29
ATOM     29  C   UNL A   1      33.404  34.799  28.413  1.00  0.00     0.338 C 
ATOM     30  O   UNL A   1      33.503  36.019  28.427  1.00  0.00    -0.246 OA
BRANCH  29  31
ATOM     31  C   UNL A   1      34.513  33.919  28.818  1.00  0.00     0.060 A 
ATOM     32  C   UNL A   1      34.194  32.768  29.551  1.00  0.00     0.016 A 
ATOM     33  C   UNL A   1      35.843  34.241  28.544  1.00  0.00     0.016 A 
ATOM     34  C   UNL A   1      35.207  31.944  30.036  1.00  0.00     0.010 A 
ATOM     35  C   UNL A   1      36.859  33.421  29.046  1.00  0.00     0.010 A 
ATOM     36  C   UNL A   1      36.548  32.282  29.810  1.00  0.00    -0.014 A 
BRANCH  36  37
ATOM     37  C   UNL A   1      37.627  31.486  30.439  1.00  0.00     0.031 A 
ATOM     38  C   UNL A   1      37.986  31.726  31.877  1.00  0.00     0.074 A 
ATOM     39  C   UNL A   1      38.284  30.556  29.725  1.00  0.00     0.049 A 
ATOM     40  N   UNL A   1      38.941  31.187  32.591  1.00  0.00    -0.248 NA
ATOM     41  C   UNL A   1      37.155  32.693  32.611  1.00  0.00     0.031 C 
ATOM     42  C   UNL A   1      37.990  30.188  28.339  1.00  0.00     0.029 A 
ATOM     43  N   UNL A   1      39.348  29.759  30.067  1.00  0.00    -0.354 N 
ATOM     44  C   UNL A   1      38.833  31.754  33.855  1.00  0.00     0.074 A 
ATOM     45  C   UNL A   1      37.730  32.690  33.805  1.00  0.00     0.031 C 
ATOM     46  C   UNL A   1      38.873  29.256  27.940  1.00  0.00     0.029 A 
ATOM     47  C   UNL A   1      39.810  28.988  29.030  1.00  0.00     0.049 A 
ATOM     48  H   UNL A   1      39.740  29.742  30.969  1.00  0.00     0.167 HD
ATOM     49  C   UNL A   1      39.587  31.517  34.955  1.00  0.00     0.031 A 
ATOM     50  C   UNL A   1      40.887  28.184  28.955  1.00  0.00     0.031 A 
ATOM     51  C   UNL A   1      40.698  30.603  34.997  1.00  0.00     0.049 A 
ATOM     52  C   UNL A   1      41.774  28.021  30.159  1.00  0.00     0.074 A 
ATOM     53  C   UNL A   1      41.504  30.275  36.073  1.00  0.00     0.029 A 
ATOM     54  N   UNL A   1      41.170  29.887  33.909  1.00  0.00    -0.354 N 
ATOM     55  N   UNL A   1      41.641  28.535  31.357  1.00  0.00    -0.248 NA
ATOM     56  C   UNL A   1      42.963  27.170  29.998  1.00  0.00     0.031 C 
ATOM     57  C   UNL A   1      42.504  29.408  35.621  1.00  0.00     0.029 A 
ATOM     58  C   UNL A   1      42.284  29.151  34.277  1.00  0.00     0.049 A 
ATOM     59  H   UNL A   1      40.772  29.898  33.009  1.00  0.00     0.167 HD
ATOM     60  C   UNL A   1      42.717  28.058  32.097  1.00  0.00     0.074 A 
ATOM     61  C   UNL A   1      43.482  27.199  31.216  1.00  0.00     0.031 C 
ATOM     62  C   UNL A   1      43.043  28.311  33.388  1.00  0.00     0.031 A 
BRANCH  49  63
ATOM     63  C   UNL A   1      39.260  32.293  36.199  1.00  0.00    -0.014 A 
ATOM     64  C   UNL A   1      38.279  31.849  37.100  1.00  0.00     0.009 A 
ATOM     65  C   UNL A   1      39.980  33.459  36.498  1.00  0.00     0.009 A 
ATOM     66  C   UNL A   1      38.007  32.576  38.262  1.00  0.00     0.001 A 
ATOM     67  C   UNL A   1      39.723  34.171  37.672  1.00  0.00     0.001 A 
ATOM     68  C   UNL A   1      38.732  33.732  38.548  1.00  0.00     0.000 A 
ENDBRANCH  49  63
BRANCH  50  69
ATOM     69  C   UNL A   1      41.217  27.503  27.677  1.00  0.00    -0.014 A 
ATOM     70  C   UNL A   1      40.739  26.212  27.407  1.00  0.00     0.009 A 
ATOM     71  C   UNL A   1      42.027  28.141  26.724  1.00  0.00     0.009 A 
ATOM     72  C   UNL A   1      41.084  25.567  26.218  1.00  0.00     0.001 A 
ATOM     73  C   UNL A   1      42.347  27.504  25.524  1.00  0.00     0.001 A 
ATOM     74  C   UNL A   1      41.881  26.214  25.275  1.00  0.00     0.000 A 
ENDBRANCH  50  69
BRANCH  62  75
ATOM     75  C   UNL A   1      44.274  27.642  33.931  1.00  0.00    -0.014 A 
ATOM     76  C   UNL A   1      44.212  26.356  34.490  1.00  0.00     0.009 A 
ATOM     77  C   UNL A   1      45.517  28.286  33.840  1.00  0.00     0.009 A 
ATOM     78  C   UNL A   1      45.367  25.740  34.972  1.00  0.00     0.001 A 
ATOM     79  C   UNL A   1      46.676  27.656  34.298  1.00  0.00     0.001 A 
ATOM     80  C   UNL A   1      46.599  26.387  34.871  1.00  0.00     0.000 A 
ENDBRANCH  62  75
ENDBRANCH  36  37
ENDBRANCH  29  31
ENDBRANCH  28  29
ENDBRANCH  27  28
ENDBRANCH  26  27
ENDBRANCH   1  26
TORSDOF 18
ENDMDL
MODEL 3
REMARK VINA RESULT:      -9.5      2.946      7.931
REMARK SMILES CC(C)[NH2+][C@]1(C(=O)OCCOCCOC(=O)c2ccc(-c3c4nc(c(-c5ccccc5)c5ccc([nH]5)c(-c5ccccc5)c5nc(c(-c6ccccc6)c6ccc3[nH]6)C=C5)C=C4)cc2)CCC[C@@H](Sc2nnnn2C)C1
REMARK SMILES IDX 11 1 10 2 9 3 8 4 6 5 7 6 5 7 65 8 76 9 66 10 68 11 67 12
REMARK SMILES IDX 4 13 2 16 1 17 3 18 69 19 70 20 71 21 74 22 72 23 73 24
REMARK SMILES IDX 75 25 12 26 13 27 14 28 15 29 16 30 17 31 18 32 64 33 19 34
REMARK SMILES IDX 63 35 20 36 21 37 22 38 57 39 23 40 62 41 56 42 58 43 24 44
REMARK SMILES IDX 61 45 55 46 54 47 25 49 47 50 32 51 46 52 33 53 36 54 45 55
REMARK SMILES IDX 59 56 34 57 35 58 44 60 60 61 37 62 26 63 27 64 31 65 28 66
REMARK SMILES IDX 30 67 29 68 48 69 49 70 53 71 50 72 52 73 51 74 38 75 39 76
REMARK SMILES IDX 43 77 40 78 42 79 41 80
REMARK H PARENT 4 14 4 15 58 48 36 59
REMARK Flexibility Score: inf
ROOT
ATOM      1  O   UNL A   1      37.720  21.332  24.238  1.00  0.00    -0.374 OA
ENDROOT
BRANCH   1   2
ATOM      2  C   UNL A   1      36.891  22.482  24.363  1.00  0.00     0.202 C 
BRANCH   2   3
ATOM      3  C   UNL A   1      36.883  23.204  25.712  1.00  0.00     0.261 C 
BRANCH   3   4
ATOM      4  O   UNL A   1      35.786  24.125  25.858  1.00  0.00    -0.459 OA
BRANCH   4   5
ATOM      5  C   UNL A   1      34.614  23.557  26.257  1.00  0.00     0.368 C 
ATOM      6  O   UNL A   1      34.482  22.898  27.288  1.00  0.00    -0.245 OA
BRANCH   5   7
ATOM      7  C   UNL A   1      33.402  23.841  25.292  1.00  0.00     0.195 C 
ATOM      8  C   UNL A   1      32.130  23.995  26.148  1.00  0.00     0.081 C 
ATOM      9  C   UNL A   1      33.662  25.184  24.566  1.00  0.00     0.096 C 
ATOM     10  C   UNL A   1      30.896  24.475  25.389  1.00  0.00     0.008 C 
ATOM     11  C   UNL A   1      32.453  25.760  23.817  1.00  0.00     0.061 C 
ATOM     12  C   UNL A   1      31.162  25.778  24.649  1.00  0.00     0.015 C 
BRANCH   7  13
ATOM     13  N   UNL A   1      33.481  22.729  24.312  1.00  0.00    -0.330 N 
ATOM     14  H   UNL A   1      33.088  23.100  23.447  1.00  0.00     0.347 HD
ATOM     15  H   UNL A   1      34.468  22.484  24.395  1.00  0.00     0.347 HD
BRANCH  13  16
ATOM     16  C   UNL A   1      32.874  21.418  24.481  1.00  0.00     0.176 C 
ATOM     17  C   UNL A   1      32.202  21.107  23.132  1.00  0.00     0.075 C 
ATOM     18  C   UNL A   1      33.852  20.275  24.771  1.00  0.00     0.075 C 
ENDBRANCH  13  16
ENDBRANCH   7  13
BRANCH  11  19
ATOM     19  S   UNL A   1      32.920  27.430  23.174  1.00  0.00    -0.081 SA
BRANCH  19  20
ATOM     20  C   UNL A   1      31.403  28.234  22.974  1.00  0.00     0.209 A 
ATOM     21  N   UNL A   1      30.550  28.010  22.001  1.00  0.00    -0.102 NA
ATOM     22  N   UNL A   1      30.858  29.159  23.819  1.00  0.00    -0.224 N 
ATOM     23  N   UNL A   1      29.451  28.789  22.273  1.00  0.00    -0.023 NA
ATOM     24  N   UNL A   1      29.621  29.480  23.391  1.00  0.00    -0.045 NA
ATOM     25  C   UNL A   1      31.351  29.754  25.028  1.00  0.00     0.179 C 
ENDBRANCH  19  20
ENDBRANCH  11  19
ENDBRANCH   5   7
ENDBRANCH   4   5
ENDBRANCH   3   4
ENDBRANCH   2   3
ENDBRANCH   1   2
BRANCH   1  26
ATOM     26  C   UNL A   1      38.103  20.659  25.433  1.00  0.00     0.202 C 
BRANCH  26  27
ATOM     27  C   UNL A   1      39.197  19.590  25.316  1.00  0.00     0.261 C 
BRANCH  27  28
ATOM     28  O   UNL A   1      40.065  19.561  26.465  1.00  0.00    -0.460 OA
BRANCH  28  29
ATOM     29  C   UNL A   1      41.385  19.674  26.181  1.00  0.00     0.338 C 
ATOM     30  O   UNL A   1      42.074  18.899  25.530  1.00  0.00    -0.246 OA
BRANCH  29  31
ATOM     31  C   UNL A   1      41.879  20.994  26.607  1.00  0.00     0.060 A 
ATOM     32  C   UNL A   1      41.873  21.278  27.979  1.00  0.00     0.016 A 
ATOM     33  C   UNL A   1      42.280  21.959  25.683  1.00  0.00     0.016 A 
ATOM     34  C   UNL A   1      42.247  22.541  28.433  1.00  0.00     0.010 A 
ATOM     35  C   UNL A   1      42.639  23.232  26.140  1.00  0.00     0.010 A 
ATOM     36  C   UNL A   1      42.604  23.535  27.513  1.00  0.00    -0.014 A 
BRANCH  36  37
ATOM     37  C   UNL A   1      42.869  24.916  27.980  1.00  0.00     0.031 A 
ATOM     38  C   UNL A   1      44.262  25.312  28.374  1.00  0.00     0.074 A 
ATOM     39  C   UNL A   1      41.866  25.808  28.054  1.00  0.00     0.049 A 
ATOM     40  N   UNL A   1      44.690  26.444  28.873  1.00  0.00    -0.248 NA
ATOM     41  C   UNL A   1      45.316  24.304  28.173  1.00  0.00     0.031 C 
ATOM     42  C   UNL A   1      40.483  25.563  27.645  1.00  0.00     0.029 A 
ATOM     43  N   UNL A   1      41.858  27.100  28.515  1.00  0.00    -0.354 N 
ATOM     44  C   UNL A   1      46.058  26.285  29.053  1.00  0.00     0.074 A 
ATOM     45  C   UNL A   1      46.387  24.941  28.626  1.00  0.00     0.031 C 
ATOM     46  C   UNL A   1      39.753  26.662  27.899  1.00  0.00     0.029 A 
ATOM     47  C   UNL A   1      40.611  27.672  28.518  1.00  0.00     0.049 A 
ATOM     48  H   UNL A   1      42.669  27.571  28.813  1.00  0.00     0.167 HD
ATOM     49  C   UNL A   1      46.957  27.176  29.533  1.00  0.00     0.031 A 
ATOM     50  C   UNL A   1      40.199  28.861  28.997  1.00  0.00     0.031 A 
ATOM     51  C   UNL A   1      46.625  28.504  29.979  1.00  0.00     0.049 A 
ATOM     52  C   UNL A   1      41.198  29.792  29.627  1.00  0.00     0.074 A 
ATOM     53  C   UNL A   1      47.471  29.490  30.455  1.00  0.00     0.029 A 
ATOM     54  N   UNL A   1      45.341  29.023  30.021  1.00  0.00    -0.354 N 
ATOM     55  N   UNL A   1      42.494  29.644  29.760  1.00  0.00    -0.248 NA
ATOM     56  C   UNL A   1      40.677  31.052  30.177  1.00  0.00     0.031 C 
ATOM     57  C   UNL A   1      46.692  30.584  30.845  1.00  0.00     0.029 A 
ATOM     58  C   UNL A   1      45.366  30.300  30.557  1.00  0.00     0.049 A 
ATOM     59  H   UNL A   1      44.532  28.555  29.715  1.00  0.00     0.167 HD
ATOM     60  C   UNL A   1      42.945  30.796  30.392  1.00  0.00     0.074 A 
ATOM     61  C   UNL A   1      41.787  31.641  30.600  1.00  0.00     0.031 C 
ATOM     62  C   UNL A   1      44.205  31.123  30.769  1.00  0.00     0.031 A 
BRANCH  49  63
ATOM     63  C   UNL A   1      48.387  26.730  29.641  1.00  0.00    -0.014 A 
ATOM     64  C   UNL A   1      49.315  26.997  28.622  1.00  0.00     0.009 A 
ATOM     65  C   UNL A   1      48.822  26.074  30.803  1.00  0.00     0.009 A 
ATOM     66  C   UNL A   1      50.645  26.590  28.754  1.00  0.00     0.001 A 
ATOM     67  C   UNL A   1      50.157  25.689  30.943  1.00  0.00     0.001 A 
ATOM     68  C   UNL A   1      51.065  25.941  29.915  1.00  0.00     0.000 A 
ENDBRANCH  49  63
BRANCH  50  69
ATOM     69  C   UNL A   1      38.760  29.224  28.943  1.00  0.00    -0.014 A 
ATOM     70  C   UNL A   1      38.199  29.768  27.778  1.00  0.00     0.009 A 
ATOM     71  C   UNL A   1      37.941  29.040  30.069  1.00  0.00     0.009 A 
ATOM     72  C   UNL A   1      36.853  30.138  27.749  1.00  0.00     0.001 A 
ATOM     73  C   UNL A   1      36.588  29.385  30.028  1.00  0.00     0.001 A 
ATOM     74  C   UNL A   1      36.048  29.942  28.870  1.00  0.00     0.000 A 
ENDBRANCH  50  69
BRANCH  62  75
ATOM     75  C   UNL A   1      44.400  32.457  31.435  1.00  0.00    -0.014 A 
ATOM     76  C   UNL A   1      44.628  33.617  30.678  1.00  0.00     0.009 A 
ATOM     77  C   UNL A   1      44.309  32.561  32.831  1.00  0.00     0.009 A 
ATOM     78  C   UNL A   1      44.787  34.851  31.310  1.00  0.00     0.001 A 
ATOM     79  C   UNL A   1      44.441  33.802  33.458  1.00  0.00     0.001 A 
ATOM     80  C   UNL A   1      44.688  34.944  32.698  1.00  0.00     0.000 A 
ENDBRANCH  62  75
ENDBRANCH  36  37
ENDBRANCH  29  31
ENDBRANCH  28  29
ENDBRANCH  27  28
ENDBRANCH  26  27
ENDBRANCH   1  26
TORSDOF 18
ENDMDL
