MODEL 1
REMARK VINA RESULT:      -9.0      0.000      0.000
REMARK SMILES CC[C@]1(C(=O)OCCOCCOC(=O)c2ccc(-c3c4nc(c(-c5ccccc5)c5ccc([nH]5)c(-c5ccccc5)c5nc(c(-c6ccccc6)c6ccc3[nH]6)C=C5)C=C4)cc2)CCN(C(=O)[C@]2(C)CCCO2)C1
REMARK SMILES IDX 9 1 8 2 7 3 6 4 4 5 5 6 3 7 63 8 74 9 64 10 65 11 2 12 1 13
REMARK SMILES IDX 66 14 67 15 68 16 70 17 73 18 69 19 71 20 72 21 10 22 11 23
REMARK SMILES IDX 12 24 13 25 14 26 15 27 16 28 62 29 17 30 61 31 18 32 19 33
REMARK SMILES IDX 20 34 55 35 21 36 60 37 54 38 56 39 22 40 59 41 53 42 52 43
REMARK SMILES IDX 23 45 45 46 30 47 44 48 31 49 34 50 43 51 57 52 32 53 33 54
REMARK SMILES IDX 42 56 58 57 35 58 24 59 25 60 29 61 26 62 28 63 27 64 46 65
REMARK SMILES IDX 47 66 51 67 48 68 50 69 49 70 36 71 37 72 41 73 38 74 40 75
REMARK SMILES IDX 39 76
REMARK H PARENT 56 44 34 55
REMARK Flexibility Score: inf
ROOT
ATOM      1  O   UNL A   1      38.435  21.516  24.971  1.00  0.00    -0.374 OA
ENDROOT
BRANCH   1   2
ATOM      2  C   UNL A   1      38.306  22.340  26.130  1.00  0.00     0.202 C 
BRANCH   2   3
ATOM      3  C   UNL A   1      37.585  23.677  25.934  1.00  0.00     0.261 C 
BRANCH   3   4
ATOM      4  O   UNL A   1      36.168  23.459  25.835  1.00  0.00    -0.463 OA
BRANCH   4   5
ATOM      5  C   UNL A   1      35.616  23.658  24.609  1.00  0.00     0.314 C 
ATOM      6  O   UNL A   1      36.194  23.421  23.557  1.00  0.00    -0.252 OA
BRANCH   5   7
ATOM      7  C   UNL A   1      34.193  24.213  24.691  1.00  0.00     0.087 C 
ATOM      8  C   UNL A   1      33.432  23.858  25.992  1.00  0.00     0.042 C 
ATOM      9  C   UNL A   1      34.301  25.740  24.805  1.00  0.00     0.138 C 
ATOM     10  C   UNL A   1      32.486  25.026  26.190  1.00  0.00     0.121 C 
ATOM     11  N   UNL A   1      33.232  26.160  25.707  1.00  0.00    -0.339 N 
BRANCH   7  12
ATOM     12  C   UNL A   1      33.352  23.658  23.507  1.00  0.00     0.017 C 
ATOM     13  C   UNL A   1      32.940  24.637  22.416  1.00  0.00     0.005 C 
ENDBRANCH   7  12
BRANCH  11  14
ATOM     14  C   UNL A   1      33.067  27.493  26.032  1.00  0.00     0.254 C 
ATOM     15  O   UNL A   1      33.642  27.951  27.025  1.00  0.00    -0.272 OA
BRANCH  14  16
ATOM     16  C   UNL A   1      32.202  28.412  25.109  1.00  0.00     0.144 C 
ATOM     17  C   UNL A   1      30.928  27.790  24.534  1.00  0.00     0.048 C 
ATOM     18  O   UNL A   1      33.021  28.822  23.998  1.00  0.00    -0.365 OA
ATOM     19  C   UNL A   1      31.821  29.677  25.896  1.00  0.00     0.053 C 
ATOM     20  C   UNL A   1      31.093  27.829  23.029  1.00  0.00     0.032 C 
ATOM     21  C   UNL A   1      32.289  28.717  22.782  1.00  0.00     0.162 C 
ENDBRANCH  14  16
ENDBRANCH  11  14
ENDBRANCH   5   7
ENDBRANCH   4   5
ENDBRANCH   3   4
ENDBRANCH   2   3
ENDBRANCH   1   2
BRANCH   1  22
ATOM     22  C   UNL A   1      38.110  20.135  25.111  1.00  0.00     0.202 C 
BRANCH  22  23
ATOM     23  C   UNL A   1      39.193  19.226  25.712  1.00  0.00     0.261 C 
BRANCH  23  24
ATOM     24  O   UNL A   1      40.502  19.493  25.176  1.00  0.00    -0.460 OA
BRANCH  24  25
ATOM     25  C   UNL A   1      41.503  19.478  26.092  1.00  0.00     0.338 C 
ATOM     26  O   UNL A   1      42.262  18.562  26.350  1.00  0.00    -0.246 OA
BRANCH  25  27
ATOM     27  C   UNL A   1      41.684  20.832  26.649  1.00  0.00     0.060 A 
ATOM     28  C   UNL A   1      42.079  21.849  25.769  1.00  0.00     0.016 A 
ATOM     29  C   UNL A   1      41.534  21.090  28.012  1.00  0.00     0.016 A 
ATOM     30  C   UNL A   1      42.335  23.131  26.254  1.00  0.00     0.010 A 
ATOM     31  C   UNL A   1      41.810  22.373  28.498  1.00  0.00     0.010 A 
ATOM     32  C   UNL A   1      42.225  23.394  27.625  1.00  0.00    -0.014 A 
BRANCH  32  33
ATOM     33  C   UNL A   1      42.629  24.716  28.161  1.00  0.00     0.031 A 
ATOM     34  C   UNL A   1      41.591  25.787  28.346  1.00  0.00     0.074 A 
ATOM     35  C   UNL A   1      43.912  24.955  28.486  1.00  0.00     0.049 A 
ATOM     36  N   UNL A   1      41.746  27.033  28.714  1.00  0.00    -0.248 NA
ATOM     37  C   UNL A   1      40.194  25.403  28.085  1.00  0.00     0.031 C 
ATOM     38  C   UNL A   1      45.001  23.983  28.407  1.00  0.00     0.029 A 
ATOM     39  N   UNL A   1      44.517  26.102  28.938  1.00  0.00    -0.354 N 
ATOM     40  C   UNL A   1      40.470  27.581  28.733  1.00  0.00     0.074 A 
ATOM     41  C   UNL A   1      39.555  26.541  28.314  1.00  0.00     0.031 C 
ATOM     42  C   UNL A   1      46.147  24.581  28.776  1.00  0.00     0.029 A 
ATOM     43  C   UNL A   1      45.878  25.985  29.077  1.00  0.00     0.049 A 
ATOM     44  H   UNL A   1      44.022  26.928  29.143  1.00  0.00     0.167 HD
ATOM     45  C   UNL A   1      40.096  28.837  29.074  1.00  0.00     0.031 A 
ATOM     46  C   UNL A   1      46.806  26.915  29.374  1.00  0.00     0.031 A 
ATOM     47  C   UNL A   1      41.006  29.878  29.468  1.00  0.00     0.049 A 
ATOM     48  C   UNL A   1      46.374  28.335  29.629  1.00  0.00     0.074 A 
ATOM     49  C   UNL A   1      40.719  31.183  29.830  1.00  0.00     0.029 A 
ATOM     50  N   UNL A   1      42.381  29.734  29.544  1.00  0.00    -0.354 N 
ATOM     51  N   UNL A   1      45.164  28.839  29.658  1.00  0.00    -0.248 NA
ATOM     52  C   UNL A   1      47.439  29.316  29.888  1.00  0.00     0.031 C 
ATOM     53  C   UNL A   1      41.927  31.844  30.072  1.00  0.00     0.029 A 
ATOM     54  C   UNL A   1      42.961  30.935  29.914  1.00  0.00     0.049 A 
ATOM     55  H   UNL A   1      42.874  28.901  29.363  1.00  0.00     0.167 HD
ATOM     56  C   UNL A   1      45.321  30.187  29.951  1.00  0.00     0.074 A 
ATOM     57  C   UNL A   1      46.740  30.420  30.116  1.00  0.00     0.031 C 
ATOM     58  C   UNL A   1      44.375  31.150  30.070  1.00  0.00     0.031 A 
BRANCH  45  59
ATOM     59  C   UNL A   1      38.632  29.167  29.013  1.00  0.00    -0.014 A 
ATOM     60  C   UNL A   1      37.819  29.063  30.151  1.00  0.00     0.009 A 
ATOM     61  C   UNL A   1      38.073  29.647  27.818  1.00  0.00     0.009 A 
ATOM     62  C   UNL A   1      36.469  29.417  30.089  1.00  0.00     0.001 A 
ATOM     63  C   UNL A   1      36.729  30.022  27.765  1.00  0.00     0.001 A 
ATOM     64  C   UNL A   1      35.928  29.901  28.899  1.00  0.00     0.000 A 
ENDBRANCH  45  59
BRANCH  46  65
ATOM     65  C   UNL A   1      48.249  26.558  29.383  1.00  0.00    -0.014 A 
ATOM     66  C   UNL A   1      49.022  26.650  28.216  1.00  0.00     0.009 A 
ATOM     67  C   UNL A   1      48.850  26.075  30.557  1.00  0.00     0.009 A 
ATOM     68  C   UNL A   1      50.358  26.238  28.218  1.00  0.00     0.001 A 
ATOM     69  C   UNL A   1      50.193  25.692  30.565  1.00  0.00     0.001 A 
ATOM     70  C   UNL A   1      50.942  25.763  29.392  1.00  0.00     0.000 A 
ENDBRANCH  46  65
BRANCH  58  71
ATOM     71  C   UNL A   1      44.841  32.538  30.407  1.00  0.00    -0.014 A 
ATOM     72  C   UNL A   1      45.133  33.467  29.396  1.00  0.00     0.009 A 
ATOM     73  C   UNL A   1      44.940  32.935  31.749  1.00  0.00     0.009 A 
ATOM     74  C   UNL A   1      45.538  34.762  29.726  1.00  0.00     0.001 A 
ATOM     75  C   UNL A   1      45.319  34.237  32.075  1.00  0.00     0.001 A 
ATOM     76  C   UNL A   1      45.625  35.147  31.064  1.00  0.00     0.000 A 
ENDBRANCH  58  71
ENDBRANCH  32  33
ENDBRANCH  25  27
ENDBRANCH  24  25
ENDBRANCH  23  24
ENDBRANCH  22  23
ENDBRANCH   1  22
TORSDOF 17
ENDMDL
MODEL 2
REMARK VINA RESULT:      -9.0      3.076      8.775
REMARK SMILES CC[C@]1(C(=O)OCCOCCOC(=O)c2ccc(-c3c4nc(c(-c5ccccc5)c5ccc([nH]5)c(-c5ccccc5)c5nc(c(-c6ccccc6)c6ccc3[nH]6)C=C5)C=C4)cc2)CCN(C(=O)[C@]2(C)CCCO2)C1
REMARK SMILES IDX 9 1 8 2 7 3 6 4 4 5 5 6 3 7 63 8 74 9 64 10 65 11 2 12 1 13
REMARK SMILES IDX 66 14 67 15 68 16 70 17 73 18 69 19 71 20 72 21 10 22 11 23
REMARK SMILES IDX 12 24 13 25 14 26 15 27 16 28 62 29 17 30 61 31 18 32 19 33
REMARK SMILES IDX 20 34 55 35 21 36 60 37 54 38 56 39 22 40 59 41 53 42 52 43
REMARK SMILES IDX 23 45 45 46 30 47 44 48 31 49 34 50 43 51 57 52 32 53 33 54
REMARK SMILES IDX 42 56 58 57 35 58 24 59 25 60 29 61 26 62 28 63 27 64 46 65
REMARK SMILES IDX 47 66 51 67 48 68 50 69 49 70 36 71 37 72 41 73 38 74 40 75
REMARK SMILES IDX 39 76
REMARK H PARENT 56 44 34 55
REMARK Flexibility Score: inf
ROOT
ATOM      1  O   UNL A   1      33.634  30.892  27.372  1.00  0.00    -0.374 OA
ENDROOT
BRANCH   1   2
ATOM      2  C   UNL A   1      34.004  29.538  27.112  1.00  0.00     0.202 C 
BRANCH   2   3
ATOM      3  C   UNL A   1      33.166  28.795  26.068  1.00  0.00     0.261 C 
BRANCH   3   4
ATOM      4  O   UNL A   1      33.115  27.394  26.387  1.00  0.00    -0.463 OA
BRANCH   4   5
ATOM      5  C   UNL A   1      31.876  26.866  26.565  1.00  0.00     0.314 C 
ATOM      6  O   UNL A   1      31.096  27.238  27.431  1.00  0.00    -0.252 OA
BRANCH   5   7
ATOM      7  C   UNL A   1      31.566  25.753  25.562  1.00  0.00     0.087 C 
ATOM      8  C   UNL A   1      32.471  25.742  24.305  1.00  0.00     0.042 C 
ATOM      9  C   UNL A   1      31.942  24.420  26.223  1.00  0.00     0.138 C 
ATOM     10  C   UNL A   1      32.520  24.279  23.907  1.00  0.00     0.121 C 
ATOM     11  N   UNL A   1      32.492  23.577  25.165  1.00  0.00    -0.339 N 
BRANCH   7  12
ATOM     12  C   UNL A   1      30.100  25.898  25.064  1.00  0.00     0.017 C 
ATOM     13  C   UNL A   1      29.836  26.877  23.929  1.00  0.00     0.005 C 
ENDBRANCH   7  12
BRANCH  11  14
ATOM     14  C   UNL A   1      32.943  22.302  25.442  1.00  0.00     0.254 C 
ATOM     15  O   UNL A   1      32.262  21.329  25.098  1.00  0.00    -0.272 OA
BRANCH  14  16
ATOM     16  C   UNL A   1      34.331  22.106  26.135  1.00  0.00     0.144 C 
ATOM     17  C   UNL A   1      35.334  23.250  25.979  1.00  0.00     0.048 C 
ATOM     18  O   UNL A   1      34.939  20.922  25.585  1.00  0.00    -0.365 OA
ATOM     19  C   UNL A   1      34.099  21.854  27.634  1.00  0.00     0.053 C 
ATOM     20  C   UNL A   1      36.531  22.655  25.266  1.00  0.00     0.032 C 
ATOM     21  C   UNL A   1      36.311  21.162  25.297  1.00  0.00     0.162 C 
ENDBRANCH  14  16
ENDBRANCH  11  14
ENDBRANCH   5   7
ENDBRANCH   4   5
ENDBRANCH   3   4
ENDBRANCH   2   3
ENDBRANCH   1   2
BRANCH   1  22
ATOM     22  C   UNL A   1      32.358  31.324  26.903  1.00  0.00     0.202 C 
BRANCH  22  23
ATOM     23  C   UNL A   1      31.931  32.751  27.276  1.00  0.00     0.261 C 
BRANCH  23  24
ATOM     24  O   UNL A   1      33.027  33.684  27.250  1.00  0.00    -0.460 OA
BRANCH  24  25
ATOM     25  C   UNL A   1      33.271  34.305  28.433  1.00  0.00     0.338 C 
ATOM     26  O   UNL A   1      32.546  35.078  29.031  1.00  0.00    -0.246 OA
BRANCH  25  27
ATOM     27  C   UNL A   1      34.513  33.771  29.023  1.00  0.00     0.060 A 
ATOM     28  C   UNL A   1      35.707  33.967  28.315  1.00  0.00     0.016 A 
ATOM     29  C   UNL A   1      34.505  33.038  30.210  1.00  0.00     0.016 A 
ATOM     30  C   UNL A   1      36.898  33.421  28.789  1.00  0.00     0.010 A 
ATOM     31  C   UNL A   1      35.699  32.476  30.674  1.00  0.00     0.010 A 
ATOM     32  C   UNL A   1      36.897  32.652  29.959  1.00  0.00    -0.014 A 
BRANCH  32  33
ATOM     33  C   UNL A   1      38.133  31.957  30.391  1.00  0.00     0.031 A 
ATOM     34  C   UNL A   1      39.047  32.621  31.381  1.00  0.00     0.074 A 
ATOM     35  C   UNL A   1      38.433  30.739  29.907  1.00  0.00     0.049 A 
ATOM     36  N   UNL A   1      40.215  32.228  31.821  1.00  0.00    -0.248 NA
ATOM     37  C   UNL A   1      38.583  33.895  31.955  1.00  0.00     0.031 C 
ATOM     38  C   UNL A   1      37.601  29.965  28.986  1.00  0.00     0.029 A 
ATOM     39  N   UNL A   1      39.532  29.943  30.116  1.00  0.00    -0.354 N 
ATOM     40  C   UNL A   1      40.624  33.201  32.724  1.00  0.00     0.074 A 
ATOM     41  C   UNL A   1      39.593  34.216  32.751  1.00  0.00     0.031 C 
ATOM     42  C   UNL A   1      38.231  28.815  28.691  1.00  0.00     0.029 A 
ATOM     43  C   UNL A   1      39.525  28.790  29.370  1.00  0.00     0.049 A 
ATOM     44  H   UNL A   1      40.256  30.177  30.742  1.00  0.00     0.167 HD
ATOM     45  C   UNL A   1      41.756  33.241  33.467  1.00  0.00     0.031 A 
ATOM     46  C   UNL A   1      40.471  27.844  29.220  1.00  0.00     0.031 A 
ATOM     47  C   UNL A   1      42.791  32.244  33.424  1.00  0.00     0.049 A 
ATOM     48  C   UNL A   1      41.773  27.976  29.966  1.00  0.00     0.074 A 
ATOM     49  C   UNL A   1      43.976  32.200  34.140  1.00  0.00     0.029 A 
ATOM     50  N   UNL A   1      42.770  31.120  32.616  1.00  0.00    -0.354 N 
ATOM     51  N   UNL A   1      42.143  28.893  30.826  1.00  0.00    -0.248 NA
ATOM     52  C   UNL A   1      42.790  26.944  29.713  1.00  0.00     0.031 C 
ATOM     53  C   UNL A   1      44.696  31.077  33.724  1.00  0.00     0.029 A 
ATOM     54  C   UNL A   1      43.936  30.393  32.789  1.00  0.00     0.049 A 
ATOM     55  H   UNL A   1      42.035  30.874  32.008  1.00  0.00     0.167 HD
ATOM     56  C   UNL A   1      43.425  28.540  31.228  1.00  0.00     0.074 A 
ATOM     57  C   UNL A   1      43.761  27.313  30.536  1.00  0.00     0.031 C 
ATOM     58  C   UNL A   1      44.255  29.177  32.090  1.00  0.00     0.031 A 
BRANCH  45  59
ATOM     59  C   UNL A   1      41.947  34.418  34.379  1.00  0.00    -0.014 A 
ATOM     60  C   UNL A   1      42.523  35.609  33.911  1.00  0.00     0.009 A 
ATOM     61  C   UNL A   1      41.489  34.358  35.704  1.00  0.00     0.009 A 
ATOM     62  C   UNL A   1      42.653  36.711  34.760  1.00  0.00     0.001 A 
ATOM     63  C   UNL A   1      41.599  35.468  36.544  1.00  0.00     0.001 A 
ATOM     64  C   UNL A   1      42.186  36.641  36.072  1.00  0.00     0.000 A 
ENDBRANCH  45  59
BRANCH  46  65
ATOM     65  C   UNL A   1      40.260  26.715  28.275  1.00  0.00    -0.014 A 
ATOM     66  C   UNL A   1      40.755  26.771  26.964  1.00  0.00     0.009 A 
ATOM     67  C   UNL A   1      39.516  25.592  28.672  1.00  0.00     0.009 A 
ATOM     68  C   UNL A   1      40.483  25.738  26.061  1.00  0.00     0.001 A 
ATOM     69  C   UNL A   1      39.272  24.548  27.777  1.00  0.00     0.001 A 
ATOM     70  C   UNL A   1      39.746  24.628  26.470  1.00  0.00     0.000 A 
ENDBRANCH  46  65
BRANCH  58  71
ATOM     71  C   UNL A   1      45.597  28.553  32.345  1.00  0.00    -0.014 A 
ATOM     72  C   UNL A   1      45.766  27.588  33.349  1.00  0.00     0.009 A 
ATOM     73  C   UNL A   1      46.693  28.898  31.537  1.00  0.00     0.009 A 
ATOM     74  C   UNL A   1      47.014  26.997  33.555  1.00  0.00     0.001 A 
ATOM     75  C   UNL A   1      47.932  28.286  31.728  1.00  0.00     0.001 A 
ATOM     76  C   UNL A   1      48.094  27.342  32.742  1.00  0.00     0.000 A 
ENDBRANCH  58  71
ENDBRANCH  32  33
ENDBRANCH  25  27
ENDBRANCH  24  25
ENDBRANCH  23  24
ENDBRANCH  22  23
ENDBRANCH   1  22
TORSDOF 17
ENDMDL
MODEL 3
REMARK VINA RESULT:      -8.9      2.318      3.347
REMARK SMILES CC[C@]1(C(=O)OCCOCCOC(=O)c2ccc(-c3c4nc(c(-c5ccccc5)c5ccc([nH]5)c(-c5ccccc5)c5nc(c(-c6ccccc6)c6ccc3[nH]6)C=C5)C=C4)cc2)CCN(C(=O)[C@]2(C)CCCO2)C1
REMARK SMILES IDX 9 1 8 2 7 3 6 4 4 5 5 6 3 7 63 8 74 9 64 10 65 11 2 12 1 13
REMARK SMILES IDX 66 14 67 15 68 16 70 17 73 18 69 19 71 20 72 21 10 22 11 23
REMARK SMILES IDX 12 24 13 25 14 26 15 27 16 28 62 29 17 30 61 31 18 32 19 33
REMARK SMILES IDX 20 34 55 35 21 36 60 37 54 38 56 39 22 40 59 41 53 42 52 43
REMARK SMILES IDX 23 45 45 46 30 47 44 48 31 49 34 50 43 51 57 52 32 53 33 54
REMARK SMILES IDX 42 56 58 57 35 58 24 59 25 60 29 61 26 62 28 63 27 64 46 65
REMARK SMILES IDX 47 66 51 67 48 68 50 69 49 70 36 71 37 72 41 73 38 74 40 75
REMARK SMILES IDX 39 76
REMARK H PARENT 56 44 34 55
REMARK Flexibility Score: inf
ROOT
ATOM      1  O   UNL A   1      34.481  21.046  26.575  1.00  0.00    -0.374 OA
ENDROOT
BRANCH   1   2
ATOM      2  C   UNL A   1      33.233  21.710  26.774  1.00  0.00     0.202 C 
BRANCH   2   3
ATOM      3  C   UNL A   1      32.327  21.833  25.547  1.00  0.00     0.261 C 
BRANCH   3   4
ATOM      4  O   UNL A   1      31.988  23.212  25.325  1.00  0.00    -0.463 OA
BRANCH   4   5
ATOM      5  C   UNL A   1      32.323  23.723  24.111  1.00  0.00     0.314 C 
ATOM      6  O   UNL A   1      32.910  23.088  23.245  1.00  0.00    -0.252 OA
BRANCH   5   7
ATOM      7  C   UNL A   1      31.886  25.180  23.948  1.00  0.00     0.087 C 
ATOM      8  C   UNL A   1      30.389  25.444  24.244  1.00  0.00     0.042 C 
ATOM      9  C   UNL A   1      32.567  25.991  25.059  1.00  0.00     0.138 C 
ATOM     10  C   UNL A   1      30.366  26.875  24.748  1.00  0.00     0.121 C 
ATOM     11  N   UNL A   1      31.601  27.003  25.479  1.00  0.00    -0.339 N 
BRANCH   7  12
ATOM     12  C   UNL A   1      32.148  25.639  22.486  1.00  0.00     0.017 C 
ATOM     13  C   UNL A   1      33.425  26.421  22.212  1.00  0.00     0.005 C 
ENDBRANCH   7  12
BRANCH  11  14
ATOM     14  C   UNL A   1      31.909  27.895  26.488  1.00  0.00     0.254 C 
ATOM     15  O   UNL A   1      31.392  27.752  27.602  1.00  0.00    -0.272 OA
BRANCH  14  16
ATOM     16  C   UNL A   1      32.945  29.035  26.223  1.00  0.00     0.144 C 
ATOM     17  C   UNL A   1      34.402  28.723  26.570  1.00  0.00     0.048 C 
ATOM     18  O   UNL A   1      32.553  30.181  27.001  1.00  0.00    -0.365 OA
ATOM     19  C   UNL A   1      32.866  29.433  24.739  1.00  0.00     0.053 C 
ATOM     20  C   UNL A   1      34.799  29.732  27.627  1.00  0.00     0.032 C 
ATOM     21  C   UNL A   1      33.687  30.753  27.641  1.00  0.00     0.162 C 
ENDBRANCH  14  16
ENDBRANCH  11  14
ENDBRANCH   5   7
ENDBRANCH   4   5
ENDBRANCH   3   4
ENDBRANCH   2   3
ENDBRANCH   1   2
BRANCH   1  22
ATOM     22  C   UNL A   1      34.877  20.786  25.230  1.00  0.00     0.202 C 
BRANCH  22  23
ATOM     23  C   UNL A   1      36.366  20.964  24.900  1.00  0.00     0.261 C 
BRANCH  23  24
ATOM     24  O   UNL A   1      37.066  21.740  25.890  1.00  0.00    -0.460 OA
BRANCH  24  25
ATOM     25  C   UNL A   1      38.399  21.493  25.965  1.00  0.00     0.338 C 
ATOM     26  O   UNL A   1      39.002  20.527  25.537  1.00  0.00    -0.246 OA
BRANCH  25  27
ATOM     27  C   UNL A   1      39.091  22.679  26.504  1.00  0.00     0.060 A 
ATOM     28  C   UNL A   1      38.633  23.940  26.098  1.00  0.00     0.016 A 
ATOM     29  C   UNL A   1      40.204  22.563  27.337  1.00  0.00     0.016 A 
ATOM     30  C   UNL A   1      39.295  25.092  26.518  1.00  0.00     0.010 A 
ATOM     31  C   UNL A   1      40.878  23.720  27.742  1.00  0.00     0.010 A 
ATOM     32  C   UNL A   1      40.436  24.988  27.323  1.00  0.00    -0.014 A 
BRANCH  32  33
ATOM     33  C   UNL A   1      41.222  26.200  27.658  1.00  0.00     0.031 A 
ATOM     34  C   UNL A   1      40.613  27.255  28.538  1.00  0.00     0.074 A 
ATOM     35  C   UNL A   1      42.471  26.353  27.184  1.00  0.00     0.049 A 
ATOM     36  N   UNL A   1      41.092  28.425  28.877  1.00  0.00    -0.248 NA
ATOM     37  C   UNL A   1      39.293  26.952  29.114  1.00  0.00     0.031 C 
ATOM     38  C   UNL A   1      43.193  25.377  26.369  1.00  0.00     0.029 A 
ATOM     39  N   UNL A   1      43.350  27.400  27.313  1.00  0.00    -0.354 N 
ATOM     40  C   UNL A   1      40.137  28.996  29.708  1.00  0.00     0.074 A 
ATOM     41  C   UNL A   1      39.039  28.057  29.801  1.00  0.00     0.031 C 
ATOM     42  C   UNL A   1      44.398  25.882  26.051  1.00  0.00     0.029 A 
ATOM     43  C   UNL A   1      44.514  27.228  26.605  1.00  0.00     0.049 A 
ATOM     44  H   UNL A   1      43.163  28.197  27.861  1.00  0.00     0.167 HD
ATOM     45  C   UNL A   1      40.174  30.193  30.340  1.00  0.00     0.031 A 
ATOM     46  C   UNL A   1      45.539  28.077  26.395  1.00  0.00     0.031 A 
ATOM     47  C   UNL A   1      41.254  31.136  30.230  1.00  0.00     0.049 A 
ATOM     48  C   UNL A   1      45.498  29.451  27.011  1.00  0.00     0.074 A 
ATOM     49  C   UNL A   1      41.379  32.377  30.833  1.00  0.00     0.029 A 
ATOM     50  N   UNL A   1      42.390  30.947  29.461  1.00  0.00    -0.354 N 
ATOM     51  N   UNL A   1      44.597  29.975  27.806  1.00  0.00    -0.248 NA
ATOM     52  C   UNL A   1      46.616  30.353  26.695  1.00  0.00     0.031 C 
ATOM     53  C   UNL A   1      42.568  32.961  30.384  1.00  0.00     0.029 A 
ATOM     54  C   UNL A   1      43.207  32.062  29.545  1.00  0.00     0.049 A 
ATOM     55  H   UNL A   1      42.588  30.140  28.933  1.00  0.00     0.167 HD
ATOM     56  C   UNL A   1      45.045  31.257  28.095  1.00  0.00     0.074 A 
ATOM     57  C   UNL A   1      46.310  31.425  27.412  1.00  0.00     0.031 C 
ATOM     58  C   UNL A   1      44.460  32.214  28.856  1.00  0.00     0.031 A 
BRANCH  45  59
ATOM     59  C   UNL A   1      38.997  30.565  31.194  1.00  0.00    -0.014 A 
ATOM     60  C   UNL A   1      37.871  31.193  30.641  1.00  0.00     0.009 A 
ATOM     61  C   UNL A   1      38.987  30.226  32.556  1.00  0.00     0.009 A 
ATOM     62  C   UNL A   1      36.765  31.492  31.440  1.00  0.00     0.001 A 
ATOM     63  C   UNL A   1      37.871  30.506  33.348  1.00  0.00     0.001 A 
ATOM     64  C   UNL A   1      36.764  31.143  32.790  1.00  0.00     0.000 A 
ENDBRANCH  45  59
BRANCH  46  65
ATOM     65  C   UNL A   1      46.666  27.686  25.509  1.00  0.00    -0.014 A 
ATOM     66  C   UNL A   1      46.656  28.009  24.144  1.00  0.00     0.009 A 
ATOM     67  C   UNL A   1      47.742  26.942  26.021  1.00  0.00     0.009 A 
ATOM     68  C   UNL A   1      47.684  27.569  23.305  1.00  0.00     0.001 A 
ATOM     69  C   UNL A   1      48.783  26.530  25.187  1.00  0.00     0.001 A 
ATOM     70  C   UNL A   1      48.747  26.833  23.827  1.00  0.00     0.000 A 
ENDBRANCH  46  65
BRANCH  58  71
ATOM     71  C   UNL A   1      45.187  33.520  29.002  1.00  0.00    -0.014 A 
ATOM     72  C   UNL A   1      46.144  33.705  30.012  1.00  0.00     0.009 A 
ATOM     73  C   UNL A   1      44.949  34.558  28.088  1.00  0.00     0.009 A 
ATOM     74  C   UNL A   1      46.832  34.916  30.118  1.00  0.00     0.001 A 
ATOM     75  C   UNL A   1      45.657  35.757  28.180  1.00  0.00     0.001 A 
ATOM     76  C   UNL A   1      46.591  35.938  29.199  1.00  0.00     0.000 A 
ENDBRANCH  58  71
ENDBRANCH  32  33
ENDBRANCH  25  27
ENDBRANCH  24  25
ENDBRANCH  23  24
ENDBRANCH  22  23
ENDBRANCH   1  22
TORSDOF 17
ENDMDL
