MODEL 1
REMARK VINA RESULT:     -10.0      0.000      0.000
REMARK SMILES NC(=O)c1ccc(N[C@H]2C=C[C@@H](C(=O)OCCOCCOC(=O)c3ccc(-c4c5nc(c(-c6ccccc6)c6ccc([nH]6)c(-c6ccccc6)c6nc(c(-c7ccccc7)c7ccc4[nH]7)C=C6)C=C5)cc3)C2)cc1Cl
REMARK SMILES IDX 17 1 16 2 15 3 13 4 14 5 12 6 9 7 10 8 72 9 11 10 8 11 7 13
REMARK SMILES IDX 4 14 5 15 74 16 6 17 73 18 75 19 2 20 1 21 3 24 18 25 19 26
REMARK SMILES IDX 20 27 21 28 22 29 23 30 24 31 25 32 71 33 26 34 70 35 27 36
REMARK SMILES IDX 28 37 29 38 64 39 30 40 69 41 63 42 65 43 31 44 68 45 62 46
REMARK SMILES IDX 61 47 32 49 54 50 39 51 53 52 40 53 43 54 52 55 66 56 41 57
REMARK SMILES IDX 42 58 51 60 67 61 44 62 33 63 34 64 38 65 35 66 37 67 36 68
REMARK SMILES IDX 55 69 56 70 60 71 57 72 59 73 58 74 45 75 46 76 50 77 47 78
REMARK SMILES IDX 49 79 48 80
REMARK H PARENT 8 12 1 22 1 23 65 48 43 59
REMARK Flexibility Score: inf
ROOT
ATOM      1  C   UNL A   1      31.861  26.539  26.330  1.00  0.00     0.202 C 
ENDROOT
BRANCH   1   2
ATOM      2  C   UNL A   1      31.753  25.014  26.397  1.00  0.00     0.261 C 
BRANCH   2   3
ATOM      3  O   UNL A   1      33.069  24.441  26.486  1.00  0.00    -0.463 OA
BRANCH   3   4
ATOM      4  C   UNL A   1      33.131  23.100  26.678  1.00  0.00     0.312 C 
ATOM      5  O   UNL A   1      32.867  22.537  27.735  1.00  0.00    -0.252 OA
BRANCH   4   6
ATOM      6  C   UNL A   1      33.551  22.337  25.424  1.00  0.00     0.124 C 
ATOM      7  C   UNL A   1      33.517  22.690  22.996  1.00  0.00     0.103 C 
ATOM      8  C   UNL A   1      34.814  23.110  23.591  1.00  0.00    -0.006 C 
ATOM      9  C   UNL A   1      32.617  22.381  24.197  1.00  0.00     0.048 C 
ATOM     10  C   UNL A   1      34.845  22.895  24.911  1.00  0.00    -0.014 C 
BRANCH   7  11
ATOM     11  N   UNL A   1      32.990  23.681  22.077  1.00  0.00    -0.379 N 
ATOM     12  H   UNL A   1      32.966  23.399  21.134  1.00  0.00     0.161 HD
BRANCH  11  13
ATOM     13  C   UNL A   1      32.517  24.954  22.313  1.00  0.00     0.036 A 
ATOM     14  C   UNL A   1      31.673  27.649  22.708  1.00  0.00     0.058 A 
ATOM     15  C   UNL A   1      30.768  26.583  22.788  1.00  0.00     0.017 A 
ATOM     16  C   UNL A   1      33.011  27.362  22.430  1.00  0.00     0.055 A 
ATOM     17  C   UNL A   1      31.188  25.264  22.595  1.00  0.00     0.026 A 
ATOM     18  C   UNL A   1      33.414  26.029  22.232  1.00  0.00     0.047 A 
ATOM     19  Cl  UNL A   1      34.256  28.560  22.342  1.00  0.00    -0.083 Cl
BRANCH  14  20
ATOM     20  C   UNL A   1      31.103  28.999  22.952  1.00  0.00     0.250 C 
ATOM     21  N   UNL A   1      31.021  29.872  21.909  1.00  0.00    -0.366 N 
ATOM     22  H   UNL A   1      30.646  30.772  22.050  1.00  0.00     0.159 HD
ATOM     23  H   UNL A   1      31.337  29.604  21.017  1.00  0.00     0.159 HD
ATOM     24  O   UNL A   1      30.666  29.299  24.058  1.00  0.00    -0.269 OA
ENDBRANCH  14  20
ENDBRANCH  11  13
ENDBRANCH   7  11
ENDBRANCH   4   6
ENDBRANCH   3   4
ENDBRANCH   2   3
ENDBRANCH   1   2
BRANCH   1  25
ATOM     25  O   UNL A   1      33.165  27.048  26.036  1.00  0.00    -0.374 OA
BRANCH  25  26
ATOM     26  C   UNL A   1      33.346  28.462  26.097  1.00  0.00     0.202 C 
BRANCH  26  27
ATOM     27  C   UNL A   1      33.751  29.040  27.458  1.00  0.00     0.261 C 
BRANCH  27  28
ATOM     28  O   UNL A   1      33.798  30.477  27.465  1.00  0.00    -0.460 OA
BRANCH  28  29
ATOM     29  C   UNL A   1      34.655  31.000  28.373  1.00  0.00     0.338 C 
ATOM     30  O   UNL A   1      34.437  31.920  29.153  1.00  0.00    -0.246 OA
BRANCH  29  31
ATOM     31  C   UNL A   1      35.909  30.226  28.427  1.00  0.00     0.060 A 
ATOM     32  C   UNL A   1      36.257  29.661  29.660  1.00  0.00     0.016 A 
ATOM     33  C   UNL A   1      36.783  30.149  27.342  1.00  0.00     0.016 A 
ATOM     34  C   UNL A   1      37.509  29.078  29.835  1.00  0.00     0.010 A 
ATOM     35  C   UNL A   1      38.044  29.566  27.521  1.00  0.00     0.010 A 
ATOM     36  C   UNL A   1      38.430  29.066  28.779  1.00  0.00    -0.014 A 
BRANCH  36  37
ATOM     37  C   UNL A   1      39.833  28.655  29.044  1.00  0.00     0.031 A 
ATOM     38  C   UNL A   1      40.778  29.625  29.703  1.00  0.00     0.074 A 
ATOM     39  C   UNL A   1      40.262  27.418  28.739  1.00  0.00     0.049 A 
ATOM     40  N   UNL A   1      42.033  29.460  30.037  1.00  0.00    -0.248 NA
ATOM     41  C   UNL A   1      40.236  30.953  30.033  1.00  0.00     0.031 C 
ATOM     42  C   UNL A   1      39.450  26.367  28.132  1.00  0.00     0.029 A 
ATOM     43  N   UNL A   1      41.504  26.848  28.873  1.00  0.00    -0.354 N 
ATOM     44  C   UNL A   1      42.424  30.649  30.638  1.00  0.00     0.074 A 
ATOM     45  C   UNL A   1      41.293  31.550  30.565  1.00  0.00     0.031 C 
ATOM     46  C   UNL A   1      40.227  25.295  27.899  1.00  0.00     0.029 A 
ATOM     47  C   UNL A   1      41.584  25.581  28.349  1.00  0.00     0.049 A 
ATOM     48  H   UNL A   1      42.264  27.304  29.302  1.00  0.00     0.167 HD
ATOM     49  C   UNL A   1      43.604  30.958  31.227  1.00  0.00     0.031 A 
ATOM     50  C   UNL A   1      42.636  24.749  28.231  1.00  0.00     0.031 A 
ATOM     51  C   UNL A   1      44.737  30.074  31.297  1.00  0.00     0.049 A 
ATOM     52  C   UNL A   1      43.967  25.149  28.803  1.00  0.00     0.074 A 
ATOM     53  C   UNL A   1      45.961  30.287  31.907  1.00  0.00     0.029 A 
ATOM     54  N   UNL A   1      44.787  28.810  30.732  1.00  0.00    -0.354 N 
ATOM     55  N   UNL A   1      44.304  26.256  29.419  1.00  0.00    -0.248 NA
ATOM     56  C   UNL A   1      45.055  24.167  28.692  1.00  0.00     0.031 C 
ATOM     57  C   UNL A   1      46.770  29.168  31.670  1.00  0.00     0.029 A 
ATOM     58  C   UNL A   1      46.029  28.240  30.956  1.00  0.00     0.049 A 
ATOM     59  H   UNL A   1      44.049  28.381  30.242  1.00  0.00     0.167 HD
ATOM     60  C   UNL A   1      45.624  26.082  29.814  1.00  0.00     0.074 A 
ATOM     61  C   UNL A   1      46.028  24.767  29.362  1.00  0.00     0.031 C 
ATOM     62  C   UNL A   1      46.423  26.931  30.506  1.00  0.00     0.031 A 
BRANCH  49  63
ATOM     63  C   UNL A   1      43.726  32.322  31.844  1.00  0.00    -0.014 A 
ATOM     64  C   UNL A   1      44.172  33.420  31.089  1.00  0.00     0.009 A 
ATOM     65  C   UNL A   1      43.364  32.521  33.184  1.00  0.00     0.009 A 
ATOM     66  C   UNL A   1      44.286  34.682  31.675  1.00  0.00     0.001 A 
ATOM     67  C   UNL A   1      43.455  33.790  33.760  1.00  0.00     0.001 A 
ATOM     68  C   UNL A   1      43.924  34.866  33.008  1.00  0.00     0.000 A 
ENDBRANCH  49  63
BRANCH  50  69
ATOM     69  C   UNL A   1      42.473  23.443  27.545  1.00  0.00    -0.014 A 
ATOM     70  C   UNL A   1      42.759  23.309  26.178  1.00  0.00     0.009 A 
ATOM     71  C   UNL A   1      42.012  22.325  28.256  1.00  0.00     0.009 A 
ATOM     72  C   UNL A   1      42.557  22.088  25.531  1.00  0.00     0.001 A 
ATOM     73  C   UNL A   1      41.833  21.100  27.612  1.00  0.00     0.001 A 
ATOM     74  C   UNL A   1      42.096  20.985  26.248  1.00  0.00     0.000 A 
ENDBRANCH  50  69
BRANCH  62  75
ATOM     75  C   UNL A   1      47.795  26.437  30.868  1.00  0.00    -0.014 A 
ATOM     76  C   UNL A   1      48.047  25.800  32.093  1.00  0.00     0.009 A 
ATOM     77  C   UNL A   1      48.852  26.604  29.958  1.00  0.00     0.009 A 
ATOM     78  C   UNL A   1      49.339  25.378  32.416  1.00  0.00     0.001 A 
ATOM     79  C   UNL A   1      50.136  26.157  30.272  1.00  0.00     0.001 A 
ATOM     80  C   UNL A   1      50.381  25.554  31.505  1.00  0.00     0.000 A 
ENDBRANCH  62  75
ENDBRANCH  36  37
ENDBRANCH  29  31
ENDBRANCH  28  29
ENDBRANCH  27  28
ENDBRANCH  26  27
ENDBRANCH  25  26
ENDBRANCH   1  25
TORSDOF 17
ENDMDL
MODEL 2
REMARK VINA RESULT:     -10.0      4.144      6.664
REMARK SMILES NC(=O)c1ccc(N[C@H]2C=C[C@@H](C(=O)OCCOCCOC(=O)c3ccc(-c4c5nc(c(-c6ccccc6)c6ccc([nH]6)c(-c6ccccc6)c6nc(c(-c7ccccc7)c7ccc4[nH]7)C=C6)C=C5)cc3)C2)cc1Cl
REMARK SMILES IDX 17 1 16 2 15 3 13 4 14 5 12 6 9 7 10 8 72 9 11 10 8 11 7 13
REMARK SMILES IDX 4 14 5 15 74 16 6 17 73 18 75 19 2 20 1 21 3 24 18 25 19 26
REMARK SMILES IDX 20 27 21 28 22 29 23 30 24 31 25 32 71 33 26 34 70 35 27 36
REMARK SMILES IDX 28 37 29 38 64 39 30 40 69 41 63 42 65 43 31 44 68 45 62 46
REMARK SMILES IDX 61 47 32 49 54 50 39 51 53 52 40 53 43 54 52 55 66 56 41 57
REMARK SMILES IDX 42 58 51 60 67 61 44 62 33 63 34 64 38 65 35 66 37 67 36 68
REMARK SMILES IDX 55 69 56 70 60 71 57 72 59 73 58 74 45 75 46 76 50 77 47 78
REMARK SMILES IDX 49 79 48 80
REMARK H PARENT 8 12 1 22 1 23 65 48 43 59
REMARK Flexibility Score: inf
ROOT
ATOM      1  C   UNL A   1      35.245  32.967  28.871  1.00  0.00     0.202 C 
ENDROOT
BRANCH   1   2
ATOM      2  C   UNL A   1      35.336  31.749  27.948  1.00  0.00     0.261 C 
BRANCH   2   3
ATOM      3  O   UNL A   1      34.027  31.181  27.770  1.00  0.00    -0.463 OA
BRANCH   3   4
ATOM      4  C   UNL A   1      33.980  29.922  27.268  1.00  0.00     0.312 C 
ATOM      5  O   UNL A   1      34.926  29.142  27.261  1.00  0.00    -0.252 OA
BRANCH   4   6
ATOM      6  C   UNL A   1      32.605  29.551  26.716  1.00  0.00     0.124 C 
ATOM      7  C   UNL A   1      31.638  27.801  25.295  1.00  0.00     0.103 C 
ATOM      8  C   UNL A   1      31.535  27.453  26.737  1.00  0.00    -0.006 C 
ATOM      9  C   UNL A   1      32.513  29.059  25.258  1.00  0.00     0.048 C 
ATOM     10  C   UNL A   1      32.037  28.416  27.516  1.00  0.00    -0.014 C 
BRANCH   7  11
ATOM     11  N   UNL A   1      32.130  26.693  24.498  1.00  0.00    -0.379 N 
ATOM     12  H   UNL A   1      31.991  26.788  23.528  1.00  0.00     0.161 HD
BRANCH  11  13
ATOM     13  C   UNL A   1      32.760  25.528  24.881  1.00  0.00     0.036 A 
ATOM     14  C   UNL A   1      33.932  23.031  25.599  1.00  0.00     0.058 A 
ATOM     15  C   UNL A   1      34.708  24.190  25.473  1.00  0.00     0.017 A 
ATOM     16  C   UNL A   1      32.559  23.124  25.366  1.00  0.00     0.055 A 
ATOM     17  C   UNL A   1      34.127  25.412  25.122  1.00  0.00     0.026 A 
ATOM     18  C   UNL A   1      31.993  24.360  25.007  1.00  0.00     0.047 A 
ATOM     19  Cl  UNL A   1      31.462  21.795  25.523  1.00  0.00    -0.083 Cl
BRANCH  14  20
ATOM     20  C   UNL A   1      34.668  21.803  25.995  1.00  0.00     0.250 C 
ATOM     21  N   UNL A   1      34.961  21.613  27.313  1.00  0.00    -0.366 N 
ATOM     22  H   UNL A   1      35.448  20.806  27.597  1.00  0.00     0.159 HD
ATOM     23  H   UNL A   1      34.687  22.283  27.980  1.00  0.00     0.159 HD
ATOM     24  O   UNL A   1      34.957  20.952  25.160  1.00  0.00    -0.269 OA
ENDBRANCH  14  20
ENDBRANCH  11  13
ENDBRANCH   7  11
ENDBRANCH   4   6
ENDBRANCH   3   4
ENDBRANCH   2   3
ENDBRANCH   1   2
BRANCH   1  25
ATOM     25  O   UNL A   1      34.727  34.156  28.267  1.00  0.00    -0.374 OA
BRANCH  25  26
ATOM     26  C   UNL A   1      33.389  34.528  28.593  1.00  0.00     0.202 C 
BRANCH  26  27
ATOM     27  C   UNL A   1      33.224  35.563  29.712  1.00  0.00     0.261 C 
BRANCH  27  28
ATOM     28  O   UNL A   1      32.540  35.039  30.863  1.00  0.00    -0.460 OA
BRANCH  28  29
ATOM     29  C   UNL A   1      32.878  35.637  32.029  1.00  0.00     0.338 C 
ATOM     30  O   UNL A   1      32.277  36.540  32.600  1.00  0.00    -0.246 OA
BRANCH  29  31
ATOM     31  C   UNL A   1      34.036  34.971  32.651  1.00  0.00     0.060 A 
ATOM     32  C   UNL A   1      35.285  35.588  32.498  1.00  0.00     0.016 A 
ATOM     33  C   UNL A   1      33.936  33.721  33.265  1.00  0.00     0.016 A 
ATOM     34  C   UNL A   1      36.445  34.928  32.893  1.00  0.00     0.010 A 
ATOM     35  C   UNL A   1      35.105  33.058  33.658  1.00  0.00     0.010 A 
ATOM     36  C   UNL A   1      36.368  33.639  33.437  1.00  0.00    -0.014 A 
BRANCH  36  37
ATOM     37  C   UNL A   1      37.617  32.860  33.636  1.00  0.00     0.031 A 
ATOM     38  C   UNL A   1      38.459  33.110  34.859  1.00  0.00     0.074 A 
ATOM     39  C   UNL A   1      37.989  31.910  32.760  1.00  0.00     0.049 A 
ATOM     40  N   UNL A   1      39.573  32.528  35.230  1.00  0.00    -0.248 NA
ATOM     41  C   UNL A   1      37.982  34.146  35.789  1.00  0.00     0.031 C 
ATOM     42  C   UNL A   1      37.254  31.538  31.554  1.00  0.00     0.029 A 
ATOM     43  N   UNL A   1      39.099  31.103  32.740  1.00  0.00    -0.354 N 
ATOM     44  C   UNL A   1      39.915  33.108  36.444  1.00  0.00     0.074 A 
ATOM     45  C   UNL A   1      38.929  34.131  36.717  1.00  0.00     0.031 C 
ATOM     46  C   UNL A   1      37.959  30.611  30.883  1.00  0.00     0.029 A 
ATOM     47  C   UNL A   1      39.185  30.318  31.617  1.00  0.00     0.049 A 
ATOM     48  H   UNL A   1      39.771  31.090  33.460  1.00  0.00     0.167 HD
ATOM     49  C   UNL A   1      40.939  32.799  37.277  1.00  0.00     0.031 A 
ATOM     50  C   UNL A   1      40.149  29.469  31.215  1.00  0.00     0.031 A 
ATOM     51  C   UNL A   1      41.930  31.790  37.012  1.00  0.00     0.049 A 
ATOM     52  C   UNL A   1      41.331  29.211  32.107  1.00  0.00     0.074 A 
ATOM     53  C   UNL A   1      42.982  31.382  37.814  1.00  0.00     0.029 A 
ATOM     54  N   UNL A   1      41.997  31.036  35.852  1.00  0.00    -0.354 N 
ATOM     55  N   UNL A   1      41.610  29.727  33.279  1.00  0.00    -0.248 NA
ATOM     56  C   UNL A   1      42.314  28.227  31.632  1.00  0.00     0.031 C 
ATOM     57  C   UNL A   1      43.713  30.412  37.118  1.00  0.00     0.029 A 
ATOM     58  C   UNL A   1      43.086  30.182  35.904  1.00  0.00     0.049 A 
ATOM     59  H   UNL A   1      41.364  31.098  35.100  1.00  0.00     0.167 HD
ATOM     60  C   UNL A   1      42.770  29.092  33.705  1.00  0.00     0.074 A 
ATOM     61  C   UNL A   1      43.145  28.160  32.663  1.00  0.00     0.031 C 
ATOM     62  C   UNL A   1      43.452  29.255  34.865  1.00  0.00     0.031 A 
BRANCH  49  63
ATOM     63  C   UNL A   1      41.034  33.572  38.561  1.00  0.00    -0.014 A 
ATOM     64  C   UNL A   1      41.762  34.771  38.631  1.00  0.00     0.009 A 
ATOM     65  C   UNL A   1      40.367  33.114  39.707  1.00  0.00     0.009 A 
ATOM     66  C   UNL A   1      41.848  35.478  39.831  1.00  0.00     0.001 A 
ATOM     67  C   UNL A   1      40.434  33.837  40.901  1.00  0.00     0.001 A 
ATOM     68  C   UNL A   1      41.182  35.012  40.964  1.00  0.00     0.000 A 
ENDBRANCH  49  63
BRANCH  50  69
ATOM     69  C   UNL A   1      40.036  28.789  29.900  1.00  0.00    -0.014 A 
ATOM     70  C   UNL A   1      40.477  29.417  28.726  1.00  0.00     0.009 A 
ATOM     71  C   UNL A   1      39.467  27.509  29.814  1.00  0.00     0.009 A 
ATOM     72  C   UNL A   1      40.323  28.789  27.488  1.00  0.00     0.001 A 
ATOM     73  C   UNL A   1      39.335  26.874  28.578  1.00  0.00     0.001 A 
ATOM     74  C   UNL A   1      39.754  27.518  27.415  1.00  0.00     0.000 A 
ENDBRANCH  50  69
BRANCH  62  75
ATOM     75  C   UNL A   1      44.639  28.364  35.093  1.00  0.00    -0.014 A 
ATOM     76  C   UNL A   1      45.933  28.751  34.711  1.00  0.00     0.009 A 
ATOM     77  C   UNL A   1      44.457  27.117  35.714  1.00  0.00     0.009 A 
ATOM     78  C   UNL A   1      47.013  27.888  34.908  1.00  0.00     0.001 A 
ATOM     79  C   UNL A   1      45.543  26.269  35.934  1.00  0.00     0.001 A 
ATOM     80  C   UNL A   1      46.819  26.650  35.521  1.00  0.00     0.000 A 
ENDBRANCH  62  75
ENDBRANCH  36  37
ENDBRANCH  29  31
ENDBRANCH  28  29
ENDBRANCH  27  28
ENDBRANCH  26  27
ENDBRANCH  25  26
ENDBRANCH   1  25
TORSDOF 17
ENDMDL
MODEL 3
REMARK VINA RESULT:     -10.0      3.745      8.049
REMARK SMILES NC(=O)c1ccc(N[C@H]2C=C[C@@H](C(=O)OCCOCCOC(=O)c3ccc(-c4c5nc(c(-c6ccccc6)c6ccc([nH]6)c(-c6ccccc6)c6nc(c(-c7ccccc7)c7ccc4[nH]7)C=C6)C=C5)cc3)C2)cc1Cl
REMARK SMILES IDX 17 1 16 2 15 3 13 4 14 5 12 6 9 7 10 8 72 9 11 10 8 11 7 13
REMARK SMILES IDX 4 14 5 15 74 16 6 17 73 18 75 19 2 20 1 21 3 24 18 25 19 26
REMARK SMILES IDX 20 27 21 28 22 29 23 30 24 31 25 32 71 33 26 34 70 35 27 36
REMARK SMILES IDX 28 37 29 38 64 39 30 40 69 41 63 42 65 43 31 44 68 45 62 46
REMARK SMILES IDX 61 47 32 49 54 50 39 51 53 52 40 53 43 54 52 55 66 56 41 57
REMARK SMILES IDX 42 58 51 60 67 61 44 62 33 63 34 64 38 65 35 66 37 67 36 68
REMARK SMILES IDX 55 69 56 70 60 71 57 72 59 73 58 74 45 75 46 76 50 77 47 78
REMARK SMILES IDX 49 79 48 80
REMARK H PARENT 8 12 1 22 1 23 65 48 43 59
REMARK Flexibility Score: inf
ROOT
ATOM      1  C   UNL A   1      40.655  21.556  26.512  1.00  0.00     0.202 C 
ENDROOT
BRANCH   1   2
ATOM      2  C   UNL A   1      39.228  21.288  26.025  1.00  0.00     0.261 C 
BRANCH   2   3
ATOM      3  O   UNL A   1      38.458  22.500  26.100  1.00  0.00    -0.463 OA
BRANCH   3   4
ATOM      4  C   UNL A   1      37.277  22.505  25.434  1.00  0.00     0.312 C 
ATOM      5  O   UNL A   1      37.076  21.923  24.373  1.00  0.00    -0.252 OA
BRANCH   4   6
ATOM      6  C   UNL A   1      36.191  23.303  26.152  1.00  0.00     0.124 C 
ATOM      7  C   UNL A   1      33.960  24.188  25.641  1.00  0.00     0.103 C 
ATOM      8  C   UNL A   1      33.883  22.848  26.284  1.00  0.00    -0.006 C 
ATOM      9  C   UNL A   1      35.452  24.402  25.363  1.00  0.00     0.048 C 
ATOM     10  C   UNL A   1      35.096  22.374  26.587  1.00  0.00    -0.014 C 
BRANCH   7  11
ATOM     11  N   UNL A   1      33.102  24.286  24.477  1.00  0.00    -0.379 N 
ATOM     12  H   UNL A   1      33.074  23.479  23.914  1.00  0.00     0.161 HD
BRANCH  11  13
ATOM     13  C   UNL A   1      32.318  25.329  24.031  1.00  0.00     0.036 A 
ATOM     14  C   UNL A   1      30.833  27.540  23.014  1.00  0.00     0.058 A 
ATOM     15  C   UNL A   1      30.192  26.387  23.484  1.00  0.00     0.017 A 
ATOM     16  C   UNL A   1      32.228  27.587  23.056  1.00  0.00     0.055 A 
ATOM     17  C   UNL A   1      30.926  25.307  23.983  1.00  0.00     0.026 A 
ATOM     18  C   UNL A   1      32.950  26.488  23.555  1.00  0.00     0.047 A 
ATOM     19  Cl  UNL A   1      33.163  28.953  22.555  1.00  0.00    -0.083 Cl
BRANCH  14  20
ATOM     20  C   UNL A   1      29.939  28.623  22.529  1.00  0.00     0.250 C 
ATOM     21  N   UNL A   1      28.734  28.799  23.143  1.00  0.00    -0.366 N 
ATOM     22  H   UNL A   1      28.126  29.511  22.837  1.00  0.00     0.159 HD
ATOM     23  H   UNL A   1      28.472  28.215  23.890  1.00  0.00     0.159 HD
ATOM     24  O   UNL A   1      30.302  29.375  21.631  1.00  0.00    -0.269 OA
ENDBRANCH  14  20
ENDBRANCH  11  13
ENDBRANCH   7  11
ENDBRANCH   4   6
ENDBRANCH   3   4
ENDBRANCH   2   3
ENDBRANCH   1   2
BRANCH   1  25
ATOM     25  O   UNL A   1      41.644  21.656  25.483  1.00  0.00    -0.374 OA
BRANCH  25  26
ATOM     26  C   UNL A   1      42.971  21.243  25.807  1.00  0.00     0.202 C 
BRANCH  26  27
ATOM     27  C   UNL A   1      44.109  22.093  25.230  1.00  0.00     0.261 C 
BRANCH  27  28
ATOM     28  O   UNL A   1      43.645  23.311  24.621  1.00  0.00    -0.460 OA
BRANCH  28  29
ATOM     29  C   UNL A   1      44.330  24.416  24.998  1.00  0.00     0.338 C 
ATOM     30  O   UNL A   1      45.448  24.756  24.626  1.00  0.00    -0.246 OA
BRANCH  29  31
ATOM     31  C   UNL A   1      43.504  25.289  25.850  1.00  0.00     0.060 A 
ATOM     32  C   UNL A   1      44.028  26.547  26.172  1.00  0.00     0.016 A 
ATOM     33  C   UNL A   1      42.305  24.855  26.419  1.00  0.00     0.016 A 
ATOM     34  C   UNL A   1      43.394  27.348  27.118  1.00  0.00     0.010 A 
ATOM     35  C   UNL A   1      41.671  25.662  27.373  1.00  0.00     0.010 A 
ATOM     36  C   UNL A   1      42.234  26.893  27.759  1.00  0.00    -0.014 A 
BRANCH  36  37
ATOM     37  C   UNL A   1      41.704  27.648  28.922  1.00  0.00     0.031 A 
ATOM     38  C   UNL A   1      42.371  27.508  30.264  1.00  0.00     0.074 A 
ATOM     39  C   UNL A   1      40.658  28.484  28.788  1.00  0.00     0.049 A 
ATOM     40  N   UNL A   1      42.077  28.091  31.400  1.00  0.00    -0.248 NA
ATOM     41  C   UNL A   1      43.524  26.597  30.336  1.00  0.00     0.031 C 
ATOM     42  C   UNL A   1      39.938  28.744  27.544  1.00  0.00     0.029 A 
ATOM     43  N   UNL A   1      40.003  29.247  29.722  1.00  0.00    -0.354 N 
ATOM     44  C   UNL A   1      43.021  27.638  32.312  1.00  0.00     0.074 A 
ATOM     45  C   UNL A   1      43.857  26.683  31.616  1.00  0.00     0.031 C 
ATOM     46  C   UNL A   1      38.908  29.568  27.801  1.00  0.00     0.029 A 
ATOM     47  C   UNL A   1      38.904  29.900  29.221  1.00  0.00     0.049 A 
ATOM     48  H   UNL A   1      40.292  29.318  30.660  1.00  0.00     0.167 HD
ATOM     49  C   UNL A   1      43.200  28.004  33.604  1.00  0.00     0.031 A 
ATOM     50  C   UNL A   1      37.987  30.669  29.838  1.00  0.00     0.031 A 
ATOM     51  C   UNL A   1      42.369  28.945  34.309  1.00  0.00     0.049 A 
ATOM     52  C   UNL A   1      38.144  30.985  31.299  1.00  0.00     0.074 A 
ATOM     53  C   UNL A   1      42.497  29.405  35.608  1.00  0.00     0.029 A 
ATOM     54  N   UNL A   1      41.251  29.564  33.774  1.00  0.00    -0.354 N 
ATOM     55  N   UNL A   1      39.076  30.592  32.134  1.00  0.00    -0.248 NA
ATOM     56  C   UNL A   1      37.140  31.879  31.894  1.00  0.00     0.031 C 
ATOM     57  C   UNL A   1      41.427  30.268  35.875  1.00  0.00     0.029 A 
ATOM     58  C   UNL A   1      40.664  30.383  34.725  1.00  0.00     0.049 A 
ATOM     59  H   UNL A   1      40.922  29.439  32.855  1.00  0.00     0.167 HD
ATOM     60  C   UNL A   1      38.800  31.233  33.336  1.00  0.00     0.074 A 
ATOM     61  C   UNL A   1      37.612  32.032  33.122  1.00  0.00     0.031 C 
ATOM     62  C   UNL A   1      39.484  31.177  34.505  1.00  0.00     0.031 A 
BRANCH  49  63
ATOM     63  C   UNL A   1      44.347  27.375  34.342  1.00  0.00    -0.014 A 
ATOM     64  C   UNL A   1      44.178  26.175  35.053  1.00  0.00     0.009 A 
ATOM     65  C   UNL A   1      45.617  27.969  34.303  1.00  0.00     0.009 A 
ATOM     66  C   UNL A   1      45.251  25.603  35.739  1.00  0.00     0.001 A 
ATOM     67  C   UNL A   1      46.694  27.380  34.969  1.00  0.00     0.001 A 
ATOM     68  C   UNL A   1      46.508  26.204  35.694  1.00  0.00     0.000 A 
ENDBRANCH  49  63
BRANCH  50  69
ATOM     69  C   UNL A   1      36.832  31.203  29.073  1.00  0.00    -0.014 A 
ATOM     70  C   UNL A   1      36.790  32.549  28.682  1.00  0.00     0.009 A 
ATOM     71  C   UNL A   1      35.754  30.365  28.747  1.00  0.00     0.009 A 
ATOM     72  C   UNL A   1      35.677  33.053  28.004  1.00  0.00     0.001 A 
ATOM     73  C   UNL A   1      34.654  30.866  28.050  1.00  0.00     0.001 A 
ATOM     74  C   UNL A   1      34.611  32.212  27.688  1.00  0.00     0.000 A 
ENDBRANCH  50  69
BRANCH  62  75
ATOM     75  C   UNL A   1      38.995  32.049  35.626  1.00  0.00    -0.014 A 
ATOM     76  C   UNL A   1      38.189  31.540  36.656  1.00  0.00     0.009 A 
ATOM     77  C   UNL A   1      39.360  33.405  35.655  1.00  0.00     0.009 A 
ATOM     78  C   UNL A   1      37.724  32.382  37.669  1.00  0.00     0.001 A 
ATOM     79  C   UNL A   1      38.917  34.238  36.684  1.00  0.00     0.001 A 
ATOM     80  C   UNL A   1      38.090  33.728  37.684  1.00  0.00     0.000 A 
ENDBRANCH  62  75
ENDBRANCH  36  37
ENDBRANCH  29  31
ENDBRANCH  28  29
ENDBRANCH  27  28
ENDBRANCH  26  27
ENDBRANCH  25  26
ENDBRANCH   1  25
TORSDOF 17
ENDMDL
