MODEL 1
REMARK VINA RESULT:     -11.6      0.000      0.000
REMARK SMILES Cc1cccc(-n2c(C)cc(/C=N\c3ccc(O)c(C(=O)OCCOCCOC(=O)c4ccc(-c5c6nc(c(-c7ccccc7)c7ccc([nH]7)c(-c7ccccc7)c7nc(c(-c8ccccc8)c8ccc5[nH]8)C=C7)C=C6)cc4)c3)c2C)c1
REMARK SMILES IDX 24 1 23 2 22 3 20 4 21 5 19 6 14 7 15 8 79 9 16 10 17 11
REMARK SMILES IDX 13 12 12 13 11 14 7 15 8 16 80 17 9 18 10 19 81 20 6 21 1 22
REMARK SMILES IDX 2 23 3 24 82 25 4 26 5 27 18 28 25 30 26 31 27 32 28 33
REMARK SMILES IDX 29 34 30 35 31 36 32 37 78 38 33 39 77 40 34 41 35 42 36 43
REMARK SMILES IDX 71 44 37 45 76 46 70 47 72 48 38 49 75 50 69 51 68 52 39 54
REMARK SMILES IDX 61 55 46 56 60 57 47 58 50 59 59 60 73 61 48 62 49 63 58 65
REMARK SMILES IDX 74 66 51 67 40 68 41 69 45 70 42 71 44 72 43 73 62 74 63 75
REMARK SMILES IDX 67 76 64 77 66 78 65 79 52 80 53 81 57 82 54 83 56 84 55 85
REMARK H PARENT 18 29 72 53 50 64
REMARK Flexibility Score: inf
ROOT
ATOM      1  C   UNL A   1      37.237  23.567  26.026  1.00  0.00     0.202 C 
ENDROOT
BRANCH   1   2
ATOM      2  C   UNL A   1      36.954  23.348  24.586  1.00  0.00     0.261 C 
BRANCH   2   3
ATOM      3  O   UNL A   1      35.556  23.218  24.332  1.00  0.00    -0.460 OA
BRANCH   3   4
ATOM      4  C   UNL A   1      35.083  22.018  24.731  1.00  0.00     0.342 C 
ATOM      5  O   UNL A   1      35.675  20.946  24.653  1.00  0.00    -0.246 OA
BRANCH   4   6
ATOM      6  C   UNL A   1      33.733  22.233  25.265  1.00  0.00     0.103 A 
ATOM      7  C   UNL A   1      31.523  22.981  24.738  1.00  0.00     0.064 A 
ATOM      8  C   UNL A   1      31.201  23.001  26.098  1.00  0.00     0.032 A 
ATOM      9  C   UNL A   1      32.739  22.461  24.319  1.00  0.00     0.048 A 
ATOM     10  C   UNL A   1      32.158  22.668  27.053  1.00  0.00     0.049 A 
ATOM     11  C   UNL A   1      33.445  22.362  26.638  1.00  0.00     0.130 A 
BRANCH   7  12
ATOM     12  N   UNL A   1      30.674  23.493  23.773  1.00  0.00    -0.256 NA
ATOM     13  C   UNL A   1      30.760  24.714  23.330  1.00  0.00     0.121 C 
BRANCH  13  14
ATOM     14  C   UNL A   1      31.605  25.867  23.676  1.00  0.00     0.014 A 
ATOM     15  N   UNL A   1      32.709  27.666  24.524  1.00  0.00    -0.318 N 
ATOM     16  C   UNL A   1      33.090  27.548  23.204  1.00  0.00     0.021 A 
ATOM     17  C   UNL A   1      31.865  26.598  24.840  1.00  0.00     0.029 A 
ATOM     18  C   UNL A   1      34.075  28.443  22.545  1.00  0.00     0.065 C 
ATOM     19  C   UNL A   1      32.449  26.448  22.681  1.00  0.00     0.033 A 
ATOM     20  C   UNL A   1      31.343  26.461  26.220  1.00  0.00     0.065 C 
BRANCH  15  21
ATOM     21  C   UNL A   1      33.012  28.755  25.390  1.00  0.00     0.046 A 
ATOM     22  C   UNL A   1      31.316  31.945  26.584  1.00  0.00     0.044 C 
ATOM     23  C   UNL A   1      32.271  30.794  26.467  1.00  0.00    -0.049 A 
ATOM     24  C   UNL A   1      33.313  30.664  27.397  1.00  0.00     0.003 A 
ATOM     25  C   UNL A   1      32.123  29.833  25.458  1.00  0.00     0.030 A 
ATOM     26  C   UNL A   1      34.224  29.612  27.299  1.00  0.00     0.002 A 
ATOM     27  C   UNL A   1      34.089  28.670  26.281  1.00  0.00     0.026 A 
ENDBRANCH  15  21
ENDBRANCH  13  14
ENDBRANCH   7  12
BRANCH  11  28
ATOM     28  O   UNL A   1      34.381  22.324  27.639  1.00  0.00    -0.507 OA
ATOM     29  H   UNL A   1      34.670  21.500  27.979  1.00  0.00     0.293 HD
ENDBRANCH  11  28
ENDBRANCH   4   6
ENDBRANCH   3   4
ENDBRANCH   2   3
ENDBRANCH   1   2
BRANCH   1  30
ATOM     30  O   UNL A   1      38.638  23.788  26.082  1.00  0.00    -0.374 OA
BRANCH  30  31
ATOM     31  C   UNL A   1      39.338  22.875  26.902  1.00  0.00     0.202 C 
BRANCH  31  32
ATOM     32  C   UNL A   1      39.677  21.559  26.181  1.00  0.00     0.261 C 
BRANCH  32  33
ATOM     33  O   UNL A   1      40.792  20.922  26.850  1.00  0.00    -0.460 OA
BRANCH  33  34
ATOM     34  C   UNL A   1      42.030  21.070  26.293  1.00  0.00     0.338 C 
ATOM     35  O   UNL A   1      42.550  20.298  25.503  1.00  0.00    -0.246 OA
BRANCH  34  36
ATOM     36  C   UNL A   1      42.795  22.114  27.049  1.00  0.00     0.060 A 
ATOM     37  C   UNL A   1      42.656  22.216  28.449  1.00  0.00     0.016 A 
ATOM     38  C   UNL A   1      43.314  23.187  26.332  1.00  0.00     0.016 A 
ATOM     39  C   UNL A   1      42.859  23.447  29.098  1.00  0.00     0.010 A 
ATOM     40  C   UNL A   1      43.409  24.414  26.956  1.00  0.00     0.010 A 
ATOM     41  C   UNL A   1      43.146  24.574  28.331  1.00  0.00    -0.014 A 
BRANCH  41  42
ATOM     42  C   UNL A   1      43.069  25.974  28.777  1.00  0.00     0.031 A 
ATOM     43  C   UNL A   1      41.789  26.676  28.575  1.00  0.00     0.074 A 
ATOM     44  C   UNL A   1      44.023  26.559  29.551  1.00  0.00     0.049 A 
ATOM     45  N   UNL A   1      41.691  27.956  28.515  1.00  0.00    -0.248 NA
ATOM     46  C   UNL A   1      40.506  26.007  28.365  1.00  0.00     0.031 C 
ATOM     47  C   UNL A   1      43.944  27.731  30.425  1.00  0.00     0.029 A 
ATOM     48  N   UNL A   1      45.345  26.164  29.738  1.00  0.00    -0.354 N 
ATOM     49  C   UNL A   1      40.361  28.260  28.662  1.00  0.00     0.074 A 
ATOM     50  C   UNL A   1      39.658  27.036  28.387  1.00  0.00     0.031 C 
ATOM     51  C   UNL A   1      45.185  28.125  30.781  1.00  0.00     0.029 A 
ATOM     52  C   UNL A   1      46.134  27.255  30.106  1.00  0.00     0.049 A 
ATOM     53  H   UNL A   1      45.678  25.245  29.627  1.00  0.00     0.167 HD
ATOM     54  C   UNL A   1      40.024  29.466  29.194  1.00  0.00     0.031 A 
ATOM     55  C   UNL A   1      47.247  27.553  29.390  1.00  0.00     0.031 A 
ATOM     56  C   UNL A   1      41.232  30.240  29.533  1.00  0.00     0.049 A 
ATOM     57  C   UNL A   1      46.918  28.833  28.683  1.00  0.00     0.074 A 
ATOM     58  C   UNL A   1      41.834  30.569  30.737  1.00  0.00     0.029 A 
ATOM     59  N   UNL A   1      42.197  30.468  28.549  1.00  0.00    -0.354 N 
ATOM     60  N   UNL A   1      45.681  29.194  28.450  1.00  0.00    -0.248 NA
ATOM     61  C   UNL A   1      47.881  29.885  28.386  1.00  0.00     0.031 C 
ATOM     62  C   UNL A   1      43.183  30.953  30.464  1.00  0.00     0.029 A 
ATOM     63  C   UNL A   1      43.403  30.867  29.096  1.00  0.00     0.049 A 
ATOM     64  H   UNL A   1      42.038  30.357  27.584  1.00  0.00     0.167 HD
ATOM     65  C   UNL A   1      45.653  30.530  28.211  1.00  0.00     0.074 A 
ATOM     66  C   UNL A   1      47.054  30.907  28.090  1.00  0.00     0.031 C 
ATOM     67  C   UNL A   1      44.509  31.273  28.229  1.00  0.00     0.031 A 
BRANCH  54  68
ATOM     68  C   UNL A   1      38.627  29.826  29.652  1.00  0.00    -0.014 A 
ATOM     69  C   UNL A   1      37.914  30.834  28.981  1.00  0.00     0.009 A 
ATOM     70  C   UNL A   1      37.946  29.224  30.728  1.00  0.00     0.009 A 
ATOM     71  C   UNL A   1      36.630  31.237  29.382  1.00  0.00     0.001 A 
ATOM     72  C   UNL A   1      36.676  29.637  31.155  1.00  0.00     0.001 A 
ATOM     73  C   UNL A   1      36.015  30.646  30.477  1.00  0.00     0.000 A 
ENDBRANCH  54  68
BRANCH  55  74
ATOM     74  C   UNL A   1      47.961  26.309  28.941  1.00  0.00    -0.014 A 
ATOM     75  C   UNL A   1      47.834  25.977  27.565  1.00  0.00     0.009 A 
ATOM     76  C   UNL A   1      49.080  25.803  29.621  1.00  0.00     0.009 A 
ATOM     77  C   UNL A   1      48.850  25.299  26.872  1.00  0.00     0.001 A 
ATOM     78  C   UNL A   1      50.096  25.120  28.922  1.00  0.00     0.001 A 
ATOM     79  C   UNL A   1      50.000  24.900  27.546  1.00  0.00     0.000 A 
ENDBRANCH  55  74
BRANCH  67  80
ATOM     80  C   UNL A   1      44.346  32.516  27.405  1.00  0.00    -0.014 A 
ATOM     81  C   UNL A   1      44.251  32.505  26.008  1.00  0.00     0.009 A 
ATOM     82  C   UNL A   1      44.064  33.735  28.057  1.00  0.00     0.009 A 
ATOM     83  C   UNL A   1      43.939  33.663  25.297  1.00  0.00     0.001 A 
ATOM     84  C   UNL A   1      43.678  34.872  27.355  1.00  0.00     0.001 A 
ATOM     85  C   UNL A   1      43.633  34.839  25.971  1.00  0.00     0.000 A 
ENDBRANCH  67  80
ENDBRANCH  41  42
ENDBRANCH  34  36
ENDBRANCH  33  34
ENDBRANCH  32  33
ENDBRANCH  31  32
ENDBRANCH  30  31
ENDBRANCH   1  30
TORSDOF 18
ENDMDL
MODEL 2
REMARK VINA RESULT:     -11.4      4.517      9.382
REMARK SMILES Cc1cccc(-n2c(C)cc(/C=N\c3ccc(O)c(C(=O)OCCOCCOC(=O)c4ccc(-c5c6nc(c(-c7ccccc7)c7ccc([nH]7)c(-c7ccccc7)c7nc(c(-c8ccccc8)c8ccc5[nH]8)C=C7)C=C6)cc4)c3)c2C)c1
REMARK SMILES IDX 24 1 23 2 22 3 20 4 21 5 19 6 14 7 15 8 79 9 16 10 17 11
REMARK SMILES IDX 13 12 12 13 11 14 7 15 8 16 80 17 9 18 10 19 81 20 6 21 1 22
REMARK SMILES IDX 2 23 3 24 82 25 4 26 5 27 18 28 25 30 26 31 27 32 28 33
REMARK SMILES IDX 29 34 30 35 31 36 32 37 78 38 33 39 77 40 34 41 35 42 36 43
REMARK SMILES IDX 71 44 37 45 76 46 70 47 72 48 38 49 75 50 69 51 68 52 39 54
REMARK SMILES IDX 61 55 46 56 60 57 47 58 50 59 59 60 73 61 48 62 49 63 58 65
REMARK SMILES IDX 74 66 51 67 40 68 41 69 45 70 42 71 44 72 43 73 62 74 63 75
REMARK SMILES IDX 67 76 64 77 66 78 65 79 52 80 53 81 57 82 54 83 56 84 55 85
REMARK H PARENT 18 29 72 53 50 64
REMARK Flexibility Score: inf
ROOT
ATOM      1  C   UNL A   1      34.076  31.421  28.218  1.00  0.00     0.202 C 
ENDROOT
BRANCH   1   2
ATOM      2  C   UNL A   1      33.398  30.735  27.090  1.00  0.00     0.261 C 
BRANCH   2   3
ATOM      3  O   UNL A   1      32.865  29.471  27.479  1.00  0.00    -0.460 OA
BRANCH   3   4
ATOM      4  C   UNL A   1      33.253  28.483  26.643  1.00  0.00     0.342 C 
ATOM      5  O   UNL A   1      34.396  28.060  26.507  1.00  0.00    -0.246 OA
BRANCH   4   6
ATOM      6  C   UNL A   1      32.059  28.020  25.927  1.00  0.00     0.103 A 
ATOM      7  C   UNL A   1      30.379  26.320  25.830  1.00  0.00     0.064 A 
ATOM      8  C   UNL A   1      29.977  26.782  24.573  1.00  0.00     0.032 A 
ATOM      9  C   UNL A   1      31.320  27.029  26.563  1.00  0.00     0.048 A 
ATOM     10  C   UNL A   1      30.641  27.848  23.971  1.00  0.00     0.049 A 
ATOM     11  C   UNL A   1      31.731  28.413  24.614  1.00  0.00     0.130 A 
BRANCH   7  12
ATOM     12  N   UNL A   1      29.886  25.148  26.375  1.00  0.00    -0.256 NA
ATOM     13  C   UNL A   1      30.553  24.030  26.370  1.00  0.00     0.121 C 
BRANCH  13  14
ATOM     14  C   UNL A   1      31.848  23.618  25.809  1.00  0.00     0.014 A 
ATOM     15  N   UNL A   1      33.966  22.962  25.296  1.00  0.00    -0.318 N 
ATOM     16  C   UNL A   1      33.379  23.376  24.120  1.00  0.00     0.021 A 
ATOM     17  C   UNL A   1      33.013  23.033  26.317  1.00  0.00     0.029 A 
ATOM     18  C   UNL A   1      34.056  23.330  22.798  1.00  0.00     0.065 C 
ATOM     19  C   UNL A   1      32.087  23.754  24.407  1.00  0.00     0.033 A 
ATOM     20  C   UNL A   1      33.375  22.599  27.687  1.00  0.00     0.065 C 
BRANCH  15  21
ATOM     21  C   UNL A   1      35.341  22.640  25.481  1.00  0.00     0.046 A 
ATOM     22  C   UNL A   1      37.622  19.648  24.913  1.00  0.00     0.044 C 
ATOM     23  C   UNL A   1      37.136  21.040  25.189  1.00  0.00    -0.049 A 
ATOM     24  C   UNL A   1      38.066  22.075  25.366  1.00  0.00     0.003 A 
ATOM     25  C   UNL A   1      35.765  21.328  25.249  1.00  0.00     0.030 A 
ATOM     26  C   UNL A   1      37.640  23.374  25.641  1.00  0.00     0.002 A 
ATOM     27  C   UNL A   1      36.277  23.653  25.722  1.00  0.00     0.026 A 
ENDBRANCH  15  21
ENDBRANCH  13  14
ENDBRANCH   7  12
BRANCH  11  28
ATOM     28  O   UNL A   1      32.487  29.253  23.838  1.00  0.00    -0.507 OA
ATOM     29  H   UNL A   1      33.347  29.500  24.117  1.00  0.00     0.293 HD
ENDBRANCH  11  28
ENDBRANCH   4   6
ENDBRANCH   3   4
ENDBRANCH   2   3
ENDBRANCH   1   2
BRANCH   1  30
ATOM     30  O   UNL A   1      35.108  32.177  27.604  1.00  0.00    -0.374 OA
BRANCH  30  31
ATOM     31  C   UNL A   1      35.174  33.523  28.030  1.00  0.00     0.202 C 
BRANCH  31  32
ATOM     32  C   UNL A   1      33.947  33.952  28.852  1.00  0.00     0.261 C 
BRANCH  32  33
ATOM     33  O   UNL A   1      34.374  34.817  29.932  1.00  0.00    -0.460 OA
BRANCH  33  34
ATOM     34  C   UNL A   1      34.046  34.446  31.205  1.00  0.00     0.338 C 
ATOM     35  O   UNL A   1      32.982  34.675  31.758  1.00  0.00    -0.246 OA
BRANCH  34  36
ATOM     36  C   UNL A   1      35.287  34.037  31.939  1.00  0.00     0.060 A 
ATOM     37  C   UNL A   1      36.487  34.756  31.754  1.00  0.00     0.016 A 
ATOM     38  C   UNL A   1      35.332  32.755  32.477  1.00  0.00     0.016 A 
ATOM     39  C   UNL A   1      37.731  34.123  31.931  1.00  0.00     0.010 A 
ATOM     40  C   UNL A   1      36.549  32.111  32.546  1.00  0.00     0.010 A 
ATOM     41  C   UNL A   1      37.758  32.765  32.238  1.00  0.00    -0.014 A 
BRANCH  41  42
ATOM     42  C   UNL A   1      38.925  31.873  32.140  1.00  0.00     0.031 A 
ATOM     43  C   UNL A   1      38.806  30.702  31.255  1.00  0.00     0.074 A 
ATOM     44  C   UNL A   1      40.149  32.199  32.638  1.00  0.00     0.049 A 
ATOM     45  N   UNL A   1      39.531  29.648  31.382  1.00  0.00    -0.248 NA
ATOM     46  C   UNL A   1      37.823  30.577  30.180  1.00  0.00     0.031 C 
ATOM     47  C   UNL A   1      41.477  31.689  32.289  1.00  0.00     0.029 A 
ATOM     48  N   UNL A   1      40.464  33.144  33.610  1.00  0.00    -0.354 N 
ATOM     49  C   UNL A   1      39.395  28.931  30.219  1.00  0.00     0.074 A 
ATOM     50  C   UNL A   1      38.208  29.444  29.592  1.00  0.00     0.031 C 
ATOM     51  C   UNL A   1      42.378  32.078  33.217  1.00  0.00     0.029 A 
ATOM     52  C   UNL A   1      41.662  32.815  34.244  1.00  0.00     0.049 A 
ATOM     53  H   UNL A   1      39.918  33.935  33.821  1.00  0.00     0.167 HD
ATOM     54  C   UNL A   1      40.417  28.121  29.831  1.00  0.00     0.031 A 
ATOM     55  C   UNL A   1      41.700  32.704  35.596  1.00  0.00     0.031 A 
ATOM     56  C   UNL A   1      41.533  28.196  30.792  1.00  0.00     0.049 A 
ATOM     57  C   UNL A   1      41.891  31.239  35.855  1.00  0.00     0.074 A 
ATOM     58  C   UNL A   1      42.789  28.779  30.735  1.00  0.00     0.029 A 
ATOM     59  N   UNL A   1      41.289  27.947  32.145  1.00  0.00    -0.354 N 
ATOM     60  N   UNL A   1      41.550  30.332  34.975  1.00  0.00    -0.248 NA
ATOM     61  C   UNL A   1      42.649  30.689  36.971  1.00  0.00     0.031 C 
ATOM     62  C   UNL A   1      43.272  28.915  32.073  1.00  0.00     0.029 A 
ATOM     63  C   UNL A   1      42.317  28.409  32.945  1.00  0.00     0.049 A 
ATOM     64  H   UNL A   1      40.482  27.497  32.486  1.00  0.00     0.167 HD
ATOM     65  C   UNL A   1      42.206  29.178  35.259  1.00  0.00     0.074 A 
ATOM     66  C   UNL A   1      42.809  29.416  36.563  1.00  0.00     0.031 C 
ATOM     67  C   UNL A   1      42.313  28.139  34.383  1.00  0.00     0.031 A 
BRANCH  54  68
ATOM     68  C   UNL A   1      40.516  27.484  28.462  1.00  0.00    -0.014 A 
ATOM     69  C   UNL A   1      40.072  26.163  28.277  1.00  0.00     0.009 A 
ATOM     70  C   UNL A   1      41.028  28.112  27.309  1.00  0.00     0.009 A 
ATOM     71  C   UNL A   1      40.171  25.506  27.041  1.00  0.00     0.001 A 
ATOM     72  C   UNL A   1      41.158  27.456  26.076  1.00  0.00     0.001 A 
ATOM     73  C   UNL A   1      40.725  26.149  25.942  1.00  0.00     0.000 A 
ENDBRANCH  54  68
BRANCH  55  74
ATOM     74  C   UNL A   1      40.835  33.739  36.257  1.00  0.00    -0.014 A 
ATOM     75  C   UNL A   1      40.159  33.329  37.438  1.00  0.00     0.009 A 
ATOM     76  C   UNL A   1      41.059  35.115  36.093  1.00  0.00     0.009 A 
ATOM     77  C   UNL A   1      39.857  34.234  38.469  1.00  0.00     0.001 A 
ATOM     78  C   UNL A   1      40.752  36.021  37.128  1.00  0.00     0.001 A 
ATOM     79  C   UNL A   1      40.186  35.578  38.327  1.00  0.00     0.000 A 
ENDBRANCH  55  74
BRANCH  67  80
ATOM     80  C   UNL A   1      42.451  26.716  34.838  1.00  0.00    -0.014 A 
ATOM     81  C   UNL A   1      41.471  26.049  35.582  1.00  0.00     0.009 A 
ATOM     82  C   UNL A   1      43.511  25.936  34.327  1.00  0.00     0.009 A 
ATOM     83  C   UNL A   1      41.569  24.682  35.844  1.00  0.00     0.001 A 
ATOM     84  C   UNL A   1      43.571  24.560  34.522  1.00  0.00     0.001 A 
ATOM     85  C   UNL A   1      42.607  23.936  35.298  1.00  0.00     0.000 A 
ENDBRANCH  67  80
ENDBRANCH  41  42
ENDBRANCH  34  36
ENDBRANCH  33  34
ENDBRANCH  32  33
ENDBRANCH  31  32
ENDBRANCH  30  31
ENDBRANCH   1  30
TORSDOF 18
ENDMDL
MODEL 3
REMARK VINA RESULT:     -10.8      1.978      3.337
REMARK SMILES Cc1cccc(-n2c(C)cc(/C=N\c3ccc(O)c(C(=O)OCCOCCOC(=O)c4ccc(-c5c6nc(c(-c7ccccc7)c7ccc([nH]7)c(-c7ccccc7)c7nc(c(-c8ccccc8)c8ccc5[nH]8)C=C7)C=C6)cc4)c3)c2C)c1
REMARK SMILES IDX 24 1 23 2 22 3 20 4 21 5 19 6 14 7 15 8 79 9 16 10 17 11
REMARK SMILES IDX 13 12 12 13 11 14 7 15 8 16 80 17 9 18 10 19 81 20 6 21 1 22
REMARK SMILES IDX 2 23 3 24 82 25 4 26 5 27 18 28 25 30 26 31 27 32 28 33
REMARK SMILES IDX 29 34 30 35 31 36 32 37 78 38 33 39 77 40 34 41 35 42 36 43
REMARK SMILES IDX 71 44 37 45 76 46 70 47 72 48 38 49 75 50 69 51 68 52 39 54
REMARK SMILES IDX 61 55 46 56 60 57 47 58 50 59 59 60 73 61 48 62 49 63 58 65
REMARK SMILES IDX 74 66 51 67 40 68 41 69 45 70 42 71 44 72 43 73 62 74 63 75
REMARK SMILES IDX 67 76 64 77 66 78 65 79 52 80 53 81 57 82 54 83 56 84 55 85
REMARK H PARENT 18 29 72 53 50 64
REMARK Flexibility Score: inf
ROOT
ATOM      1  C   UNL A   1      37.746  20.111  24.938  1.00  0.00     0.202 C 
ENDROOT
BRANCH   1   2
ATOM      2  C   UNL A   1      36.362  19.594  24.789  1.00  0.00     0.261 C 
BRANCH   2   3
ATOM      3  O   UNL A   1      35.404  20.648  24.726  1.00  0.00    -0.460 OA
BRANCH   3   4
ATOM      4  C   UNL A   1      34.138  20.181  24.783  1.00  0.00     0.342 C 
ATOM      5  O   UNL A   1      33.752  19.092  24.368  1.00  0.00    -0.246 OA
BRANCH   4   6
ATOM      6  C   UNL A   1      33.316  21.214  25.422  1.00  0.00     0.103 A 
ATOM      7  C   UNL A   1      31.528  22.767  25.090  1.00  0.00     0.064 A 
ATOM      8  C   UNL A   1      31.835  23.388  26.304  1.00  0.00     0.032 A 
ATOM      9  C   UNL A   1      32.176  21.596  24.723  1.00  0.00     0.048 A 
ATOM     10  C   UNL A   1      32.911  22.943  27.069  1.00  0.00     0.049 A 
ATOM     11  C   UNL A   1      33.697  21.909  26.587  1.00  0.00     0.130 A 
BRANCH   7  12
ATOM     12  N   UNL A   1      30.604  23.296  24.206  1.00  0.00    -0.256 NA
ATOM     13  C   UNL A   1      30.663  24.520  23.768  1.00  0.00     0.121 C 
BRANCH  13  14
ATOM     14  C   UNL A   1      31.545  25.662  24.050  1.00  0.00     0.014 A 
ATOM     15  N   UNL A   1      32.687  27.490  24.780  1.00  0.00    -0.318 N 
ATOM     16  C   UNL A   1      33.150  27.208  23.513  1.00  0.00     0.021 A 
ATOM     17  C   UNL A   1      31.764  26.505  25.145  1.00  0.00     0.029 A 
ATOM     18  C   UNL A   1      34.228  27.975  22.837  1.00  0.00     0.065 C 
ATOM     19  C   UNL A   1      32.487  26.088  23.065  1.00  0.00     0.033 A 
ATOM     20  C   UNL A   1      31.141  26.548  26.489  1.00  0.00     0.065 C 
BRANCH  15  21
ATOM     21  C   UNL A   1      32.990  28.653  25.545  1.00  0.00     0.046 A 
ATOM     22  C   UNL A   1      31.272  31.914  26.488  1.00  0.00     0.044 C 
ATOM     23  C   UNL A   1      32.239  30.769  26.454  1.00  0.00    -0.049 A 
ATOM     24  C   UNL A   1      33.298  30.731  27.374  1.00  0.00     0.003 A 
ATOM     25  C   UNL A   1      32.088  29.722  25.534  1.00  0.00     0.030 A 
ATOM     26  C   UNL A   1      34.220  29.685  27.352  1.00  0.00     0.002 A 
ATOM     27  C   UNL A   1      34.081  28.657  26.421  1.00  0.00     0.026 A 
ENDBRANCH  15  21
ENDBRANCH  13  14
ENDBRANCH   7  12
BRANCH  11  28
ATOM     28  O   UNL A   1      34.881  21.725  27.254  1.00  0.00    -0.507 OA
ATOM     29  H   UNL A   1      35.415  20.979  27.062  1.00  0.00     0.293 HD
ENDBRANCH  11  28
ENDBRANCH   4   6
ENDBRANCH   3   4
ENDBRANCH   2   3
ENDBRANCH   1   2
BRANCH   1  30
ATOM     30  O   UNL A   1      37.623  21.512  24.747  1.00  0.00    -0.374 OA
BRANCH  30  31
ATOM     31  C   UNL A   1      38.014  22.287  25.862  1.00  0.00     0.202 C 
BRANCH  31  32
ATOM     32  C   UNL A   1      39.473  22.038  26.283  1.00  0.00     0.261 C 
BRANCH  32  33
ATOM     33  O   UNL A   1      40.219  23.273  26.169  1.00  0.00    -0.460 OA
BRANCH  33  34
ATOM     34  C   UNL A   1      40.694  23.832  27.321  1.00  0.00     0.338 C 
ATOM     35  O   UNL A   1      41.246  23.230  28.227  1.00  0.00    -0.246 OA
BRANCH  34  36
ATOM     36  C   UNL A   1      40.132  25.214  27.471  1.00  0.00     0.060 A 
ATOM     37  C   UNL A   1      40.579  26.254  26.629  1.00  0.00     0.016 A 
ATOM     38  C   UNL A   1      39.484  25.527  28.661  1.00  0.00     0.016 A 
ATOM     39  C   UNL A   1      40.544  27.590  27.066  1.00  0.00     0.010 A 
ATOM     40  C   UNL A   1      39.548  26.824  29.126  1.00  0.00     0.010 A 
ATOM     41  C   UNL A   1      40.111  27.864  28.362  1.00  0.00    -0.014 A 
BRANCH  41  42
ATOM     42  C   UNL A   1      40.307  29.124  29.097  1.00  0.00     0.031 A 
ATOM     43  C   UNL A   1      39.138  30.010  29.239  1.00  0.00     0.074 A 
ATOM     44  C   UNL A   1      41.425  29.391  29.824  1.00  0.00     0.049 A 
ATOM     45  N   UNL A   1      39.235  31.272  29.462  1.00  0.00    -0.248 NA
ATOM     46  C   UNL A   1      37.750  29.575  29.088  1.00  0.00     0.031 C 
ATOM     47  C   UNL A   1      41.634  30.334  30.925  1.00  0.00     0.029 A 
ATOM     48  N   UNL A   1      42.682  28.801  29.726  1.00  0.00    -0.354 N 
ATOM     49  C   UNL A   1      37.995  31.700  29.867  1.00  0.00     0.074 A 
ATOM     50  C   UNL A   1      37.082  30.670  29.450  1.00  0.00     0.031 C 
ATOM     51  C   UNL A   1      42.954  30.476  31.166  1.00  0.00     0.029 A 
ATOM     52  C   UNL A   1      43.669  29.670  30.191  1.00  0.00     0.049 A 
ATOM     53  H   UNL A   1      42.851  27.896  29.377  1.00  0.00     0.167 HD
ATOM     54  C   UNL A   1      37.916  32.786  30.682  1.00  0.00     0.031 A 
ATOM     55  C   UNL A   1      44.723  29.979  29.395  1.00  0.00     0.031 A 
ATOM     56  C   UNL A   1      39.262  33.303  30.991  1.00  0.00     0.049 A 
ATOM     57  C   UNL A   1      44.517  31.418  29.027  1.00  0.00     0.074 A 
ATOM     58  C   UNL A   1      40.045  33.270  32.134  1.00  0.00     0.029 A 
ATOM     59  N   UNL A   1      40.128  33.625  29.943  1.00  0.00    -0.354 N 
ATOM     60  N   UNL A   1      43.333  31.977  29.062  1.00  0.00    -0.248 NA
ATOM     61  C   UNL A   1      45.591  32.379  28.816  1.00  0.00     0.031 C 
ATOM     62  C   UNL A   1      41.396  33.532  31.748  1.00  0.00     0.029 A 
ATOM     63  C   UNL A   1      41.437  33.733  30.375  1.00  0.00     0.049 A 
ATOM     64  H   UNL A   1      39.841  33.757  29.011  1.00  0.00     0.167 HD
ATOM     65  C   UNL A   1      43.486  33.325  29.113  1.00  0.00     0.074 A 
ATOM     66  C   UNL A   1      44.905  33.538  28.866  1.00  0.00     0.031 C 
ATOM     67  C   UNL A   1      42.484  34.182  29.457  1.00  0.00     0.031 A 
BRANCH  54  68
ATOM     68  C   UNL A   1      36.656  33.206  31.409  1.00  0.00    -0.014 A 
ATOM     69  C   UNL A   1      35.654  33.906  30.714  1.00  0.00     0.009 A 
ATOM     70  C   UNL A   1      36.380  32.952  32.767  1.00  0.00     0.009 A 
ATOM     71  C   UNL A   1      34.481  34.353  31.342  1.00  0.00     0.001 A 
ATOM     72  C   UNL A   1      35.225  33.418  33.411  1.00  0.00     0.001 A 
ATOM     73  C   UNL A   1      34.271  34.119  32.695  1.00  0.00     0.000 A 
ENDBRANCH  54  68
BRANCH  55  74
ATOM     74  C   UNL A   1      45.176  28.790  28.595  1.00  0.00    -0.014 A 
ATOM     75  C   UNL A   1      44.969  28.866  27.191  1.00  0.00     0.009 A 
ATOM     76  C   UNL A   1      46.184  27.925  29.049  1.00  0.00     0.009 A 
ATOM     77  C   UNL A   1      45.826  28.221  26.283  1.00  0.00     0.001 A 
ATOM     78  C   UNL A   1      47.039  27.278  28.134  1.00  0.00     0.001 A 
ATOM     79  C   UNL A   1      46.884  27.453  26.756  1.00  0.00     0.000 A 
ENDBRANCH  55  74
BRANCH  67  80
ATOM     80  C   UNL A   1      42.421  35.590  28.943  1.00  0.00    -0.014 A 
ATOM     81  C   UNL A   1      43.071  36.664  29.563  1.00  0.00     0.009 A 
ATOM     82  C   UNL A   1      41.863  35.827  27.669  1.00  0.00     0.009 A 
ATOM     83  C   UNL A   1      43.120  37.922  28.963  1.00  0.00     0.001 A 
ATOM     84  C   UNL A   1      41.976  37.061  27.034  1.00  0.00     0.001 A 
ATOM     85  C   UNL A   1      42.590  38.114  27.692  1.00  0.00     0.000 A 
ENDBRANCH  67  80
ENDBRANCH  41  42
ENDBRANCH  34  36
ENDBRANCH  33  34
ENDBRANCH  32  33
ENDBRANCH  31  32
ENDBRANCH  30  31
ENDBRANCH   1  30
TORSDOF 18
ENDMDL
