MODEL 1
REMARK VINA RESULT:     -10.4      0.000      0.000
REMARK SMILES CC(C)CN(C)c1cc2c(cc1Cl)C=C(C(=O)OCCOCCOC(=O)c1ccc(-c3c4nc(c(-c5ccccc5)c5ccc([nH]5)c(-c5ccccc5)c5nc(c(-c6ccccc6)c6ccc3[nH]6)C=C5)C=C4)cc1)[C@@H](C(F)(F)F)O2
REMARK SMILES IDX 20 1 19 2 18 3 16 4 17 5 15 6 7 7 8 8 12 9 9 10 11 11 13 12
REMARK SMILES IDX 10 13 80 14 14 15 75 16 5 17 6 18 4 19 2 20 1 21 3 22 76 23
REMARK SMILES IDX 77 24 78 25 79 26 21 27 22 28 23 29 24 30 25 31 26 32 27 33
REMARK SMILES IDX 28 34 74 35 29 36 73 37 30 38 31 39 32 40 67 41 33 42 72 43
REMARK SMILES IDX 66 44 68 45 34 46 71 47 65 48 64 49 35 51 57 52 42 53 56 54
REMARK SMILES IDX 43 55 46 56 55 57 69 58 44 59 45 60 54 62 70 63 47 64 36 65
REMARK SMILES IDX 37 66 41 67 38 68 40 69 39 70 58 71 59 72 63 73 60 74 62 75
REMARK SMILES IDX 61 76 48 77 49 78 53 79 50 80 52 81 51 82
REMARK H PARENT 68 50 46 61
REMARK Flexibility Score: inf
ROOT
ATOM      1  C   UNL A   1      37.367  22.317  25.014  1.00  0.00     0.202 C 
ENDROOT
BRANCH   1   2
ATOM      2  C   UNL A   1      36.087  21.559  24.649  1.00  0.00     0.261 C 
BRANCH   2   3
ATOM      3  O   UNL A   1      34.894  22.200  25.129  1.00  0.00    -0.460 OA
BRANCH   3   4
ATOM      4  C   UNL A   1      33.775  21.775  24.499  1.00  0.00     0.338 C 
ATOM      5  O   UNL A   1      33.457  20.616  24.282  1.00  0.00    -0.246 OA
BRANCH   4   6
ATOM      6  C   UNL A   1      32.881  22.903  24.190  1.00  0.00     0.087 C 
ATOM      7  C   UNL A   1      31.614  27.660  23.252  1.00  0.00     0.059 A 
ATOM      8  C   UNL A   1      30.890  26.537  23.717  1.00  0.00     0.074 A 
ATOM      9  C   UNL A   1      32.968  27.454  22.907  1.00  0.00     0.065 A 
ATOM     10  C   UNL A   1      31.490  25.272  23.801  1.00  0.00     0.130 A 
ATOM     11  C   UNL A   1      33.510  26.175  22.844  1.00  0.00     0.034 A 
ATOM     12  Cl  UNL A   1      34.093  28.751  22.676  1.00  0.00    -0.082 Cl
ATOM     13  C   UNL A   1      32.773  25.088  23.293  1.00  0.00     0.019 A 
ATOM     14  O   UNL A   1      30.790  24.247  24.388  1.00  0.00    -0.475 OA
ATOM     15  C   UNL A   1      33.414  23.797  23.351  1.00  0.00     0.027 C 
ATOM     16  C   UNL A   1      31.575  23.115  24.901  1.00  0.00     0.316 C 
BRANCH   7  17
ATOM     17  N   UNL A   1      31.020  28.925  23.162  1.00  0.00    -0.373 N 
ATOM     18  C   UNL A   1      30.879  29.659  24.416  1.00  0.00     0.143 C 
BRANCH  17  19
ATOM     19  C   UNL A   1      29.999  29.167  22.116  1.00  0.00     0.119 C 
BRANCH  19  20
ATOM     20  C   UNL A   1      28.771  29.959  22.618  1.00  0.00     0.002 C 
ATOM     21  C   UNL A   1      28.283  30.985  21.589  1.00  0.00     0.009 C 
ATOM     22  C   UNL A   1      27.601  29.046  22.992  1.00  0.00     0.009 C 
ENDBRANCH  19  20
ENDBRANCH  17  19
ENDBRANCH   7  17
BRANCH  16  23
ATOM     23  C   UNL A   1      31.778  23.234  26.420  1.00  0.00     0.430 C 
ATOM     24  F   UNL A   1      32.266  22.087  26.948  1.00  0.00    -0.167 F 
ATOM     25  F   UNL A   1      32.673  24.209  26.717  1.00  0.00    -0.167 F 
ATOM     26  F   UNL A   1      30.630  23.529  27.070  1.00  0.00    -0.167 F 
ENDBRANCH  16  23
ENDBRANCH   4   6
ENDBRANCH   3   4
ENDBRANCH   2   3
ENDBRANCH   1   2
BRANCH   1  27
ATOM     27  O   UNL A   1      38.475  21.587  25.526  1.00  0.00    -0.374 OA
BRANCH  27  28
ATOM     28  C   UNL A   1      38.668  20.234  25.125  1.00  0.00     0.202 C 
BRANCH  28  29
ATOM     29  C   UNL A   1      39.685  19.361  25.872  1.00  0.00     0.261 C 
BRANCH  29  30
ATOM     30  O   UNL A   1      40.996  19.371  25.286  1.00  0.00    -0.460 OA
BRANCH  30  31
ATOM     31  C   UNL A   1      42.017  19.450  26.181  1.00  0.00     0.338 C 
ATOM     32  O   UNL A   1      42.811  18.580  26.481  1.00  0.00    -0.246 OA
BRANCH  31  33
ATOM     33  C   UNL A   1      42.156  20.849  26.621  1.00  0.00     0.060 A 
ATOM     34  C   UNL A   1      42.010  21.190  27.964  1.00  0.00     0.016 A 
ATOM     35  C   UNL A   1      42.493  21.818  25.666  1.00  0.00     0.016 A 
ATOM     36  C   UNL A   1      42.211  22.515  28.354  1.00  0.00     0.010 A 
ATOM     37  C   UNL A   1      42.691  23.140  26.058  1.00  0.00     0.010 A 
ATOM     38  C   UNL A   1      42.564  23.495  27.408  1.00  0.00    -0.014 A 
BRANCH  38  39
ATOM     39  C   UNL A   1      42.911  24.865  27.853  1.00  0.00     0.031 A 
ATOM     40  C   UNL A   1      41.861  25.913  28.044  1.00  0.00     0.074 A 
ATOM     41  C   UNL A   1      44.204  25.156  28.084  1.00  0.00     0.049 A 
ATOM     42  N   UNL A   1      41.991  27.124  28.525  1.00  0.00    -0.248 NA
ATOM     43  C   UNL A   1      40.490  25.565  27.643  1.00  0.00     0.031 C 
ATOM     44  C   UNL A   1      45.314  24.221  27.904  1.00  0.00     0.029 A 
ATOM     45  N   UNL A   1      44.800  26.306  28.535  1.00  0.00    -0.354 N 
ATOM     46  C   UNL A   1      40.717  27.672  28.515  1.00  0.00     0.074 A 
ATOM     47  C   UNL A   1      39.839  26.688  27.916  1.00  0.00     0.031 C 
ATOM     48  C   UNL A   1      46.451  24.818  28.287  1.00  0.00     0.029 A 
ATOM     49  C   UNL A   1      46.158  26.188  28.702  1.00  0.00     0.049 A 
ATOM     50  H   UNL A   1      44.304  27.136  28.720  1.00  0.00     0.167 HD
ATOM     51  C   UNL A   1      40.314  28.877  28.989  1.00  0.00     0.031 A 
ATOM     52  C   UNL A   1      47.069  27.072  29.151  1.00  0.00     0.031 A 
ATOM     53  C   UNL A   1      41.205  29.868  29.538  1.00  0.00     0.049 A 
ATOM     54  C   UNL A   1      46.615  28.431  29.603  1.00  0.00     0.074 A 
ATOM     55  C   UNL A   1      40.889  31.114  30.051  1.00  0.00     0.029 A 
ATOM     56  N   UNL A   1      42.583  29.735  29.633  1.00  0.00    -0.354 N 
ATOM     57  N   UNL A   1      45.397  28.915  29.653  1.00  0.00    -0.248 NA
ATOM     58  C   UNL A   1      47.651  29.359  30.075  1.00  0.00     0.031 C 
ATOM     59  C   UNL A   1      42.080  31.765  30.381  1.00  0.00     0.029 A 
ATOM     60  C   UNL A   1      43.134  30.891  30.163  1.00  0.00     0.049 A 
ATOM     61  H   UNL A   1      43.094  28.937  29.364  1.00  0.00     0.167 HD
ATOM     62  C   UNL A   1      45.515  30.194  30.180  1.00  0.00     0.074 A 
ATOM     63  C   UNL A   1      46.924  30.406  30.449  1.00  0.00     0.031 C 
ATOM     64  C   UNL A   1      44.540  31.105  30.419  1.00  0.00     0.031 A 
BRANCH  51  65
ATOM     65  C   UNL A   1      38.842  29.192  28.938  1.00  0.00    -0.014 A 
ATOM     66  C   UNL A   1      38.266  29.706  27.765  1.00  0.00     0.009 A 
ATOM     67  C   UNL A   1      38.034  29.051  30.079  1.00  0.00     0.009 A 
ATOM     68  C   UNL A   1      36.920  30.078  27.737  1.00  0.00     0.001 A 
ATOM     69  C   UNL A   1      36.680  29.389  30.038  1.00  0.00     0.001 A 
ATOM     70  C   UNL A   1      36.126  29.911  28.871  1.00  0.00     0.000 A 
ENDBRANCH  51  65
BRANCH  52  71
ATOM     71  C   UNL A   1      48.490  26.645  29.242  1.00  0.00    -0.014 A 
ATOM     72  C   UNL A   1      48.985  26.058  30.420  1.00  0.00     0.009 A 
ATOM     73  C   UNL A   1      49.385  26.932  28.201  1.00  0.00     0.009 A 
ATOM     74  C   UNL A   1      50.350  25.813  30.570  1.00  0.00     0.001 A 
ATOM     75  C   UNL A   1      50.746  26.655  28.342  1.00  0.00     0.001 A 
ATOM     76  C   UNL A   1      51.231  26.111  29.532  1.00  0.00     0.000 A 
ENDBRANCH  52  71
BRANCH  64  77
ATOM     77  C   UNL A   1      44.935  32.435  31.007  1.00  0.00    -0.014 A 
ATOM     78  C   UNL A   1      45.457  33.438  30.172  1.00  0.00     0.009 A 
ATOM     79  C   UNL A   1      44.916  32.653  32.393  1.00  0.00     0.009 A 
ATOM     80  C   UNL A   1      45.979  34.615  30.712  1.00  0.00     0.001 A 
ATOM     81  C   UNL A   1      45.405  33.847  32.929  1.00  0.00     0.001 A 
ATOM     82  C   UNL A   1      45.950  34.820  32.090  1.00  0.00     0.000 A 
ENDBRANCH  64  77
ENDBRANCH  38  39
ENDBRANCH  31  33
ENDBRANCH  30  31
ENDBRANCH  29  30
ENDBRANCH  28  29
ENDBRANCH  27  28
ENDBRANCH   1  27
TORSDOF 18
ENDMDL
MODEL 2
REMARK VINA RESULT:     -10.3      1.041      5.763
REMARK SMILES CC(C)CN(C)c1cc2c(cc1Cl)C=C(C(=O)OCCOCCOC(=O)c1ccc(-c3c4nc(c(-c5ccccc5)c5ccc([nH]5)c(-c5ccccc5)c5nc(c(-c6ccccc6)c6ccc3[nH]6)C=C5)C=C4)cc1)[C@@H](C(F)(F)F)O2
REMARK SMILES IDX 20 1 19 2 18 3 16 4 17 5 15 6 7 7 8 8 12 9 9 10 11 11 13 12
REMARK SMILES IDX 10 13 80 14 14 15 75 16 5 17 6 18 4 19 2 20 1 21 3 22 76 23
REMARK SMILES IDX 77 24 78 25 79 26 21 27 22 28 23 29 24 30 25 31 26 32 27 33
REMARK SMILES IDX 28 34 74 35 29 36 73 37 30 38 31 39 32 40 67 41 33 42 72 43
REMARK SMILES IDX 66 44 68 45 34 46 71 47 65 48 64 49 35 51 57 52 42 53 56 54
REMARK SMILES IDX 43 55 46 56 55 57 69 58 44 59 45 60 54 62 70 63 47 64 36 65
REMARK SMILES IDX 37 66 41 67 38 68 40 69 39 70 58 71 59 72 63 73 60 74 62 75
REMARK SMILES IDX 61 76 48 77 49 78 53 79 50 80 52 81 51 82
REMARK H PARENT 68 50 46 61
REMARK Flexibility Score: inf
ROOT
ATOM      1  C   UNL A   1      36.498  21.130  24.595  1.00  0.00     0.202 C 
ENDROOT
BRANCH   1   2
ATOM      2  C   UNL A   1      35.001  21.230  24.904  1.00  0.00     0.261 C 
BRANCH   2   3
ATOM      3  O   UNL A   1      34.241  21.818  23.836  1.00  0.00    -0.460 OA
BRANCH   3   4
ATOM      4  C   UNL A   1      32.911  21.598  23.947  1.00  0.00     0.338 C 
ATOM      5  O   UNL A   1      32.366  20.524  24.156  1.00  0.00    -0.246 OA
BRANCH   4   6
ATOM      6  C   UNL A   1      32.159  22.862  23.905  1.00  0.00     0.087 C 
ATOM      7  C   UNL A   1      31.456  27.793  23.352  1.00  0.00     0.059 A 
ATOM      8  C   UNL A   1      30.726  26.777  24.012  1.00  0.00     0.074 A 
ATOM      9  C   UNL A   1      32.603  27.395  22.631  1.00  0.00     0.065 A 
ATOM     10  C   UNL A   1      31.113  25.432  23.925  1.00  0.00     0.130 A 
ATOM     11  C   UNL A   1      32.892  26.051  22.419  1.00  0.00     0.034 A 
ATOM     12  Cl  UNL A   1      33.807  28.510  22.079  1.00  0.00    -0.082 Cl
ATOM     13  C   UNL A   1      32.151  25.074  23.068  1.00  0.00     0.019 A 
ATOM     14  O   UNL A   1      30.457  24.504  24.694  1.00  0.00    -0.475 OA
ATOM     15  C   UNL A   1      32.566  23.697  22.944  1.00  0.00     0.027 C 
ATOM     16  C   UNL A   1      31.164  23.244  24.963  1.00  0.00     0.316 C 
BRANCH   7  17
ATOM     17  N   UNL A   1      31.072  29.138  23.432  1.00  0.00    -0.373 N 
ATOM     18  C   UNL A   1      31.155  29.752  24.754  1.00  0.00     0.143 C 
BRANCH  17  19
ATOM     19  C   UNL A   1      30.023  29.641  22.515  1.00  0.00     0.119 C 
BRANCH  19  20
ATOM     20  C   UNL A   1      28.683  29.957  23.217  1.00  0.00     0.002 C 
ATOM     21  C   UNL A   1      28.137  31.337  22.831  1.00  0.00     0.009 C 
ATOM     22  C   UNL A   1      27.610  28.906  22.926  1.00  0.00     0.009 C 
ENDBRANCH  19  20
ENDBRANCH  17  19
ENDBRANCH   7  17
BRANCH  16  23
ATOM     23  C   UNL A   1      31.810  23.266  26.357  1.00  0.00     0.430 C 
ATOM     24  F   UNL A   1      31.052  23.951  27.245  1.00  0.00    -0.167 F 
ATOM     25  F   UNL A   1      31.947  22.010  26.852  1.00  0.00    -0.167 F 
ATOM     26  F   UNL A   1      33.038  23.831  26.346  1.00  0.00    -0.167 F 
ENDBRANCH  16  23
ENDBRANCH   4   6
ENDBRANCH   3   4
ENDBRANCH   2   3
ENDBRANCH   1   2
BRANCH   1  27
ATOM     27  O   UNL A   1      37.381  20.678  25.614  1.00  0.00    -0.374 OA
BRANCH  27  28
ATOM     28  C   UNL A   1      38.414  19.754  25.286  1.00  0.00     0.202 C 
BRANCH  28  29
ATOM     29  C   UNL A   1      39.696  19.721  26.130  1.00  0.00     0.261 C 
BRANCH  29  30
ATOM     30  O   UNL A   1      40.828  19.167  25.441  1.00  0.00    -0.460 OA
BRANCH  30  31
ATOM     31  C   UNL A   1      41.996  19.220  26.134  1.00  0.00     0.338 C 
ATOM     32  O   UNL A   1      42.816  18.335  26.277  1.00  0.00    -0.246 OA
BRANCH  31  33
ATOM     33  C   UNL A   1      42.238  20.612  26.553  1.00  0.00     0.060 A 
ATOM     34  C   UNL A   1      42.249  20.956  27.903  1.00  0.00     0.016 A 
ATOM     35  C   UNL A   1      42.509  21.568  25.565  1.00  0.00     0.016 A 
ATOM     36  C   UNL A   1      42.543  22.272  28.265  1.00  0.00     0.010 A 
ATOM     37  C   UNL A   1      42.801  22.880  25.929  1.00  0.00     0.010 A 
ATOM     38  C   UNL A   1      42.833  23.238  27.284  1.00  0.00    -0.014 A 
BRANCH  38  39
ATOM     39  C   UNL A   1      43.280  24.593  27.685  1.00  0.00     0.031 A 
ATOM     40  C   UNL A   1      44.725  24.980  27.653  1.00  0.00     0.074 A 
ATOM     41  C   UNL A   1      42.353  25.481  28.088  1.00  0.00     0.049 A 
ATOM     42  N   UNL A   1      45.263  26.152  27.875  1.00  0.00    -0.248 NA
ATOM     43  C   UNL A   1      45.692  23.920  27.334  1.00  0.00     0.031 C 
ATOM     44  C   UNL A   1      40.920  25.204  28.186  1.00  0.00     0.029 A 
ATOM     45  N   UNL A   1      42.470  26.793  28.469  1.00  0.00    -0.354 N 
ATOM     46  C   UNL A   1      46.628  25.981  27.692  1.00  0.00     0.074 A 
ATOM     47  C   UNL A   1      46.842  24.577  27.409  1.00  0.00     0.031 C 
ATOM     48  C   UNL A   1      40.285  26.325  28.553  1.00  0.00     0.029 A 
ATOM     49  C   UNL A   1      41.266  27.389  28.755  1.00  0.00     0.049 A 
ATOM     50  H   UNL A   1      43.333  27.262  28.533  1.00  0.00     0.167 HD
ATOM     51  C   UNL A   1      47.606  26.918  27.731  1.00  0.00     0.031 A 
ATOM     52  C   UNL A   1      40.976  28.651  29.124  1.00  0.00     0.031 A 
ATOM     53  C   UNL A   1      47.387  28.304  28.061  1.00  0.00     0.049 A 
ATOM     54  C   UNL A   1      42.084  29.659  29.234  1.00  0.00     0.074 A 
ATOM     55  C   UNL A   1      48.315  29.329  28.118  1.00  0.00     0.029 A 
ATOM     56  N   UNL A   1      46.161  28.856  28.405  1.00  0.00    -0.354 N 
ATOM     57  N   UNL A   1      43.363  29.502  28.993  1.00  0.00    -0.248 NA
ATOM     58  C   UNL A   1      41.711  31.018  29.649  1.00  0.00     0.031 C 
ATOM     59  C   UNL A   1      47.667  30.479  28.572  1.00  0.00     0.029 A 
ATOM     60  C   UNL A   1      46.316  30.199  28.710  1.00  0.00     0.049 A 
ATOM     61  H   UNL A   1      45.307  28.366  28.429  1.00  0.00     0.167 HD
ATOM     62  C   UNL A   1      43.947  30.744  29.206  1.00  0.00     0.074 A 
ATOM     63  C   UNL A   1      42.878  31.648  29.581  1.00  0.00     0.031 C 
ATOM     64  C   UNL A   1      45.252  31.096  29.096  1.00  0.00     0.031 A 
BRANCH  51  65
ATOM     65  C   UNL A   1      49.009  26.477  27.403  1.00  0.00    -0.014 A 
ATOM     66  C   UNL A   1      49.450  26.443  26.070  1.00  0.00     0.009 A 
ATOM     67  C   UNL A   1      49.876  26.019  28.410  1.00  0.00     0.009 A 
ATOM     68  C   UNL A   1      50.720  25.956  25.753  1.00  0.00     0.001 A 
ATOM     69  C   UNL A   1      51.158  25.567  28.094  1.00  0.00     0.001 A 
ATOM     70  C   UNL A   1      51.576  25.527  26.765  1.00  0.00     0.000 A 
ENDBRANCH  51  65
BRANCH  52  71
ATOM     71  C   UNL A   1      39.552  29.016  29.349  1.00  0.00    -0.014 A 
ATOM     72  C   UNL A   1      38.950  28.803  30.601  1.00  0.00     0.009 A 
ATOM     73  C   UNL A   1      38.759  29.463  28.282  1.00  0.00     0.009 A 
ATOM     74  C   UNL A   1      37.576  28.985  30.767  1.00  0.00     0.001 A 
ATOM     75  C   UNL A   1      37.389  29.675  28.460  1.00  0.00     0.001 A 
ATOM     76  C   UNL A   1      36.796  29.420  29.697  1.00  0.00     0.000 A 
ENDBRANCH  52  71
BRANCH  64  77
ATOM     77  C   UNL A   1      45.630  32.527  29.380  1.00  0.00    -0.014 A 
ATOM     78  C   UNL A   1      45.679  33.457  28.327  1.00  0.00     0.009 A 
ATOM     79  C   UNL A   1      46.062  32.927  30.654  1.00  0.00     0.009 A 
ATOM     80  C   UNL A   1      46.179  34.743  28.535  1.00  0.00     0.001 A 
ATOM     81  C   UNL A   1      46.528  34.226  30.868  1.00  0.00     0.001 A 
ATOM     82  C   UNL A   1      46.601  35.128  29.806  1.00  0.00     0.000 A 
ENDBRANCH  64  77
ENDBRANCH  38  39
ENDBRANCH  31  33
ENDBRANCH  30  31
ENDBRANCH  29  30
ENDBRANCH  28  29
ENDBRANCH  27  28
ENDBRANCH   1  27
TORSDOF 18
ENDMDL
MODEL 3
REMARK VINA RESULT:     -10.3      3.742      5.500
REMARK SMILES CC(C)CN(C)c1cc2c(cc1Cl)C=C(C(=O)OCCOCCOC(=O)c1ccc(-c3c4nc(c(-c5ccccc5)c5ccc([nH]5)c(-c5ccccc5)c5nc(c(-c6ccccc6)c6ccc3[nH]6)C=C5)C=C4)cc1)[C@@H](C(F)(F)F)O2
REMARK SMILES IDX 20 1 19 2 18 3 16 4 17 5 15 6 7 7 8 8 12 9 9 10 11 11 13 12
REMARK SMILES IDX 10 13 80 14 14 15 75 16 5 17 6 18 4 19 2 20 1 21 3 22 76 23
REMARK SMILES IDX 77 24 78 25 79 26 21 27 22 28 23 29 24 30 25 31 26 32 27 33
REMARK SMILES IDX 28 34 74 35 29 36 73 37 30 38 31 39 32 40 67 41 33 42 72 43
REMARK SMILES IDX 66 44 68 45 34 46 71 47 65 48 64 49 35 51 57 52 42 53 56 54
REMARK SMILES IDX 43 55 46 56 55 57 69 58 44 59 45 60 54 62 70 63 47 64 36 65
REMARK SMILES IDX 37 66 41 67 38 68 40 69 39 70 58 71 59 72 63 73 60 74 62 75
REMARK SMILES IDX 61 76 48 77 49 78 53 79 50 80 52 81 51 82
REMARK H PARENT 68 50 46 61
REMARK Flexibility Score: inf
ROOT
ATOM      1  C   UNL A   1      35.100  22.409  26.307  1.00  0.00     0.202 C 
ENDROOT
BRANCH   1   2
ATOM      2  C   UNL A   1      35.643  23.758  25.826  1.00  0.00     0.261 C 
BRANCH   2   3
ATOM      3  O   UNL A   1      34.648  24.574  25.188  1.00  0.00    -0.460 OA
BRANCH   3   4
ATOM      4  C   UNL A   1      34.655  24.461  23.840  1.00  0.00     0.338 C 
ATOM      5  O   UNL A   1      35.357  23.714  23.176  1.00  0.00    -0.246 OA
BRANCH   4   6
ATOM      6  C   UNL A   1      33.597  25.286  23.234  1.00  0.00     0.087 C 
ATOM      7  C   UNL A   1      30.185  28.947  22.973  1.00  0.00     0.059 A 
ATOM      8  C   UNL A   1      30.355  27.728  22.276  1.00  0.00     0.074 A 
ATOM      9  C   UNL A   1      31.180  29.294  23.913  1.00  0.00     0.065 A 
ATOM     10  C   UNL A   1      31.480  26.919  22.493  1.00  0.00     0.130 A 
ATOM     11  C   UNL A   1      32.365  28.571  24.010  1.00  0.00     0.034 A 
ATOM     12  Cl  UNL A   1      30.966  30.533  25.103  1.00  0.00    -0.082 Cl
ATOM     13  C   UNL A   1      32.511  27.385  23.304  1.00  0.00     0.019 A 
ATOM     14  O   UNL A   1      31.530  25.683  21.898  1.00  0.00    -0.475 OA
ATOM     15  C   UNL A   1      33.689  26.584  23.539  1.00  0.00     0.027 C 
ATOM     16  C   UNL A   1      32.428  24.689  22.504  1.00  0.00     0.316 C 
BRANCH   7  17
ATOM     17  N   UNL A   1      29.066  29.761  22.758  1.00  0.00    -0.373 N 
ATOM     18  C   UNL A   1      27.765  29.140  22.991  1.00  0.00     0.143 C 
BRANCH  17  19
ATOM     19  C   UNL A   1      29.137  30.821  21.725  1.00  0.00     0.119 C 
BRANCH  19  20
ATOM     20  C   UNL A   1      28.175  32.003  21.981  1.00  0.00     0.002 C 
ATOM     21  C   UNL A   1      28.773  33.040  22.939  1.00  0.00     0.009 C 
ATOM     22  C   UNL A   1      27.762  32.710  20.688  1.00  0.00     0.009 C 
ENDBRANCH  19  20
ENDBRANCH  17  19
ENDBRANCH   7  17
BRANCH  16  23
ATOM     23  C   UNL A   1      31.645  23.719  23.401  1.00  0.00     0.430 C 
ATOM     24  F   UNL A   1      31.549  24.181  24.669  1.00  0.00    -0.167 F 
ATOM     25  F   UNL A   1      30.375  23.555  22.951  1.00  0.00    -0.167 F 
ATOM     26  F   UNL A   1      32.214  22.494  23.454  1.00  0.00    -0.167 F 
ENDBRANCH  16  23
ENDBRANCH   4   6
ENDBRANCH   3   4
ENDBRANCH   2   3
ENDBRANCH   1   2
BRANCH   1  27
ATOM     27  O   UNL A   1      35.138  21.298  25.421  1.00  0.00    -0.374 OA
BRANCH  27  28
ATOM     28  C   UNL A   1      36.323  20.512  25.334  1.00  0.00     0.202 C 
BRANCH  28  29
ATOM     29  C   UNL A   1      37.581  21.109  24.689  1.00  0.00     0.261 C 
BRANCH  29  30
ATOM     30  O   UNL A   1      38.547  21.586  25.639  1.00  0.00    -0.460 OA
BRANCH  30  31
ATOM     31  C   UNL A   1      39.591  20.743  25.858  1.00  0.00     0.338 C 
ATOM     32  O   UNL A   1      39.718  19.600  25.467  1.00  0.00    -0.246 OA
BRANCH  31  33
ATOM     33  C   UNL A   1      40.682  21.495  26.504  1.00  0.00     0.060 A 
ATOM     34  C   UNL A   1      41.982  20.995  26.513  1.00  0.00     0.016 A 
ATOM     35  C   UNL A   1      40.390  22.748  27.060  1.00  0.00     0.016 A 
ATOM     36  C   UNL A   1      43.001  21.763  27.079  1.00  0.00     0.010 A 
ATOM     37  C   UNL A   1      41.409  23.511  27.625  1.00  0.00     0.010 A 
ATOM     38  C   UNL A   1      42.724  23.029  27.626  1.00  0.00    -0.014 A 
BRANCH  38  39
ATOM     39  C   UNL A   1      43.833  23.893  28.096  1.00  0.00     0.031 A 
ATOM     40  C   UNL A   1      44.161  24.022  29.550  1.00  0.00     0.074 A 
ATOM     41  C   UNL A   1      44.550  24.571  27.180  1.00  0.00     0.049 A 
ATOM     42  N   UNL A   1      45.161  24.654  30.111  1.00  0.00    -0.248 NA
ATOM     43  C   UNL A   1      43.253  23.362  30.498  1.00  0.00     0.031 C 
ATOM     44  C   UNL A   1      44.302  24.542  25.739  1.00  0.00     0.029 A 
ATOM     45  N   UNL A   1      45.637  25.396  27.320  1.00  0.00    -0.354 N 
ATOM     46  C   UNL A   1      45.022  24.443  31.475  1.00  0.00     0.074 A 
ATOM     47  C   UNL A   1      43.804  23.683  31.662  1.00  0.00     0.031 C 
ATOM     48  C   UNL A   1      45.239  25.275  25.123  1.00  0.00     0.029 A 
ATOM     49  C   UNL A   1      46.130  25.856  26.124  1.00  0.00     0.049 A 
ATOM     50  H   UNL A   1      46.025  25.635  28.192  1.00  0.00     0.167 HD
ATOM     51  C   UNL A   1      45.852  24.827  32.474  1.00  0.00     0.031 A 
ATOM     52  C   UNL A   1      47.188  26.646  25.855  1.00  0.00     0.031 A 
ATOM     53  C   UNL A   1      47.037  25.625  32.281  1.00  0.00     0.049 A 
ATOM     54  C   UNL A   1      48.055  27.124  26.984  1.00  0.00     0.074 A 
ATOM     55  C   UNL A   1      47.945  26.057  33.232  1.00  0.00     0.029 A 
ATOM     56  N   UNL A   1      47.470  26.125  31.061  1.00  0.00    -0.354 N 
ATOM     57  N   UNL A   1      47.954  26.861  28.265  1.00  0.00    -0.248 NA
ATOM     58  C   UNL A   1      49.190  27.989  26.634  1.00  0.00     0.031 C 
ATOM     59  C   UNL A   1      48.880  26.880  32.600  1.00  0.00     0.029 A 
ATOM     60  C   UNL A   1      48.612  26.889  31.240  1.00  0.00     0.049 A 
ATOM     61  H   UNL A   1      47.030  25.960  30.194  1.00  0.00     0.167 HD
ATOM     62  C   UNL A   1      49.020  27.510  28.873  1.00  0.00     0.074 A 
ATOM     63  C   UNL A   1      49.766  28.167  27.818  1.00  0.00     0.031 C 
ATOM     64  C   UNL A   1      49.347  27.553  30.189  1.00  0.00     0.031 A 
BRANCH  51  65
ATOM     65  C   UNL A   1      45.512  24.385  33.874  1.00  0.00    -0.014 A 
ATOM     66  C   UNL A   1      45.967  23.148  34.359  1.00  0.00     0.009 A 
ATOM     67  C   UNL A   1      44.674  25.161  34.692  1.00  0.00     0.009 A 
ATOM     68  C   UNL A   1      45.586  22.696  35.624  1.00  0.00     0.001 A 
ATOM     69  C   UNL A   1      44.324  24.724  35.971  1.00  0.00     0.001 A 
ATOM     70  C   UNL A   1      44.772  23.487  36.432  1.00  0.00     0.000 A 
ENDBRANCH  51  65
BRANCH  52  71
ATOM     71  C   UNL A   1      47.494  26.964  24.436  1.00  0.00    -0.014 A 
ATOM     72  C   UNL A   1      48.538  26.302  23.765  1.00  0.00     0.009 A 
ATOM     73  C   UNL A   1      46.827  28.012  23.784  1.00  0.00     0.009 A 
ATOM     74  C   UNL A   1      48.937  26.716  22.493  1.00  0.00     0.001 A 
ATOM     75  C   UNL A   1      47.208  28.401  22.498  1.00  0.00     0.001 A 
ATOM     76  C   UNL A   1      48.273  27.765  21.861  1.00  0.00     0.000 A 
ENDBRANCH  52  71
BRANCH  64  77
ATOM     77  C   UNL A   1      50.571  28.333  30.594  1.00  0.00    -0.014 A 
ATOM     78  C   UNL A   1      51.781  27.657  30.831  1.00  0.00     0.009 A 
ATOM     79  C   UNL A   1      50.501  29.707  30.867  1.00  0.00     0.009 A 
ATOM     80  C   UNL A   1      52.882  28.331  31.361  1.00  0.00     0.001 A 
ATOM     81  C   UNL A   1      51.616  30.388  31.363  1.00  0.00     0.001 A 
ATOM     82  C   UNL A   1      52.800  29.697  31.624  1.00  0.00     0.000 A 
ENDBRANCH  64  77
ENDBRANCH  38  39
ENDBRANCH  31  33
ENDBRANCH  30  31
ENDBRANCH  29  30
ENDBRANCH  28  29
ENDBRANCH  27  28
ENDBRANCH   1  27
TORSDOF 18
ENDMDL
