MODEL 1
REMARK VINA RESULT:     -11.3      0.000      0.000
REMARK SMILES CS(=O)(=O)c1ccc(/C=C(/C(=O)OCCOCCOC(=O)c2ccc(-c3c4nc(c(-c5ccccc5)c5ccc([nH]5)c(-c5ccccc5)c5nc(c(-c6ccccc6)c6ccc3[nH]6)C=C5)C=C4)cc2)c2ccc(F)cc2)cc1
REMARK SMILES IDX 16 1 15 2 14 3 13 4 11 5 12 6 10 7 9 8 8 9 5 10 6 11 78 12
REMARK SMILES IDX 7 13 77 14 2 15 1 16 3 17 4 18 70 19 71 20 76 21 72 22 75 23
REMARK SMILES IDX 73 24 74 25 17 26 18 27 19 28 20 29 21 30 22 31 23 32 69 33
REMARK SMILES IDX 24 34 68 35 25 36 26 37 27 38 62 39 28 40 67 41 61 42 63 43
REMARK SMILES IDX 29 44 66 45 60 46 59 47 30 49 52 50 37 51 51 52 38 53 41 54
REMARK SMILES IDX 50 55 64 56 39 57 40 58 49 60 65 61 42 62 31 63 32 64 36 65
REMARK SMILES IDX 33 66 35 67 34 68 53 69 54 70 58 71 55 72 57 73 56 74 43 75
REMARK SMILES IDX 44 76 48 77 45 78 47 79 46 80
REMARK H PARENT 63 48 41 59
REMARK Flexibility Score: inf
ROOT
ATOM      1  O   UNL A   1      35.660  21.633  24.723  1.00  0.00    -0.374 OA
ENDROOT
BRANCH   1   2
ATOM      2  C   UNL A   1      34.519  21.527  25.571  1.00  0.00     0.202 C 
BRANCH   2   3
ATOM      3  C   UNL A   1      33.374  22.515  25.340  1.00  0.00     0.261 C 
BRANCH   3   4
ATOM      4  O   UNL A   1      33.371  23.566  26.322  1.00  0.00    -0.460 OA
BRANCH   4   5
ATOM      5  C   UNL A   1      32.135  24.045  26.626  1.00  0.00     0.338 C 
ATOM      6  O   UNL A   1      31.425  23.645  27.539  1.00  0.00    -0.246 OA
BRANCH   5   7
ATOM      7  C   UNL A   1      31.755  25.222  25.778  1.00  0.00     0.067 C 
ATOM      8  C   UNL A   1      30.993  25.052  24.670  1.00  0.00     0.024 C 
BRANCH   8   9
ATOM      9  C   UNL A   1      30.295  26.103  23.889  1.00  0.00    -0.025 A 
ATOM     10  C   UNL A   1      28.925  28.368  22.947  1.00  0.00     0.067 A 
ATOM     11  C   UNL A   1      30.271  28.187  22.630  1.00  0.00     0.021 A 
ATOM     12  C   UNL A   1      28.222  27.369  23.618  1.00  0.00     0.021 A 
ATOM     13  C   UNL A   1      30.939  27.040  23.072  1.00  0.00     0.009 A 
ATOM     14  C   UNL A   1      28.909  26.239  24.080  1.00  0.00     0.009 A 
BRANCH  10  15
ATOM     15  S   UNL A   1      28.169  29.936  22.591  1.00  0.00     0.175 S 
ATOM     16  C   UNL A   1      29.096  31.152  23.480  1.00  0.00     0.163 C 
ATOM     17  O   UNL A   1      26.838  29.911  23.169  1.00  0.00    -0.224 OA
ATOM     18  O   UNL A   1      28.365  30.169  21.173  1.00  0.00    -0.224 OA
ENDBRANCH  10  15
ENDBRANCH   8   9
BRANCH   7  19
ATOM     19  C   UNL A   1      32.190  26.537  26.290  1.00  0.00    -0.011 A 
ATOM     20  C   UNL A   1      33.486  26.994  25.991  1.00  0.00     0.012 A 
ATOM     21  C   UNL A   1      31.338  27.340  27.058  1.00  0.00     0.012 A 
ATOM     22  C   UNL A   1      33.920  28.240  26.440  1.00  0.00     0.040 A 
ATOM     23  C   UNL A   1      31.771  28.592  27.499  1.00  0.00     0.040 A 
ATOM     24  C   UNL A   1      33.054  29.029  27.186  1.00  0.00     0.123 A 
ATOM     25  F   UNL A   1      33.463  30.232  27.608  1.00  0.00    -0.207 F 
ENDBRANCH   7  19
ENDBRANCH   5   7
ENDBRANCH   4   5
ENDBRANCH   3   4
ENDBRANCH   2   3
ENDBRANCH   1   2
BRANCH   1  26
ATOM     26  C   UNL A   1      36.811  20.861  25.055  1.00  0.00     0.202 C 
BRANCH  26  27
ATOM     27  C   UNL A   1      38.171  21.567  25.070  1.00  0.00     0.261 C 
BRANCH  27  28
ATOM     28  O   UNL A   1      38.406  22.290  26.287  1.00  0.00    -0.460 OA
BRANCH  28  29
ATOM     29  C   UNL A   1      39.680  22.711  26.453  1.00  0.00     0.338 C 
ATOM     30  O   UNL A   1      40.708  22.133  26.119  1.00  0.00    -0.246 OA
BRANCH  29  31
ATOM     31  C   UNL A   1      39.679  24.095  26.952  1.00  0.00     0.060 A 
ATOM     32  C   UNL A   1      40.330  25.071  26.185  1.00  0.00     0.016 A 
ATOM     33  C   UNL A   1      39.103  24.417  28.182  1.00  0.00     0.016 A 
ATOM     34  C   UNL A   1      40.450  26.371  26.669  1.00  0.00     0.010 A 
ATOM     35  C   UNL A   1      39.238  25.716  28.672  1.00  0.00     0.010 A 
ATOM     36  C   UNL A   1      39.943  26.686  27.935  1.00  0.00    -0.014 A 
BRANCH  36  37
ATOM     37  C   UNL A   1      40.300  27.966  28.583  1.00  0.00     0.031 A 
ATOM     38  C   UNL A   1      41.664  28.093  29.202  1.00  0.00     0.074 A 
ATOM     39  C   UNL A   1      39.426  28.983  28.640  1.00  0.00     0.049 A 
ATOM     40  N   UNL A   1      42.152  29.054  29.943  1.00  0.00    -0.248 NA
ATOM     41  C   UNL A   1      42.598  26.981  28.960  1.00  0.00     0.031 C 
ATOM     42  C   UNL A   1      38.100  28.999  28.026  1.00  0.00     0.029 A 
ATOM     43  N   UNL A   1      39.524  30.199  29.268  1.00  0.00    -0.354 N 
ATOM     44  C   UNL A   1      43.440  28.652  30.274  1.00  0.00     0.074 A 
ATOM     45  C   UNL A   1      43.651  27.354  29.672  1.00  0.00     0.031 C 
ATOM     46  C   UNL A   1      37.497  30.163  28.326  1.00  0.00     0.029 A 
ATOM     47  C   UNL A   1      38.378  30.950  29.187  1.00  0.00     0.049 A 
ATOM     48  H   UNL A   1      40.338  30.504  29.732  1.00  0.00     0.167 HD
ATOM     49  C   UNL A   1      44.364  29.306  31.017  1.00  0.00     0.031 A 
ATOM     50  C   UNL A   1      38.065  32.121  29.772  1.00  0.00     0.031 A 
ATOM     51  C   UNL A   1      44.143  30.591  31.622  1.00  0.00     0.049 A 
ATOM     52  C   UNL A   1      39.079  32.794  30.661  1.00  0.00     0.074 A 
ATOM     53  C   UNL A   1      45.014  31.343  32.389  1.00  0.00     0.029 A 
ATOM     54  N   UNL A   1      42.962  31.310  31.531  1.00  0.00    -0.354 N 
ATOM     55  N   UNL A   1      40.295  32.409  30.967  1.00  0.00    -0.248 NA
ATOM     56  C   UNL A   1      38.677  34.064  31.282  1.00  0.00     0.031 C 
ATOM     57  C   UNL A   1      44.341  32.496  32.806  1.00  0.00     0.029 A 
ATOM     58  C   UNL A   1      43.074  32.490  32.246  1.00  0.00     0.049 A 
ATOM     59  H   UNL A   1      42.163  31.024  31.033  1.00  0.00     0.167 HD
ATOM     60  C   UNL A   1      40.816  33.407  31.783  1.00  0.00     0.074 A 
ATOM     61  C   UNL A   1      39.786  34.415  31.920  1.00  0.00     0.031 C 
ATOM     62  C   UNL A   1      42.041  33.487  32.358  1.00  0.00     0.031 A 
BRANCH  49  63
ATOM     63  C   UNL A   1      45.678  28.616  31.250  1.00  0.00    -0.014 A 
ATOM     64  C   UNL A   1      46.774  28.821  30.398  1.00  0.00     0.009 A 
ATOM     65  C   UNL A   1      45.827  27.764  32.356  1.00  0.00     0.009 A 
ATOM     66  C   UNL A   1      47.983  28.160  30.629  1.00  0.00     0.001 A 
ATOM     67  C   UNL A   1      47.045  27.128  32.602  1.00  0.00     0.001 A 
ATOM     68  C   UNL A   1      48.118  27.318  31.733  1.00  0.00     0.000 A 
ENDBRANCH  49  63
BRANCH  50  69
ATOM     69  C   UNL A   1      36.725  32.727  29.562  1.00  0.00    -0.014 A 
ATOM     70  C   UNL A   1      36.454  33.484  28.411  1.00  0.00     0.009 A 
ATOM     71  C   UNL A   1      35.711  32.564  30.520  1.00  0.00     0.009 A 
ATOM     72  C   UNL A   1      35.206  34.088  28.239  1.00  0.00     0.001 A 
ATOM     73  C   UNL A   1      34.455  33.144  30.329  1.00  0.00     0.001 A 
ATOM     74  C   UNL A   1      34.207  33.913  29.195  1.00  0.00     0.000 A 
ENDBRANCH  50  69
BRANCH  62  75
ATOM     75  C   UNL A   1      42.362  34.730  33.139  1.00  0.00    -0.014 A 
ATOM     76  C   UNL A   1      43.064  35.800  32.562  1.00  0.00     0.009 A 
ATOM     77  C   UNL A   1      41.893  34.855  34.457  1.00  0.00     0.009 A 
ATOM     78  C   UNL A   1      43.312  36.958  33.302  1.00  0.00     0.001 A 
ATOM     79  C   UNL A   1      42.117  36.024  35.182  1.00  0.00     0.001 A 
ATOM     80  C   UNL A   1      42.833  37.072  34.606  1.00  0.00     0.000 A 
ENDBRANCH  62  75
ENDBRANCH  36  37
ENDBRANCH  29  31
ENDBRANCH  28  29
ENDBRANCH  27  28
ENDBRANCH  26  27
ENDBRANCH   1  26
TORSDOF 17
ENDMDL
MODEL 2
REMARK VINA RESULT:     -11.2      2.761      6.130
REMARK SMILES CS(=O)(=O)c1ccc(/C=C(/C(=O)OCCOCCOC(=O)c2ccc(-c3c4nc(c(-c5ccccc5)c5ccc([nH]5)c(-c5ccccc5)c5nc(c(-c6ccccc6)c6ccc3[nH]6)C=C5)C=C4)cc2)c2ccc(F)cc2)cc1
REMARK SMILES IDX 16 1 15 2 14 3 13 4 11 5 12 6 10 7 9 8 8 9 5 10 6 11 78 12
REMARK SMILES IDX 7 13 77 14 2 15 1 16 3 17 4 18 70 19 71 20 76 21 72 22 75 23
REMARK SMILES IDX 73 24 74 25 17 26 18 27 19 28 20 29 21 30 22 31 23 32 69 33
REMARK SMILES IDX 24 34 68 35 25 36 26 37 27 38 62 39 28 40 67 41 61 42 63 43
REMARK SMILES IDX 29 44 66 45 60 46 59 47 30 49 52 50 37 51 51 52 38 53 41 54
REMARK SMILES IDX 50 55 64 56 39 57 40 58 49 60 65 61 42 62 31 63 32 64 36 65
REMARK SMILES IDX 33 66 35 67 34 68 53 69 54 70 58 71 55 72 57 73 56 74 43 75
REMARK SMILES IDX 44 76 48 77 45 78 47 79 46 80
REMARK H PARENT 63 48 41 59
REMARK Flexibility Score: inf
ROOT
ATOM      1  O   UNL A   1      34.189  20.144  24.720  1.00  0.00    -0.374 OA
ENDROOT
BRANCH   1   2
ATOM      2  C   UNL A   1      32.851  20.602  24.904  1.00  0.00     0.202 C 
BRANCH   2   3
ATOM      3  C   UNL A   1      32.621  21.716  25.930  1.00  0.00     0.261 C 
BRANCH   3   4
ATOM      4  O   UNL A   1      32.156  22.926  25.306  1.00  0.00    -0.460 OA
BRANCH   4   5
ATOM      5  C   UNL A   1      32.709  24.062  25.808  1.00  0.00     0.338 C 
ATOM      6  O   UNL A   1      33.621  24.106  26.623  1.00  0.00    -0.246 OA
BRANCH   5   7
ATOM      7  C   UNL A   1      32.154  25.298  25.166  1.00  0.00     0.067 C 
ATOM      8  C   UNL A   1      31.401  25.210  24.044  1.00  0.00     0.024 C 
BRANCH   8   9
ATOM      9  C   UNL A   1      30.550  26.270  23.446  1.00  0.00    -0.025 A 
ATOM     10  C   UNL A   1      28.954  28.509  22.873  1.00  0.00     0.067 A 
ATOM     11  C   UNL A   1      30.249  28.428  22.362  1.00  0.00     0.021 A 
ATOM     12  C   UNL A   1      28.401  27.428  23.557  1.00  0.00     0.021 A 
ATOM     13  C   UNL A   1      31.027  27.295  22.621  1.00  0.00     0.009 A 
ATOM     14  C   UNL A   1      29.200  26.311  23.835  1.00  0.00     0.009 A 
BRANCH  10  15
ATOM     15  S   UNL A   1      28.080  30.051  22.742  1.00  0.00     0.175 S 
ATOM     16  C   UNL A   1      29.039  31.245  23.627  1.00  0.00     0.163 C 
ATOM     17  O   UNL A   1      26.828  29.896  23.458  1.00  0.00    -0.224 OA
ATOM     18  O   UNL A   1      28.100  30.411  21.337  1.00  0.00    -0.224 OA
ENDBRANCH  10  15
ENDBRANCH   8   9
BRANCH   7  19
ATOM     19  C   UNL A   1      32.416  26.558  25.891  1.00  0.00    -0.011 A 
ATOM     20  C   UNL A   1      33.587  27.283  25.607  1.00  0.00     0.012 A 
ATOM     21  C   UNL A   1      31.520  27.050  26.848  1.00  0.00     0.012 A 
ATOM     22  C   UNL A   1      33.852  28.486  26.257  1.00  0.00     0.040 A 
ATOM     23  C   UNL A   1      31.782  28.260  27.492  1.00  0.00     0.040 A 
ATOM     24  C   UNL A   1      32.943  28.965  27.191  1.00  0.00     0.123 A 
ATOM     25  F   UNL A   1      33.189  30.128  27.807  1.00  0.00    -0.207 F 
ENDBRANCH   7  19
ENDBRANCH   5   7
ENDBRANCH   4   5
ENDBRANCH   3   4
ENDBRANCH   2   3
ENDBRANCH   1   2
BRANCH   1  26
ATOM     26  C   UNL A   1      35.246  20.962  25.214  1.00  0.00     0.202 C 
BRANCH  26  27
ATOM     27  C   UNL A   1      36.685  20.473  25.018  1.00  0.00     0.261 C 
BRANCH  27  28
ATOM     28  O   UNL A   1      37.650  21.527  25.145  1.00  0.00    -0.460 OA
BRANCH  28  29
ATOM     29  C   UNL A   1      38.763  21.189  25.835  1.00  0.00     0.338 C 
ATOM     30  O   UNL A   1      39.339  20.107  25.840  1.00  0.00    -0.246 OA
BRANCH  29  31
ATOM     31  C   UNL A   1      39.327  22.386  26.476  1.00  0.00     0.060 A 
ATOM     32  C   UNL A   1      38.788  23.633  26.128  1.00  0.00     0.016 A 
ATOM     33  C   UNL A   1      40.405  22.293  27.357  1.00  0.00     0.016 A 
ATOM     34  C   UNL A   1      39.359  24.802  26.625  1.00  0.00     0.010 A 
ATOM     35  C   UNL A   1      40.986  23.466  27.842  1.00  0.00     0.010 A 
ATOM     36  C   UNL A   1      40.488  24.722  27.447  1.00  0.00    -0.014 A 
BRANCH  36  37
ATOM     37  C   UNL A   1      41.274  25.937  27.754  1.00  0.00     0.031 A 
ATOM     38  C   UNL A   1      40.647  26.987  28.628  1.00  0.00     0.074 A 
ATOM     39  C   UNL A   1      42.505  26.114  27.250  1.00  0.00     0.049 A 
ATOM     40  N   UNL A   1      41.076  28.188  28.919  1.00  0.00    -0.248 NA
ATOM     41  C   UNL A   1      39.358  26.637  29.248  1.00  0.00     0.031 C 
ATOM     42  C   UNL A   1      43.239  25.142  26.441  1.00  0.00     0.029 A 
ATOM     43  N   UNL A   1      43.349  27.193  27.333  1.00  0.00    -0.354 N 
ATOM     44  C   UNL A   1      40.099  28.744  29.736  1.00  0.00     0.074 A 
ATOM     45  C   UNL A   1      39.049  27.760  29.879  1.00  0.00     0.031 C 
ATOM     46  C   UNL A   1      44.419  25.679  26.083  1.00  0.00     0.029 A 
ATOM     47  C   UNL A   1      44.500  27.044  26.601  1.00  0.00     0.049 A 
ATOM     48  H   UNL A   1      43.147  27.996  27.866  1.00  0.00     0.167 HD
ATOM     49  C   UNL A   1      40.080  29.969  30.314  1.00  0.00     0.031 A 
ATOM     50  C   UNL A   1      45.488  27.924  26.350  1.00  0.00     0.031 A 
ATOM     51  C   UNL A   1      41.122  30.946  30.159  1.00  0.00     0.049 A 
ATOM     52  C   UNL A   1      45.407  29.309  26.937  1.00  0.00     0.074 A 
ATOM     53  C   UNL A   1      41.203  32.214  30.706  1.00  0.00     0.029 A 
ATOM     54  N   UNL A   1      42.263  30.763  29.394  1.00  0.00    -0.354 N 
ATOM     55  N   UNL A   1      44.482  29.826  27.710  1.00  0.00    -0.248 NA
ATOM     56  C   UNL A   1      46.507  30.229  26.618  1.00  0.00     0.031 C 
ATOM     57  C   UNL A   1      42.370  32.819  30.229  1.00  0.00     0.029 A 
ATOM     58  C   UNL A   1      43.046  31.903  29.438  1.00  0.00     0.049 A 
ATOM     59  H   UNL A   1      42.484  29.944  28.895  1.00  0.00     0.167 HD
ATOM     60  C   UNL A   1      44.909  31.117  28.002  1.00  0.00     0.074 A 
ATOM     61  C   UNL A   1      46.176  31.301  27.325  1.00  0.00     0.031 C 
ATOM     62  C   UNL A   1      44.311  32.061  28.769  1.00  0.00     0.031 A 
BRANCH  49  63
ATOM     63  C   UNL A   1      38.870  30.329  31.128  1.00  0.00    -0.014 A 
ATOM     64  C   UNL A   1      38.843  30.152  32.520  1.00  0.00     0.009 A 
ATOM     65  C   UNL A   1      37.745  30.878  30.492  1.00  0.00     0.009 A 
ATOM     66  C   UNL A   1      37.703  30.485  33.255  1.00  0.00     0.001 A 
ATOM     67  C   UNL A   1      36.617  31.237  31.232  1.00  0.00     0.001 A 
ATOM     68  C   UNL A   1      36.593  31.031  32.611  1.00  0.00     0.000 A 
ENDBRANCH  49  63
BRANCH  50  69
ATOM     69  C   UNL A   1      46.630  27.536  25.481  1.00  0.00    -0.014 A 
ATOM     70  C   UNL A   1      47.726  26.837  26.010  1.00  0.00     0.009 A 
ATOM     71  C   UNL A   1      46.638  27.879  24.119  1.00  0.00     0.009 A 
ATOM     72  C   UNL A   1      48.816  26.513  25.199  1.00  0.00     0.001 A 
ATOM     73  C   UNL A   1      47.716  27.527  23.305  1.00  0.00     0.001 A 
ATOM     74  C   UNL A   1      48.808  26.854  23.848  1.00  0.00     0.000 A 
ENDBRANCH  50  69
BRANCH  62  75
ATOM     75  C   UNL A   1      45.044  33.357  28.972  1.00  0.00    -0.014 A 
ATOM     76  C   UNL A   1      44.748  34.497  28.209  1.00  0.00     0.009 A 
ATOM     77  C   UNL A   1      46.004  33.451  29.993  1.00  0.00     0.009 A 
ATOM     78  C   UNL A   1      45.419  35.698  28.449  1.00  0.00     0.001 A 
ATOM     79  C   UNL A   1      46.651  34.659  30.249  1.00  0.00     0.001 A 
ATOM     80  C   UNL A   1      46.364  35.780  29.472  1.00  0.00     0.000 A 
ENDBRANCH  62  75
ENDBRANCH  36  37
ENDBRANCH  29  31
ENDBRANCH  28  29
ENDBRANCH  27  28
ENDBRANCH  26  27
ENDBRANCH   1  26
TORSDOF 17
ENDMDL
MODEL 3
REMARK VINA RESULT:     -11.2      2.092      3.353
REMARK SMILES CS(=O)(=O)c1ccc(/C=C(/C(=O)OCCOCCOC(=O)c2ccc(-c3c4nc(c(-c5ccccc5)c5ccc([nH]5)c(-c5ccccc5)c5nc(c(-c6ccccc6)c6ccc3[nH]6)C=C5)C=C4)cc2)c2ccc(F)cc2)cc1
REMARK SMILES IDX 16 1 15 2 14 3 13 4 11 5 12 6 10 7 9 8 8 9 5 10 6 11 78 12
REMARK SMILES IDX 7 13 77 14 2 15 1 16 3 17 4 18 70 19 71 20 76 21 72 22 75 23
REMARK SMILES IDX 73 24 74 25 17 26 18 27 19 28 20 29 21 30 22 31 23 32 69 33
REMARK SMILES IDX 24 34 68 35 25 36 26 37 27 38 62 39 28 40 67 41 61 42 63 43
REMARK SMILES IDX 29 44 66 45 60 46 59 47 30 49 52 50 37 51 51 52 38 53 41 54
REMARK SMILES IDX 50 55 64 56 39 57 40 58 49 60 65 61 42 62 31 63 32 64 36 65
REMARK SMILES IDX 33 66 35 67 34 68 53 69 54 70 58 71 55 72 57 73 56 74 43 75
REMARK SMILES IDX 44 76 48 77 45 78 47 79 46 80
REMARK H PARENT 63 48 41 59
REMARK Flexibility Score: inf
ROOT
ATOM      1  O   UNL A   1      36.430  21.302  25.140  1.00  0.00    -0.374 OA
ENDROOT
BRANCH   1   2
ATOM      2  C   UNL A   1      35.436  21.762  26.053  1.00  0.00     0.202 C 
BRANCH   2   3
ATOM      3  C   UNL A   1      35.277  23.275  26.218  1.00  0.00     0.261 C 
BRANCH   3   4
ATOM      4  O   UNL A   1      34.279  23.805  25.327  1.00  0.00    -0.460 OA
BRANCH   4   5
ATOM      5  C   UNL A   1      33.129  24.190  25.941  1.00  0.00     0.338 C 
ATOM      6  O   UNL A   1      32.689  23.718  26.981  1.00  0.00    -0.246 OA
BRANCH   5   7
ATOM      7  C   UNL A   1      32.483  25.360  25.261  1.00  0.00     0.067 C 
ATOM      8  C   UNL A   1      31.754  25.182  24.133  1.00  0.00     0.024 C 
BRANCH   8   9
ATOM      9  C   UNL A   1      30.827  26.153  23.500  1.00  0.00    -0.025 A 
ATOM     10  C   UNL A   1      29.057  28.236  22.852  1.00  0.00     0.067 A 
ATOM     11  C   UNL A   1      30.363  28.256  22.365  1.00  0.00     0.021 A 
ATOM     12  C   UNL A   1      28.585  27.125  23.549  1.00  0.00     0.021 A 
ATOM     13  C   UNL A   1      31.230  27.200  22.661  1.00  0.00     0.009 A 
ATOM     14  C   UNL A   1      29.471  26.086  23.864  1.00  0.00     0.009 A 
BRANCH  10  15
ATOM     15  S   UNL A   1      28.057  29.695  22.674  1.00  0.00     0.175 S 
ATOM     16  C   UNL A   1      28.936  31.004  23.474  1.00  0.00     0.163 C 
ATOM     17  O   UNL A   1      26.840  29.475  23.432  1.00  0.00    -0.224 OA
ATOM     18  O   UNL A   1      28.013  29.985  21.254  1.00  0.00    -0.224 OA
ENDBRANCH  10  15
ENDBRANCH   8   9
BRANCH   7  19
ATOM     19  C   UNL A   1      32.632  26.656  25.956  1.00  0.00    -0.011 A 
ATOM     20  C   UNL A   1      33.764  27.447  25.696  1.00  0.00     0.012 A 
ATOM     21  C   UNL A   1      31.666  27.114  26.860  1.00  0.00     0.012 A 
ATOM     22  C   UNL A   1      33.923  28.684  26.318  1.00  0.00     0.040 A 
ATOM     23  C   UNL A   1      31.822  28.358  27.475  1.00  0.00     0.040 A 
ATOM     24  C   UNL A   1      32.947  29.129  27.199  1.00  0.00     0.123 A 
ATOM     25  F   UNL A   1      33.090  30.323  27.787  1.00  0.00    -0.207 F 
ENDBRANCH   7  19
ENDBRANCH   5   7
ENDBRANCH   4   5
ENDBRANCH   3   4
ENDBRANCH   2   3
ENDBRANCH   1   2
BRANCH   1  26
ATOM     26  C   UNL A   1      37.797  21.461  25.509  1.00  0.00     0.202 C 
BRANCH  26  27
ATOM     27  C   UNL A   1      38.761  20.309  25.207  1.00  0.00     0.261 C 
BRANCH  27  28
ATOM     28  O   UNL A   1      39.472  19.862  26.371  1.00  0.00    -0.460 OA
BRANCH  28  29
ATOM     29  C   UNL A   1      40.810  19.754  26.205  1.00  0.00     0.338 C 
ATOM     30  O   UNL A   1      41.424  18.847  25.654  1.00  0.00    -0.246 OA
BRANCH  29  31
ATOM     31  C   UNL A   1      41.461  21.001  26.635  1.00  0.00     0.060 A 
ATOM     32  C   UNL A   1      41.399  21.339  27.994  1.00  0.00     0.016 A 
ATOM     33  C   UNL A   1      42.067  21.853  25.712  1.00  0.00     0.016 A 
ATOM     34  C   UNL A   1      41.904  22.561  28.432  1.00  0.00     0.010 A 
ATOM     35  C   UNL A   1      42.559  23.084  26.149  1.00  0.00     0.010 A 
ATOM     36  C   UNL A   1      42.445  23.456  27.502  1.00  0.00    -0.014 A 
BRANCH  36  37
ATOM     37  C   UNL A   1      42.726  24.855  27.892  1.00  0.00     0.031 A 
ATOM     38  C   UNL A   1      44.150  25.242  28.176  1.00  0.00     0.074 A 
ATOM     39  C   UNL A   1      41.736  25.754  28.012  1.00  0.00     0.049 A 
ATOM     40  N   UNL A   1      44.624  26.357  28.666  1.00  0.00    -0.248 NA
ATOM     41  C   UNL A   1      45.175  24.228  27.876  1.00  0.00     0.031 C 
ATOM     42  C   UNL A   1      40.327  25.513  27.705  1.00  0.00     0.029 A 
ATOM     43  N   UNL A   1      41.771  27.055  28.446  1.00  0.00    -0.354 N 
ATOM     44  C   UNL A   1      45.998  26.171  28.755  1.00  0.00     0.074 A 
ATOM     45  C   UNL A   1      46.280  24.832  28.288  1.00  0.00     0.031 C 
ATOM     46  C   UNL A   1      39.627  26.627  27.982  1.00  0.00     0.029 A 
ATOM     47  C   UNL A   1      40.531  27.638  28.524  1.00  0.00     0.049 A 
ATOM     48  H   UNL A   1      42.605  27.525  28.679  1.00  0.00     0.167 HD
ATOM     49  C   UNL A   1      46.941  27.040  29.190  1.00  0.00     0.031 A 
ATOM     50  C   UNL A   1      40.167  28.839  29.013  1.00  0.00     0.031 A 
ATOM     51  C   UNL A   1      46.653  28.366  29.664  1.00  0.00     0.049 A 
ATOM     52  C   UNL A   1      41.224  29.759  29.567  1.00  0.00     0.074 A 
ATOM     53  C   UNL A   1      47.534  29.329  30.121  1.00  0.00     0.029 A 
ATOM     54  N   UNL A   1      45.381  28.913  29.745  1.00  0.00    -0.354 N 
ATOM     55  N   UNL A   1      42.520  29.578  29.645  1.00  0.00    -0.248 NA
ATOM     56  C   UNL A   1      40.765  31.051  30.098  1.00  0.00     0.031 C 
ATOM     57  C   UNL A   1      46.791  30.441  30.529  1.00  0.00     0.029 A 
ATOM     58  C   UNL A   1      45.453  30.193  30.265  1.00  0.00     0.049 A 
ATOM     59  H   UNL A   1      44.552  28.458  29.473  1.00  0.00     0.167 HD
ATOM     60  C   UNL A   1      43.036  30.746  30.196  1.00  0.00     0.074 A 
ATOM     61  C   UNL A   1      41.912  31.629  30.429  1.00  0.00     0.031 C 
ATOM     62  C   UNL A   1      44.324  31.062  30.475  1.00  0.00     0.031 A 
BRANCH  49  63
ATOM     63  C   UNL A   1      48.364  26.561  29.214  1.00  0.00    -0.014 A 
ATOM     64  C   UNL A   1      48.906  25.929  30.345  1.00  0.00     0.009 A 
ATOM     65  C   UNL A   1      49.170  26.723  28.076  1.00  0.00     0.009 A 
ATOM     66  C   UNL A   1      50.236  25.501  30.347  1.00  0.00     0.001 A 
ATOM     67  C   UNL A   1      50.489  26.268  28.070  1.00  0.00     0.001 A 
ATOM     68  C   UNL A   1      51.025  25.667  29.209  1.00  0.00     0.000 A 
ENDBRANCH  49  63
BRANCH  50  69
ATOM     69  C   UNL A   1      38.736  29.236  29.027  1.00  0.00    -0.014 A 
ATOM     70  C   UNL A   1      38.152  29.850  27.908  1.00  0.00     0.009 A 
ATOM     71  C   UNL A   1      37.946  29.018  30.169  1.00  0.00     0.009 A 
ATOM     72  C   UNL A   1      36.818  30.262  27.942  1.00  0.00     0.001 A 
ATOM     73  C   UNL A   1      36.605  29.404  30.188  1.00  0.00     0.001 A 
ATOM     74  C   UNL A   1      36.044  30.034  29.079  1.00  0.00     0.000 A 
ENDBRANCH  50  69
BRANCH  62  75
ATOM     75  C   UNL A   1      44.601  32.441  31.005  1.00  0.00    -0.014 A 
ATOM     76  C   UNL A   1      44.612  32.711  32.382  1.00  0.00     0.009 A 
ATOM     77  C   UNL A   1      44.921  33.471  30.105  1.00  0.00     0.009 A 
ATOM     78  C   UNL A   1      44.912  33.995  32.843  1.00  0.00     0.001 A 
ATOM     79  C   UNL A   1      45.249  34.743  30.571  1.00  0.00     0.001 A 
ATOM     80  C   UNL A   1      45.237  35.006  31.940  1.00  0.00     0.000 A 
ENDBRANCH  62  75
ENDBRANCH  36  37
ENDBRANCH  29  31
ENDBRANCH  28  29
ENDBRANCH  27  28
ENDBRANCH  26  27
ENDBRANCH   1  26
TORSDOF 17
ENDMDL
