MODEL 1
REMARK VINA RESULT:     -11.5      0.000      0.000
REMARK SMILES C[C@H](C(=O)OCCOCCOC(=O)c1ccc(-c2c3nc(c(-c4ccccc4)c4ccc([nH]4)c(-c4ccccc4)c4nc(c(-c5ccccc5)c5ccc2[nH]5)C=C4)C=C3)cc1)N1C(=O)C[C@@H](N2C(=O)/C(=C/c3ccccc3)SC2=S)C1=O
REMARK SMILES IDX 7 1 6 2 5 3 3 4 4 5 2 6 1 7 62 8 63 9 81 10 64 11 65 12
REMARK SMILES IDX 66 13 82 14 67 15 68 16 79 17 69 18 70 19 78 20 80 21 71 22
REMARK SMILES IDX 72 23 73 24 77 25 74 26 76 27 75 28 8 29 9 30 10 31 11 32
REMARK SMILES IDX 12 33 13 34 14 35 15 36 61 37 16 38 60 39 17 40 18 41 19 42
REMARK SMILES IDX 54 43 20 44 59 45 53 46 55 47 21 48 58 49 52 50 51 51 22 53
REMARK SMILES IDX 44 54 29 55 43 56 30 57 33 58 42 59 56 60 31 61 32 62 41 64
REMARK SMILES IDX 57 65 34 66 23 67 24 68 28 69 25 70 27 71 26 72 45 73 46 74
REMARK SMILES IDX 50 75 47 76 49 77 48 78 35 79 36 80 40 81 37 82 39 83 38 84
REMARK H PARENT 55 52 33 63
REMARK Flexibility Score: inf
ROOT
ATOM      1  C   UNL A   1      37.658  22.610  25.415  1.00  0.00     0.202 C 
ENDROOT
BRANCH   1   2
ATOM      2  C   UNL A   1      36.812  22.244  24.192  1.00  0.00     0.261 C 
BRANCH   2   3
ATOM      3  O   UNL A   1      35.436  22.654  24.332  1.00  0.00    -0.462 OA
BRANCH   3   4
ATOM      4  C   UNL A   1      34.574  21.648  24.615  1.00  0.00     0.329 C 
ATOM      5  O   UNL A   1      34.913  20.594  25.151  1.00  0.00    -0.250 OA
BRANCH   4   6
ATOM      6  C   UNL A   1      33.083  21.997  24.432  1.00  0.00     0.200 C 
ATOM      7  C   UNL A   1      32.333  20.911  25.255  1.00  0.00     0.044 C 
BRANCH   6   8
ATOM      8  N   UNL A   1      32.510  23.342  24.681  1.00  0.00    -0.267 N 
ATOM      9  C   UNL A   1      32.701  23.952  25.896  1.00  0.00     0.232 C 
ATOM     10  C   UNL A   1      31.366  23.821  24.104  1.00  0.00     0.253 C 
ATOM     11  O   UNL A   1      33.401  23.544  26.815  1.00  0.00    -0.274 OA
ATOM     12  C   UNL A   1      31.821  25.154  26.048  1.00  0.00     0.136 C 
ATOM     13  C   UNL A   1      30.881  25.057  24.869  1.00  0.00     0.191 C 
ATOM     14  O   UNL A   1      30.747  23.320  23.176  1.00  0.00    -0.272 OA
BRANCH  13  15
ATOM     15  N   UNL A   1      30.720  26.282  24.061  1.00  0.00    -0.280 N 
ATOM     16  C   UNL A   1      29.454  26.721  23.718  1.00  0.00     0.266 C 
ATOM     17  C   UNL A   1      31.762  27.059  23.587  1.00  0.00     0.149 C 
ATOM     18  O   UNL A   1      28.420  26.086  23.879  1.00  0.00    -0.268 OA
ATOM     19  C   UNL A   1      29.504  28.084  23.121  1.00  0.00     0.081 C 
ATOM     20  S   UNL A   1      31.128  28.471  22.736  1.00  0.00    -0.054 SA
ATOM     21  S   UNL A   1      33.400  26.798  23.743  1.00  0.00    -0.052 S 
ATOM     22  C   UNL A   1      28.414  28.865  23.064  1.00  0.00     0.029 C 
BRANCH  22  23
ATOM     23  C   UNL A   1      28.317  30.266  22.622  1.00  0.00    -0.024 A 
ATOM     24  C   UNL A   1      28.117  30.541  21.260  1.00  0.00     0.008 A 
ATOM     25  C   UNL A   1      28.507  31.340  23.497  1.00  0.00     0.008 A 
ATOM     26  C   UNL A   1      28.081  31.855  20.787  1.00  0.00     0.001 A 
ATOM     27  C   UNL A   1      28.479  32.655  23.022  1.00  0.00     0.001 A 
ATOM     28  C   UNL A   1      28.265  32.914  21.669  1.00  0.00     0.000 A 
ENDBRANCH  22  23
ENDBRANCH  13  15
ENDBRANCH   6   8
ENDBRANCH   4   6
ENDBRANCH   3   4
ENDBRANCH   2   3
ENDBRANCH   1   2
BRANCH   1  29
ATOM     29  O   UNL A   1      38.724  21.737  25.780  1.00  0.00    -0.374 OA
BRANCH  29  30
ATOM     30  C   UNL A   1      38.712  20.407  25.284  1.00  0.00     0.202 C 
BRANCH  30  31
ATOM     31  C   UNL A   1      39.690  19.385  25.878  1.00  0.00     0.261 C 
BRANCH  31  32
ATOM     32  O   UNL A   1      40.990  19.300  25.260  1.00  0.00    -0.460 OA
BRANCH  32  33
ATOM     33  C   UNL A   1      42.023  19.533  26.102  1.00  0.00     0.338 C 
ATOM     34  O   UNL A   1      42.923  18.739  26.366  1.00  0.00    -0.246 OA
BRANCH  33  35
ATOM     35  C   UNL A   1      42.040  20.914  26.637  1.00  0.00     0.060 A 
ATOM     36  C   UNL A   1      42.386  21.950  25.764  1.00  0.00     0.016 A 
ATOM     37  C   UNL A   1      41.819  21.200  27.983  1.00  0.00     0.016 A 
ATOM     38  C   UNL A   1      42.581  23.245  26.250  1.00  0.00     0.010 A 
ATOM     39  C   UNL A   1      42.049  22.485  28.482  1.00  0.00     0.010 A 
ATOM     40  C   UNL A   1      42.459  23.508  27.620  1.00  0.00    -0.014 A 
BRANCH  40  41
ATOM     41  C   UNL A   1      42.756  24.859  28.147  1.00  0.00     0.031 A 
ATOM     42  C   UNL A   1      44.158  25.232  28.533  1.00  0.00     0.074 A 
ATOM     43  C   UNL A   1      41.753  25.742  28.287  1.00  0.00     0.049 A 
ATOM     44  N   UNL A   1      44.621  26.390  28.932  1.00  0.00    -0.248 NA
ATOM     45  C   UNL A   1      45.170  24.167  28.468  1.00  0.00     0.031 C 
ATOM     46  C   UNL A   1      40.350  25.475  27.973  1.00  0.00     0.029 A 
ATOM     47  N   UNL A   1      41.761  27.038  28.734  1.00  0.00    -0.354 N 
ATOM     48  C   UNL A   1      45.979  26.200  29.151  1.00  0.00     0.074 A 
ATOM     49  C   UNL A   1      46.257  24.805  28.880  1.00  0.00     0.031 C 
ATOM     50  C   UNL A   1      39.628  26.576  28.237  1.00  0.00     0.029 A 
ATOM     51  C   UNL A   1      40.517  27.617  28.749  1.00  0.00     0.049 A 
ATOM     52  H   UNL A   1      42.578  27.506  29.017  1.00  0.00     0.167 HD
ATOM     53  C   UNL A   1      46.908  27.111  29.534  1.00  0.00     0.031 A 
ATOM     54  C   UNL A   1      40.137  28.849  29.133  1.00  0.00     0.031 A 
ATOM     55  C   UNL A   1      46.612  28.488  29.843  1.00  0.00     0.049 A 
ATOM     56  C   UNL A   1      41.181  29.829  29.594  1.00  0.00     0.074 A 
ATOM     57  C   UNL A   1      47.487  29.502  30.193  1.00  0.00     0.029 A 
ATOM     58  N   UNL A   1      45.338  29.036  29.862  1.00  0.00    -0.354 N 
ATOM     59  N   UNL A   1      42.478  29.668  29.693  1.00  0.00    -0.248 NA
ATOM     60  C   UNL A   1      40.708  31.167  29.972  1.00  0.00     0.031 C 
ATOM     61  C   UNL A   1      46.736  30.646  30.486  1.00  0.00     0.029 A 
ATOM     62  C   UNL A   1      45.401  30.365  30.250  1.00  0.00     0.049 A 
ATOM     63  H   UNL A   1      44.511  28.554  29.632  1.00  0.00     0.167 HD
ATOM     64  C   UNL A   1      42.981  30.891  30.115  1.00  0.00     0.074 A 
ATOM     65  C   UNL A   1      41.849  31.789  30.236  1.00  0.00     0.031 C 
ATOM     66  C   UNL A   1      44.264  31.243  30.375  1.00  0.00     0.031 A 
BRANCH  53  67
ATOM     67  C   UNL A   1      48.335  26.646  29.659  1.00  0.00    -0.014 A 
ATOM     68  C   UNL A   1      49.264  26.870  28.629  1.00  0.00     0.009 A 
ATOM     69  C   UNL A   1      48.774  26.035  30.843  1.00  0.00     0.009 A 
ATOM     70  C   UNL A   1      50.593  26.465  28.772  1.00  0.00     0.001 A 
ATOM     71  C   UNL A   1      50.110  25.655  30.995  1.00  0.00     0.001 A 
ATOM     72  C   UNL A   1      51.017  25.863  29.957  1.00  0.00     0.000 A 
ENDBRANCH  53  67
BRANCH  54  73
ATOM     73  C   UNL A   1      38.703  29.231  29.075  1.00  0.00    -0.014 A 
ATOM     74  C   UNL A   1      37.885  29.112  30.209  1.00  0.00     0.009 A 
ATOM     75  C   UNL A   1      38.147  29.726  27.885  1.00  0.00     0.009 A 
ATOM     76  C   UNL A   1      36.532  29.455  30.143  1.00  0.00     0.001 A 
ATOM     77  C   UNL A   1      36.802  30.096  27.831  1.00  0.00     0.001 A 
ATOM     78  C   UNL A   1      35.993  29.951  28.957  1.00  0.00     0.000 A 
ENDBRANCH  54  73
BRANCH  66  79
ATOM     79  C   UNL A   1      44.515  32.668  30.786  1.00  0.00    -0.014 A 
ATOM     80  C   UNL A   1      44.531  33.050  32.136  1.00  0.00     0.009 A 
ATOM     81  C   UNL A   1      44.770  33.638  29.803  1.00  0.00     0.009 A 
ATOM     82  C   UNL A   1      44.758  34.382  32.492  1.00  0.00     0.001 A 
ATOM     83  C   UNL A   1      45.029  34.962  30.163  1.00  0.00     0.001 A 
ATOM     84  C   UNL A   1      45.012  35.335  31.506  1.00  0.00     0.000 A 
ENDBRANCH  66  79
ENDBRANCH  40  41
ENDBRANCH  33  35
ENDBRANCH  32  33
ENDBRANCH  31  32
ENDBRANCH  30  31
ENDBRANCH  29  30
ENDBRANCH   1  29
TORSDOF 17
ENDMDL
MODEL 2
REMARK VINA RESULT:     -11.5      0.602      5.720
REMARK SMILES C[C@H](C(=O)OCCOCCOC(=O)c1ccc(-c2c3nc(c(-c4ccccc4)c4ccc([nH]4)c(-c4ccccc4)c4nc(c(-c5ccccc5)c5ccc2[nH]5)C=C4)C=C3)cc1)N1C(=O)C[C@@H](N2C(=O)/C(=C/c3ccccc3)SC2=S)C1=O
REMARK SMILES IDX 7 1 6 2 5 3 3 4 4 5 2 6 1 7 62 8 63 9 81 10 64 11 65 12
REMARK SMILES IDX 66 13 82 14 67 15 68 16 79 17 69 18 70 19 78 20 80 21 71 22
REMARK SMILES IDX 72 23 73 24 77 25 74 26 76 27 75 28 8 29 9 30 10 31 11 32
REMARK SMILES IDX 12 33 13 34 14 35 15 36 61 37 16 38 60 39 17 40 18 41 19 42
REMARK SMILES IDX 54 43 20 44 59 45 53 46 55 47 21 48 58 49 52 50 51 51 22 53
REMARK SMILES IDX 44 54 29 55 43 56 30 57 33 58 42 59 56 60 31 61 32 62 41 64
REMARK SMILES IDX 57 65 34 66 23 67 24 68 28 69 25 70 27 71 26 72 45 73 46 74
REMARK SMILES IDX 50 75 47 76 49 77 48 78 35 79 36 80 40 81 37 82 39 83 38 84
REMARK H PARENT 55 52 33 63
REMARK Flexibility Score: inf
ROOT
ATOM      1  C   UNL A   1      37.273  23.279  24.887  1.00  0.00     0.202 C 
ENDROOT
BRANCH   1   2
ATOM      2  C   UNL A   1      35.844  23.508  24.386  1.00  0.00     0.261 C 
BRANCH   2   3
ATOM      3  O   UNL A   1      35.268  22.321  23.804  1.00  0.00    -0.462 OA
BRANCH   3   4
ATOM      4  C   UNL A   1      34.443  21.632  24.629  1.00  0.00     0.329 C 
ATOM      5  O   UNL A   1      34.843  20.919  25.548  1.00  0.00    -0.250 OA
BRANCH   4   6
ATOM      6  C   UNL A   1      32.946  21.978  24.491  1.00  0.00     0.200 C 
ATOM      7  C   UNL A   1      32.226  20.911  25.364  1.00  0.00     0.044 C 
BRANCH   6   8
ATOM      8  N   UNL A   1      32.382  23.328  24.730  1.00  0.00    -0.267 N 
ATOM      9  C   UNL A   1      32.563  23.939  25.946  1.00  0.00     0.232 C 
ATOM     10  C   UNL A   1      31.250  23.816  24.137  1.00  0.00     0.253 C 
ATOM     11  O   UNL A   1      33.248  23.527  26.874  1.00  0.00    -0.274 OA
ATOM     12  C   UNL A   1      31.693  25.150  26.084  1.00  0.00     0.136 C 
ATOM     13  C   UNL A   1      30.767  25.058  24.893  1.00  0.00     0.191 C 
ATOM     14  O   UNL A   1      30.639  23.319  23.203  1.00  0.00    -0.272 OA
BRANCH  13  15
ATOM     15  N   UNL A   1      30.627  26.283  24.080  1.00  0.00    -0.280 N 
ATOM     16  C   UNL A   1      29.369  26.734  23.724  1.00  0.00     0.266 C 
ATOM     17  C   UNL A   1      31.682  27.048  23.617  1.00  0.00     0.149 C 
ATOM     18  O   UNL A   1      28.328  26.110  23.874  1.00  0.00    -0.268 OA
ATOM     19  C   UNL A   1      29.440  28.095  23.123  1.00  0.00     0.081 C 
ATOM     20  S   UNL A   1      31.072  28.465  22.755  1.00  0.00    -0.054 SA
ATOM     21  S   UNL A   1      33.316  26.771  23.790  1.00  0.00    -0.052 S 
ATOM     22  C   UNL A   1      28.359  28.887  23.053  1.00  0.00     0.029 C 
BRANCH  22  23
ATOM     23  C   UNL A   1      28.281  30.288  22.606  1.00  0.00    -0.024 A 
ATOM     24  C   UNL A   1      28.095  30.562  21.242  1.00  0.00     0.008 A 
ATOM     25  C   UNL A   1      28.475  31.362  23.480  1.00  0.00     0.008 A 
ATOM     26  C   UNL A   1      28.078  31.875  20.766  1.00  0.00     0.001 A 
ATOM     27  C   UNL A   1      28.466  32.677  23.002  1.00  0.00     0.001 A 
ATOM     28  C   UNL A   1      28.266  32.934  21.647  1.00  0.00     0.000 A 
ENDBRANCH  22  23
ENDBRANCH  13  15
ENDBRANCH   6   8
ENDBRANCH   4   6
ENDBRANCH   3   4
ENDBRANCH   2   3
ENDBRANCH   1   2
BRANCH   1  29
ATOM     29  O   UNL A   1      37.859  21.997  24.683  1.00  0.00    -0.374 OA
BRANCH  29  30
ATOM     30  C   UNL A   1      38.557  21.390  25.760  1.00  0.00     0.202 C 
BRANCH  30  31
ATOM     31  C   UNL A   1      39.309  20.075  25.510  1.00  0.00     0.261 C 
BRANCH  31  32
ATOM     32  O   UNL A   1      40.307  19.707  26.483  1.00  0.00    -0.460 OA
BRANCH  32  33
ATOM     33  C   UNL A   1      41.582  19.891  26.070  1.00  0.00     0.338 C 
ATOM     34  O   UNL A   1      42.219  19.125  25.351  1.00  0.00    -0.246 OA
BRANCH  33  35
ATOM     35  C   UNL A   1      42.151  21.192  26.495  1.00  0.00     0.060 A 
ATOM     36  C   UNL A   1      42.187  21.475  27.864  1.00  0.00     0.016 A 
ATOM     37  C   UNL A   1      42.557  22.166  25.585  1.00  0.00     0.016 A 
ATOM     38  C   UNL A   1      42.555  22.745  28.311  1.00  0.00     0.010 A 
ATOM     39  C   UNL A   1      42.889  23.450  26.023  1.00  0.00     0.010 A 
ATOM     40  C   UNL A   1      42.863  23.754  27.389  1.00  0.00    -0.014 A 
BRANCH  40  41
ATOM     41  C   UNL A   1      43.161  25.125  27.859  1.00  0.00     0.031 A 
ATOM     42  C   UNL A   1      42.051  26.105  28.099  1.00  0.00     0.074 A 
ATOM     43  C   UNL A   1      44.442  25.484  28.056  1.00  0.00     0.049 A 
ATOM     44  N   UNL A   1      42.114  27.318  28.589  1.00  0.00    -0.248 NA
ATOM     45  C   UNL A   1      40.692  25.670  27.737  1.00  0.00     0.031 C 
ATOM     46  C   UNL A   1      45.601  24.623  27.824  1.00  0.00     0.029 A 
ATOM     47  N   UNL A   1      44.979  26.668  28.490  1.00  0.00    -0.354 N 
ATOM     48  C   UNL A   1      40.807  27.787  28.610  1.00  0.00     0.074 A 
ATOM     49  C   UNL A   1      39.977  26.744  28.045  1.00  0.00     0.031 C 
ATOM     50  C   UNL A   1      46.717  25.308  28.120  1.00  0.00     0.029 A 
ATOM     51  C   UNL A   1      46.350  26.656  28.547  1.00  0.00     0.049 A 
ATOM     52  H   UNL A   1      44.435  27.450  28.736  1.00  0.00     0.167 HD
ATOM     53  C   UNL A   1      40.345  28.976  29.068  1.00  0.00     0.031 A 
ATOM     54  C   UNL A   1      47.213  27.624  28.905  1.00  0.00     0.031 A 
ATOM     55  C   UNL A   1      41.186  30.025  29.589  1.00  0.00     0.049 A 
ATOM     56  C   UNL A   1      46.677  28.950  29.370  1.00  0.00     0.074 A 
ATOM     57  C   UNL A   1      40.812  31.247  30.123  1.00  0.00     0.029 A 
ATOM     58  N   UNL A   1      42.571  29.984  29.619  1.00  0.00    -0.354 N 
ATOM     59  N   UNL A   1      45.432  29.342  29.488  1.00  0.00    -0.248 NA
ATOM     60  C   UNL A   1      47.667  29.957  29.776  1.00  0.00     0.031 C 
ATOM     61  C   UNL A   1      41.974  31.970  30.415  1.00  0.00     0.029 A 
ATOM     62  C   UNL A   1      43.070  31.172  30.129  1.00  0.00     0.049 A 
ATOM     63  H   UNL A   1      43.121  29.223  29.321  1.00  0.00     0.167 HD
ATOM     64  C   UNL A   1      45.487  30.628  30.008  1.00  0.00     0.074 A 
ATOM     65  C   UNL A   1      46.888  30.942  30.200  1.00  0.00     0.031 C 
ATOM     66  C   UNL A   1      44.468  31.474  30.305  1.00  0.00     0.031 A 
BRANCH  53  67
ATOM     67  C   UNL A   1      38.859  29.219  29.013  1.00  0.00    -0.014 A 
ATOM     68  C   UNL A   1      38.052  29.043  30.149  1.00  0.00     0.009 A 
ATOM     69  C   UNL A   1      38.268  29.690  27.830  1.00  0.00     0.009 A 
ATOM     70  C   UNL A   1      36.681  29.305  30.092  1.00  0.00     0.001 A 
ATOM     71  C   UNL A   1      36.901  29.978  27.784  1.00  0.00     0.001 A 
ATOM     72  C   UNL A   1      36.108  29.777  28.912  1.00  0.00     0.000 A 
ENDBRANCH  53  67
BRANCH  54  73
ATOM     73  C   UNL A   1      48.675  27.365  28.858  1.00  0.00    -0.014 A 
ATOM     74  C   UNL A   1      49.424  27.697  27.719  1.00  0.00     0.009 A 
ATOM     75  C   UNL A   1      49.330  26.791  29.958  1.00  0.00     0.009 A 
ATOM     76  C   UNL A   1      50.795  27.433  27.673  1.00  0.00     0.001 A 
ATOM     77  C   UNL A   1      50.706  26.556  29.921  1.00  0.00     0.001 A 
ATOM     78  C   UNL A   1      51.436  26.868  28.775  1.00  0.00     0.000 A 
ENDBRANCH  54  73
BRANCH  66  79
ATOM     79  C   UNL A   1      44.834  32.806  30.899  1.00  0.00    -0.014 A 
ATOM     80  C   UNL A   1      44.982  32.977  32.284  1.00  0.00     0.009 A 
ATOM     81  C   UNL A   1      45.066  33.902  30.052  1.00  0.00     0.009 A 
ATOM     82  C   UNL A   1      45.315  34.226  32.811  1.00  0.00     0.001 A 
ATOM     83  C   UNL A   1      45.430  35.142  30.579  1.00  0.00     0.001 A 
ATOM     84  C   UNL A   1      45.543  35.306  31.959  1.00  0.00     0.000 A 
ENDBRANCH  66  79
ENDBRANCH  40  41
ENDBRANCH  33  35
ENDBRANCH  32  33
ENDBRANCH  31  32
ENDBRANCH  30  31
ENDBRANCH  29  30
ENDBRANCH   1  29
TORSDOF 17
ENDMDL
MODEL 3
REMARK VINA RESULT:     -11.0      4.004      9.781
REMARK SMILES C[C@H](C(=O)OCCOCCOC(=O)c1ccc(-c2c3nc(c(-c4ccccc4)c4ccc([nH]4)c(-c4ccccc4)c4nc(c(-c5ccccc5)c5ccc2[nH]5)C=C4)C=C3)cc1)N1C(=O)C[C@@H](N2C(=O)/C(=C/c3ccccc3)SC2=S)C1=O
REMARK SMILES IDX 7 1 6 2 5 3 3 4 4 5 2 6 1 7 62 8 63 9 81 10 64 11 65 12
REMARK SMILES IDX 66 13 82 14 67 15 68 16 79 17 69 18 70 19 78 20 80 21 71 22
REMARK SMILES IDX 72 23 73 24 77 25 74 26 76 27 75 28 8 29 9 30 10 31 11 32
REMARK SMILES IDX 12 33 13 34 14 35 15 36 61 37 16 38 60 39 17 40 18 41 19 42
REMARK SMILES IDX 54 43 20 44 59 45 53 46 55 47 21 48 58 49 52 50 51 51 22 53
REMARK SMILES IDX 44 54 29 55 43 56 30 57 33 58 42 59 56 60 31 61 32 62 41 64
REMARK SMILES IDX 57 65 34 66 23 67 24 68 28 69 25 70 27 71 26 72 45 73 46 74
REMARK SMILES IDX 50 75 47 76 49 77 48 78 35 79 36 80 40 81 37 82 39 83 38 84
REMARK H PARENT 55 52 33 63
REMARK Flexibility Score: inf
ROOT
ATOM      1  C   UNL A   1      31.735  30.122  26.251  1.00  0.00     0.202 C 
ENDROOT
BRANCH   1   2
ATOM      2  C   UNL A   1      32.395  29.446  25.046  1.00  0.00     0.261 C 
BRANCH   2   3
ATOM      3  O   UNL A   1      31.467  29.213  23.967  1.00  0.00    -0.462 OA
BRANCH   3   4
ATOM      4  C   UNL A   1      31.906  28.348  23.022  1.00  0.00     0.329 C 
ATOM      5  O   UNL A   1      32.813  28.609  22.232  1.00  0.00    -0.250 OA
BRANCH   4   6
ATOM      6  C   UNL A   1      31.353  26.914  23.143  1.00  0.00     0.200 C 
ATOM      7  C   UNL A   1      31.549  26.307  21.725  1.00  0.00     0.044 C 
BRANCH   6   8
ATOM      8  N   UNL A   1      31.765  25.952  24.194  1.00  0.00    -0.267 N 
ATOM      9  C   UNL A   1      31.158  25.983  25.425  1.00  0.00     0.232 C 
ATOM     10  C   UNL A   1      33.020  25.422  24.317  1.00  0.00     0.253 C 
ATOM     11  O   UNL A   1      30.204  26.680  25.750  1.00  0.00    -0.274 OA
ATOM     12  C   UNL A   1      31.896  25.142  26.420  1.00  0.00     0.136 C 
ATOM     13  C   UNL A   1      33.181  24.791  25.704  1.00  0.00     0.191 C 
ATOM     14  O   UNL A   1      33.930  25.496  23.504  1.00  0.00    -0.272 OA
BRANCH  13  15
ATOM     15  N   UNL A   1      33.563  23.366  25.714  1.00  0.00    -0.280 N 
ATOM     16  C   UNL A   1      32.585  22.389  25.762  1.00  0.00     0.266 C 
ATOM     17  C   UNL A   1      34.864  22.896  25.686  1.00  0.00     0.149 C 
ATOM     18  O   UNL A   1      31.397  22.592  25.975  1.00  0.00    -0.268 OA
ATOM     19  C   UNL A   1      33.165  21.039  25.520  1.00  0.00     0.081 C 
ATOM     20  S   UNL A   1      34.872  21.131  25.631  1.00  0.00    -0.054 SA
ATOM     21  S   UNL A   1      36.281  23.774  25.697  1.00  0.00    -0.052 S 
ATOM     22  C   UNL A   1      32.398  20.005  25.142  1.00  0.00     0.029 C 
BRANCH  22  23
ATOM     23  C   UNL A   1      32.821  18.650  24.749  1.00  0.00    -0.024 A 
ATOM     24  C   UNL A   1      32.737  17.609  25.687  1.00  0.00     0.008 A 
ATOM     25  C   UNL A   1      33.390  18.379  23.502  1.00  0.00     0.008 A 
ATOM     26  C   UNL A   1      33.186  16.322  25.377  1.00  0.00     0.001 A 
ATOM     27  C   UNL A   1      33.847  17.092  23.195  1.00  0.00     0.001 A 
ATOM     28  C   UNL A   1      33.744  16.064  24.130  1.00  0.00     0.000 A 
ENDBRANCH  22  23
ENDBRANCH  13  15
ENDBRANCH   6   8
ENDBRANCH   4   6
ENDBRANCH   3   4
ENDBRANCH   2   3
ENDBRANCH   1   2
BRANCH   1  29
ATOM     29  O   UNL A   1      32.487  31.095  26.971  1.00  0.00    -0.374 OA
BRANCH  29  30
ATOM     30  C   UNL A   1      31.934  32.391  27.143  1.00  0.00     0.202 C 
BRANCH  30  31
ATOM     31  C   UNL A   1      32.872  33.562  27.465  1.00  0.00     0.261 C 
BRANCH  31  32
ATOM     32  O   UNL A   1      32.383  34.543  28.401  1.00  0.00    -0.460 OA
BRANCH  32  33
ATOM     33  C   UNL A   1      33.353  35.179  29.098  1.00  0.00     0.338 C 
ATOM     34  O   UNL A   1      33.278  36.319  29.549  1.00  0.00    -0.246 OA
BRANCH  33  35
ATOM     35  C   UNL A   1      34.533  34.325  29.369  1.00  0.00     0.060 A 
ATOM     36  C   UNL A   1      34.487  33.478  30.481  1.00  0.00     0.016 A 
ATOM     37  C   UNL A   1      35.705  34.406  28.619  1.00  0.00     0.016 A 
ATOM     38  C   UNL A   1      35.627  32.777  30.879  1.00  0.00     0.010 A 
ATOM     39  C   UNL A   1      36.859  33.738  29.035  1.00  0.00     0.010 A 
ATOM     40  C   UNL A   1      36.833  32.941  30.185  1.00  0.00    -0.014 A 
BRANCH  40  41
ATOM     41  C   UNL A   1      38.063  32.272  30.663  1.00  0.00     0.031 A 
ATOM     42  C   UNL A   1      38.848  32.849  31.804  1.00  0.00     0.074 A 
ATOM     43  C   UNL A   1      38.474  31.146  30.054  1.00  0.00     0.049 A 
ATOM     44  N   UNL A   1      39.900  32.359  32.412  1.00  0.00    -0.248 NA
ATOM     45  C   UNL A   1      38.398  34.148  32.328  1.00  0.00     0.031 C 
ATOM     46  C   UNL A   1      37.806  30.515  28.917  1.00  0.00     0.029 A 
ATOM     47  N   UNL A   1      39.554  30.340  30.304  1.00  0.00    -0.354 N 
ATOM     48  C   UNL A   1      40.230  33.279  33.399  1.00  0.00     0.074 A 
ATOM     49  C   UNL A   1      39.292  34.376  33.282  1.00  0.00     0.031 C 
ATOM     50  C   UNL A   1      38.492  29.415  28.565  1.00  0.00     0.029 A 
ATOM     51  C   UNL A   1      39.651  29.276  29.444  1.00  0.00     0.049 A 
ATOM     52  H   UNL A   1      40.198  30.509  31.029  1.00  0.00     0.167 HD
ATOM     53  C   UNL A   1      41.220  33.207  34.322  1.00  0.00     0.031 A 
ATOM     54  C   UNL A   1      40.571  28.297  29.373  1.00  0.00     0.031 A 
ATOM     55  C   UNL A   1      42.175  32.130  34.402  1.00  0.00     0.049 A 
ATOM     56  C   UNL A   1      41.684  28.261  30.383  1.00  0.00     0.074 A 
ATOM     57  C   UNL A   1      43.185  31.938  35.330  1.00  0.00     0.029 A 
ATOM     58  N   UNL A   1      42.252  31.075  33.505  1.00  0.00    -0.354 N 
ATOM     59  N   UNL A   1      41.922  29.080  31.380  1.00  0.00    -0.248 NA
ATOM     60  C   UNL A   1      42.641  27.152  30.272  1.00  0.00     0.031 C 
ATOM     61  C   UNL A   1      43.913  30.803  34.955  1.00  0.00     0.029 A 
ATOM     62  C   UNL A   1      43.313  30.248  33.837  1.00  0.00     0.049 A 
ATOM     63  H   UNL A   1      41.642  30.933  32.745  1.00  0.00     0.167 HD
ATOM     64  C   UNL A   1      43.036  28.569  32.032  1.00  0.00     0.074 A 
ATOM     65  C   UNL A   1      43.415  27.360  31.328  1.00  0.00     0.031 C 
ATOM     66  C   UNL A   1      43.684  29.053  33.120  1.00  0.00     0.031 A 
BRANCH  53  67
ATOM     67  C   UNL A   1      41.334  34.333  35.316  1.00  0.00    -0.014 A 
ATOM     68  C   UNL A   1      42.112  35.469  35.040  1.00  0.00     0.009 A 
ATOM     69  C   UNL A   1      40.606  34.288  36.515  1.00  0.00     0.009 A 
ATOM     70  C   UNL A   1      42.182  36.521  35.956  1.00  0.00     0.001 A 
ATOM     71  C   UNL A   1      40.655  35.353  37.418  1.00  0.00     0.001 A 
ATOM     72  C   UNL A   1      41.449  36.465  37.141  1.00  0.00     0.000 A 
ENDBRANCH  53  67
BRANCH  54  73
ATOM     73  C   UNL A   1      40.463  27.257  28.318  1.00  0.00    -0.014 A 
ATOM     74  C   UNL A   1      41.065  27.445  27.064  1.00  0.00     0.009 A 
ATOM     75  C   UNL A   1      39.764  26.066  28.563  1.00  0.00     0.009 A 
ATOM     76  C   UNL A   1      40.944  26.472  26.069  1.00  0.00     0.001 A 
ATOM     77  C   UNL A   1      39.670  25.082  27.577  1.00  0.00     0.001 A 
ATOM     78  C   UNL A   1      40.252  25.290  26.327  1.00  0.00     0.000 A 
ENDBRANCH  54  73
BRANCH  66  79
ATOM     79  C   UNL A   1      44.852  28.257  33.633  1.00  0.00    -0.014 A 
ATOM     80  C   UNL A   1      44.677  27.188  34.526  1.00  0.00     0.009 A 
ATOM     81  C   UNL A   1      46.149  28.563  33.189  1.00  0.00     0.009 A 
ATOM     82  C   UNL A   1      45.778  26.469  34.993  1.00  0.00     0.001 A 
ATOM     83  C   UNL A   1      47.245  27.822  33.633  1.00  0.00     0.001 A 
ATOM     84  C   UNL A   1      47.060  26.783  34.543  1.00  0.00     0.000 A 
ENDBRANCH  66  79
ENDBRANCH  40  41
ENDBRANCH  33  35
ENDBRANCH  32  33
ENDBRANCH  31  32
ENDBRANCH  30  31
ENDBRANCH  29  30
ENDBRANCH   1  29
TORSDOF 17
ENDMDL
