MODEL 1
REMARK VINA RESULT:     -10.2      0.000      0.000
REMARK SMILES O=C(OCCOCCOC(=O)[C@H]1CC[C@@H](CNc2cccc(F)c2[N+](=O)[O-])O1)c1ccc(-c2c3nc(c(-c4ccccc4)c4ccc([nH]4)c(-c4ccccc4)c4nc(c(-c5ccccc5)c5ccc2[nH]5)C=C4)C=C3)cc1
REMARK SMILES IDX 7 1 6 2 5 3 4 4 3 5 2 6 1 7 29 8 30 9 76 10 31 11 75 12
REMARK SMILES IDX 32 13 33 14 34 15 69 16 35 17 74 18 68 19 70 20 36 21 73 22
REMARK SMILES IDX 67 23 66 24 37 26 59 27 44 28 58 29 45 30 48 31 57 32 71 33
REMARK SMILES IDX 46 34 47 35 56 37 72 38 49 39 38 40 39 41 43 42 40 43 42 44
REMARK SMILES IDX 41 45 60 46 61 47 65 48 62 49 64 50 63 51 50 52 51 53 55 54
REMARK SMILES IDX 52 55 54 56 53 57 8 58 9 59 10 60 11 61 12 62 13 63 28 64
REMARK SMILES IDX 14 65 15 66 16 67 17 68 18 70 19 71 24 72 20 73 22 74 21 75
REMARK SMILES IDX 23 76 25 77 26 78 27 79
REMARK H PARENT 70 25 48 36 17 69
REMARK Flexibility Score: inf
ROOT
ATOM      1  C   UNL A   1      40.782  20.755  27.467  1.00  0.00     0.202 C 
ENDROOT
BRANCH   1   2
ATOM      2  O   UNL A   1      42.207  20.756  27.328  1.00  0.00    -0.374 OA
BRANCH   2   3
ATOM      3  C   UNL A   1      42.660  20.377  26.031  1.00  0.00     0.202 C 
BRANCH   3   4
ATOM      4  C   UNL A   1      43.646  21.360  25.378  1.00  0.00     0.261 C 
BRANCH   4   5
ATOM      5  O   UNL A   1      43.009  22.618  25.043  1.00  0.00    -0.460 OA
BRANCH   5   6
ATOM      6  C   UNL A   1      43.514  23.872  25.188  1.00  0.00     0.338 C 
ATOM      7  O   UNL A   1      44.385  24.311  24.463  1.00  0.00    -0.246 OA
BRANCH   6   8
ATOM      8  C   UNL A   1      42.931  24.730  26.237  1.00  0.00     0.060 A 
ATOM      9  C   UNL A   1      43.217  26.085  26.253  1.00  0.00     0.016 A 
ATOM     10  C   UNL A   1      42.113  24.190  27.229  1.00  0.00     0.016 A 
ATOM     11  C   UNL A   1      42.976  26.838  27.369  1.00  0.00     0.010 A 
ATOM     12  C   UNL A   1      41.660  25.019  28.259  1.00  0.00     0.010 A 
ATOM     13  C   UNL A   1      42.123  26.341  28.343  1.00  0.00    -0.014 A 
BRANCH  13  14
ATOM     14  C   UNL A   1      41.734  27.277  29.410  1.00  0.00     0.031 A 
ATOM     15  C   UNL A   1      42.621  27.438  30.598  1.00  0.00     0.074 A 
ATOM     16  C   UNL A   1      40.649  28.054  29.206  1.00  0.00     0.049 A 
ATOM     17  N   UNL A   1      42.402  28.111  31.692  1.00  0.00    -0.248 NA
ATOM     18  C   UNL A   1      43.926  26.751  30.560  1.00  0.00     0.031 C 
ATOM     19  C   UNL A   1      39.803  28.035  28.002  1.00  0.00     0.029 A 
ATOM     20  N   UNL A   1      40.104  29.050  29.964  1.00  0.00    -0.354 N 
ATOM     21  C   UNL A   1      43.501  27.869  32.504  1.00  0.00     0.074 A 
ATOM     22  C   UNL A   1      44.403  27.013  31.769  1.00  0.00     0.031 C 
ATOM     23  C   UNL A   1      38.912  29.032  28.066  1.00  0.00     0.029 A 
ATOM     24  C   UNL A   1      39.013  29.647  29.377  1.00  0.00     0.049 A 
ATOM     25  H   UNL A   1      40.456  29.314  30.846  1.00  0.00     0.167 HD
ATOM     26  C   UNL A   1      43.699  28.308  33.767  1.00  0.00     0.031 A 
ATOM     27  C   UNL A   1      38.144  30.540  29.878  1.00  0.00     0.031 A 
ATOM     28  C   UNL A   1      42.766  29.165  34.444  1.00  0.00     0.049 A 
ATOM     29  C   UNL A   1      38.352  30.950  31.303  1.00  0.00     0.074 A 
ATOM     30  C   UNL A   1      42.798  29.632  35.743  1.00  0.00     0.029 A 
ATOM     31  N   UNL A   1      41.625  29.695  33.851  1.00  0.00    -0.354 N 
ATOM     32  N   UNL A   1      39.335  30.631  32.114  1.00  0.00    -0.248 NA
ATOM     33  C   UNL A   1      37.321  31.801  31.899  1.00  0.00     0.031 C 
ATOM     34  C   UNL A   1      41.652  30.409  35.949  1.00  0.00     0.029 A 
ATOM     35  C   UNL A   1      40.935  30.471  34.762  1.00  0.00     0.049 A 
ATOM     36  H   UNL A   1      41.348  29.538  32.920  1.00  0.00     0.167 HD
ATOM     37  C   UNL A   1      39.042  31.241  33.320  1.00  0.00     0.074 A 
ATOM     38  C   UNL A   1      37.807  31.979  33.120  1.00  0.00     0.031 C 
ATOM     39  C   UNL A   1      39.713  31.188  34.496  1.00  0.00     0.031 A 
BRANCH  26  40
ATOM     40  C   UNL A   1      44.898  27.779  34.499  1.00  0.00    -0.014 A 
ATOM     41  C   UNL A   1      44.921  26.494  35.064  1.00  0.00     0.009 A 
ATOM     42  C   UNL A   1      46.025  28.603  34.645  1.00  0.00     0.009 A 
ATOM     43  C   UNL A   1      46.036  26.060  35.785  1.00  0.00     0.001 A 
ATOM     44  C   UNL A   1      47.148  28.158  35.346  1.00  0.00     0.001 A 
ATOM     45  C   UNL A   1      47.149  26.890  35.924  1.00  0.00     0.000 A 
ENDBRANCH  26  40
BRANCH  27  46
ATOM     46  C   UNL A   1      36.965  30.982  29.085  1.00  0.00    -0.014 A 
ATOM     47  C   UNL A   1      36.831  32.314  28.666  1.00  0.00     0.009 A 
ATOM     48  C   UNL A   1      35.955  30.066  28.738  1.00  0.00     0.009 A 
ATOM     49  C   UNL A   1      35.705  32.720  27.944  1.00  0.00     0.001 A 
ATOM     50  C   UNL A   1      34.852  30.464  27.982  1.00  0.00     0.001 A 
ATOM     51  C   UNL A   1      34.720  31.795  27.595  1.00  0.00     0.000 A 
ENDBRANCH  27  46
BRANCH  39  52
ATOM     52  C   UNL A   1      39.131  31.987  35.621  1.00  0.00    -0.014 A 
ATOM     53  C   UNL A   1      38.250  31.402  36.543  1.00  0.00     0.009 A 
ATOM     54  C   UNL A   1      39.496  33.332  35.768  1.00  0.00     0.009 A 
ATOM     55  C   UNL A   1      37.719  32.167  37.579  1.00  0.00     0.001 A 
ATOM     56  C   UNL A   1      38.986  34.084  36.824  1.00  0.00     0.001 A 
ATOM     57  C   UNL A   1      38.091  33.504  37.721  1.00  0.00     0.000 A 
ENDBRANCH  39  52
ENDBRANCH  13  14
ENDBRANCH   6   8
ENDBRANCH   5   6
ENDBRANCH   4   5
ENDBRANCH   3   4
ENDBRANCH   2   3
ENDBRANCH   1   2
BRANCH   1  58
ATOM     58  C   UNL A   1      40.138  21.038  26.116  1.00  0.00     0.261 C 
BRANCH  58  59
ATOM     59  O   UNL A   1      38.907  21.747  26.330  1.00  0.00    -0.461 OA
BRANCH  59  60
ATOM     60  C   UNL A   1      37.943  21.537  25.389  1.00  0.00     0.335 C 
ATOM     61  O   UNL A   1      37.617  20.440  24.946  1.00  0.00    -0.249 OA
BRANCH  60  62
ATOM     62  C   UNL A   1      37.339  22.873  24.939  1.00  0.00     0.228 C 
ATOM     63  C   UNL A   1      36.779  22.784  23.518  1.00  0.00     0.047 C 
ATOM     64  O   UNL A   1      36.258  23.350  25.768  1.00  0.00    -0.361 OA
ATOM     65  C   UNL A   1      35.281  22.777  23.746  1.00  0.00     0.037 C 
ATOM     66  C   UNL A   1      35.182  23.753  24.903  1.00  0.00     0.138 C 
BRANCH  66  67
ATOM     67  C   UNL A   1      33.787  23.874  25.559  1.00  0.00     0.145 C 
BRANCH  67  68
ATOM     68  N   UNL A   1      32.814  24.635  24.777  1.00  0.00    -0.377 N 
ATOM     69  H   UNL A   1      32.009  24.195  24.421  1.00  0.00     0.160 HD
BRANCH  68  70
ATOM     70  C   UNL A   1      33.039  25.994  24.542  1.00  0.00     0.116 A 
ATOM     71  C   UNL A   1      33.281  26.845  25.633  1.00  0.00     0.033 A 
ATOM     72  C   UNL A   1      33.223  26.544  23.259  1.00  0.00     0.327 A 
ATOM     73  C   UNL A   1      33.705  28.168  25.449  1.00  0.00     0.006 A 
ATOM     74  C   UNL A   1      33.676  27.848  23.069  1.00  0.00     0.202 A 
ATOM     75  C   UNL A   1      33.926  28.663  24.165  1.00  0.00     0.047 A 
ATOM     76  F   UNL A   1      33.874  28.349  21.842  1.00  0.00    -0.199 F 
BRANCH  72  77
ATOM     77  N   UNL A   1      32.875  25.813  22.066  1.00  0.00     0.068 N 
ATOM     78  O   UNL A   1      33.661  24.930  21.694  1.00  0.00    -0.258 OA
ATOM     79  O   UNL A   1      31.790  26.077  21.534  1.00  0.00    -0.258 OA
ENDBRANCH  72  77
ENDBRANCH  68  70
ENDBRANCH  67  68
ENDBRANCH  66  67
ENDBRANCH  60  62
ENDBRANCH  59  60
ENDBRANCH  58  59
ENDBRANCH   1  58
TORSDOF 18
ENDMDL
MODEL 2
REMARK VINA RESULT:     -10.1      4.659      8.857
REMARK SMILES O=C(OCCOCCOC(=O)[C@H]1CC[C@@H](CNc2cccc(F)c2[N+](=O)[O-])O1)c1ccc(-c2c3nc(c(-c4ccccc4)c4ccc([nH]4)c(-c4ccccc4)c4nc(c(-c5ccccc5)c5ccc2[nH]5)C=C4)C=C3)cc1
REMARK SMILES IDX 7 1 6 2 5 3 4 4 3 5 2 6 1 7 29 8 30 9 76 10 31 11 75 12
REMARK SMILES IDX 32 13 33 14 34 15 69 16 35 17 74 18 68 19 70 20 36 21 73 22
REMARK SMILES IDX 67 23 66 24 37 26 59 27 44 28 58 29 45 30 48 31 57 32 71 33
REMARK SMILES IDX 46 34 47 35 56 37 72 38 49 39 38 40 39 41 43 42 40 43 42 44
REMARK SMILES IDX 41 45 60 46 61 47 65 48 62 49 64 50 63 51 50 52 51 53 55 54
REMARK SMILES IDX 52 55 54 56 53 57 8 58 9 59 10 60 11 61 12 62 13 63 28 64
REMARK SMILES IDX 14 65 15 66 16 67 17 68 18 70 19 71 24 72 20 73 22 74 21 75
REMARK SMILES IDX 23 76 25 77 26 78 27 79
REMARK H PARENT 70 25 48 36 17 69
REMARK Flexibility Score: inf
ROOT
ATOM      1  C   UNL A   1      34.422  25.100  25.125  1.00  0.00     0.202 C 
ENDROOT
BRANCH   1   2
ATOM      2  O   UNL A   1      33.779  24.079  25.896  1.00  0.00    -0.374 OA
BRANCH   2   3
ATOM      3  C   UNL A   1      34.673  23.098  26.414  1.00  0.00     0.202 C 
BRANCH   3   4
ATOM      4  C   UNL A   1      35.650  22.507  25.383  1.00  0.00     0.261 C 
BRANCH   4   5
ATOM      5  O   UNL A   1      36.615  21.621  26.003  1.00  0.00    -0.460 OA
BRANCH   5   6
ATOM      6  C   UNL A   1      37.960  21.586  25.806  1.00  0.00     0.338 C 
ATOM      7  O   UNL A   1      38.504  20.698  25.180  1.00  0.00    -0.246 OA
BRANCH   6   8
ATOM      8  C   UNL A   1      38.762  22.707  26.336  1.00  0.00     0.060 A 
ATOM      9  C   UNL A   1      38.310  24.006  26.182  1.00  0.00     0.016 A 
ATOM     10  C   UNL A   1      39.982  22.475  26.969  1.00  0.00     0.016 A 
ATOM     11  C   UNL A   1      39.156  25.067  26.355  1.00  0.00     0.010 A 
ATOM     12  C   UNL A   1      40.756  23.568  27.369  1.00  0.00     0.010 A 
ATOM     13  C   UNL A   1      40.352  24.868  27.030  1.00  0.00    -0.014 A 
BRANCH  13  14
ATOM     14  C   UNL A   1      41.118  26.076  27.373  1.00  0.00     0.031 A 
ATOM     15  C   UNL A   1      40.583  27.010  28.406  1.00  0.00     0.074 A 
ATOM     16  C   UNL A   1      42.345  26.224  26.830  1.00  0.00     0.049 A 
ATOM     17  N   UNL A   1      41.038  28.179  28.760  1.00  0.00    -0.248 NA
ATOM     18  C   UNL A   1      39.377  26.582  29.138  1.00  0.00     0.031 C 
ATOM     19  C   UNL A   1      42.984  25.278  25.901  1.00  0.00     0.029 A 
ATOM     20  N   UNL A   1      43.300  27.181  27.019  1.00  0.00    -0.354 N 
ATOM     21  C   UNL A   1      40.134  28.660  29.696  1.00  0.00     0.074 A 
ATOM     22  C   UNL A   1      39.121  27.648  29.883  1.00  0.00     0.031 C 
ATOM     23  C   UNL A   1      44.250  25.653  25.682  1.00  0.00     0.029 A 
ATOM     24  C   UNL A   1      44.456  26.944  26.312  1.00  0.00     0.049 A 
ATOM     25  H   UNL A   1      43.174  27.964  27.603  1.00  0.00     0.167 HD
ATOM     26  C   UNL A   1      40.153  29.866  30.308  1.00  0.00     0.031 A 
ATOM     27  C   UNL A   1      45.533  27.726  26.132  1.00  0.00     0.031 A 
ATOM     28  C   UNL A   1      41.194  30.830  30.088  1.00  0.00     0.049 A 
ATOM     29  C   UNL A   1      45.488  29.083  26.765  1.00  0.00     0.074 A 
ATOM     30  C   UNL A   1      41.310  32.115  30.581  1.00  0.00     0.029 A 
ATOM     31  N   UNL A   1      42.318  30.596  29.301  1.00  0.00    -0.354 N 
ATOM     32  N   UNL A   1      44.577  29.586  27.565  1.00  0.00    -0.248 NA
ATOM     33  C   UNL A   1      46.589  29.994  26.444  1.00  0.00     0.031 C 
ATOM     34  C   UNL A   1      42.482  32.672  30.058  1.00  0.00     0.029 A 
ATOM     35  C   UNL A   1      43.124  31.717  29.283  1.00  0.00     0.049 A 
ATOM     36  H   UNL A   1      42.509  29.755  28.827  1.00  0.00     0.167 HD
ATOM     37  C   UNL A   1      44.989  30.877  27.844  1.00  0.00     0.074 A 
ATOM     38  C   UNL A   1      46.255  31.062  27.155  1.00  0.00     0.031 C 
ATOM     39  C   UNL A   1      44.380  31.835  28.583  1.00  0.00     0.031 A 
BRANCH  26  40
ATOM     40  C   UNL A   1      38.974  30.220  31.168  1.00  0.00    -0.014 A 
ATOM     41  C   UNL A   1      37.813  30.803  30.637  1.00  0.00     0.009 A 
ATOM     42  C   UNL A   1      39.041  29.982  32.550  1.00  0.00     0.009 A 
ATOM     43  C   UNL A   1      36.759  31.169  31.479  1.00  0.00     0.001 A 
ATOM     44  C   UNL A   1      37.977  30.326  33.385  1.00  0.00     0.001 A 
ATOM     45  C   UNL A   1      36.841  30.928  32.850  1.00  0.00     0.000 A 
ENDBRANCH  26  40
BRANCH  27  46
ATOM     46  C   UNL A   1      46.641  27.302  25.234  1.00  0.00    -0.014 A 
ATOM     47  C   UNL A   1      46.787  27.854  23.953  1.00  0.00     0.009 A 
ATOM     48  C   UNL A   1      47.568  26.332  25.655  1.00  0.00     0.009 A 
ATOM     49  C   UNL A   1      47.819  27.428  23.110  1.00  0.00     0.001 A 
ATOM     50  C   UNL A   1      48.621  25.937  24.828  1.00  0.00     0.001 A 
ATOM     51  C   UNL A   1      48.739  26.476  23.550  1.00  0.00     0.000 A 
ENDBRANCH  27  46
BRANCH  39  52
ATOM     52  C   UNL A   1      45.109  33.135  28.703  1.00  0.00    -0.014 A 
ATOM     53  C   UNL A   1      44.894  34.173  27.784  1.00  0.00     0.009 A 
ATOM     54  C   UNL A   1      46.000  33.327  29.768  1.00  0.00     0.009 A 
ATOM     55  C   UNL A   1      45.588  35.374  27.914  1.00  0.00     0.001 A 
ATOM     56  C   UNL A   1      46.668  34.541  29.912  1.00  0.00     0.001 A 
ATOM     57  C   UNL A   1      46.470  35.558  28.980  1.00  0.00     0.000 A 
ENDBRANCH  39  52
ENDBRANCH  13  14
ENDBRANCH   6   8
ENDBRANCH   5   6
ENDBRANCH   4   5
ENDBRANCH   3   4
ENDBRANCH   2   3
ENDBRANCH   1   2
BRANCH   1  58
ATOM     58  C   UNL A   1      33.607  26.384  25.199  1.00  0.00     0.261 C 
BRANCH  58  59
ATOM     59  O   UNL A   1      34.377  27.379  25.893  1.00  0.00    -0.461 OA
BRANCH  59  60
ATOM     60  C   UNL A   1      33.812  28.621  25.943  1.00  0.00     0.335 C 
ATOM     61  O   UNL A   1      33.289  29.196  24.994  1.00  0.00    -0.249 OA
BRANCH  60  62
ATOM     62  C   UNL A   1      33.949  29.209  27.353  1.00  0.00     0.228 C 
ATOM     63  C   UNL A   1      35.417  29.373  27.751  1.00  0.00     0.047 C 
ATOM     64  O   UNL A   1      33.341  30.507  27.520  1.00  0.00    -0.361 OA
ATOM     65  C   UNL A   1      35.625  30.872  27.666  1.00  0.00     0.037 C 
ATOM     66  C   UNL A   1      34.287  31.357  28.192  1.00  0.00     0.138 C 
BRANCH  66  67
ATOM     67  C   UNL A   1      34.038  32.878  28.082  1.00  0.00     0.145 C 
BRANCH  67  68
ATOM     68  N   UNL A   1      34.868  33.694  28.967  1.00  0.00    -0.377 N 
ATOM     69  H   UNL A   1      35.814  33.857  28.750  1.00  0.00     0.160 HD
BRANCH  68  70
ATOM     70  C   UNL A   1      34.305  34.240  30.124  1.00  0.00     0.116 A 
ATOM     71  C   UNL A   1      34.492  33.581  31.350  1.00  0.00     0.033 A 
ATOM     72  C   UNL A   1      33.711  35.515  30.176  1.00  0.00     0.327 A 
ATOM     73  C   UNL A   1      34.123  34.176  32.565  1.00  0.00     0.006 A 
ATOM     74  C   UNL A   1      33.373  36.126  31.381  1.00  0.00     0.202 A 
ATOM     75  C   UNL A   1      33.585  35.461  32.582  1.00  0.00     0.047 A 
ATOM     76  F   UNL A   1      32.834  37.353  31.418  1.00  0.00    -0.199 F 
BRANCH  72  77
ATOM     77  N   UNL A   1      33.345  36.228  28.978  1.00  0.00     0.068 N 
ATOM     78  O   UNL A   1      34.260  36.545  28.206  1.00  0.00    -0.258 OA
ATOM     79  O   UNL A   1      32.139  36.419  28.777  1.00  0.00    -0.258 OA
ENDBRANCH  72  77
ENDBRANCH  68  70
ENDBRANCH  67  68
ENDBRANCH  66  67
ENDBRANCH  60  62
ENDBRANCH  59  60
ENDBRANCH  58  59
ENDBRANCH   1  58
TORSDOF 18
ENDMDL
MODEL 3
REMARK VINA RESULT:     -10.0      3.756      8.935
REMARK SMILES O=C(OCCOCCOC(=O)[C@H]1CC[C@@H](CNc2cccc(F)c2[N+](=O)[O-])O1)c1ccc(-c2c3nc(c(-c4ccccc4)c4ccc([nH]4)c(-c4ccccc4)c4nc(c(-c5ccccc5)c5ccc2[nH]5)C=C4)C=C3)cc1
REMARK SMILES IDX 7 1 6 2 5 3 4 4 3 5 2 6 1 7 29 8 30 9 76 10 31 11 75 12
REMARK SMILES IDX 32 13 33 14 34 15 69 16 35 17 74 18 68 19 70 20 36 21 73 22
REMARK SMILES IDX 67 23 66 24 37 26 59 27 44 28 58 29 45 30 48 31 57 32 71 33
REMARK SMILES IDX 46 34 47 35 56 37 72 38 49 39 38 40 39 41 43 42 40 43 42 44
REMARK SMILES IDX 41 45 60 46 61 47 65 48 62 49 64 50 63 51 50 52 51 53 55 54
REMARK SMILES IDX 52 55 54 56 53 57 8 58 9 59 10 60 11 61 12 62 13 63 28 64
REMARK SMILES IDX 14 65 15 66 16 67 17 68 18 70 19 71 24 72 20 73 22 74 21 75
REMARK SMILES IDX 23 76 25 77 26 78 27 79
REMARK H PARENT 70 25 48 36 17 69
REMARK Flexibility Score: inf
ROOT
ATOM      1  C   UNL A   1      35.238  33.459  28.998  1.00  0.00     0.202 C 
ENDROOT
BRANCH   1   2
ATOM      2  O   UNL A   1      34.787  34.813  28.886  1.00  0.00    -0.374 OA
BRANCH   2   3
ATOM      3  C   UNL A   1      33.368  34.948  28.874  1.00  0.00     0.202 C 
BRANCH   3   4
ATOM      4  C   UNL A   1      32.843  36.283  29.428  1.00  0.00     0.261 C 
BRANCH   4   5
ATOM      5  O   UNL A   1      33.235  36.484  30.809  1.00  0.00    -0.460 OA
BRANCH   5   6
ATOM      6  C   UNL A   1      32.989  35.673  31.871  1.00  0.00     0.338 C 
ATOM      7  O   UNL A   1      31.881  35.554  32.357  1.00  0.00    -0.246 OA
BRANCH   6   8
ATOM      8  C   UNL A   1      34.112  34.877  32.404  1.00  0.00     0.060 A 
ATOM      9  C   UNL A   1      35.388  35.414  32.417  1.00  0.00     0.016 A 
ATOM     10  C   UNL A   1      33.909  33.580  32.872  1.00  0.00     0.016 A 
ATOM     11  C   UNL A   1      36.483  34.613  32.586  1.00  0.00     0.010 A 
ATOM     12  C   UNL A   1      35.013  32.825  33.277  1.00  0.00     0.010 A 
ATOM     13  C   UNL A   1      36.308  33.337  33.101  1.00  0.00    -0.014 A 
BRANCH  13  14
ATOM     14  C   UNL A   1      37.532  32.604  33.460  1.00  0.00     0.031 A 
ATOM     15  C   UNL A   1      38.127  32.796  34.815  1.00  0.00     0.074 A 
ATOM     16  C   UNL A   1      37.996  31.681  32.591  1.00  0.00     0.049 A 
ATOM     17  N   UNL A   1      39.257  32.343  35.279  1.00  0.00    -0.248 NA
ATOM     18  C   UNL A   1      37.357  33.607  35.776  1.00  0.00     0.031 C 
ATOM     19  C   UNL A   1      37.384  31.351  31.293  1.00  0.00     0.029 A 
ATOM     20  N   UNL A   1      39.041  30.807  32.682  1.00  0.00    -0.354 N 
ATOM     21  C   UNL A   1      39.374  32.874  36.555  1.00  0.00     0.074 A 
ATOM     22  C   UNL A   1      38.187  33.658  36.809  1.00  0.00     0.031 C 
ATOM     23  C   UNL A   1      38.007  30.292  30.761  1.00  0.00     0.029 A 
ATOM     24  C   UNL A   1      39.156  29.978  31.591  1.00  0.00     0.049 A 
ATOM     25  H   UNL A   1      39.653  30.774  33.454  1.00  0.00     0.167 HD
ATOM     26  C   UNL A   1      40.412  32.733  37.410  1.00  0.00     0.031 A 
ATOM     27  C   UNL A   1      40.130  29.114  31.263  1.00  0.00     0.031 A 
ATOM     28  C   UNL A   1      41.564  31.932  37.103  1.00  0.00     0.049 A 
ATOM     29  C   UNL A   1      41.298  29.036  32.196  1.00  0.00     0.074 A 
ATOM     30  C   UNL A   1      42.719  31.752  37.837  1.00  0.00     0.029 A 
ATOM     31  N   UNL A   1      41.692  31.162  35.951  1.00  0.00    -0.354 N 
ATOM     32  N   UNL A   1      41.463  29.627  33.357  1.00  0.00    -0.248 NA
ATOM     33  C   UNL A   1      42.429  28.212  31.765  1.00  0.00     0.031 C 
ATOM     34  C   UNL A   1      43.564  30.907  37.109  1.00  0.00     0.029 A 
ATOM     35  C   UNL A   1      42.913  30.517  35.946  1.00  0.00     0.049 A 
ATOM     36  H   UNL A   1      41.012  31.089  35.243  1.00  0.00     0.167 HD
ATOM     37  C   UNL A   1      42.718  29.251  33.798  1.00  0.00     0.074 A 
ATOM     38  C   UNL A   1      43.255  28.349  32.794  1.00  0.00     0.031 C 
ATOM     39  C   UNL A   1      43.385  29.624  34.917  1.00  0.00     0.031 A 
BRANCH  26  40
ATOM     40  C   UNL A   1      40.374  33.537  38.677  1.00  0.00    -0.014 A 
ATOM     41  C   UNL A   1      40.928  34.824  38.760  1.00  0.00     0.009 A 
ATOM     42  C   UNL A   1      39.787  32.977  39.823  1.00  0.00     0.009 A 
ATOM     43  C   UNL A   1      40.923  35.518  39.973  1.00  0.00     0.001 A 
ATOM     44  C   UNL A   1      39.761  33.682  41.028  1.00  0.00     0.001 A 
ATOM     45  C   UNL A   1      40.338  34.948  41.104  1.00  0.00     0.000 A 
ENDBRANCH  26  40
BRANCH  27  46
ATOM     46  C   UNL A   1      40.095  28.384  29.966  1.00  0.00    -0.014 A 
ATOM     47  C   UNL A   1      39.487  27.125  29.860  1.00  0.00     0.009 A 
ATOM     48  C   UNL A   1      40.674  28.947  28.815  1.00  0.00     0.009 A 
ATOM     49  C   UNL A   1      39.483  26.439  28.641  1.00  0.00     0.001 A 
ATOM     50  C   UNL A   1      40.634  28.280  27.590  1.00  0.00     0.001 A 
ATOM     51  C   UNL A   1      40.049  27.019  27.506  1.00  0.00     0.000 A 
ENDBRANCH  27  46
BRANCH  39  52
ATOM     52  C   UNL A   1      44.737  29.013  35.110  1.00  0.00    -0.014 A 
ATOM     53  C   UNL A   1      44.890  27.786  35.772  1.00  0.00     0.009 A 
ATOM     54  C   UNL A   1      45.866  29.668  34.596  1.00  0.00     0.009 A 
ATOM     55  C   UNL A   1      46.160  27.239  35.943  1.00  0.00     0.001 A 
ATOM     56  C   UNL A   1      47.130  29.102  34.742  1.00  0.00     0.001 A 
ATOM     57  C   UNL A   1      47.277  27.895  35.423  1.00  0.00     0.000 A 
ENDBRANCH  39  52
ENDBRANCH  13  14
ENDBRANCH   6   8
ENDBRANCH   5   6
ENDBRANCH   4   5
ENDBRANCH   3   4
ENDBRANCH   2   3
ENDBRANCH   1   2
BRANCH   1  58
ATOM     58  C   UNL A   1      34.076  32.510  28.732  1.00  0.00     0.261 C 
BRANCH  58  59
ATOM     59  O   UNL A   1      34.270  31.892  27.450  1.00  0.00    -0.461 OA
BRANCH  59  60
ATOM     60  C   UNL A   1      34.328  30.528  27.466  1.00  0.00     0.335 C 
ATOM     61  O   UNL A   1      35.361  29.868  27.499  1.00  0.00    -0.249 OA
BRANCH  60  62
ATOM     62  C   UNL A   1      32.915  29.935  27.407  1.00  0.00     0.228 C 
ATOM     63  C   UNL A   1      32.059  30.633  26.348  1.00  0.00     0.047 C 
ATOM     64  O   UNL A   1      32.870  28.527  27.095  1.00  0.00    -0.361 OA
ATOM     65  C   UNL A   1      31.979  29.598  25.243  1.00  0.00     0.037 C 
ATOM     66  C   UNL A   1      31.879  28.332  26.071  1.00  0.00     0.138 C 
BRANCH  66  67
ATOM     67  C   UNL A   1      31.967  27.007  25.279  1.00  0.00     0.145 C 
BRANCH  67  68
ATOM     68  N   UNL A   1      33.036  26.966  24.283  1.00  0.00    -0.377 N 
ATOM     69  H   UNL A   1      33.331  27.791  23.835  1.00  0.00     0.160 HD
BRANCH  68  70
ATOM     70  C   UNL A   1      33.636  25.742  23.973  1.00  0.00     0.116 A 
ATOM     71  C   UNL A   1      34.453  25.120  24.932  1.00  0.00     0.033 A 
ATOM     72  C   UNL A   1      33.328  24.990  22.824  1.00  0.00     0.327 A 
ATOM     73  C   UNL A   1      34.920  23.810  24.758  1.00  0.00     0.006 A 
ATOM     74  C   UNL A   1      33.760  23.676  22.659  1.00  0.00     0.202 A 
ATOM     75  C   UNL A   1      34.552  23.078  23.630  1.00  0.00     0.047 A 
ATOM     76  F   UNL A   1      33.435  22.962  21.572  1.00  0.00    -0.199 F 
BRANCH  72  77
ATOM     77  N   UNL A   1      32.613  25.567  21.713  1.00  0.00     0.068 N 
ATOM     78  O   UNL A   1      31.411  25.814  21.880  1.00  0.00    -0.258 OA
ATOM     79  O   UNL A   1      33.264  25.829  20.693  1.00  0.00    -0.258 OA
ENDBRANCH  72  77
ENDBRANCH  68  70
ENDBRANCH  67  68
ENDBRANCH  66  67
ENDBRANCH  60  62
ENDBRANCH  59  60
ENDBRANCH  58  59
ENDBRANCH   1  58
TORSDOF 18
ENDMDL
