MODEL 1
REMARK VINA RESULT:     -13.1      0.000      0.000
REMARK SMILES C[C@H](C(=O)OCCOCCOC(=O)c1ccc(-c2c3nc(c(-c4ccccc4)c4ccc([nH]4)c(-c4ccccc4)c4nc(c(-c5ccccc5)c5ccc2[nH]5)C=C4)C=C3)cc1)[C@H](C)n1cnc2cc(F)c(F)cc21
REMARK SMILES IDX 8 1 7 2 6 3 5 4 3 5 4 6 2 7 1 8 62 9 63 10 64 11 65 12 74 13
REMARK SMILES IDX 66 14 67 15 73 16 68 17 71 18 69 19 72 20 70 21 9 22 10 23
REMARK SMILES IDX 11 24 12 25 13 26 14 27 15 28 61 29 16 30 60 31 17 32 18 33
REMARK SMILES IDX 19 34 54 35 20 36 59 37 53 38 55 39 21 40 58 41 52 42 51 43
REMARK SMILES IDX 22 45 44 46 29 47 43 48 30 49 33 50 42 51 56 52 31 53 32 54
REMARK SMILES IDX 41 56 57 57 34 58 23 59 24 60 28 61 25 62 27 63 26 64 45 65
REMARK SMILES IDX 46 66 50 67 47 68 49 69 48 70 35 71 36 72 40 73 37 74 39 75
REMARK SMILES IDX 38 76
REMARK H PARENT 55 44 33 55
REMARK Flexibility Score: inf
ROOT
ATOM      1  O   UNL A   1      34.536  32.810  27.835  1.00  0.00    -0.374 OA
ENDROOT
BRANCH   1   2
ATOM      2  C   UNL A   1      34.123  31.149  27.655  1.00  0.00     0.202 C 
BRANCH   2   3
ATOM      3  C   UNL A   1      32.640  30.425  26.782  1.00  0.00     0.261 C 
BRANCH   3   4
ATOM      4  O   UNL A   1      31.817  29.104  27.287  1.00  0.00    -0.463 OA
BRANCH   4   5
ATOM      5  C   UNL A   1      31.999  27.798  26.769  1.00  0.00     0.310 C 
ATOM      6  O   UNL A   1      31.282  26.881  27.159  1.00  0.00    -0.252 OA
BRANCH   5   7
ATOM      7  C   UNL A   1      33.237  27.572  25.640  1.00  0.00     0.119 C 
ATOM      8  C   UNL A   1      33.878  26.237  26.100  1.00  0.00     0.022 C 
BRANCH   7   9
ATOM      9  C   UNL A   1      33.231  27.422  23.887  1.00  0.00     0.099 C 
ATOM     10  C   UNL A   1      33.473  28.769  23.184  1.00  0.00     0.032 C 
BRANCH   9  11
ATOM     11  N   UNL A   1      32.202  26.654  23.036  1.00  0.00    -0.327 N 
ATOM     12  C   UNL A   1      32.595  26.718  21.684  1.00  0.00     0.200 A 
ATOM     13  C   UNL A   1      31.936  25.250  23.177  1.00  0.00     0.071 A 
ATOM     14  N   UNL A   1      33.614  25.893  21.563  1.00  0.00    -0.237 NA
ATOM     15  C   UNL A   1      33.425  25.068  22.635  1.00  0.00     0.092 A 
ATOM     16  C   UNL A   1      31.098  24.004  24.122  1.00  0.00     0.071 A 
ATOM     17  C   UNL A   1      34.394  23.777  23.301  1.00  0.00     0.073 A 
ATOM     18  C   UNL A   1      31.956  22.544  24.721  1.00  0.00     0.161 A 
ATOM     19  C   UNL A   1      33.673  22.356  24.298  1.00  0.00     0.161 A 
ATOM     20  F   UNL A   1      31.323  21.654  25.490  1.00  0.00    -0.204 F 
ATOM     21  F   UNL A   1      34.260  21.173  24.484  1.00  0.00    -0.204 F 
ENDBRANCH   9  11
ENDBRANCH   7   9
ENDBRANCH   5   7
ENDBRANCH   4   5
ENDBRANCH   3   4
ENDBRANCH   2   3
ENDBRANCH   1   2
BRANCH   1  22
ATOM     22  C   UNL A   1      34.353  33.842  29.342  1.00  0.00     0.202 C 
BRANCH  22  23
ATOM     23  C   UNL A   1      32.882  35.500  29.382  1.00  0.00     0.261 C 
BRANCH  23  24
ATOM     24  O   UNL A   1      32.623  36.453  30.780  1.00  0.00    -0.460 OA
BRANCH  24  25
ATOM     25  C   UNL A   1      32.453  35.988  32.044  1.00  0.00     0.338 C 
ATOM     26  O   UNL A   1      31.435  36.112  32.703  1.00  0.00    -0.246 OA
BRANCH  25  27
ATOM     27  C   UNL A   1      33.663  35.226  32.521  1.00  0.00     0.060 A 
ATOM     28  C   UNL A   1      34.965  35.746  32.423  1.00  0.00     0.016 A 
ATOM     29  C   UNL A   1      33.525  33.906  32.953  1.00  0.00     0.016 A 
ATOM     30  C   UNL A   1      36.098  34.978  32.751  1.00  0.00     0.010 A 
ATOM     31  C   UNL A   1      34.658  33.141  33.312  1.00  0.00     0.010 A 
ATOM     32  C   UNL A   1      35.959  33.666  33.210  1.00  0.00    -0.014 A 
BRANCH  32  33
ATOM     33  C   UNL A   1      37.158  32.839  33.551  1.00  0.00     0.031 A 
ATOM     34  C   UNL A   1      37.891  33.056  34.850  1.00  0.00     0.074 A 
ATOM     35  C   UNL A   1      37.601  31.886  32.705  1.00  0.00     0.049 A 
ATOM     36  N   UNL A   1      39.018  32.532  35.270  1.00  0.00    -0.248 NA
ATOM     37  C   UNL A   1      37.267  33.981  35.806  1.00  0.00     0.031 C 
ATOM     38  C   UNL A   1      36.954  31.504  31.451  1.00  0.00     0.029 A 
ATOM     39  N   UNL A   1      38.711  31.073  32.767  1.00  0.00    -0.354 N 
ATOM     40  C   UNL A   1      39.248  33.078  36.528  1.00  0.00     0.074 A 
ATOM     41  C   UNL A   1      38.150  33.984  36.795  1.00  0.00     0.031 C 
ATOM     42  C   UNL A   1      37.684  30.545  30.854  1.00  0.00     0.029 A 
ATOM     43  C   UNL A   1      38.879  30.281  31.654  1.00  0.00     0.049 A 
ATOM     44  H   UNL A   1      39.327  31.060  33.535  1.00  0.00     0.167 HD
ATOM     45  C   UNL A   1      40.281  32.854  37.380  1.00  0.00     0.031 A 
ATOM     46  C   UNL A   1      39.892  29.467  31.295  1.00  0.00     0.031 A 
ATOM     47  C   UNL A   1      41.386  31.969  37.109  1.00  0.00     0.049 A 
ATOM     48  C   UNL A   1      41.081  29.315  32.208  1.00  0.00     0.074 A 
ATOM     49  C   UNL A   1      42.485  31.689  37.905  1.00  0.00     0.029 A 
ATOM     50  N   UNL A   1      41.538  31.225  35.949  1.00  0.00    -0.354 N 
ATOM     51  N   UNL A   1      41.294  29.853  33.384  1.00  0.00    -0.248 NA
ATOM     52  C   UNL A   1      42.170  28.442  31.742  1.00  0.00     0.031 C 
ATOM     53  C   UNL A   1      43.330  30.824  37.200  1.00  0.00     0.029 A 
ATOM     54  C   UNL A   1      42.723  30.510  35.995  1.00  0.00     0.049 A 
ATOM     55  H   UNL A   1      40.897  31.209  35.201  1.00  0.00     0.167 HD
ATOM     56  C   UNL A   1      42.523  29.361  33.812  1.00  0.00     0.074 A 
ATOM     57  C   UNL A   1      43.001  28.469  32.775  1.00  0.00     0.031 C 
ATOM     58  C   UNL A   1      43.193  29.623  34.960  1.00  0.00     0.031 A 
BRANCH  45  59
ATOM     59  C   UNL A   1      40.293  33.626  38.674  1.00  0.00    -0.014 A 
ATOM     60  C   UNL A   1      39.688  33.125  39.837  1.00  0.00     0.009 A 
ATOM     61  C   UNL A   1      40.952  34.866  38.738  1.00  0.00     0.009 A 
ATOM     62  C   UNL A   1      39.703  33.867  41.022  1.00  0.00     0.001 A 
ATOM     63  C   UNL A   1      40.993  35.591  39.931  1.00  0.00     0.001 A 
ATOM     64  C   UNL A   1      40.358  35.097  41.069  1.00  0.00     0.000 A 
ENDBRANCH  45  59
BRANCH  46  65
ATOM     65  C   UNL A   1      39.858  28.760  29.983  1.00  0.00    -0.014 A 
ATOM     66  C   UNL A   1      39.388  27.441  29.884  1.00  0.00     0.009 A 
ATOM     67  C   UNL A   1      40.323  29.396  28.820  1.00  0.00     0.009 A 
ATOM     68  C   UNL A   1      39.406  26.770  28.658  1.00  0.00     0.001 A 
ATOM     69  C   UNL A   1      40.308  28.735  27.589  1.00  0.00     0.001 A 
ATOM     70  C   UNL A   1      39.859  27.419  27.511  1.00  0.00     0.000 A 
ENDBRANCH  46  65
BRANCH  58  71
ATOM     71  C   UNL A   1      44.495  28.904  35.184  1.00  0.00    -0.014 A 
ATOM     72  C   UNL A   1      44.552  27.678  35.866  1.00  0.00     0.009 A 
ATOM     73  C   UNL A   1      45.684  29.445  34.667  1.00  0.00     0.009 A 
ATOM     74  C   UNL A   1      45.774  27.029  36.054  1.00  0.00     0.001 A 
ATOM     75  C   UNL A   1      46.900  28.779  34.828  1.00  0.00     0.001 A 
ATOM     76  C   UNL A   1      46.945  27.576  35.531  1.00  0.00     0.000 A 
ENDBRANCH  58  71
ENDBRANCH  32  33
ENDBRANCH  25  27
ENDBRANCH  24  25
ENDBRANCH  23  24
ENDBRANCH  22  23
ENDBRANCH   1  22
TORSDOF 16
ENDMDL
MODEL 2
REMARK VINA RESULT:     -13.0      1.827      2.515
REMARK SMILES C[C@H](C(=O)OCCOCCOC(=O)c1ccc(-c2c3nc(c(-c4ccccc4)c4ccc([nH]4)c(-c4ccccc4)c4nc(c(-c5ccccc5)c5ccc2[nH]5)C=C4)C=C3)cc1)[C@H](C)n1cnc2cc(F)c(F)cc21
REMARK SMILES IDX 8 1 7 2 6 3 5 4 3 5 4 6 2 7 1 8 62 9 63 10 64 11 65 12 74 13
REMARK SMILES IDX 66 14 67 15 73 16 68 17 71 18 69 19 72 20 70 21 9 22 10 23
REMARK SMILES IDX 11 24 12 25 13 26 14 27 15 28 61 29 16 30 60 31 17 32 18 33
REMARK SMILES IDX 19 34 54 35 20 36 59 37 53 38 55 39 21 40 58 41 52 42 51 43
REMARK SMILES IDX 22 45 44 46 29 47 43 48 30 49 33 50 42 51 56 52 31 53 32 54
REMARK SMILES IDX 41 56 57 57 34 58 23 59 24 60 28 61 25 62 27 63 26 64 45 65
REMARK SMILES IDX 46 66 50 67 47 68 49 69 48 70 35 71 36 72 40 73 37 74 39 75
REMARK SMILES IDX 38 76
REMARK H PARENT 55 44 33 55
REMARK Flexibility Score: inf
ROOT
ATOM      1  O   UNL A   1      34.571  33.549  27.472  1.00  0.00    -0.374 OA
ENDROOT
BRANCH   1   2
ATOM      2  C   UNL A   1      34.676  31.912  27.992  1.00  0.00     0.202 C 
BRANCH   2   3
ATOM      3  C   UNL A   1      33.594  30.476  27.484  1.00  0.00     0.261 C 
BRANCH   3   4
ATOM      4  O   UNL A   1      34.140  28.966  27.172  1.00  0.00    -0.463 OA
BRANCH   4   5
ATOM      5  C   UNL A   1      33.739  28.180  26.065  1.00  0.00     0.310 C 
ATOM      6  O   UNL A   1      34.038  28.530  24.926  1.00  0.00    -0.252 OA
BRANCH   5   7
ATOM      7  C   UNL A   1      32.831  26.789  26.384  1.00  0.00     0.119 C 
ATOM      8  C   UNL A   1      31.439  27.368  26.751  1.00  0.00     0.022 C 
BRANCH   7   9
ATOM      9  C   UNL A   1      32.427  25.386  25.402  1.00  0.00     0.099 C 
ATOM     10  C   UNL A   1      33.082  24.097  25.927  1.00  0.00     0.032 C 
BRANCH   9  11
ATOM     11  N   UNL A   1      32.451  25.304  23.865  1.00  0.00    -0.327 N 
ATOM     12  C   UNL A   1      31.950  24.048  23.470  1.00  0.00     0.200 A 
ATOM     13  C   UNL A   1      31.705  26.179  23.005  1.00  0.00     0.071 A 
ATOM     14  N   UNL A   1      30.647  24.105  23.649  1.00  0.00    -0.237 NA
ATOM     15  C   UNL A   1      30.428  25.454  23.628  1.00  0.00     0.092 A 
ATOM     16  C   UNL A   1      31.628  27.786  22.258  1.00  0.00     0.071 A 
ATOM     17  C   UNL A   1      28.999  26.410  23.926  1.00  0.00     0.073 A 
ATOM     18  C   UNL A   1      30.146  28.798  22.356  1.00  0.00     0.161 A 
ATOM     19  C   UNL A   1      28.730  28.119  23.191  1.00  0.00     0.161 A 
ATOM     20  F   UNL A   1      30.135  30.033  21.848  1.00  0.00    -0.204 F 
ATOM     21  F   UNL A   1      27.545  28.714  23.044  1.00  0.00    -0.204 F 
ENDBRANCH   9  11
ENDBRANCH   7   9
ENDBRANCH   5   7
ENDBRANCH   4   5
ENDBRANCH   3   4
ENDBRANCH   2   3
ENDBRANCH   1   2
BRANCH   1  22
ATOM     22  C   UNL A   1      34.704  35.054  28.515  1.00  0.00     0.202 C 
BRANCH  22  23
ATOM     23  C   UNL A   1      32.871  36.066  29.243  1.00  0.00     0.261 C 
BRANCH  23  24
ATOM     24  O   UNL A   1      32.759  36.719  30.821  1.00  0.00    -0.460 OA
BRANCH  24  25
ATOM     25  C   UNL A   1      32.486  36.026  31.956  1.00  0.00     0.338 C 
ATOM     26  O   UNL A   1      31.398  35.980  32.502  1.00  0.00    -0.246 OA
BRANCH  25  27
ATOM     27  C   UNL A   1      33.687  35.248  32.431  1.00  0.00     0.060 A 
ATOM     28  C   UNL A   1      34.997  35.744  32.313  1.00  0.00     0.016 A 
ATOM     29  C   UNL A   1      33.530  33.936  32.882  1.00  0.00     0.016 A 
ATOM     30  C   UNL A   1      36.119  34.960  32.640  1.00  0.00     0.010 A 
ATOM     31  C   UNL A   1      34.653  33.156  33.240  1.00  0.00     0.010 A 
ATOM     32  C   UNL A   1      35.962  33.656  33.118  1.00  0.00    -0.014 A 
BRANCH  32  33
ATOM     33  C   UNL A   1      37.149  32.812  33.457  1.00  0.00     0.031 A 
ATOM     34  C   UNL A   1      37.897  33.030  34.748  1.00  0.00     0.074 A 
ATOM     35  C   UNL A   1      37.569  31.843  32.618  1.00  0.00     0.049 A 
ATOM     36  N   UNL A   1      39.018  32.491  35.164  1.00  0.00    -0.248 NA
ATOM     37  C   UNL A   1      37.296  33.976  35.699  1.00  0.00     0.031 C 
ATOM     38  C   UNL A   1      36.905  31.459  31.373  1.00  0.00     0.029 A 
ATOM     39  N   UNL A   1      38.665  31.011  32.680  1.00  0.00    -0.354 N 
ATOM     40  C   UNL A   1      39.268  33.046  36.415  1.00  0.00     0.074 A 
ATOM     41  C   UNL A   1      38.188  33.974  36.681  1.00  0.00     0.031 C 
ATOM     42  C   UNL A   1      37.614  30.481  30.781  1.00  0.00     0.029 A 
ATOM     43  C   UNL A   1      38.810  30.205  31.573  1.00  0.00     0.049 A 
ATOM     44  H   UNL A   1      39.287  30.996  33.443  1.00  0.00     0.167 HD
ATOM     45  C   UNL A   1      40.304  32.814  37.260  1.00  0.00     0.031 A 
ATOM     46  C   UNL A   1      39.806  29.370  31.215  1.00  0.00     0.031 A 
ATOM     47  C   UNL A   1      41.391  31.907  36.990  1.00  0.00     0.049 A 
ATOM     48  C   UNL A   1      41.000  29.207  32.119  1.00  0.00     0.074 A 
ATOM     49  C   UNL A   1      42.492  31.616  37.780  1.00  0.00     0.029 A 
ATOM     50  N   UNL A   1      41.520  31.148  35.836  1.00  0.00    -0.354 N 
ATOM     51  N   UNL A   1      41.232  29.754  33.289  1.00  0.00    -0.248 NA
ATOM     52  C   UNL A   1      42.070  28.311  31.654  1.00  0.00     0.031 C 
ATOM     53  C   UNL A   1      43.315  30.729  37.077  1.00  0.00     0.029 A 
ATOM     54  C   UNL A   1      42.694  30.413  35.881  1.00  0.00     0.049 A 
ATOM     55  H   UNL A   1      40.874  31.135  35.094  1.00  0.00     0.167 HD
ATOM     56  C   UNL A   1      42.456  29.245  33.711  1.00  0.00     0.074 A 
ATOM     57  C   UNL A   1      42.909  28.334  32.680  1.00  0.00     0.031 C 
ATOM     58  C   UNL A   1      43.139  29.508  34.851  1.00  0.00     0.031 A 
BRANCH  45  59
ATOM     59  C   UNL A   1      40.340  33.599  38.546  1.00  0.00    -0.014 A 
ATOM     60  C   UNL A   1      39.729  33.124  39.717  1.00  0.00     0.009 A 
ATOM     61  C   UNL A   1      41.028  34.823  38.594  1.00  0.00     0.009 A 
ATOM     62  C   UNL A   1      39.767  33.878  40.894  1.00  0.00     0.001 A 
ATOM     63  C   UNL A   1      41.091  35.560  39.779  1.00  0.00     0.001 A 
ATOM     64  C   UNL A   1      40.450  35.093  40.924  1.00  0.00     0.000 A 
ENDBRANCH  45  59
BRANCH  46  65
ATOM     65  C   UNL A   1      39.748  28.650  29.911  1.00  0.00    -0.014 A 
ATOM     66  C   UNL A   1      39.317  27.316  29.839  1.00  0.00     0.009 A 
ATOM     67  C   UNL A   1      40.154  29.290  28.727  1.00  0.00     0.009 A 
ATOM     68  C   UNL A   1      39.313  26.635  28.619  1.00  0.00     0.001 A 
ATOM     69  C   UNL A   1      40.117  28.617  27.503  1.00  0.00     0.001 A 
ATOM     70  C   UNL A   1      39.706  27.287  27.452  1.00  0.00     0.000 A 
ENDBRANCH  46  65
BRANCH  58  71
ATOM     71  C   UNL A   1      44.431  28.768  35.072  1.00  0.00    -0.014 A 
ATOM     72  C   UNL A   1      44.471  27.543  35.756  1.00  0.00     0.009 A 
ATOM     73  C   UNL A   1      45.626  29.290  34.550  1.00  0.00     0.009 A 
ATOM     74  C   UNL A   1      45.683  26.875  35.942  1.00  0.00     0.001 A 
ATOM     75  C   UNL A   1      46.832  28.604  34.708  1.00  0.00     0.001 A 
ATOM     76  C   UNL A   1      46.861  27.403  35.413  1.00  0.00     0.000 A 
ENDBRANCH  58  71
ENDBRANCH  32  33
ENDBRANCH  25  27
ENDBRANCH  24  25
ENDBRANCH  23  24
ENDBRANCH  22  23
ENDBRANCH   1  22
TORSDOF 16
ENDMDL
MODEL 3
REMARK VINA RESULT:     -13.0      2.907      4.189
REMARK SMILES C[C@H](C(=O)OCCOCCOC(=O)c1ccc(-c2c3nc(c(-c4ccccc4)c4ccc([nH]4)c(-c4ccccc4)c4nc(c(-c5ccccc5)c5ccc2[nH]5)C=C4)C=C3)cc1)[C@H](C)n1cnc2cc(F)c(F)cc21
REMARK SMILES IDX 8 1 7 2 6 3 5 4 3 5 4 6 2 7 1 8 62 9 63 10 64 11 65 12 74 13
REMARK SMILES IDX 66 14 67 15 73 16 68 17 71 18 69 19 72 20 70 21 9 22 10 23
REMARK SMILES IDX 11 24 12 25 13 26 14 27 15 28 61 29 16 30 60 31 17 32 18 33
REMARK SMILES IDX 19 34 54 35 20 36 59 37 53 38 55 39 21 40 58 41 52 42 51 43
REMARK SMILES IDX 22 45 44 46 29 47 43 48 30 49 33 50 42 51 56 52 31 53 32 54
REMARK SMILES IDX 41 56 57 57 34 58 23 59 24 60 28 61 25 62 27 63 26 64 45 65
REMARK SMILES IDX 46 66 50 67 47 68 49 69 48 70 35 71 36 72 40 73 37 74 39 75
REMARK SMILES IDX 38 76
REMARK H PARENT 55 44 33 55
REMARK Flexibility Score: inf
ROOT
ATOM      1  O   UNL A   1      33.693  28.880  27.108  1.00  0.00    -0.374 OA
ENDROOT
BRANCH   1   2
ATOM      2  C   UNL A   1      33.838  27.921  25.686  1.00  0.00     0.202 C 
BRANCH   2   3
ATOM      3  C   UNL A   1      33.483  28.425  23.923  1.00  0.00     0.261 C 
BRANCH   3   4
ATOM      4  O   UNL A   1      32.592  27.549  22.867  1.00  0.00    -0.463 OA
BRANCH   4   5
ATOM      5  C   UNL A   1      33.012  26.330  22.280  1.00  0.00     0.310 C 
ATOM      6  O   UNL A   1      33.807  26.344  21.345  1.00  0.00    -0.252 OA
BRANCH   5   7
ATOM      7  C   UNL A   1      32.357  24.899  22.900  1.00  0.00     0.119 C 
ATOM      8  C   UNL A   1      33.433  23.844  22.532  1.00  0.00     0.022 C 
BRANCH   7   9
ATOM      9  C   UNL A   1      31.875  24.421  24.524  1.00  0.00     0.099 C 
ATOM     10  C   UNL A   1      30.437  24.854  24.858  1.00  0.00     0.032 C 
BRANCH   9  11
ATOM     11  N   UNL A   1      32.702  24.587  25.812  1.00  0.00    -0.327 N 
ATOM     12  C   UNL A   1      31.936  24.133  26.903  1.00  0.00     0.200 A 
ATOM     13  C   UNL A   1      33.948  23.918  26.054  1.00  0.00     0.071 A 
ATOM     14  N   UNL A   1      31.942  22.818  26.827  1.00  0.00    -0.237 NA
ATOM     15  C   UNL A   1      33.059  22.594  26.074  1.00  0.00     0.092 A 
ATOM     16  C   UNL A   1      35.692  23.899  25.726  1.00  0.00     0.071 A 
ATOM     17  C   UNL A   1      33.732  21.137  25.386  1.00  0.00     0.073 A 
ATOM     18  C   UNL A   1      36.528  22.409  25.172  1.00  0.00     0.161 A 
ATOM     19  C   UNL A   1      35.560  20.926  25.004  1.00  0.00     0.161 A 
ATOM     20  F   UNL A   1      37.827  22.436  24.862  1.00  0.00    -0.204 F 
ATOM     21  F   UNL A   1      36.186  19.756  24.868  1.00  0.00    -0.204 F 
ENDBRANCH   9  11
ENDBRANCH   7   9
ENDBRANCH   5   7
ENDBRANCH   4   5
ENDBRANCH   3   4
ENDBRANCH   2   3
ENDBRANCH   1   2
BRANCH   1  22
ATOM     22  C   UNL A   1      34.004  30.683  27.266  1.00  0.00     0.202 C 
BRANCH  22  23
ATOM     23  C   UNL A   1      32.302  32.091  27.451  1.00  0.00     0.261 C 
BRANCH  23  24
ATOM     24  O   UNL A   1      32.527  33.786  27.508  1.00  0.00    -0.460 OA
BRANCH  24  25
ATOM     25  C   UNL A   1      33.019  34.493  28.558  1.00  0.00     0.338 C 
ATOM     26  O   UNL A   1      32.442  35.411  29.113  1.00  0.00    -0.246 OA
BRANCH  25  27
ATOM     27  C   UNL A   1      34.352  33.955  29.010  1.00  0.00     0.060 A 
ATOM     28  C   UNL A   1      35.505  34.035  28.210  1.00  0.00     0.016 A 
ATOM     29  C   UNL A   1      34.440  33.230  30.201  1.00  0.00     0.016 A 
ATOM     30  C   UNL A   1      36.713  33.418  28.585  1.00  0.00     0.010 A 
ATOM     31  C   UNL A   1      35.659  32.635  30.595  1.00  0.00     0.010 A 
ATOM     32  C   UNL A   1      36.810  32.716  29.789  1.00  0.00    -0.014 A 
BRANCH  32  33
ATOM     33  C   UNL A   1      38.086  32.048  30.190  1.00  0.00     0.031 A 
ATOM     34  C   UNL A   1      39.058  32.745  31.107  1.00  0.00     0.074 A 
ATOM     35  C   UNL A   1      38.388  30.812  29.741  1.00  0.00     0.049 A 
ATOM     36  N   UNL A   1      40.267  32.388  31.468  1.00  0.00    -0.248 NA
ATOM     37  C   UNL A   1      38.602  34.009  31.702  1.00  0.00     0.031 C 
ATOM     38  C   UNL A   1      37.517  29.978  28.914  1.00  0.00     0.029 A 
ATOM     39  N   UNL A   1      39.521  30.045  29.907  1.00  0.00    -0.354 N 
ATOM     40  C   UNL A   1      40.725  33.392  32.316  1.00  0.00     0.074 A 
ATOM     41  C   UNL A   1      39.666  34.377  32.402  1.00  0.00     0.031 C 
ATOM     42  C   UNL A   1      38.150  28.826  28.631  1.00  0.00     0.029 A 
ATOM     43  C   UNL A   1      39.492  28.859  29.209  1.00  0.00     0.049 A 
ATOM     44  H   UNL A   1      40.280  30.321  30.471  1.00  0.00     0.167 HD
ATOM     45  C   UNL A   1      41.917  33.491  32.956  1.00  0.00     0.031 A 
ATOM     46  C   UNL A   1      40.444  27.923  29.021  1.00  0.00     0.031 A 
ATOM     47  C   UNL A   1      42.981  32.523  32.857  1.00  0.00     0.049 A 
ATOM     48  C   UNL A   1      41.799  28.105  29.654  1.00  0.00     0.074 A 
ATOM     49  C   UNL A   1      44.229  32.544  33.458  1.00  0.00     0.029 A 
ATOM     50  N   UNL A   1      42.925  31.361  32.101  1.00  0.00    -0.354 N 
ATOM     51  N   UNL A   1      42.224  29.069  30.436  1.00  0.00    -0.248 NA
ATOM     52  C   UNL A   1      42.807  27.069  29.380  1.00  0.00     0.031 C 
ATOM     53  C   UNL A   1      44.948  31.428  33.017  1.00  0.00     0.029 A 
ATOM     54  C   UNL A   1      44.124  30.674  32.198  1.00  0.00     0.049 A 
ATOM     55  H   UNL A   1      42.147  31.069  31.573  1.00  0.00     0.167 HD
ATOM     56  C   UNL A   1      43.533  28.740  30.770  1.00  0.00     0.074 A 
ATOM     57  C   UNL A   1      43.828  27.480  30.119  1.00  0.00     0.031 C 
ATOM     58  C   UNL A   1      44.410  29.420  31.548  1.00  0.00     0.031 A 
BRANCH  45  59
ATOM     59  C   UNL A   1      42.159  34.725  33.787  1.00  0.00    -0.014 A 
ATOM     60  C   UNL A   1      41.881  34.754  35.162  1.00  0.00     0.009 A 
ATOM     61  C   UNL A   1      42.707  35.871  33.186  1.00  0.00     0.009 A 
ATOM     62  C   UNL A   1      42.104  35.916  35.907  1.00  0.00     0.001 A 
ATOM     63  C   UNL A   1      42.958  37.021  33.938  1.00  0.00     0.001 A 
ATOM     64  C   UNL A   1      42.644  37.046  35.295  1.00  0.00     0.000 A 
ENDBRANCH  45  59
BRANCH  46  65
ATOM     65  C   UNL A   1      40.174  26.742  28.152  1.00  0.00    -0.014 A 
ATOM     66  C   UNL A   1      39.468  25.632  28.641  1.00  0.00     0.009 A 
ATOM     67  C   UNL A   1      40.649  26.708  26.830  1.00  0.00     0.009 A 
ATOM     68  C   UNL A   1      39.263  24.509  27.835  1.00  0.00     0.001 A 
ATOM     69  C   UNL A   1      40.412  25.599  26.015  1.00  0.00     0.001 A 
ATOM     70  C   UNL A   1      39.728  24.496  26.521  1.00  0.00     0.000 A 
ENDBRANCH  46  65
BRANCH  58  71
ATOM     71  C   UNL A   1      45.760  28.796  31.780  1.00  0.00    -0.014 A 
ATOM     72  C   UNL A   1      46.872  29.131  30.990  1.00  0.00     0.009 A 
ATOM     73  C   UNL A   1      45.931  27.886  32.835  1.00  0.00     0.009 A 
ATOM     74  C   UNL A   1      48.114  28.541  31.231  1.00  0.00     0.001 A 
ATOM     75  C   UNL A   1      47.181  27.322  33.096  1.00  0.00     0.001 A 
ATOM     76  C   UNL A   1      48.270  27.643  32.286  1.00  0.00     0.000 A 
ENDBRANCH  58  71
ENDBRANCH  32  33
ENDBRANCH  25  27
ENDBRANCH  24  25
ENDBRANCH  23  24
ENDBRANCH  22  23
ENDBRANCH   1  22
TORSDOF 16
ENDMDL
