MODEL 1
REMARK VINA RESULT:     -10.1      0.000      0.000
REMARK SMILES CCS(=O)(=O)Nc1ccc(N2CC[NH+](C)CC2)cc1C(=O)OCCOCCOC(=O)c1ccc(-c2c3nc(c(-c4ccccc4)c4ccc([nH]4)c(-c4ccccc4)c4nc(c(-c5ccccc5)c5ccc2[nH]5)C=C4)C=C3)cc1
REMARK SMILES IDX 24 1 23 2 22 3 20 4 21 5 19 6 7 7 8 8 9 9 18 10 10 11 6 12
REMARK SMILES IDX 3 14 4 15 5 16 2 17 1 18 11 19 12 20 17 21 13 22 16 23 14 24
REMARK SMILES IDX 15 25 25 27 26 28 27 29 28 30 29 31 30 32 31 33 32 34 78 35
REMARK SMILES IDX 33 36 77 37 34 38 35 39 36 40 71 41 37 42 76 43 70 44 72 45
REMARK SMILES IDX 38 46 75 47 69 48 68 49 39 51 61 52 46 53 60 54 47 55 50 56
REMARK SMILES IDX 59 57 73 58 48 59 49 60 58 62 74 63 51 64 40 65 41 66 45 67
REMARK SMILES IDX 42 68 44 69 43 70 62 71 63 72 67 73 64 74 66 75 65 76 52 77
REMARK SMILES IDX 53 78 57 79 54 80 56 81 55 82
REMARK H PARENT 6 13 14 26 72 50 50 61
REMARK Flexibility Score: inf
ROOT
ATOM      1  C   UNL A   1      37.552  21.651  25.627  1.00  0.00     0.202 C 
ENDROOT
BRANCH   1   2
ATOM      2  C   UNL A   1      36.549  22.733  25.219  1.00  0.00     0.261 C 
BRANCH   2   3
ATOM      3  O   UNL A   1      35.590  23.079  26.228  1.00  0.00    -0.460 OA
BRANCH   3   4
ATOM      4  C   UNL A   1      34.485  22.292  26.236  1.00  0.00     0.340 C 
ATOM      5  O   UNL A   1      34.270  21.363  27.003  1.00  0.00    -0.246 OA
BRANCH   4   6
ATOM      6  C   UNL A   1      33.523  22.663  25.175  1.00  0.00     0.086 A 
ATOM      7  C   UNL A   1      33.034  21.764  24.215  1.00  0.00     0.063 A 
ATOM      8  C   UNL A   1      31.963  22.156  23.415  1.00  0.00     0.030 A 
ATOM      9  C   UNL A   1      31.425  23.452  23.543  1.00  0.00     0.028 A 
ATOM     10  C   UNL A   1      32.989  23.956  25.271  1.00  0.00     0.043 A 
ATOM     11  C   UNL A   1      31.946  24.386  24.452  1.00  0.00     0.038 A 
BRANCH   7  12
ATOM     12  N   UNL A   1      33.662  20.500  24.021  1.00  0.00    -0.283 N 
ATOM     13  H   UNL A   1      34.620  20.504  23.795  1.00  0.00     0.180 HD
BRANCH  12  14
ATOM     14  S   UNL A   1      32.919  19.023  24.144  1.00  0.00     0.232 S 
ATOM     15  O   UNL A   1      32.240  18.869  22.872  1.00  0.00    -0.207 OA
ATOM     16  O   UNL A   1      32.157  19.024  25.376  1.00  0.00    -0.207 OA
BRANCH  14  17
ATOM     17  C   UNL A   1      34.125  17.703  24.271  1.00  0.00     0.156 C 
ATOM     18  C   UNL A   1      33.630  16.345  24.703  1.00  0.00     0.023 C 
ENDBRANCH  14  17
ENDBRANCH  12  14
ENDBRANCH   7  12
BRANCH  11  19
ATOM     19  N   UNL A   1      31.460  25.666  24.568  1.00  0.00    -0.360 N 
ATOM     20  C   UNL A   1      31.659  26.685  23.523  1.00  0.00     0.178 C 
ATOM     21  C   UNL A   1      30.747  26.135  25.763  1.00  0.00     0.178 C 
ATOM     22  C   UNL A   1      32.290  27.966  24.113  1.00  0.00     0.283 C 
ATOM     23  C   UNL A   1      31.406  27.436  26.296  1.00  0.00     0.283 C 
ATOM     24  N   UNL A   1      31.527  28.494  25.266  1.00  0.00    -0.334 N 
ATOM     25  C   UNL A   1      32.183  29.682  25.813  1.00  0.00     0.332 C 
ATOM     26  H   UNL A   1      30.594  28.769  24.959  1.00  0.00     0.347 HD
ENDBRANCH  11  19
ENDBRANCH   4   6
ENDBRANCH   3   4
ENDBRANCH   2   3
ENDBRANCH   1   2
BRANCH   1  27
ATOM     27  O   UNL A   1      38.922  22.002  25.754  1.00  0.00    -0.374 OA
BRANCH  27  28
ATOM     28  C   UNL A   1      39.833  21.067  26.324  1.00  0.00     0.202 C 
BRANCH  28  29
ATOM     29  C   UNL A   1      41.339  21.274  26.121  1.00  0.00     0.261 C 
BRANCH  29  30
ATOM     30  O   UNL A   1      41.882  22.387  26.854  1.00  0.00    -0.460 OA
BRANCH  30  31
ATOM     31  C   UNL A   1      42.137  23.478  26.093  1.00  0.00     0.338 C 
ATOM     32  O   UNL A   1      42.724  23.515  25.019  1.00  0.00    -0.246 OA
BRANCH  31  33
ATOM     33  C   UNL A   1      41.503  24.677  26.658  1.00  0.00     0.060 A 
ATOM     34  C   UNL A   1      42.060  25.926  26.350  1.00  0.00     0.016 A 
ATOM     35  C   UNL A   1      40.517  24.552  27.636  1.00  0.00     0.016 A 
ATOM     36  C   UNL A   1      41.681  27.053  27.077  1.00  0.00     0.010 A 
ATOM     37  C   UNL A   1      40.148  25.679  28.372  1.00  0.00     0.010 A 
ATOM     38  C   UNL A   1      40.769  26.920  28.132  1.00  0.00    -0.014 A 
BRANCH  38  39
ATOM     39  C   UNL A   1      40.622  28.008  29.124  1.00  0.00     0.031 A 
ATOM     40  C   UNL A   1      41.578  28.056  30.285  1.00  0.00     0.074 A 
ATOM     41  C   UNL A   1      39.660  28.936  29.001  1.00  0.00     0.049 A 
ATOM     42  N   UNL A   1      41.579  28.844  31.329  1.00  0.00    -0.248 NA
ATOM     43  C   UNL A   1      42.680  27.079  30.264  1.00  0.00     0.031 C 
ATOM     44  C   UNL A   1      38.718  29.038  27.889  1.00  0.00     0.029 A 
ATOM     45  N   UNL A   1      39.315  29.966  29.839  1.00  0.00    -0.354 N 
ATOM     46  C   UNL A   1      42.664  28.445  32.099  1.00  0.00     0.074 A 
ATOM     47  C   UNL A   1      43.291  27.338  31.410  1.00  0.00     0.031 C 
ATOM     48  C   UNL A   1      37.890  30.073  28.119  1.00  0.00     0.029 A 
ATOM     49  C   UNL A   1      38.220  30.673  29.411  1.00  0.00     0.049 A 
ATOM     50  H   UNL A   1      39.805  30.177  30.666  1.00  0.00     0.167 HD
ATOM     51  C   UNL A   1      43.098  28.950  33.278  1.00  0.00     0.031 A 
ATOM     52  C   UNL A   1      37.545  31.671  30.010  1.00  0.00     0.031 A 
ATOM     53  C   UNL A   1      42.467  30.039  33.971  1.00  0.00     0.049 A 
ATOM     54  C   UNL A   1      37.987  32.155  31.365  1.00  0.00     0.074 A 
ATOM     55  C   UNL A   1      42.828  30.627  35.171  1.00  0.00     0.029 A 
ATOM     56  N   UNL A   1      41.333  30.700  33.524  1.00  0.00    -0.354 N 
ATOM     57  N   UNL A   1      39.008  31.769  32.089  1.00  0.00    -0.248 NA
ATOM     58  C   UNL A   1      37.175  33.214  31.985  1.00  0.00     0.031 C 
ATOM     59  C   UNL A   1      41.884  31.615  35.472  1.00  0.00     0.029 A 
ATOM     60  C   UNL A   1      40.966  31.674  34.435  1.00  0.00     0.049 A 
ATOM     61  H   UNL A   1      40.859  30.504  32.684  1.00  0.00     0.167 HD
ATOM     62  C   UNL A   1      38.983  32.556  33.234  1.00  0.00     0.074 A 
ATOM     63  C   UNL A   1      37.843  33.442  33.109  1.00  0.00     0.031 C 
ATOM     64  C   UNL A   1      39.833  32.551  34.290  1.00  0.00     0.031 A 
BRANCH  51  65
ATOM     65  C   UNL A   1      44.287  28.285  33.910  1.00  0.00    -0.014 A 
ATOM     66  C   UNL A   1      44.139  27.195  34.782  1.00  0.00     0.009 A 
ATOM     67  C   UNL A   1      45.577  28.761  33.631  1.00  0.00     0.009 A 
ATOM     68  C   UNL A   1      45.257  26.623  35.393  1.00  0.00     0.001 A 
ATOM     69  C   UNL A   1      46.694  28.171  34.224  1.00  0.00     0.001 A 
ATOM     70  C   UNL A   1      46.533  27.110  35.113  1.00  0.00     0.000 A 
ENDBRANCH  51  65
BRANCH  52  71
ATOM     71  C   UNL A   1      36.365  32.269  29.338  1.00  0.00    -0.014 A 
ATOM     72  C   UNL A   1      36.487  33.474  28.630  1.00  0.00     0.009 A 
ATOM     73  C   UNL A   1      35.115  31.633  29.389  1.00  0.00     0.009 A 
ATOM     74  C   UNL A   1      35.376  34.036  27.998  1.00  0.00     0.001 A 
ATOM     75  C   UNL A   1      34.011  32.186  28.736  1.00  0.00     0.001 A 
ATOM     76  C   UNL A   1      34.143  33.390  28.045  1.00  0.00     0.000 A 
ENDBRANCH  52  71
BRANCH  64  77
ATOM     77  C   UNL A   1      39.596  33.564  35.372  1.00  0.00    -0.014 A 
ATOM     78  C   UNL A   1      38.891  33.235  36.539  1.00  0.00     0.009 A 
ATOM     79  C   UNL A   1      40.144  34.851  35.245  1.00  0.00     0.009 A 
ATOM     80  C   UNL A   1      38.723  34.183  37.551  1.00  0.00     0.001 A 
ATOM     81  C   UNL A   1      39.994  35.789  36.267  1.00  0.00     0.001 A 
ATOM     82  C   UNL A   1      39.278  35.456  37.416  1.00  0.00     0.000 A 
ENDBRANCH  64  77
ENDBRANCH  38  39
ENDBRANCH  31  33
ENDBRANCH  30  31
ENDBRANCH  29  30
ENDBRANCH  28  29
ENDBRANCH  27  28
ENDBRANCH   1  27
TORSDOF 18
ENDMDL
MODEL 2
REMARK VINA RESULT:     -10.0      3.943      8.811
REMARK SMILES CCS(=O)(=O)Nc1ccc(N2CC[NH+](C)CC2)cc1C(=O)OCCOCCOC(=O)c1ccc(-c2c3nc(c(-c4ccccc4)c4ccc([nH]4)c(-c4ccccc4)c4nc(c(-c5ccccc5)c5ccc2[nH]5)C=C4)C=C3)cc1
REMARK SMILES IDX 24 1 23 2 22 3 20 4 21 5 19 6 7 7 8 8 9 9 18 10 10 11 6 12
REMARK SMILES IDX 3 14 4 15 5 16 2 17 1 18 11 19 12 20 17 21 13 22 16 23 14 24
REMARK SMILES IDX 15 25 25 27 26 28 27 29 28 30 29 31 30 32 31 33 32 34 78 35
REMARK SMILES IDX 33 36 77 37 34 38 35 39 36 40 71 41 37 42 76 43 70 44 72 45
REMARK SMILES IDX 38 46 75 47 69 48 68 49 39 51 61 52 46 53 60 54 47 55 50 56
REMARK SMILES IDX 59 57 73 58 48 59 49 60 58 62 74 63 51 64 40 65 41 66 45 67
REMARK SMILES IDX 42 68 44 69 43 70 62 71 63 72 67 73 64 74 66 75 65 76 52 77
REMARK SMILES IDX 53 78 57 79 54 80 56 81 55 82
REMARK H PARENT 6 13 14 26 72 50 50 61
REMARK Flexibility Score: inf
ROOT
ATOM      1  C   UNL A   1      32.670  29.128  24.172  1.00  0.00     0.202 C 
ENDROOT
BRANCH   1   2
ATOM      2  C   UNL A   1      33.427  28.117  23.308  1.00  0.00     0.261 C 
BRANCH   2   3
ATOM      3  O   UNL A   1      32.598  27.294  22.475  1.00  0.00    -0.460 OA
BRANCH   3   4
ATOM      4  C   UNL A   1      33.044  26.020  22.335  1.00  0.00     0.340 C 
ATOM      5  O   UNL A   1      33.685  25.582  21.389  1.00  0.00    -0.246 OA
BRANCH   4   6
ATOM      6  C   UNL A   1      32.657  25.160  23.475  1.00  0.00     0.086 A 
ATOM      7  C   UNL A   1      31.329  24.842  23.797  1.00  0.00     0.063 A 
ATOM      8  C   UNL A   1      31.088  23.844  24.739  1.00  0.00     0.030 A 
ATOM      9  C   UNL A   1      32.168  23.210  25.385  1.00  0.00     0.028 A 
ATOM     10  C   UNL A   1      33.717  24.534  24.146  1.00  0.00     0.043 A 
ATOM     11  C   UNL A   1      33.501  23.564  25.124  1.00  0.00     0.038 A 
BRANCH   7  12
ATOM     12  N   UNL A   1      30.250  25.570  23.218  1.00  0.00    -0.283 N 
ATOM     13  H   UNL A   1      29.982  25.324  22.302  1.00  0.00     0.180 HD
BRANCH  12  14
ATOM     14  S   UNL A   1      29.405  26.794  23.950  1.00  0.00     0.232 S 
ATOM     15  O   UNL A   1      30.194  27.104  25.127  1.00  0.00    -0.207 OA
ATOM     16  O   UNL A   1      28.035  26.346  24.094  1.00  0.00    -0.207 OA
BRANCH  14  17
ATOM     17  C   UNL A   1      29.375  28.262  22.923  1.00  0.00     0.156 C 
ATOM     18  C   UNL A   1      28.065  28.999  22.796  1.00  0.00     0.023 C 
ENDBRANCH  14  17
ENDBRANCH  12  14
ENDBRANCH   7  12
BRANCH  11  19
ATOM     19  N   UNL A   1      34.568  22.984  25.768  1.00  0.00    -0.360 N 
ATOM     20  C   UNL A   1      35.660  23.777  26.358  1.00  0.00     0.178 C 
ATOM     21  C   UNL A   1      34.729  21.529  25.877  1.00  0.00     0.178 C 
ATOM     22  C   UNL A   1      37.033  23.301  25.832  1.00  0.00     0.283 C 
ATOM     23  C   UNL A   1      36.133  21.111  25.362  1.00  0.00     0.283 C 
ATOM     24  N   UNL A   1      37.239  21.848  26.018  1.00  0.00    -0.334 N 
ATOM     25  C   UNL A   1      38.533  21.439  25.472  1.00  0.00     0.332 C 
ATOM     26  H   UNL A   1      37.240  21.629  27.014  1.00  0.00     0.347 HD
ENDBRANCH  11  19
ENDBRANCH   4   6
ENDBRANCH   3   4
ENDBRANCH   2   3
ENDBRANCH   1   2
BRANCH   1  27
ATOM     27  O   UNL A   1      33.335  29.717  25.279  1.00  0.00    -0.374 OA
BRANCH  27  28
ATOM     28  C   UNL A   1      32.596  30.518  26.194  1.00  0.00     0.202 C 
BRANCH  28  29
ATOM     29  C   UNL A   1      33.184  30.802  27.582  1.00  0.00     0.261 C 
BRANCH  29  30
ATOM     30  O   UNL A   1      34.506  31.369  27.555  1.00  0.00    -0.460 OA
BRANCH  30  31
ATOM     31  C   UNL A   1      35.143  31.341  28.750  1.00  0.00     0.338 C 
ATOM     32  O   UNL A   1      34.850  31.963  29.763  1.00  0.00    -0.246 OA
BRANCH  31  33
ATOM     33  C   UNL A   1      36.221  30.344  28.751  1.00  0.00     0.060 A 
ATOM     34  C   UNL A   1      36.546  29.722  29.966  1.00  0.00     0.016 A 
ATOM     35  C   UNL A   1      37.030  30.186  27.626  1.00  0.00     0.016 A 
ATOM     36  C   UNL A   1      37.728  28.994  30.078  1.00  0.00     0.010 A 
ATOM     37  C   UNL A   1      38.221  29.467  27.745  1.00  0.00     0.010 A 
ATOM     38  C   UNL A   1      38.599  28.917  28.984  1.00  0.00    -0.014 A 
BRANCH  38  39
ATOM     39  C   UNL A   1      39.993  28.462  29.180  1.00  0.00     0.031 A 
ATOM     40  C   UNL A   1      40.980  29.413  29.801  1.00  0.00     0.074 A 
ATOM     41  C   UNL A   1      40.380  27.230  28.814  1.00  0.00     0.049 A 
ATOM     42  N   UNL A   1      42.270  29.279  29.971  1.00  0.00    -0.248 NA
ATOM     43  C   UNL A   1      40.436  30.691  30.291  1.00  0.00     0.031 C 
ATOM     44  C   UNL A   1      39.507  26.195  28.266  1.00  0.00     0.029 A 
ATOM     45  N   UNL A   1      41.624  26.651  28.841  1.00  0.00    -0.354 N 
ATOM     46  C   UNL A   1      42.695  30.460  30.568  1.00  0.00     0.074 A 
ATOM     47  C   UNL A   1      41.529  31.304  30.718  1.00  0.00     0.031 C 
ATOM     48  C   UNL A   1      40.246  25.104  27.998  1.00  0.00     0.029 A 
ATOM     49  C   UNL A   1      41.646  25.384  28.315  1.00  0.00     0.049 A 
ATOM     50  H   UNL A   1      42.422  27.100  29.202  1.00  0.00     0.167 HD
ATOM     51  C   UNL A   1      43.944  30.814  30.951  1.00  0.00     0.031 A 
ATOM     52  C   UNL A   1      42.684  24.558  28.089  1.00  0.00     0.031 A 
ATOM     53  C   UNL A   1      45.104  29.983  30.788  1.00  0.00     0.049 A 
ATOM     54  C   UNL A   1      44.078  25.008  28.436  1.00  0.00     0.074 A 
ATOM     55  C   UNL A   1      46.415  30.248  31.144  1.00  0.00     0.029 A 
ATOM     56  N   UNL A   1      45.091  28.723  30.211  1.00  0.00    -0.354 N 
ATOM     57  N   UNL A   1      44.472  26.127  28.993  1.00  0.00    -0.248 NA
ATOM     58  C   UNL A   1      45.172  24.077  28.117  1.00  0.00     0.031 C 
ATOM     59  C   UNL A   1      47.203  29.164  30.740  1.00  0.00     0.029 A 
ATOM     60  C   UNL A   1      46.374  28.206  30.179  1.00  0.00     0.049 A 
ATOM     61  H   UNL A   1      44.288  28.264  29.873  1.00  0.00     0.167 HD
ATOM     62  C   UNL A   1      45.852  26.024  29.121  1.00  0.00     0.074 A 
ATOM     63  C   UNL A   1      46.228  24.732  28.582  1.00  0.00     0.031 C 
ATOM     64  C   UNL A   1      46.727  26.915  29.646  1.00  0.00     0.031 A 
BRANCH  51  65
ATOM     65  C   UNL A   1      44.115  32.186  31.538  1.00  0.00    -0.014 A 
ATOM     66  C   UNL A   1      44.490  33.281  30.744  1.00  0.00     0.009 A 
ATOM     67  C   UNL A   1      43.900  32.384  32.911  1.00  0.00     0.009 A 
ATOM     68  C   UNL A   1      44.688  34.537  31.322  1.00  0.00     0.001 A 
ATOM     69  C   UNL A   1      44.074  33.646  33.481  1.00  0.00     0.001 A 
ATOM     70  C   UNL A   1      44.479  34.719  32.689  1.00  0.00     0.000 A 
ENDBRANCH  51  65
BRANCH  52  71
ATOM     71  C   UNL A   1      42.445  23.224  27.486  1.00  0.00    -0.014 A 
ATOM     72  C   UNL A   1      42.673  23.012  26.118  1.00  0.00     0.009 A 
ATOM     73  C   UNL A   1      42.000  22.152  28.276  1.00  0.00     0.009 A 
ATOM     74  C   UNL A   1      42.448  21.755  25.551  1.00  0.00     0.001 A 
ATOM     75  C   UNL A   1      41.798  20.891  27.710  1.00  0.00     0.001 A 
ATOM     76  C   UNL A   1      42.018  20.696  26.348  1.00  0.00     0.000 A 
ENDBRANCH  52  71
BRANCH  64  77
ATOM     77  C   UNL A   1      48.171  26.510  29.711  1.00  0.00    -0.014 A 
ATOM     78  C   UNL A   1      49.073  26.857  28.695  1.00  0.00     0.009 A 
ATOM     79  C   UNL A   1      48.645  25.823  30.840  1.00  0.00     0.009 A 
ATOM     80  C   UNL A   1      50.421  26.505  28.801  1.00  0.00     0.001 A 
ATOM     81  C   UNL A   1      49.996  25.493  30.954  1.00  0.00     0.001 A 
ATOM     82  C   UNL A   1      50.881  25.829  29.931  1.00  0.00     0.000 A 
ENDBRANCH  64  77
ENDBRANCH  38  39
ENDBRANCH  31  33
ENDBRANCH  30  31
ENDBRANCH  29  30
ENDBRANCH  28  29
ENDBRANCH  27  28
ENDBRANCH   1  27
TORSDOF 18
ENDMDL
MODEL 3
REMARK VINA RESULT:     -10.0      4.817      9.723
REMARK SMILES CCS(=O)(=O)Nc1ccc(N2CC[NH+](C)CC2)cc1C(=O)OCCOCCOC(=O)c1ccc(-c2c3nc(c(-c4ccccc4)c4ccc([nH]4)c(-c4ccccc4)c4nc(c(-c5ccccc5)c5ccc2[nH]5)C=C4)C=C3)cc1
REMARK SMILES IDX 24 1 23 2 22 3 20 4 21 5 19 6 7 7 8 8 9 9 18 10 10 11 6 12
REMARK SMILES IDX 3 14 4 15 5 16 2 17 1 18 11 19 12 20 17 21 13 22 16 23 14 24
REMARK SMILES IDX 15 25 25 27 26 28 27 29 28 30 29 31 30 32 31 33 32 34 78 35
REMARK SMILES IDX 33 36 77 37 34 38 35 39 36 40 71 41 37 42 76 43 70 44 72 45
REMARK SMILES IDX 38 46 75 47 69 48 68 49 39 51 61 52 46 53 60 54 47 55 50 56
REMARK SMILES IDX 59 57 73 58 48 59 49 60 58 62 74 63 51 64 40 65 41 66 45 67
REMARK SMILES IDX 42 68 44 69 43 70 62 71 63 72 67 73 64 74 66 75 65 76 52 77
REMARK SMILES IDX 53 78 57 79 54 80 56 81 55 82
REMARK H PARENT 6 13 14 26 72 50 50 61
REMARK Flexibility Score: inf
ROOT
ATOM      1  C   UNL A   1      32.029  29.924  26.876  1.00  0.00     0.202 C 
ENDROOT
BRANCH   1   2
ATOM      2  C   UNL A   1      32.773  28.586  26.883  1.00  0.00     0.261 C 
BRANCH   2   3
ATOM      3  O   UNL A   1      33.734  28.425  25.830  1.00  0.00    -0.460 OA
BRANCH   3   4
ATOM      4  C   UNL A   1      33.185  28.211  24.607  1.00  0.00     0.340 C 
ATOM      5  O   UNL A   1      33.157  29.011  23.682  1.00  0.00    -0.246 OA
BRANCH   4   6
ATOM      6  C   UNL A   1      32.582  26.865  24.490  1.00  0.00     0.086 A 
ATOM      7  C   UNL A   1      31.223  26.639  24.227  1.00  0.00     0.063 A 
ATOM      8  C   UNL A   1      30.808  25.348  23.906  1.00  0.00     0.030 A 
ATOM      9  C   UNL A   1      31.739  24.290  23.900  1.00  0.00     0.028 A 
ATOM     10  C   UNL A   1      33.488  25.795  24.502  1.00  0.00     0.043 A 
ATOM     11  C   UNL A   1      33.089  24.488  24.227  1.00  0.00     0.038 A 
BRANCH   7  12
ATOM     12  N   UNL A   1      30.277  27.697  24.347  1.00  0.00    -0.283 N 
ATOM     13  H   UNL A   1      30.083  28.026  25.255  1.00  0.00     0.180 HD
BRANCH  12  14
ATOM     14  S   UNL A   1      29.473  28.422  23.092  1.00  0.00     0.232 S 
ATOM     15  O   UNL A   1      28.154  27.821  23.130  1.00  0.00    -0.207 OA
ATOM     16  O   UNL A   1      30.299  28.280  21.910  1.00  0.00    -0.207 OA
BRANCH  14  17
ATOM     17  C   UNL A   1      29.269  30.178  23.384  1.00  0.00     0.156 C 
ATOM     18  C   UNL A   1      27.863  30.723  23.414  1.00  0.00     0.023 C 
ENDBRANCH  14  17
ENDBRANCH  12  14
ENDBRANCH   7  12
BRANCH  11  19
ATOM     19  N   UNL A   1      34.007  23.464  24.262  1.00  0.00    -0.360 N 
ATOM     20  C   UNL A   1      34.068  22.497  25.371  1.00  0.00     0.178 C 
ATOM     21  C   UNL A   1      35.029  23.283  23.224  1.00  0.00     0.178 C 
ATOM     22  C   UNL A   1      35.494  22.425  25.962  1.00  0.00     0.283 C 
ATOM     23  C   UNL A   1      36.435  23.190  23.875  1.00  0.00     0.283 C 
ATOM     24  N   UNL A   1      36.522  22.156  24.932  1.00  0.00    -0.334 N 
ATOM     25  C   UNL A   1      37.856  22.136  25.533  1.00  0.00     0.332 C 
ATOM     26  H   UNL A   1      36.355  21.240  24.517  1.00  0.00     0.347 HD
ENDBRANCH  11  19
ENDBRANCH   4   6
ENDBRANCH   3   4
ENDBRANCH   2   3
ENDBRANCH   1   2
BRANCH   1  27
ATOM     27  O   UNL A   1      32.752  31.108  26.577  1.00  0.00    -0.374 OA
BRANCH  27  28
ATOM     28  C   UNL A   1      33.151  31.971  27.637  1.00  0.00     0.202 C 
BRANCH  28  29
ATOM     29  C   UNL A   1      34.604  31.928  28.127  1.00  0.00     0.261 C 
BRANCH  29  30
ATOM     30  O   UNL A   1      35.011  30.650  28.649  1.00  0.00    -0.460 OA
BRANCH  30  31
ATOM     31  C   UNL A   1      36.015  30.719  29.556  1.00  0.00     0.338 C 
ATOM     32  O   UNL A   1      36.052  31.399  30.573  1.00  0.00    -0.246 OA
BRANCH  31  33
ATOM     33  C   UNL A   1      37.075  29.752  29.245  1.00  0.00     0.060 A 
ATOM     34  C   UNL A   1      37.688  29.076  30.310  1.00  0.00     0.016 A 
ATOM     35  C   UNL A   1      37.596  29.675  27.953  1.00  0.00     0.016 A 
ATOM     36  C   UNL A   1      38.873  28.375  30.098  1.00  0.00     0.010 A 
ATOM     37  C   UNL A   1      38.790  28.984  27.745  1.00  0.00     0.010 A 
ATOM     38  C   UNL A   1      39.460  28.379  28.826  1.00  0.00    -0.014 A 
BRANCH  38  39
ATOM     39  C   UNL A   1      40.866  27.952  28.660  1.00  0.00     0.031 A 
ATOM     40  C   UNL A   1      41.954  28.980  28.817  1.00  0.00     0.074 A 
ATOM     41  C   UNL A   1      41.176  26.677  28.374  1.00  0.00     0.049 A 
ATOM     42  N   UNL A   1      43.241  28.866  28.613  1.00  0.00    -0.248 NA
ATOM     43  C   UNL A   1      41.528  30.318  29.261  1.00  0.00     0.031 C 
ATOM     44  C   UNL A   1      40.222  25.576  28.264  1.00  0.00     0.029 A 
ATOM     45  N   UNL A   1      42.394  26.103  28.111  1.00  0.00    -0.354 N 
ATOM     46  C   UNL A   1      43.775  30.121  28.882  1.00  0.00     0.074 A 
ATOM     47  C   UNL A   1      42.674  30.982  29.252  1.00  0.00     0.031 C 
ATOM     48  C   UNL A   1      40.892  24.455  27.945  1.00  0.00     0.029 A 
ATOM     49  C   UNL A   1      42.310  24.772  27.788  1.00  0.00     0.049 A 
ATOM     50  H   UNL A   1      43.245  26.597  28.150  1.00  0.00     0.167 HD
ATOM     51  C   UNL A   1      45.067  30.522  28.821  1.00  0.00     0.031 A 
ATOM     52  C   UNL A   1      43.268  23.918  27.382  1.00  0.00     0.031 A 
ATOM     53  C   UNL A   1      46.160  29.671  28.440  1.00  0.00     0.049 A 
ATOM     54  C   UNL A   1      44.683  24.407  27.231  1.00  0.00     0.074 A 
ATOM     55  C   UNL A   1      47.506  29.979  28.347  1.00  0.00     0.029 A 
ATOM     56  N   UNL A   1      46.026  28.339  28.077  1.00  0.00    -0.354 N 
ATOM     57  N   UNL A   1      45.179  25.595  27.480  1.00  0.00    -0.248 NA
ATOM     58  C   UNL A   1      45.670  23.435  26.736  1.00  0.00     0.031 C 
ATOM     59  C   UNL A   1      48.181  28.844  27.885  1.00  0.00     0.029 A 
ATOM     60  C   UNL A   1      47.262  27.817  27.738  1.00  0.00     0.049 A 
ATOM     61  H   UNL A   1      45.178  27.839  28.063  1.00  0.00     0.167 HD
ATOM     62  C   UNL A   1      46.538  25.506  27.205  1.00  0.00     0.074 A 
ATOM     63  C   UNL A   1      46.789  24.147  26.767  1.00  0.00     0.031 C 
ATOM     64  C   UNL A   1      47.493  26.461  27.313  1.00  0.00     0.031 A 
BRANCH  51  65
ATOM     65  C   UNL A   1      45.349  31.964  29.130  1.00  0.00    -0.014 A 
ATOM     66  C   UNL A   1      45.316  32.947  28.129  1.00  0.00     0.009 A 
ATOM     67  C   UNL A   1      45.658  32.344  30.445  1.00  0.00     0.009 A 
ATOM     68  C   UNL A   1      45.627  34.274  28.432  1.00  0.00     0.001 A 
ATOM     69  C   UNL A   1      45.944  33.675  30.750  1.00  0.00     0.001 A 
ATOM     70  C   UNL A   1      45.940  34.638  29.742  1.00  0.00     0.000 A 
ENDBRANCH  51  65
BRANCH  52  71
ATOM     71  C   UNL A   1      42.915  22.510  27.074  1.00  0.00    -0.014 A 
ATOM     72  C   UNL A   1      42.252  21.720  28.025  1.00  0.00     0.009 A 
ATOM     73  C   UNL A   1      43.227  21.953  25.824  1.00  0.00     0.009 A 
ATOM     74  C   UNL A   1      41.920  20.395  27.734  1.00  0.00     0.001 A 
ATOM     75  C   UNL A   1      42.873  20.635  25.528  1.00  0.00     0.001 A 
ATOM     76  C   UNL A   1      42.224  19.856  26.485  1.00  0.00     0.000 A 
ENDBRANCH  52  71
BRANCH  64  77
ATOM     77  C   UNL A   1      48.907  26.063  27.001  1.00  0.00    -0.014 A 
ATOM     78  C   UNL A   1      49.461  26.270  25.730  1.00  0.00     0.009 A 
ATOM     79  C   UNL A   1      49.714  25.529  28.019  1.00  0.00     0.009 A 
ATOM     80  C   UNL A   1      50.792  25.932  25.479  1.00  0.00     0.001 A 
ATOM     81  C   UNL A   1      51.050  25.213  27.772  1.00  0.00     0.001 A 
ATOM     82  C   UNL A   1      51.586  25.409  26.500  1.00  0.00     0.000 A 
ENDBRANCH  64  77
ENDBRANCH  38  39
ENDBRANCH  31  33
ENDBRANCH  30  31
ENDBRANCH  29  30
ENDBRANCH  28  29
ENDBRANCH  27  28
ENDBRANCH   1  27
TORSDOF 18
ENDMDL
