MODEL 1
REMARK VINA RESULT:     -11.8      0.000      0.000
REMARK SMILES Cc1nn([C@H]2CCS(=O)(=O)C2)c(C)c1/C=C(\CC(=O)OCCOCCOC(=O)c1ccc(-c2c3nc(c(-c4ccccc4)c4ccc([nH]4)c(-c4ccccc4)c4nc(c(-c5ccccc5)c5ccc2[nH]5)C=C4)C=C3)cc1)c1nc2ccccc2s1
REMARK SMILES IDX 22 1 21 2 20 3 18 4 19 5 17 6 16 7 15 8 14 9 1 10 2 11 3 12
REMARK SMILES IDX 4 13 12 14 13 15 5 16 6 17 11 18 7 19 8 20 9 21 10 22 77 23
REMARK SMILES IDX 78 24 85 25 79 26 84 27 80 28 83 29 81 30 82 31 23 32 24 33
REMARK SMILES IDX 25 34 26 35 27 36 28 37 29 38 30 39 76 40 31 41 75 42 32 43
REMARK SMILES IDX 33 44 34 45 69 46 35 47 74 48 68 49 70 50 36 51 73 52 67 53
REMARK SMILES IDX 66 54 37 56 59 57 44 58 58 59 45 60 48 61 57 62 71 63 46 64
REMARK SMILES IDX 47 65 56 67 72 68 49 69 38 70 39 71 43 72 40 73 42 74 41 75
REMARK SMILES IDX 60 76 61 77 65 78 62 79 64 80 63 81 50 82 51 83 55 84 52 85
REMARK SMILES IDX 54 86 53 87
REMARK H PARENT 70 55 48 66
REMARK Flexibility Score: inf
ROOT
ATOM      1  C   UNL A   1      33.190  28.313  26.685  1.00  0.00     0.202 C 
ENDROOT
BRANCH   1   2
ATOM      2  C   UNL A   1      31.955  27.718  27.381  1.00  0.00     0.261 C 
BRANCH   2   3
ATOM      3  O   UNL A   1      31.178  26.818  26.547  1.00  0.00    -0.463 OA
BRANCH   3   4
ATOM      4  C   UNL A   1      31.678  25.568  26.460  1.00  0.00     0.310 C 
ATOM      5  O   UNL A   1      31.269  24.629  27.148  1.00  0.00    -0.252 OA
BRANCH   4   6
ATOM      6  C   UNL A   1      32.624  25.257  25.306  1.00  0.00     0.161 C 
BRANCH   6   7
ATOM      7  C   UNL A   1      32.435  24.679  23.914  1.00  0.00    -0.000 C 
ATOM      8  C   UNL A   1      32.061  25.431  22.843  1.00  0.00     0.019 C 
BRANCH   8   9
ATOM      9  C   UNL A   1      31.593  26.793  22.862  1.00  0.00     0.019 A 
ATOM     10  C   UNL A   1      33.849  28.147  22.889  1.00  0.00     0.069 C 
ATOM     11  C   UNL A   1      32.377  27.976  22.769  1.00  0.00     0.067 A 
ATOM     12  N   UNL A   1      31.601  29.054  22.587  1.00  0.00    -0.177 NA
ATOM     13  N   UNL A   1      30.345  28.564  22.614  1.00  0.00    -0.265 N 
ATOM     14  C   UNL A   1      30.318  27.284  23.123  1.00  0.00     0.043 A 
ATOM     15  C   UNL A   1      29.119  26.698  23.791  1.00  0.00     0.067 C 
BRANCH  13  16
ATOM     16  C   UNL A   1      29.239  29.418  22.192  1.00  0.00     0.123 C 
ATOM     17  C   UNL A   1      28.400  29.950  23.378  1.00  0.00     0.044 C 
ATOM     18  C   UNL A   1      29.662  30.690  21.456  1.00  0.00     0.164 C 
ATOM     19  C   UNL A   1      27.409  30.966  22.819  1.00  0.00     0.139 C 
ATOM     20  S   UNL A   1      28.213  31.703  21.415  1.00  0.00     0.152 S 
ATOM     21  O   UNL A   1      27.462  31.348  20.222  1.00  0.00    -0.229 OA
ATOM     22  O   UNL A   1      28.574  33.064  21.725  1.00  0.00    -0.229 OA
ENDBRANCH  13  16
ENDBRANCH   8   9
BRANCH   7  23
ATOM     23  C   UNL A   1      32.965  23.359  23.646  1.00  0.00     0.121 A 
ATOM     24  N   UNL A   1      32.356  22.405  22.980  1.00  0.00    -0.236 NA
ATOM     25  S   UNL A   1      34.390  22.797  24.465  1.00  0.00    -0.114 S 
ATOM     26  C   UNL A   1      32.762  21.154  23.416  1.00  0.00     0.082 A 
ATOM     27  C   UNL A   1      33.862  21.163  24.267  1.00  0.00     0.055 A 
ATOM     28  C   UNL A   1      32.102  19.931  23.167  1.00  0.00     0.030 A 
ATOM     29  C   UNL A   1      34.340  19.982  24.860  1.00  0.00     0.021 A 
ATOM     30  C   UNL A   1      32.492  18.776  23.844  1.00  0.00     0.002 A 
ATOM     31  C   UNL A   1      33.605  18.803  24.674  1.00  0.00     0.002 A 
ENDBRANCH   7  23
ENDBRANCH   6   7
ENDBRANCH   4   6
ENDBRANCH   3   4
ENDBRANCH   2   3
ENDBRANCH   1   2
BRANCH   1  32
ATOM     32  O   UNL A   1      33.069  29.505  25.916  1.00  0.00    -0.374 OA
BRANCH  32  33
ATOM     33  C   UNL A   1      31.845  30.215  25.874  1.00  0.00     0.202 C 
BRANCH  33  34
ATOM     34  C   UNL A   1      31.699  31.519  26.656  1.00  0.00     0.261 C 
BRANCH  34  35
ATOM     35  O   UNL A   1      32.739  31.790  27.594  1.00  0.00    -0.460 OA
BRANCH  35  36
ATOM     36  C   UNL A   1      32.844  33.087  27.963  1.00  0.00     0.338 C 
ATOM     37  O   UNL A   1      32.093  33.990  27.630  1.00  0.00    -0.246 OA
BRANCH  36  38
ATOM     38  C   UNL A   1      34.122  33.342  28.661  1.00  0.00     0.060 A 
ATOM     39  C   UNL A   1      35.151  33.834  27.861  1.00  0.00     0.016 A 
ATOM     40  C   UNL A   1      34.400  32.736  29.886  1.00  0.00     0.016 A 
ATOM     41  C   UNL A   1      36.446  33.448  28.141  1.00  0.00     0.010 A 
ATOM     42  C   UNL A   1      35.681  32.274  30.126  1.00  0.00     0.010 A 
ATOM     43  C   UNL A   1      36.681  32.567  29.203  1.00  0.00    -0.014 A 
BRANCH  43  44
ATOM     44  C   UNL A   1      38.049  32.146  29.443  1.00  0.00     0.031 A 
ATOM     45  C   UNL A   1      38.210  30.698  29.192  1.00  0.00     0.074 A 
ATOM     46  C   UNL A   1      39.065  32.958  29.790  1.00  0.00     0.049 A 
ATOM     47  N   UNL A   1      38.316  29.764  30.076  1.00  0.00    -0.248 NA
ATOM     48  C   UNL A   1      38.011  30.215  27.816  1.00  0.00     0.031 C 
ATOM     49  C   UNL A   1      39.094  34.422  29.814  1.00  0.00     0.029 A 
ATOM     50  N   UNL A   1      40.346  32.624  30.120  1.00  0.00    -0.354 N 
ATOM     51  C   UNL A   1      38.404  28.583  29.350  1.00  0.00     0.074 A 
ATOM     52  C   UNL A   1      37.988  28.897  28.009  1.00  0.00     0.031 C 
ATOM     53  C   UNL A   1      40.379  34.841  29.914  1.00  0.00     0.029 A 
ATOM     54  C   UNL A   1      41.242  33.686  30.100  1.00  0.00     0.049 A 
ATOM     55  H   UNL A   1      40.613  31.705  30.352  1.00  0.00     0.167 HD
ATOM     56  C   UNL A   1      39.110  27.524  29.825  1.00  0.00     0.031 A 
ATOM     57  C   UNL A   1      42.596  33.607  30.181  1.00  0.00     0.031 A 
ATOM     58  C   UNL A   1      39.380  27.658  31.234  1.00  0.00     0.049 A 
ATOM     59  C   UNL A   1      42.933  32.290  30.764  1.00  0.00     0.074 A 
ATOM     60  C   UNL A   1      38.621  27.708  32.384  1.00  0.00     0.029 A 
ATOM     61  N   UNL A   1      40.614  28.168  31.556  1.00  0.00    -0.354 N 
ATOM     62  N   UNL A   1      42.677  31.969  31.997  1.00  0.00    -0.248 NA
ATOM     63  C   UNL A   1      43.166  31.171  29.865  1.00  0.00     0.031 C 
ATOM     64  C   UNL A   1      39.307  28.615  33.246  1.00  0.00     0.029 A 
ATOM     65  C   UNL A   1      40.480  29.029  32.611  1.00  0.00     0.049 A 
ATOM     66  H   UNL A   1      41.459  27.949  31.101  1.00  0.00     0.167 HD
ATOM     67  C   UNL A   1      42.261  30.648  31.936  1.00  0.00     0.074 A 
ATOM     68  C   UNL A   1      42.710  30.174  30.629  1.00  0.00     0.031 C 
ATOM     69  C   UNL A   1      41.345  30.168  32.828  1.00  0.00     0.031 A 
BRANCH  56  70
ATOM     70  C   UNL A   1      39.976  26.665  28.931  1.00  0.00    -0.014 A 
ATOM     71  C   UNL A   1      41.088  27.258  28.310  1.00  0.00     0.009 A 
ATOM     72  C   UNL A   1      39.579  25.404  28.442  1.00  0.00     0.009 A 
ATOM     73  C   UNL A   1      41.713  26.657  27.210  1.00  0.00     0.001 A 
ATOM     74  C   UNL A   1      40.225  24.782  27.372  1.00  0.00     0.001 A 
ATOM     75  C   UNL A   1      41.274  25.424  26.736  1.00  0.00     0.000 A 
ENDBRANCH  56  70
BRANCH  57  76
ATOM     76  C   UNL A   1      43.626  34.457  29.545  1.00  0.00    -0.014 A 
ATOM     77  C   UNL A   1      44.537  35.204  30.313  1.00  0.00     0.009 A 
ATOM     78  C   UNL A   1      43.901  34.306  28.174  1.00  0.00     0.009 A 
ATOM     79  C   UNL A   1      45.693  35.751  29.733  1.00  0.00     0.001 A 
ATOM     80  C   UNL A   1      45.055  34.850  27.597  1.00  0.00     0.001 A 
ATOM     81  C   UNL A   1      45.957  35.562  28.379  1.00  0.00     0.000 A 
ENDBRANCH  57  76
BRANCH  69  82
ATOM     82  C   UNL A   1      41.053  31.015  34.044  1.00  0.00    -0.014 A 
ATOM     83  C   UNL A   1      41.693  30.843  35.284  1.00  0.00     0.009 A 
ATOM     84  C   UNL A   1      40.183  32.104  33.889  1.00  0.00     0.009 A 
ATOM     85  C   UNL A   1      41.442  31.721  36.345  1.00  0.00     0.001 A 
ATOM     86  C   UNL A   1      39.950  32.992  34.940  1.00  0.00     0.001 A 
ATOM     87  C   UNL A   1      40.574  32.797  36.170  1.00  0.00     0.000 A 
ENDBRANCH  69  82
ENDBRANCH  43  44
ENDBRANCH  36  38
ENDBRANCH  35  36
ENDBRANCH  34  35
ENDBRANCH  33  34
ENDBRANCH  32  33
ENDBRANCH   1  32
TORSDOF 18
ENDMDL
MODEL 2
REMARK VINA RESULT:     -11.6      3.132      8.326
REMARK SMILES Cc1nn([C@H]2CCS(=O)(=O)C2)c(C)c1/C=C(\CC(=O)OCCOCCOC(=O)c1ccc(-c2c3nc(c(-c4ccccc4)c4ccc([nH]4)c(-c4ccccc4)c4nc(c(-c5ccccc5)c5ccc2[nH]5)C=C4)C=C3)cc1)c1nc2ccccc2s1
REMARK SMILES IDX 22 1 21 2 20 3 18 4 19 5 17 6 16 7 15 8 14 9 1 10 2 11 3 12
REMARK SMILES IDX 4 13 12 14 13 15 5 16 6 17 11 18 7 19 8 20 9 21 10 22 77 23
REMARK SMILES IDX 78 24 85 25 79 26 84 27 80 28 83 29 81 30 82 31 23 32 24 33
REMARK SMILES IDX 25 34 26 35 27 36 28 37 29 38 30 39 76 40 31 41 75 42 32 43
REMARK SMILES IDX 33 44 34 45 69 46 35 47 74 48 68 49 70 50 36 51 73 52 67 53
REMARK SMILES IDX 66 54 37 56 59 57 44 58 58 59 45 60 48 61 57 62 71 63 46 64
REMARK SMILES IDX 47 65 56 67 72 68 49 69 38 70 39 71 43 72 40 73 42 74 41 75
REMARK SMILES IDX 60 76 61 77 65 78 62 79 64 80 63 81 50 82 51 83 55 84 52 85
REMARK SMILES IDX 54 86 53 87
REMARK H PARENT 70 55 48 66
REMARK Flexibility Score: inf
ROOT
ATOM      1  C   UNL A   1      33.998  29.420  26.991  1.00  0.00     0.202 C 
ENDROOT
BRANCH   1   2
ATOM      2  C   UNL A   1      33.988  28.469  25.783  1.00  0.00     0.261 C 
BRANCH   2   3
ATOM      3  O   UNL A   1      33.010  28.810  24.765  1.00  0.00    -0.463 OA
BRANCH   3   4
ATOM      4  C   UNL A   1      33.376  28.480  23.509  1.00  0.00     0.310 C 
ATOM      5  O   UNL A   1      34.405  28.898  22.975  1.00  0.00    -0.252 OA
BRANCH   4   6
ATOM      6  C   UNL A   1      32.603  27.366  22.811  1.00  0.00     0.161 C 
BRANCH   6   7
ATOM      7  C   UNL A   1      31.166  26.877  22.881  1.00  0.00    -0.000 C 
ATOM      8  C   UNL A   1      30.804  25.729  23.515  1.00  0.00     0.019 C 
BRANCH   8   9
ATOM      9  C   UNL A   1      31.681  24.708  24.027  1.00  0.00     0.019 A 
ATOM     10  C   UNL A   1      31.970  25.443  26.537  1.00  0.00     0.069 C 
ATOM     11  C   UNL A   1      32.098  24.525  25.375  1.00  0.00     0.067 A 
ATOM     12  N   UNL A   1      32.722  23.349  25.530  1.00  0.00    -0.177 NA
ATOM     13  N   UNL A   1      32.742  22.820  24.289  1.00  0.00    -0.265 N 
ATOM     14  C   UNL A   1      32.441  23.770  23.337  1.00  0.00     0.043 A 
ATOM     15  C   UNL A   1      32.908  23.681  21.922  1.00  0.00     0.067 C 
BRANCH  13  16
ATOM     16  C   UNL A   1      33.120  21.422  24.117  1.00  0.00     0.123 C 
ATOM     17  C   UNL A   1      34.412  21.046  24.883  1.00  0.00     0.044 C 
ATOM     18  C   UNL A   1      32.093  20.416  24.638  1.00  0.00     0.164 C 
ATOM     19  C   UNL A   1      34.586  19.535  24.775  1.00  0.00     0.139 C 
ATOM     20  S   UNL A   1      32.943  18.865  24.675  1.00  0.00     0.152 S 
ATOM     21  O   UNL A   1      32.782  18.245  23.370  1.00  0.00    -0.229 OA
ATOM     22  O   UNL A   1      32.626  18.177  25.902  1.00  0.00    -0.229 OA
ENDBRANCH  13  16
ENDBRANCH   8   9
BRANCH   7  23
ATOM     23  C   UNL A   1      30.112  27.806  22.536  1.00  0.00     0.121 A 
ATOM     24  N   UNL A   1      30.227  28.837  21.730  1.00  0.00    -0.236 NA
ATOM     25  S   UNL A   1      28.616  27.813  23.419  1.00  0.00    -0.114 S 
ATOM     26  C   UNL A   1      29.342  29.844  22.078  1.00  0.00     0.082 A 
ATOM     27  C   UNL A   1      28.385  29.479  23.020  1.00  0.00     0.055 A 
ATOM     28  C   UNL A   1      29.404  31.191  21.656  1.00  0.00     0.030 A 
ATOM     29  C   UNL A   1      27.472  30.413  23.537  1.00  0.00     0.021 A 
ATOM     30  C   UNL A   1      28.583  32.149  22.252  1.00  0.00     0.002 A 
ATOM     31  C   UNL A   1      27.623  31.759  23.175  1.00  0.00     0.002 A 
ENDBRANCH   7  23
ENDBRANCH   6   7
ENDBRANCH   4   6
ENDBRANCH   3   4
ENDBRANCH   2   3
ENDBRANCH   1   2
BRANCH   1  32
ATOM     32  O   UNL A   1      33.464  30.734  26.867  1.00  0.00    -0.374 OA
BRANCH  32  33
ATOM     33  C   UNL A   1      33.615  31.676  27.914  1.00  0.00     0.202 C 
BRANCH  33  34
ATOM     34  C   UNL A   1      34.842  32.586  27.943  1.00  0.00     0.261 C 
BRANCH  34  35
ATOM     35  O   UNL A   1      36.102  31.916  27.937  1.00  0.00    -0.460 OA
BRANCH  35  36
ATOM     36  C   UNL A   1      37.048  32.483  28.718  1.00  0.00     0.338 C 
ATOM     37  O   UNL A   1      37.456  33.632  28.631  1.00  0.00    -0.246 OA
BRANCH  36  38
ATOM     38  C   UNL A   1      37.708  31.476  29.576  1.00  0.00     0.060 A 
ATOM     39  C   UNL A   1      39.006  31.789  29.974  1.00  0.00     0.016 A 
ATOM     40  C   UNL A   1      37.250  30.159  29.613  1.00  0.00     0.016 A 
ATOM     41  C   UNL A   1      39.919  30.764  30.110  1.00  0.00     0.010 A 
ATOM     42  C   UNL A   1      38.175  29.133  29.662  1.00  0.00     0.010 A 
ATOM     43  C   UNL A   1      39.519  29.452  29.830  1.00  0.00    -0.014 A 
BRANCH  43  44
ATOM     44  C   UNL A   1      40.516  28.403  29.939  1.00  0.00     0.031 A 
ATOM     45  C   UNL A   1      41.048  28.316  31.316  1.00  0.00     0.074 A 
ATOM     46  C   UNL A   1      40.880  27.569  28.947  1.00  0.00     0.049 A 
ATOM     47  N   UNL A   1      42.195  28.733  31.732  1.00  0.00    -0.248 NA
ATOM     48  C   UNL A   1      40.117  27.923  32.386  1.00  0.00     0.031 C 
ATOM     49  C   UNL A   1      40.253  27.383  27.637  1.00  0.00     0.029 A 
ATOM     50  N   UNL A   1      41.866  26.626  28.948  1.00  0.00    -0.354 N 
ATOM     51  C   UNL A   1      42.208  28.464  33.094  1.00  0.00     0.074 A 
ATOM     52  C   UNL A   1      40.847  28.185  33.469  1.00  0.00     0.031 C 
ATOM     53  C   UNL A   1      40.726  26.244  27.073  1.00  0.00     0.029 A 
ATOM     54  C   UNL A   1      41.781  25.702  27.913  1.00  0.00     0.049 A 
ATOM     55  H   UNL A   1      42.579  26.604  29.626  1.00  0.00     0.167 HD
ATOM     56  C   UNL A   1      43.372  28.180  33.737  1.00  0.00     0.031 A 
ATOM     57  C   UNL A   1      42.495  24.553  27.792  1.00  0.00     0.031 A 
ATOM     58  C   UNL A   1      44.517  28.567  32.953  1.00  0.00     0.049 A 
ATOM     59  C   UNL A   1      43.689  24.673  28.657  1.00  0.00     0.074 A 
ATOM     60  C   UNL A   1      45.033  29.754  32.478  1.00  0.00     0.029 A 
ATOM     61  N   UNL A   1      45.096  27.564  32.215  1.00  0.00    -0.354 N 
ATOM     62  N   UNL A   1      44.665  25.498  28.414  1.00  0.00    -0.248 NA
ATOM     63  C   UNL A   1      43.607  24.190  30.026  1.00  0.00     0.031 C 
ATOM     64  C   UNL A   1      45.599  29.434  31.208  1.00  0.00     0.029 A 
ATOM     65  C   UNL A   1      45.458  28.061  30.993  1.00  0.00     0.049 A 
ATOM     66  H   UNL A   1      45.229  26.637  32.517  1.00  0.00     0.167 HD
ATOM     67  C   UNL A   1      45.022  25.992  29.660  1.00  0.00     0.074 A 
ATOM     68  C   UNL A   1      44.435  25.057  30.617  1.00  0.00     0.031 C 
ATOM     69  C   UNL A   1      45.507  27.263  29.787  1.00  0.00     0.031 A 
BRANCH  56  70
ATOM     70  C   UNL A   1      43.465  27.110  34.802  1.00  0.00    -0.014 A 
ATOM     71  C   UNL A   1      43.320  25.768  34.412  1.00  0.00     0.009 A 
ATOM     72  C   UNL A   1      43.386  27.377  36.183  1.00  0.00     0.009 A 
ATOM     73  C   UNL A   1      43.032  24.767  35.348  1.00  0.00     0.001 A 
ATOM     74  C   UNL A   1      43.139  26.376  37.124  1.00  0.00     0.001 A 
ATOM     75  C   UNL A   1      42.932  25.073  36.701  1.00  0.00     0.000 A 
ENDBRANCH  56  70
BRANCH  57  76
ATOM     76  C   UNL A   1      42.093  23.254  27.208  1.00  0.00    -0.014 A 
ATOM     77  C   UNL A   1      42.928  22.562  26.313  1.00  0.00     0.009 A 
ATOM     78  C   UNL A   1      41.006  22.552  27.759  1.00  0.00     0.009 A 
ATOM     79  C   UNL A   1      42.699  21.211  26.007  1.00  0.00     0.001 A 
ATOM     80  C   UNL A   1      40.780  21.204  27.457  1.00  0.00     0.001 A 
ATOM     81  C   UNL A   1      41.633  20.530  26.590  1.00  0.00     0.000 A 
ENDBRANCH  57  76
BRANCH  69  82
ATOM     82  C   UNL A   1      45.927  27.974  28.523  1.00  0.00    -0.014 A 
ATOM     83  C   UNL A   1      47.216  27.879  27.969  1.00  0.00     0.009 A 
ATOM     84  C   UNL A   1      44.943  28.669  27.806  1.00  0.00     0.009 A 
ATOM     85  C   UNL A   1      47.514  28.491  26.745  1.00  0.00     0.001 A 
ATOM     86  C   UNL A   1      45.234  29.259  26.575  1.00  0.00     0.001 A 
ATOM     87  C   UNL A   1      46.521  29.177  26.048  1.00  0.00     0.000 A 
ENDBRANCH  69  82
ENDBRANCH  43  44
ENDBRANCH  36  38
ENDBRANCH  35  36
ENDBRANCH  34  35
ENDBRANCH  33  34
ENDBRANCH  32  33
ENDBRANCH   1  32
TORSDOF 18
ENDMDL
MODEL 3
REMARK VINA RESULT:     -11.6      1.955      5.559
REMARK SMILES Cc1nn([C@H]2CCS(=O)(=O)C2)c(C)c1/C=C(\CC(=O)OCCOCCOC(=O)c1ccc(-c2c3nc(c(-c4ccccc4)c4ccc([nH]4)c(-c4ccccc4)c4nc(c(-c5ccccc5)c5ccc2[nH]5)C=C4)C=C3)cc1)c1nc2ccccc2s1
REMARK SMILES IDX 22 1 21 2 20 3 18 4 19 5 17 6 16 7 15 8 14 9 1 10 2 11 3 12
REMARK SMILES IDX 4 13 12 14 13 15 5 16 6 17 11 18 7 19 8 20 9 21 10 22 77 23
REMARK SMILES IDX 78 24 85 25 79 26 84 27 80 28 83 29 81 30 82 31 23 32 24 33
REMARK SMILES IDX 25 34 26 35 27 36 28 37 29 38 30 39 76 40 31 41 75 42 32 43
REMARK SMILES IDX 33 44 34 45 69 46 35 47 74 48 68 49 70 50 36 51 73 52 67 53
REMARK SMILES IDX 66 54 37 56 59 57 44 58 58 59 45 60 48 61 57 62 71 63 46 64
REMARK SMILES IDX 47 65 56 67 72 68 49 69 38 70 39 71 43 72 40 73 42 74 41 75
REMARK SMILES IDX 60 76 61 77 65 78 62 79 64 80 63 81 50 82 51 83 55 84 52 85
REMARK SMILES IDX 54 86 53 87
REMARK H PARENT 70 55 48 66
REMARK Flexibility Score: inf
ROOT
ATOM      1  C   UNL A   1      31.837  30.087  25.480  1.00  0.00     0.202 C 
ENDROOT
BRANCH   1   2
ATOM      2  C   UNL A   1      31.313  28.655  25.674  1.00  0.00     0.261 C 
BRANCH   2   3
ATOM      3  O   UNL A   1      32.228  27.777  26.382  1.00  0.00    -0.463 OA
BRANCH   3   4
ATOM      4  C   UNL A   1      32.075  26.467  26.097  1.00  0.00     0.310 C 
ATOM      5  O   UNL A   1      31.758  25.626  26.941  1.00  0.00    -0.252 OA
BRANCH   4   6
ATOM      6  C   UNL A   1      32.071  26.053  24.630  1.00  0.00     0.161 C 
BRANCH   6   7
ATOM      7  C   UNL A   1      30.992  25.572  23.674  1.00  0.00    -0.000 C 
ATOM      8  C   UNL A   1      30.637  24.264  23.553  1.00  0.00     0.019 C 
BRANCH   8   9
ATOM      9  C   UNL A   1      31.318  23.126  24.115  1.00  0.00     0.019 A 
ATOM     10  C   UNL A   1      30.124  22.870  26.445  1.00  0.00     0.069 C 
ATOM     11  C   UNL A   1      31.014  22.453  25.330  1.00  0.00     0.067 A 
ATOM     12  N   UNL A   1      31.699  21.304  25.427  1.00  0.00    -0.177 NA
ATOM     13  N   UNL A   1      32.458  21.278  24.314  1.00  0.00    -0.265 N 
ATOM     14  C   UNL A   1      32.498  22.514  23.707  1.00  0.00     0.043 A 
ATOM     15  C   UNL A   1      33.629  22.961  22.842  1.00  0.00     0.067 C 
BRANCH  13  16
ATOM     16  C   UNL A   1      33.150  20.045  23.953  1.00  0.00     0.123 C 
ATOM     17  C   UNL A   1      34.357  19.738  24.872  1.00  0.00     0.044 C 
ATOM     18  C   UNL A   1      32.295  18.781  24.056  1.00  0.00     0.164 C 
ATOM     19  C   UNL A   1      34.867  18.347  24.511  1.00  0.00     0.139 C 
ATOM     20  S   UNL A   1      33.442  17.439  23.961  1.00  0.00     0.152 S 
ATOM     21  O   UNL A   1      33.623  17.115  22.555  1.00  0.00    -0.229 OA
ATOM     22  O   UNL A   1      33.094  16.443  24.944  1.00  0.00    -0.229 OA
ENDBRANCH  13  16
ENDBRANCH   8   9
BRANCH   7  23
ATOM     23  C   UNL A   1      30.101  26.559  23.101  1.00  0.00     0.121 A 
ATOM     24  N   UNL A   1      30.448  27.534  22.293  1.00  0.00    -0.236 NA
ATOM     25  S   UNL A   1      28.473  26.723  23.685  1.00  0.00    -0.114 S 
ATOM     26  C   UNL A   1      29.600  28.621  22.430  1.00  0.00     0.082 A 
ATOM     27  C   UNL A   1      28.459  28.378  23.187  1.00  0.00     0.055 A 
ATOM     28  C   UNL A   1      29.851  29.935  21.976  1.00  0.00     0.030 A 
ATOM     29  C   UNL A   1      27.546  29.403  23.487  1.00  0.00     0.021 A 
ATOM     30  C   UNL A   1      29.017  30.981  22.370  1.00  0.00     0.002 A 
ATOM     31  C   UNL A   1      27.873  30.714  23.110  1.00  0.00     0.002 A 
ENDBRANCH   7  23
ENDBRANCH   6   7
ENDBRANCH   4   6
ENDBRANCH   3   4
ENDBRANCH   2   3
ENDBRANCH   1   2
BRANCH   1  32
ATOM     32  O   UNL A   1      32.140  30.894  26.613  1.00  0.00    -0.374 OA
BRANCH  32  33
ATOM     33  C   UNL A   1      33.376  30.753  27.289  1.00  0.00     0.202 C 
BRANCH  33  34
ATOM     34  C   UNL A   1      33.946  31.930  28.078  1.00  0.00     0.261 C 
BRANCH  34  35
ATOM     35  O   UNL A   1      33.275  33.176  27.891  1.00  0.00    -0.460 OA
BRANCH  35  36
ATOM     36  C   UNL A   1      33.346  34.021  28.944  1.00  0.00     0.338 C 
ATOM     37  O   UNL A   1      32.470  34.791  29.306  1.00  0.00    -0.246 OA
BRANCH  36  38
ATOM     38  C   UNL A   1      34.715  34.067  29.500  1.00  0.00     0.060 A 
ATOM     39  C   UNL A   1      35.711  34.448  28.604  1.00  0.00     0.016 A 
ATOM     40  C   UNL A   1      35.035  33.374  30.668  1.00  0.00     0.016 A 
ATOM     41  C   UNL A   1      36.961  33.876  28.724  1.00  0.00     0.010 A 
ATOM     42  C   UNL A   1      36.256  32.731  30.748  1.00  0.00     0.010 A 
ATOM     43  C   UNL A   1      37.183  32.925  29.727  1.00  0.00    -0.014 A 
BRANCH  43  44
ATOM     44  C   UNL A   1      38.494  32.310  29.798  1.00  0.00     0.031 A 
ATOM     45  C   UNL A   1      38.433  30.881  29.423  1.00  0.00     0.074 A 
ATOM     46  C   UNL A   1      39.639  32.949  30.105  1.00  0.00     0.049 A 
ATOM     47  N   UNL A   1      38.485  29.867  30.218  1.00  0.00    -0.248 NA
ATOM     48  C   UNL A   1      38.050  30.552  28.041  1.00  0.00     0.031 C 
ATOM     49  C   UNL A   1      39.872  34.389  30.237  1.00  0.00     0.029 A 
ATOM     50  N   UNL A   1      40.886  32.424  30.280  1.00  0.00    -0.354 N 
ATOM     51  C   UNL A   1      38.347  28.754  29.400  1.00  0.00     0.074 A 
ATOM     52  C   UNL A   1      37.862  29.237  28.134  1.00  0.00     0.031 C 
ATOM     53  C   UNL A   1      41.206  34.628  30.242  1.00  0.00     0.029 A 
ATOM     54  C   UNL A   1      41.914  33.358  30.254  1.00  0.00     0.049 A 
ATOM     55  H   UNL A   1      41.043  31.461  30.414  1.00  0.00     0.167 HD
ATOM     56  C   UNL A   1      38.939  27.574  29.721  1.00  0.00     0.031 A 
ATOM     57  C   UNL A   1      43.246  33.096  30.195  1.00  0.00     0.031 A 
ATOM     58  C   UNL A   1      39.346  27.546  31.103  1.00  0.00     0.049 A 
ATOM     59  C   UNL A   1      43.449  31.701  30.640  1.00  0.00     0.074 A 
ATOM     60  C   UNL A   1      38.705  27.592  32.322  1.00  0.00     0.029 A 
ATOM     61  N   UNL A   1      40.662  27.861  31.340  1.00  0.00    -0.354 N 
ATOM     62  N   UNL A   1      43.260  31.308  31.864  1.00  0.00    -0.248 NA
ATOM     63  C   UNL A   1      43.446  30.645  29.640  1.00  0.00     0.031 C 
ATOM     64  C   UNL A   1      39.581  28.323  33.179  1.00  0.00     0.029 A 
ATOM     65  C   UNL A   1      40.740  28.635  32.465  1.00  0.00     0.049 A 
ATOM     66  H   UNL A   1      41.426  27.576  30.788  1.00  0.00     0.167 HD
ATOM     67  C   UNL A   1      42.661  30.062  31.743  1.00  0.00     0.074 A 
ATOM     68  C   UNL A   1      42.925  29.652  30.366  1.00  0.00     0.031 C 
ATOM     69  C   UNL A   1      41.770  29.629  32.683  1.00  0.00     0.031 A 
BRANCH  56  70
ATOM     70  C   UNL A   1      39.597  26.692  28.684  1.00  0.00    -0.014 A 
ATOM     71  C   UNL A   1      40.511  27.279  27.792  1.00  0.00     0.009 A 
ATOM     72  C   UNL A   1      39.137  25.401  28.355  1.00  0.00     0.009 A 
ATOM     73  C   UNL A   1      40.878  26.641  26.602  1.00  0.00     0.001 A 
ATOM     74  C   UNL A   1      39.532  24.744  27.189  1.00  0.00     0.001 A 
ATOM     75  C   UNL A   1      40.380  25.377  26.296  1.00  0.00     0.000 A 
ENDBRANCH  56  70
BRANCH  57  76
ATOM     76  C   UNL A   1      44.324  33.858  29.527  1.00  0.00    -0.014 A 
ATOM     77  C   UNL A   1      45.659  33.776  29.963  1.00  0.00     0.009 A 
ATOM     78  C   UNL A   1      44.085  34.445  28.272  1.00  0.00     0.009 A 
ATOM     79  C   UNL A   1      46.712  34.237  29.157  1.00  0.00     0.001 A 
ATOM     80  C   UNL A   1      45.136  34.902  27.467  1.00  0.00     0.001 A 
ATOM     81  C   UNL A   1      46.450  34.787  27.905  1.00  0.00     0.000 A 
ENDBRANCH  57  76
BRANCH  69  82
ATOM     82  C   UNL A   1      41.704  30.395  33.982  1.00  0.00    -0.014 A 
ATOM     83  C   UNL A   1      42.399  30.017  35.145  1.00  0.00     0.009 A 
ATOM     84  C   UNL A   1      41.006  31.611  33.990  1.00  0.00     0.009 A 
ATOM     85  C   UNL A   1      42.367  30.822  36.290  1.00  0.00     0.001 A 
ATOM     86  C   UNL A   1      40.993  32.425  35.123  1.00  0.00     0.001 A 
ATOM     87  C   UNL A   1      41.668  32.027  36.276  1.00  0.00     0.000 A 
ENDBRANCH  69  82
ENDBRANCH  43  44
ENDBRANCH  36  38
ENDBRANCH  35  36
ENDBRANCH  34  35
ENDBRANCH  33  34
ENDBRANCH  32  33
ENDBRANCH   1  32
TORSDOF 18
ENDMDL
