MODEL 1
REMARK VINA RESULT:     -10.5      0.000      0.000
REMARK SMILES O=C(OCCOCCOC(=O)c1ccc(-c2c3nc(c(-c4ccccc4)c4ccc([nH]4)c(-c4ccccc4)c4nc(c(-c5ccccc5)c5ccc2[nH]5)C=C4)C=C3)cc1)C1=Cc2c(cc(Cl)c(Cl)c2Cl)O[C@H]1C(F)(F)F
REMARK SMILES IDX 7 1 6 2 5 3 4 4 3 5 2 6 1 7 60 8 61 9 72 10 62 11 71 12
REMARK SMILES IDX 63 13 69 14 64 15 67 16 70 17 65 18 68 19 66 20 73 21 74 22
REMARK SMILES IDX 75 23 76 24 8 25 9 26 10 27 11 28 12 29 13 30 59 31 14 32
REMARK SMILES IDX 58 33 15 34 16 35 17 36 52 37 18 38 57 39 51 40 53 41 19 42
REMARK SMILES IDX 56 43 50 44 49 45 20 47 42 48 27 49 41 50 28 51 31 52 40 53
REMARK SMILES IDX 54 54 29 55 30 56 39 58 55 59 32 60 21 61 22 62 26 63 23 64
REMARK SMILES IDX 25 65 24 66 43 67 44 68 48 69 45 70 47 71 46 72 33 73 34 74
REMARK SMILES IDX 38 75 35 76 37 77 36 78
REMARK H PARENT 53 46 31 57
REMARK Flexibility Score: inf
ROOT
ATOM      1  C   UNL A   1      31.871  30.009  25.647  1.00  0.00     0.202 C 
ENDROOT
BRANCH   1   2
ATOM      2  O   UNL A   1      31.495  28.858  24.893  1.00  0.00    -0.374 OA
BRANCH   2   3
ATOM      3  C   UNL A   1      31.960  28.891  23.546  1.00  0.00     0.202 C 
BRANCH   3   4
ATOM      4  C   UNL A   1      33.481  28.764  23.468  1.00  0.00     0.261 C 
BRANCH   4   5
ATOM      5  O   UNL A   1      33.979  27.514  23.979  1.00  0.00    -0.460 OA
BRANCH   5   6
ATOM      6  C   UNL A   1      33.759  26.266  23.515  1.00  0.00     0.338 C 
ATOM      7  O   UNL A   1      33.835  26.063  22.303  1.00  0.00    -0.246 OA
BRANCH   6   8
ATOM      8  C   UNL A   1      33.626  25.084  24.405  1.00  0.00     0.087 C 
ATOM      9  C   UNL A   1      34.605  24.543  25.135  1.00  0.00     0.029 C 
ATOM     10  C   UNL A   1      32.309  24.349  24.256  1.00  0.00     0.316 C 
ATOM     11  C   UNL A   1      34.713  23.093  25.094  1.00  0.00     0.038 A 
ATOM     12  O   UNL A   1      32.318  22.984  24.794  1.00  0.00    -0.475 OA
ATOM     13  C   UNL A   1      33.537  22.374  24.900  1.00  0.00     0.131 A 
ATOM     14  C   UNL A   1      35.956  22.424  25.093  1.00  0.00     0.072 A 
ATOM     15  C   UNL A   1      33.577  20.989  24.807  1.00  0.00     0.069 A 
ATOM     16  C   UNL A   1      36.007  21.031  24.934  1.00  0.00     0.079 A 
ATOM     17  Cl  UNL A   1      37.427  23.337  25.202  1.00  0.00    -0.082 Cl
ATOM     18  C   UNL A   1      34.806  20.319  24.812  1.00  0.00     0.064 A 
ATOM     19  Cl  UNL A   1      37.536  20.207  24.853  1.00  0.00    -0.081 Cl
ATOM     20  Cl  UNL A   1      34.771  18.601  24.630  1.00  0.00    -0.083 Cl
BRANCH  10  21
ATOM     21  C   UNL A   1      31.158  25.148  24.932  1.00  0.00     0.430 C 
ATOM     22  F   UNL A   1      31.572  25.964  25.929  1.00  0.00    -0.167 F 
ATOM     23  F   UNL A   1      30.500  25.912  24.028  1.00  0.00    -0.167 F 
ATOM     24  F   UNL A   1      30.239  24.320  25.493  1.00  0.00    -0.167 F 
ENDBRANCH  10  21
ENDBRANCH   6   8
ENDBRANCH   5   6
ENDBRANCH   4   5
ENDBRANCH   3   4
ENDBRANCH   2   3
ENDBRANCH   1   2
BRANCH   1  25
ATOM     25  C   UNL A   1      32.430  29.657  27.030  1.00  0.00     0.261 C 
BRANCH  25  26
ATOM     26  O   UNL A   1      33.871  29.617  27.023  1.00  0.00    -0.460 OA
BRANCH  26  27
ATOM     27  C   UNL A   1      34.499  30.565  27.777  1.00  0.00     0.338 C 
ATOM     28  O   UNL A   1      34.028  31.608  28.164  1.00  0.00    -0.246 OA
BRANCH  27  29
ATOM     29  C   UNL A   1      35.863  30.094  28.173  1.00  0.00     0.060 A 
ATOM     30  C   UNL A   1      36.889  30.157  27.217  1.00  0.00     0.016 A 
ATOM     31  C   UNL A   1      36.157  29.628  29.458  1.00  0.00     0.016 A 
ATOM     32  C   UNL A   1      38.198  29.775  27.545  1.00  0.00     0.010 A 
ATOM     33  C   UNL A   1      37.464  29.241  29.784  1.00  0.00     0.010 A 
ATOM     34  C   UNL A   1      38.494  29.310  28.830  1.00  0.00    -0.014 A 
BRANCH  34  35
ATOM     35  C   UNL A   1      39.840  28.780  29.174  1.00  0.00     0.031 A 
ATOM     36  C   UNL A   1      40.825  29.686  29.858  1.00  0.00     0.074 A 
ATOM     37  C   UNL A   1      40.218  27.533  28.831  1.00  0.00     0.049 A 
ATOM     38  N   UNL A   1      42.081  29.469  30.155  1.00  0.00    -0.248 NA
ATOM     39  C   UNL A   1      40.329  31.014  30.253  1.00  0.00     0.031 C 
ATOM     40  C   UNL A   1      39.365  26.534  28.195  1.00  0.00     0.029 A 
ATOM     41  N   UNL A   1      41.434  26.904  28.956  1.00  0.00    -0.354 N 
ATOM     42  C   UNL A   1      42.527  30.632  30.770  1.00  0.00     0.074 A 
ATOM     43  C   UNL A   1      41.414  31.557  30.785  1.00  0.00     0.031 C 
ATOM     44  C   UNL A   1      40.088  25.422  27.966  1.00  0.00     0.029 A 
ATOM     45  C   UNL A   1      41.464  25.645  28.403  1.00  0.00     0.049 A 
ATOM     46  H   UNL A   1      42.210  27.316  29.400  1.00  0.00     0.167 HD
ATOM     47  C   UNL A   1      43.753  30.909  31.273  1.00  0.00     0.031 A 
ATOM     48  C   UNL A   1      42.490  24.785  28.236  1.00  0.00     0.031 A 
ATOM     49  C   UNL A   1      44.878  30.015  31.233  1.00  0.00     0.049 A 
ATOM     50  C   UNL A   1      43.871  25.166  28.709  1.00  0.00     0.074 A 
ATOM     51  C   UNL A   1      46.151  30.214  31.741  1.00  0.00     0.029 A 
ATOM     52  N   UNL A   1      44.876  28.766  30.634  1.00  0.00    -0.354 N 
ATOM     53  N   UNL A   1      44.264  26.243  29.346  1.00  0.00    -0.248 NA
ATOM     54  C   UNL A   1      44.956  24.208  28.435  1.00  0.00     0.031 C 
ATOM     55  C   UNL A   1      46.938  29.113  31.389  1.00  0.00     0.029 A 
ATOM     56  C   UNL A   1      46.138  28.202  30.719  1.00  0.00     0.049 A 
ATOM     57  H   UNL A   1      44.093  28.343  30.212  1.00  0.00     0.167 HD
ATOM     58  C   UNL A   1      45.625  26.076  29.572  1.00  0.00     0.074 A 
ATOM     59  C   UNL A   1      45.991  24.788  29.025  1.00  0.00     0.031 C 
ATOM     60  C   UNL A   1      46.497  26.919  30.177  1.00  0.00     0.031 A 
BRANCH  47  61
ATOM     61  C   UNL A   1      43.956  32.266  31.881  1.00  0.00    -0.014 A 
ATOM     62  C   UNL A   1      43.761  32.482  33.253  1.00  0.00     0.009 A 
ATOM     63  C   UNL A   1      44.397  33.327  31.076  1.00  0.00     0.009 A 
ATOM     64  C   UNL A   1      43.983  33.745  33.804  1.00  0.00     0.001 A 
ATOM     65  C   UNL A   1      44.641  34.582  31.634  1.00  0.00     0.001 A 
ATOM     66  C   UNL A   1      44.429  34.792  32.996  1.00  0.00     0.000 A 
ENDBRANCH  47  61
BRANCH  48  67
ATOM     67  C   UNL A   1      42.288  23.483  27.539  1.00  0.00    -0.014 A 
ATOM     68  C   UNL A   1      41.953  22.328  28.262  1.00  0.00     0.009 A 
ATOM     69  C   UNL A   1      42.517  23.373  26.158  1.00  0.00     0.009 A 
ATOM     70  C   UNL A   1      41.896  21.084  27.627  1.00  0.00     0.001 A 
ATOM     71  C   UNL A   1      42.426  22.134  25.518  1.00  0.00     0.001 A 
ATOM     72  C   UNL A   1      42.133  20.989  26.256  1.00  0.00     0.000 A 
ENDBRANCH  48  67
BRANCH  60  73
ATOM     73  C   UNL A   1      47.927  26.471  30.310  1.00  0.00    -0.014 A 
ATOM     74  C   UNL A   1      48.363  25.745  31.429  1.00  0.00     0.009 A 
ATOM     75  C   UNL A   1      48.838  26.731  29.274  1.00  0.00     0.009 A 
ATOM     76  C   UNL A   1      49.689  25.313  31.520  1.00  0.00     0.001 A 
ATOM     77  C   UNL A   1      50.154  26.272  29.353  1.00  0.00     0.001 A 
ATOM     78  C   UNL A   1      50.580  25.571  30.480  1.00  0.00     0.000 A 
ENDBRANCH  60  73
ENDBRANCH  34  35
ENDBRANCH  27  29
ENDBRANCH  26  27
ENDBRANCH  25  26
ENDBRANCH   1  25
TORSDOF 15
ENDMDL
MODEL 2
REMARK VINA RESULT:     -10.5      2.890      7.583
REMARK SMILES O=C(OCCOCCOC(=O)c1ccc(-c2c3nc(c(-c4ccccc4)c4ccc([nH]4)c(-c4ccccc4)c4nc(c(-c5ccccc5)c5ccc2[nH]5)C=C4)C=C3)cc1)C1=Cc2c(cc(Cl)c(Cl)c2Cl)O[C@H]1C(F)(F)F
REMARK SMILES IDX 7 1 6 2 5 3 4 4 3 5 2 6 1 7 60 8 61 9 72 10 62 11 71 12
REMARK SMILES IDX 63 13 69 14 64 15 67 16 70 17 65 18 68 19 66 20 73 21 74 22
REMARK SMILES IDX 75 23 76 24 8 25 9 26 10 27 11 28 12 29 13 30 59 31 14 32
REMARK SMILES IDX 58 33 15 34 16 35 17 36 52 37 18 38 57 39 51 40 53 41 19 42
REMARK SMILES IDX 56 43 50 44 49 45 20 47 42 48 27 49 41 50 28 51 31 52 40 53
REMARK SMILES IDX 54 54 29 55 30 56 39 58 55 59 32 60 21 61 22 62 26 63 23 64
REMARK SMILES IDX 25 65 24 66 43 67 44 68 48 69 45 70 47 71 46 72 33 73 34 74
REMARK SMILES IDX 38 75 35 76 37 77 36 78
REMARK H PARENT 53 46 31 57
REMARK Flexibility Score: inf
ROOT
ATOM      1  C   UNL A   1      37.936  19.833  24.999  1.00  0.00     0.202 C 
ENDROOT
BRANCH   1   2
ATOM      2  O   UNL A   1      37.038  20.863  24.594  1.00  0.00    -0.374 OA
BRANCH   2   3
ATOM      3  C   UNL A   1      36.065  21.185  25.584  1.00  0.00     0.202 C 
BRANCH   3   4
ATOM      4  C   UNL A   1      36.146  22.653  26.001  1.00  0.00     0.261 C 
BRANCH   4   5
ATOM      5  O   UNL A   1      34.977  23.115  26.703  1.00  0.00    -0.460 OA
BRANCH   5   6
ATOM      6  C   UNL A   1      33.779  23.479  26.197  1.00  0.00     0.338 C 
ATOM      7  O   UNL A   1      32.755  23.081  26.753  1.00  0.00    -0.246 OA
BRANCH   6   8
ATOM      8  C   UNL A   1      33.630  24.495  25.123  1.00  0.00     0.087 C 
ATOM      9  C   UNL A   1      34.042  25.763  25.187  1.00  0.00     0.029 C 
ATOM     10  C   UNL A   1      32.736  24.055  23.982  1.00  0.00     0.316 C 
ATOM     11  C   UNL A   1      33.100  26.770  24.723  1.00  0.00     0.038 A 
ATOM     12  O   UNL A   1      32.246  25.154  23.143  1.00  0.00    -0.475 OA
ATOM     13  C   UNL A   1      32.217  26.396  23.714  1.00  0.00     0.131 A 
ATOM     14  C   UNL A   1      32.961  28.028  25.349  1.00  0.00     0.072 A 
ATOM     15  C   UNL A   1      31.264  27.296  23.256  1.00  0.00     0.069 A 
ATOM     16  C   UNL A   1      31.958  28.916  24.934  1.00  0.00     0.079 A 
ATOM     17  Cl  UNL A   1      33.978  28.438  26.694  1.00  0.00    -0.082 Cl
ATOM     18  C   UNL A   1      31.126  28.547  23.869  1.00  0.00     0.064 A 
ATOM     19  Cl  UNL A   1      31.728  30.433  25.752  1.00  0.00    -0.081 Cl
ATOM     20  Cl  UNL A   1      29.875  29.583  23.279  1.00  0.00    -0.083 Cl
BRANCH  10  21
ATOM     21  C   UNL A   1      33.470  23.022  23.080  1.00  0.00     0.430 C 
ATOM     22  F   UNL A   1      33.343  21.742  23.501  1.00  0.00    -0.167 F 
ATOM     23  F   UNL A   1      33.014  23.078  21.806  1.00  0.00    -0.167 F 
ATOM     24  F   UNL A   1      34.806  23.262  23.031  1.00  0.00    -0.167 F 
ENDBRANCH  10  21
ENDBRANCH   6   8
ENDBRANCH   5   6
ENDBRANCH   4   5
ENDBRANCH   3   4
ENDBRANCH   2   3
ENDBRANCH   1   2
BRANCH   1  25
ATOM     25  C   UNL A   1      39.286  20.376  25.481  1.00  0.00     0.261 C 
BRANCH  25  26
ATOM     26  O   UNL A   1      40.079  19.345  26.104  1.00  0.00    -0.460 OA
BRANCH  26  27
ATOM     27  C   UNL A   1      41.430  19.521  26.060  1.00  0.00     0.338 C 
ATOM     28  O   UNL A   1      42.240  18.770  25.572  1.00  0.00    -0.246 OA
BRANCH  27  29
ATOM     29  C   UNL A   1      41.798  20.860  26.617  1.00  0.00     0.060 A 
ATOM     30  C   UNL A   1      42.261  21.843  25.729  1.00  0.00     0.016 A 
ATOM     31  C   UNL A   1      41.669  21.174  27.974  1.00  0.00     0.016 A 
ATOM     32  C   UNL A   1      42.575  23.131  26.186  1.00  0.00     0.010 A 
ATOM     33  C   UNL A   1      41.989  22.460  28.432  1.00  0.00     0.010 A 
ATOM     34  C   UNL A   1      42.445  23.448  27.542  1.00  0.00    -0.014 A 
BRANCH  34  35
ATOM     35  C   UNL A   1      42.888  24.762  28.079  1.00  0.00     0.031 A 
ATOM     36  C   UNL A   1      41.857  25.824  28.341  1.00  0.00     0.074 A 
ATOM     37  C   UNL A   1      44.190  25.042  28.276  1.00  0.00     0.049 A 
ATOM     38  N   UNL A   1      42.027  27.068  28.708  1.00  0.00    -0.248 NA
ATOM     39  C   UNL A   1      40.451  25.432  28.158  1.00  0.00     0.031 C 
ATOM     40  C   UNL A   1      45.296  24.107  28.096  1.00  0.00     0.029 A 
ATOM     41  N   UNL A   1      44.802  26.215  28.653  1.00  0.00    -0.354 N 
ATOM     42  C   UNL A   1      40.751  27.610  28.799  1.00  0.00     0.074 A 
ATOM     43  C   UNL A   1      39.820  26.564  28.430  1.00  0.00     0.031 C 
ATOM     44  C   UNL A   1      46.455  24.744  28.344  1.00  0.00     0.029 A 
ATOM     45  C   UNL A   1      46.176  26.144  28.660  1.00  0.00     0.049 A 
ATOM     46  H   UNL A   1      44.304  27.029  28.895  1.00  0.00     0.167 HD
ATOM     47  C   UNL A   1      40.385  28.864  29.152  1.00  0.00     0.031 A 
ATOM     48  C   UNL A   1      47.103  27.102  28.864  1.00  0.00     0.031 A 
ATOM     49  C   UNL A   1      41.299  29.923  29.486  1.00  0.00     0.049 A 
ATOM     50  C   UNL A   1      46.666  28.518  29.148  1.00  0.00     0.074 A 
ATOM     51  C   UNL A   1      41.005  31.219  29.876  1.00  0.00     0.029 A 
ATOM     52  N   UNL A   1      42.679  29.818  29.447  1.00  0.00    -0.354 N 
ATOM     53  N   UNL A   1      45.455  29.000  29.294  1.00  0.00    -0.248 NA
ATOM     54  C   UNL A   1      47.730  29.526  29.294  1.00  0.00     0.031 C 
ATOM     55  C   UNL A   1      42.208  31.918  30.008  1.00  0.00     0.029 A 
ATOM     56  C   UNL A   1      43.251  31.040  29.762  1.00  0.00     0.049 A 
ATOM     57  H   UNL A   1      43.178  28.998  29.230  1.00  0.00     0.167 HD
ATOM     58  C   UNL A   1      45.616  30.352  29.576  1.00  0.00     0.074 A 
ATOM     59  C   UNL A   1      47.038  30.613  29.603  1.00  0.00     0.031 C 
ATOM     60  C   UNL A   1      44.667  31.295  29.791  1.00  0.00     0.031 A 
BRANCH  47  61
ATOM     61  C   UNL A   1      38.917  29.176  29.156  1.00  0.00    -0.014 A 
ATOM     62  C   UNL A   1      38.144  29.011  30.315  1.00  0.00     0.009 A 
ATOM     63  C   UNL A   1      38.314  29.691  27.999  1.00  0.00     0.009 A 
ATOM     64  C   UNL A   1      36.786  29.334  30.306  1.00  0.00     0.001 A 
ATOM     65  C   UNL A   1      36.963  30.036  28.000  1.00  0.00     0.001 A 
ATOM     66  C   UNL A   1      36.198  29.852  29.152  1.00  0.00     0.000 A 
ENDBRANCH  47  61
BRANCH  48  67
ATOM     67  C   UNL A   1      48.557  26.792  28.756  1.00  0.00    -0.014 A 
ATOM     68  C   UNL A   1      49.213  26.856  27.517  1.00  0.00     0.009 A 
ATOM     69  C   UNL A   1      49.273  26.345  29.877  1.00  0.00     0.009 A 
ATOM     70  C   UNL A   1      50.540  26.435  27.393  1.00  0.00     0.001 A 
ATOM     71  C   UNL A   1      50.611  25.958  29.759  1.00  0.00     0.001 A 
ATOM     72  C   UNL A   1      51.237  25.987  28.514  1.00  0.00     0.000 A 
ENDBRANCH  48  67
BRANCH  60  73
ATOM     73  C   UNL A   1      45.126  32.694  30.103  1.00  0.00    -0.014 A 
ATOM     74  C   UNL A   1      45.284  33.652  29.090  1.00  0.00     0.009 A 
ATOM     75  C   UNL A   1      45.350  33.073  31.436  1.00  0.00     0.009 A 
ATOM     76  C   UNL A   1      45.683  34.955  29.404  1.00  0.00     0.001 A 
ATOM     77  C   UNL A   1      45.718  34.382  31.750  1.00  0.00     0.001 A 
ATOM     78  C   UNL A   1      45.893  35.319  30.733  1.00  0.00     0.000 A 
ENDBRANCH  60  73
ENDBRANCH  34  35
ENDBRANCH  27  29
ENDBRANCH  26  27
ENDBRANCH  25  26
ENDBRANCH   1  25
TORSDOF 15
ENDMDL
MODEL 3
REMARK VINA RESULT:     -10.4      2.903      7.816
REMARK SMILES O=C(OCCOCCOC(=O)c1ccc(-c2c3nc(c(-c4ccccc4)c4ccc([nH]4)c(-c4ccccc4)c4nc(c(-c5ccccc5)c5ccc2[nH]5)C=C4)C=C3)cc1)C1=Cc2c(cc(Cl)c(Cl)c2Cl)O[C@H]1C(F)(F)F
REMARK SMILES IDX 7 1 6 2 5 3 4 4 3 5 2 6 1 7 60 8 61 9 72 10 62 11 71 12
REMARK SMILES IDX 63 13 69 14 64 15 67 16 70 17 65 18 68 19 66 20 73 21 74 22
REMARK SMILES IDX 75 23 76 24 8 25 9 26 10 27 11 28 12 29 13 30 59 31 14 32
REMARK SMILES IDX 58 33 15 34 16 35 17 36 52 37 18 38 57 39 51 40 53 41 19 42
REMARK SMILES IDX 56 43 50 44 49 45 20 47 42 48 27 49 41 50 28 51 31 52 40 53
REMARK SMILES IDX 54 54 29 55 30 56 39 58 55 59 32 60 21 61 22 62 26 63 23 64
REMARK SMILES IDX 25 65 24 66 43 67 44 68 48 69 45 70 47 71 46 72 33 73 34 74
REMARK SMILES IDX 38 75 35 76 37 77 36 78
REMARK H PARENT 53 46 31 57
REMARK Flexibility Score: inf
ROOT
ATOM      1  C   UNL A   1      38.676  19.978  25.031  1.00  0.00     0.202 C 
ENDROOT
BRANCH   1   2
ATOM      2  O   UNL A   1      38.113  21.211  25.472  1.00  0.00    -0.374 OA
BRANCH   2   3
ATOM      3  C   UNL A   1      36.907  21.555  24.794  1.00  0.00     0.202 C 
BRANCH   3   4
ATOM      4  C   UNL A   1      35.708  21.561  25.742  1.00  0.00     0.261 C 
BRANCH   4   5
ATOM      5  O   UNL A   1      35.295  22.883  26.136  1.00  0.00    -0.460 OA
BRANCH   5   6
ATOM      6  C   UNL A   1      34.085  23.466  25.994  1.00  0.00     0.338 C 
ATOM      7  O   UNL A   1      33.242  23.302  26.875  1.00  0.00    -0.246 OA
BRANCH   6   8
ATOM      8  C   UNL A   1      33.786  24.456  24.928  1.00  0.00     0.087 C 
ATOM      9  C   UNL A   1      34.139  25.744  24.938  1.00  0.00     0.029 C 
ATOM     10  C   UNL A   1      32.811  23.956  23.882  1.00  0.00     0.316 C 
ATOM     11  C   UNL A   1      33.109  26.697  24.554  1.00  0.00     0.038 A 
ATOM     12  O   UNL A   1      32.191  25.016  23.081  1.00  0.00    -0.475 OA
ATOM     13  C   UNL A   1      32.155  26.264  23.638  1.00  0.00     0.131 A 
ATOM     14  C   UNL A   1      32.968  27.956  25.176  1.00  0.00     0.072 A 
ATOM     15  C   UNL A   1      31.119  27.111  23.262  1.00  0.00     0.069 A 
ATOM     16  C   UNL A   1      31.888  28.788  24.849  1.00  0.00     0.079 A 
ATOM     17  Cl  UNL A   1      34.086  28.436  26.413  1.00  0.00    -0.082 Cl
ATOM     18  C   UNL A   1      30.978  28.363  23.871  1.00  0.00     0.064 A 
ATOM     19  Cl  UNL A   1      31.662  30.306  25.667  1.00  0.00    -0.081 Cl
ATOM     20  Cl  UNL A   1      29.628  29.328  23.391  1.00  0.00    -0.083 Cl
BRANCH  10  21
ATOM     21  C   UNL A   1      33.506  22.945  22.925  1.00  0.00     0.430 C 
ATOM     22  F   UNL A   1      33.015  22.961  21.664  1.00  0.00    -0.167 F 
ATOM     23  F   UNL A   1      34.836  23.186  22.846  1.00  0.00    -0.167 F 
ATOM     24  F   UNL A   1      33.362  21.666  23.360  1.00  0.00    -0.167 F 
ENDBRANCH  10  21
ENDBRANCH   6   8
ENDBRANCH   5   6
ENDBRANCH   4   5
ENDBRANCH   3   4
ENDBRANCH   2   3
ENDBRANCH   1   2
BRANCH   1  25
ATOM     25  C   UNL A   1      39.662  19.380  26.040  1.00  0.00     0.261 C 
BRANCH  25  26
ATOM     26  O   UNL A   1      40.951  19.139  25.440  1.00  0.00    -0.460 OA
BRANCH  26  27
ATOM     27  C   UNL A   1      42.027  19.251  26.271  1.00  0.00     0.338 C 
ATOM     28  O   UNL A   1      42.801  18.373  26.570  1.00  0.00    -0.246 OA
BRANCH  27  29
ATOM     29  C   UNL A   1      42.204  20.672  26.705  1.00  0.00     0.060 A 
ATOM     30  C   UNL A   1      42.569  21.619  25.736  1.00  0.00     0.016 A 
ATOM     31  C   UNL A   1      41.989  21.092  28.022  1.00  0.00     0.016 A 
ATOM     32  C   UNL A   1      42.703  22.974  26.073  1.00  0.00     0.010 A 
ATOM     33  C   UNL A   1      42.129  22.444  28.360  1.00  0.00     0.010 A 
ATOM     34  C   UNL A   1      42.488  23.396  27.390  1.00  0.00    -0.014 A 
BRANCH  34  35
ATOM     35  C   UNL A   1      42.742  24.800  27.807  1.00  0.00     0.031 A 
ATOM     36  C   UNL A   1      44.139  25.203  28.189  1.00  0.00     0.074 A 
ATOM     37  C   UNL A   1      41.743  25.698  27.911  1.00  0.00     0.049 A 
ATOM     38  N   UNL A   1      44.567  26.338  28.679  1.00  0.00    -0.248 NA
ATOM     39  C   UNL A   1      45.188  24.190  27.999  1.00  0.00     0.031 C 
ATOM     40  C   UNL A   1      40.349  25.463  27.548  1.00  0.00     0.029 A 
ATOM     41  N   UNL A   1      41.753  26.992  28.378  1.00  0.00    -0.354 N 
ATOM     42  C   UNL A   1      45.935  26.177  28.858  1.00  0.00     0.074 A 
ATOM     43  C   UNL A   1      46.260  24.829  28.442  1.00  0.00     0.031 C 
ATOM     44  C   UNL A   1      39.631  26.567  27.822  1.00  0.00     0.029 A 
ATOM     45  C   UNL A   1      40.508  27.574  28.418  1.00  0.00     0.049 A 
ATOM     46  H   UNL A   1      42.574  27.458  28.656  1.00  0.00     0.167 HD
ATOM     47  C   UNL A   1      46.840  27.067  29.329  1.00  0.00     0.031 A 
ATOM     48  C   UNL A   1      40.112  28.766  28.910  1.00  0.00     0.031 A 
ATOM     49  C   UNL A   1      46.526  28.396  29.779  1.00  0.00     0.049 A 
ATOM     50  C   UNL A   1      41.127  29.694  29.530  1.00  0.00     0.074 A 
ATOM     51  C   UNL A   1      47.392  29.368  30.252  1.00  0.00     0.029 A 
ATOM     52  N   UNL A   1      45.251  28.932  29.836  1.00  0.00    -0.354 N 
ATOM     53  N   UNL A   1      42.427  29.554  29.634  1.00  0.00    -0.248 NA
ATOM     54  C   UNL A   1      40.617  30.950  30.106  1.00  0.00     0.031 C 
ATOM     55  C   UNL A   1      46.632  30.469  30.659  1.00  0.00     0.029 A 
ATOM     56  C   UNL A   1      45.301  30.205  30.379  1.00  0.00     0.049 A 
ATOM     57  H   UNL A   1      44.432  28.477  29.534  1.00  0.00     0.167 HD
ATOM     58  C   UNL A   1      42.886  30.709  30.256  1.00  0.00     0.074 A 
ATOM     59  C   UNL A   1      41.734  31.551  30.489  1.00  0.00     0.031 C 
ATOM     60  C   UNL A   1      44.152  31.042  30.606  1.00  0.00     0.031 A 
BRANCH  47  61
ATOM     61  C   UNL A   1      48.267  26.612  29.422  1.00  0.00    -0.014 A 
ATOM     62  C   UNL A   1      48.738  25.927  30.552  1.00  0.00     0.009 A 
ATOM     63  C   UNL A   1      49.135  26.827  28.341  1.00  0.00     0.009 A 
ATOM     64  C   UNL A   1      50.061  25.487  30.606  1.00  0.00     0.001 A 
ATOM     65  C   UNL A   1      50.450  26.365  28.388  1.00  0.00     0.001 A 
ATOM     66  C   UNL A   1      50.914  25.701  29.523  1.00  0.00     0.000 A 
ENDBRANCH  47  61
BRANCH  48  67
ATOM     67  C   UNL A   1      38.674  29.156  28.899  1.00  0.00    -0.014 A 
ATOM     68  C   UNL A   1      38.120  29.820  27.793  1.00  0.00     0.009 A 
ATOM     69  C   UNL A   1      37.872  28.945  30.031  1.00  0.00     0.009 A 
ATOM     70  C   UNL A   1      36.810  30.305  27.839  1.00  0.00     0.001 A 
ATOM     71  C   UNL A   1      36.550  29.400  30.062  1.00  0.00     0.001 A 
ATOM     72  C   UNL A   1      36.027  30.093  28.973  1.00  0.00     0.000 A 
ENDBRANCH  48  67
BRANCH  60  73
ATOM     73  C   UNL A   1      44.371  32.382  31.253  1.00  0.00    -0.014 A 
ATOM     74  C   UNL A   1      44.341  32.532  32.648  1.00  0.00     0.009 A 
ATOM     75  C   UNL A   1      44.669  33.500  30.458  1.00  0.00     0.009 A 
ATOM     76  C   UNL A   1      44.577  33.781  33.231  1.00  0.00     0.001 A 
ATOM     77  C   UNL A   1      44.934  34.739  31.043  1.00  0.00     0.001 A 
ATOM     78  C   UNL A   1      44.879  34.880  32.429  1.00  0.00     0.000 A 
ENDBRANCH  60  73
ENDBRANCH  34  35
ENDBRANCH  27  29
ENDBRANCH  26  27
ENDBRANCH  25  26
ENDBRANCH   1  25
TORSDOF 15
ENDMDL
