MODEL 1
REMARK VINA RESULT:      -9.9      0.000      0.000
REMARK SMILES Cn1ccc(S(=O)(=O)N[C@H]2C=C[C@@H](C(=O)OCCOCCOC(=O)c3ccc(-c4c5nc(c(-c6ccccc6)c6ccc([nH]6)c(-c6ccccc6)c6nc(c(-c7ccccc7)c7ccc4[nH]7)C=C6)C=C5)cc3)C2)c1
REMARK SMILES IDX 18 1 17 2 16 3 14 4 15 5 13 6 10 7 11 8 73 9 12 10 9 11 6 13
REMARK SMILES IDX 7 14 8 15 5 16 1 17 2 18 3 19 74 20 4 21 19 22 20 23 21 24
REMARK SMILES IDX 22 25 23 26 24 27 25 28 26 29 72 30 27 31 71 32 28 33 29 34
REMARK SMILES IDX 30 35 65 36 31 37 70 38 64 39 66 40 32 41 69 42 63 43 62 44
REMARK SMILES IDX 33 46 55 47 40 48 54 49 41 50 44 51 53 52 67 53 42 54 43 55
REMARK SMILES IDX 52 57 68 58 45 59 34 60 35 61 39 62 36 63 38 64 37 65 56 66
REMARK SMILES IDX 57 67 61 68 58 69 60 70 59 71 46 72 47 73 51 74 48 75 50 76
REMARK SMILES IDX 49 77
REMARK H PARENT 9 12 66 45 44 56
REMARK Flexibility Score: inf
ROOT
ATOM      1  C   UNL A   1      34.268  33.400  28.923  1.00  0.00     0.202 C 
ENDROOT
BRANCH   1   2
ATOM      2  C   UNL A   1      35.118  32.191  28.529  1.00  0.00     0.261 C 
BRANCH   2   3
ATOM      3  O   UNL A   1      34.342  31.296  27.717  1.00  0.00    -0.463 OA
BRANCH   3   4
ATOM      4  C   UNL A   1      34.707  29.990  27.755  1.00  0.00     0.312 C 
ATOM      5  O   UNL A   1      35.804  29.582  28.121  1.00  0.00    -0.252 OA
BRANCH   4   6
ATOM      6  C   UNL A   1      33.584  29.050  27.332  1.00  0.00     0.123 C 
ATOM      7  C   UNL A   1      31.822  28.857  25.619  1.00  0.00     0.093 C 
ATOM      8  C   UNL A   1      33.091  28.205  25.197  1.00  0.00    -0.011 C 
ATOM      9  C   UNL A   1      32.257  29.665  26.858  1.00  0.00     0.043 C 
ATOM     10  C   UNL A   1      34.036  28.275  26.138  1.00  0.00    -0.015 C 
BRANCH   7  11
ATOM     11  N   UNL A   1      31.181  29.741  24.644  1.00  0.00    -0.204 NA
ATOM     12  H   UNL A   1      30.526  30.317  25.174  1.00  0.00     0.142 HD
BRANCH  11  13
ATOM     13  S   UNL A   1      30.325  29.169  23.318  1.00  0.00     0.242 S 
ATOM     14  O   UNL A   1      29.466  28.103  23.784  1.00  0.00    -0.207 OA
ATOM     15  O   UNL A   1      31.287  28.952  22.261  1.00  0.00    -0.207 OA
BRANCH  13  16
ATOM     16  C   UNL A   1      29.257  30.374  22.705  1.00  0.00     0.100 A 
ATOM     17  C   UNL A   1      27.661  32.403  20.168  1.00  0.00     0.149 C 
ATOM     18  N   UNL A   1      28.145  31.742  21.359  1.00  0.00    -0.356 N 
ATOM     19  C   UNL A   1      27.902  32.169  22.639  1.00  0.00     0.086 A 
ATOM     20  C   UNL A   1      28.941  30.627  21.384  1.00  0.00     0.106 A 
ATOM     21  C   UNL A   1      28.581  31.335  23.500  1.00  0.00     0.041 A 
ENDBRANCH  13  16
ENDBRANCH  11  13
ENDBRANCH   7  11
ENDBRANCH   4   6
ENDBRANCH   3   4
ENDBRANCH   2   3
ENDBRANCH   1   2
BRANCH   1  22
ATOM     22  O   UNL A   1      34.911  34.667  28.777  1.00  0.00    -0.374 OA
BRANCH  22  23
ATOM     23  C   UNL A   1      34.075  35.820  28.659  1.00  0.00     0.202 C 
BRANCH  23  24
ATOM     24  C   UNL A   1      32.879  35.881  29.616  1.00  0.00     0.261 C 
BRANCH  24  25
ATOM     25  O   UNL A   1      33.254  36.381  30.913  1.00  0.00    -0.460 OA
BRANCH  25  26
ATOM     26  C   UNL A   1      32.880  35.593  31.952  1.00  0.00     0.338 C 
ATOM     27  O   UNL A   1      31.744  35.327  32.307  1.00  0.00    -0.246 OA
BRANCH  26  28
ATOM     28  C   UNL A   1      34.059  34.928  32.537  1.00  0.00     0.060 A 
ATOM     29  C   UNL A   1      35.311  35.508  32.295  1.00  0.00     0.016 A 
ATOM     30  C   UNL A   1      33.958  33.718  33.229  1.00  0.00     0.016 A 
ATOM     31  C   UNL A   1      36.473  34.855  32.702  1.00  0.00     0.010 A 
ATOM     32  C   UNL A   1      35.128  33.060  33.627  1.00  0.00     0.010 A 
ATOM     33  C   UNL A   1      36.389  33.609  33.335  1.00  0.00    -0.014 A 
BRANCH  33  34
ATOM     34  C   UNL A   1      37.625  32.823  33.561  1.00  0.00     0.031 A 
ATOM     35  C   UNL A   1      38.420  33.049  34.818  1.00  0.00     0.074 A 
ATOM     36  C   UNL A   1      38.019  31.890  32.676  1.00  0.00     0.049 A 
ATOM     37  N   UNL A   1      39.527  32.473  35.212  1.00  0.00    -0.248 NA
ATOM     38  C   UNL A   1      37.896  34.056  35.754  1.00  0.00     0.031 C 
ATOM     39  C   UNL A   1      37.316  31.543  31.442  1.00  0.00     0.029 A 
ATOM     40  N   UNL A   1      39.115  31.065  32.685  1.00  0.00    -0.354 N 
ATOM     41  C   UNL A   1      39.833  33.048  36.440  1.00  0.00     0.074 A 
ATOM     42  C   UNL A   1      38.809  34.034  36.713  1.00  0.00     0.031 C 
ATOM     43  C   UNL A   1      38.004  30.577  30.807  1.00  0.00     0.029 A 
ATOM     44  C   UNL A   1      39.205  30.260  31.576  1.00  0.00     0.049 A 
ATOM     45  H   UNL A   1      39.773  31.050  33.418  1.00  0.00     0.167 HD
ATOM     46  C   UNL A   1      40.869  32.777  37.268  1.00  0.00     0.031 A 
ATOM     47  C   UNL A   1      40.159  29.381  31.214  1.00  0.00     0.031 A 
ATOM     48  C   UNL A   1      41.898  31.811  36.996  1.00  0.00     0.049 A 
ATOM     49  C   UNL A   1      41.345  29.158  32.113  1.00  0.00     0.074 A 
ATOM     50  C   UNL A   1      42.979  31.456  37.784  1.00  0.00     0.029 A 
ATOM     51  N   UNL A   1      41.980  31.053  35.839  1.00  0.00    -0.354 N 
ATOM     52  N   UNL A   1      41.605  29.686  33.284  1.00  0.00    -0.248 NA
ATOM     53  C   UNL A   1      42.367  28.213  31.638  1.00  0.00     0.031 C 
ATOM     54  C   UNL A   1      43.742  30.516  37.082  1.00  0.00     0.029 A 
ATOM     55  C   UNL A   1      43.108  30.252  35.878  1.00  0.00     0.049 A 
ATOM     56  H   UNL A   1      41.331  31.080  35.099  1.00  0.00     0.167 HD
ATOM     57  C   UNL A   1      42.807  29.123  33.695  1.00  0.00     0.074 A 
ATOM     58  C   UNL A   1      43.218  28.203  32.655  1.00  0.00     0.031 C 
ATOM     59  C   UNL A   1      43.506  29.346  34.835  1.00  0.00     0.031 A 
BRANCH  46  60
ATOM     60  C   UNL A   1      40.956  33.569  38.540  1.00  0.00    -0.014 A 
ATOM     61  C   UNL A   1      41.670  34.776  38.597  1.00  0.00     0.009 A 
ATOM     62  C   UNL A   1      40.289  33.117  39.689  1.00  0.00     0.009 A 
ATOM     63  C   UNL A   1      41.739  35.499  39.790  1.00  0.00     0.001 A 
ATOM     64  C   UNL A   1      40.342  33.853  40.874  1.00  0.00     0.001 A 
ATOM     65  C   UNL A   1      41.072  35.039  40.925  1.00  0.00     0.000 A 
ENDBRANCH  46  60
BRANCH  47  66
ATOM     66  C   UNL A   1      40.047  28.655  29.924  1.00  0.00    -0.014 A 
ATOM     67  C   UNL A   1      40.566  29.207  28.744  1.00  0.00     0.009 A 
ATOM     68  C   UNL A   1      39.401  27.409  29.867  1.00  0.00     0.009 A 
ATOM     69  C   UNL A   1      40.421  28.535  27.527  1.00  0.00     0.001 A 
ATOM     70  C   UNL A   1      39.281  26.730  28.654  1.00  0.00     0.001 A 
ATOM     71  C   UNL A   1      39.783  27.296  27.484  1.00  0.00     0.000 A 
ENDBRANCH  47  66
BRANCH  59  72
ATOM     72  C   UNL A   1      44.774  28.564  35.029  1.00  0.00    -0.014 A 
ATOM     73  C   UNL A   1      46.009  29.064  34.591  1.00  0.00     0.009 A 
ATOM     74  C   UNL A   1      44.736  27.331  35.696  1.00  0.00     0.009 A 
ATOM     75  C   UNL A   1      47.180  28.330  34.796  1.00  0.00     0.001 A 
ATOM     76  C   UNL A   1      45.910  26.610  35.921  1.00  0.00     0.001 A 
ATOM     77  C   UNL A   1      47.129  27.107  35.464  1.00  0.00     0.000 A 
ENDBRANCH  59  72
ENDBRANCH  33  34
ENDBRANCH  26  28
ENDBRANCH  25  26
ENDBRANCH  24  25
ENDBRANCH  23  24
ENDBRANCH  22  23
ENDBRANCH   1  22
TORSDOF 17
ENDMDL
MODEL 2
REMARK VINA RESULT:      -9.6      4.517      9.304
REMARK SMILES Cn1ccc(S(=O)(=O)N[C@H]2C=C[C@@H](C(=O)OCCOCCOC(=O)c3ccc(-c4c5nc(c(-c6ccccc6)c6ccc([nH]6)c(-c6ccccc6)c6nc(c(-c7ccccc7)c7ccc4[nH]7)C=C6)C=C5)cc3)C2)c1
REMARK SMILES IDX 18 1 17 2 16 3 14 4 15 5 13 6 10 7 11 8 73 9 12 10 9 11 6 13
REMARK SMILES IDX 7 14 8 15 5 16 1 17 2 18 3 19 74 20 4 21 19 22 20 23 21 24
REMARK SMILES IDX 22 25 23 26 24 27 25 28 26 29 72 30 27 31 71 32 28 33 29 34
REMARK SMILES IDX 30 35 65 36 31 37 70 38 64 39 66 40 32 41 69 42 63 43 62 44
REMARK SMILES IDX 33 46 55 47 40 48 54 49 41 50 44 51 53 52 67 53 42 54 43 55
REMARK SMILES IDX 52 57 68 58 45 59 34 60 35 61 39 62 36 63 38 64 37 65 56 66
REMARK SMILES IDX 57 67 61 68 58 69 60 70 59 71 46 72 47 73 51 74 48 75 50 76
REMARK SMILES IDX 49 77
REMARK H PARENT 9 12 66 45 44 56
REMARK Flexibility Score: inf
ROOT
ATOM      1  C   UNL A   1      41.382  20.958  26.158  1.00  0.00     0.202 C 
ENDROOT
BRANCH   1   2
ATOM      2  C   UNL A   1      39.923  20.505  26.220  1.00  0.00     0.261 C 
BRANCH   2   3
ATOM      3  O   UNL A   1      39.056  21.625  25.979  1.00  0.00    -0.463 OA
BRANCH   3   4
ATOM      4  C   UNL A   1      37.982  21.386  25.187  1.00  0.00     0.312 C 
ATOM      5  O   UNL A   1      37.504  20.277  24.973  1.00  0.00    -0.252 OA
BRANCH   4   6
ATOM      6  C   UNL A   1      37.380  22.661  24.607  1.00  0.00     0.123 C 
ATOM      7  C   UNL A   1      35.181  23.673  24.139  1.00  0.00     0.093 C 
ATOM      8  C   UNL A   1      35.690  24.031  25.491  1.00  0.00    -0.011 C 
ATOM      9  C   UNL A   1      36.135  22.539  23.713  1.00  0.00     0.043 C 
ATOM     10  C   UNL A   1      36.897  23.516  25.732  1.00  0.00    -0.015 C 
BRANCH   7  11
ATOM     11  N   UNL A   1      33.793  23.217  24.059  1.00  0.00    -0.204 NA
ATOM     12  H   UNL A   1      33.815  22.213  24.239  1.00  0.00     0.142 HD
BRANCH  11  13
ATOM     13  S   UNL A   1      32.844  23.420  22.688  1.00  0.00     0.242 S 
ATOM     14  O   UNL A   1      31.837  22.382  22.702  1.00  0.00    -0.207 OA
ATOM     15  O   UNL A   1      33.749  23.575  21.572  1.00  0.00    -0.207 OA
BRANCH  13  16
ATOM     16  C   UNL A   1      31.967  24.901  22.758  1.00  0.00     0.100 A 
ATOM     17  C   UNL A   1      29.286  27.118  23.758  1.00  0.00     0.149 C 
ATOM     18  N   UNL A   1      30.447  26.451  23.213  1.00  0.00    -0.356 N 
ATOM     19  C   UNL A   1      31.241  26.961  22.218  1.00  0.00     0.086 A 
ATOM     20  C   UNL A   1      30.899  25.211  23.578  1.00  0.00     0.106 A 
ATOM     21  C   UNL A   1      32.198  26.018  21.915  1.00  0.00     0.041 A 
ENDBRANCH  13  16
ENDBRANCH  11  13
ENDBRANCH   7  11
ENDBRANCH   4   6
ENDBRANCH   3   4
ENDBRANCH   2   3
ENDBRANCH   1   2
BRANCH   1  22
ATOM     22  O   UNL A   1      42.285  20.022  25.566  1.00  0.00    -0.374 OA
BRANCH  22  23
ATOM     23  C   UNL A   1      43.684  20.275  25.707  1.00  0.00     0.202 C 
BRANCH  23  24
ATOM     24  C   UNL A   1      44.202  21.556  25.041  1.00  0.00     0.261 C 
BRANCH  24  25
ATOM     25  O   UNL A   1      44.519  22.574  26.008  1.00  0.00    -0.460 OA
BRANCH  25  26
ATOM     26  C   UNL A   1      44.533  23.837  25.514  1.00  0.00     0.338 C 
ATOM     27  O   UNL A   1      45.019  24.214  24.461  1.00  0.00    -0.246 OA
BRANCH  26  28
ATOM     28  C   UNL A   1      43.711  24.724  26.359  1.00  0.00     0.060 A 
ATOM     29  C   UNL A   1      44.077  26.075  26.418  1.00  0.00     0.016 A 
ATOM     30  C   UNL A   1      42.665  24.236  27.145  1.00  0.00     0.016 A 
ATOM     31  C   UNL A   1      43.428  26.935  27.302  1.00  0.00     0.010 A 
ATOM     32  C   UNL A   1      42.022  25.099  28.040  1.00  0.00     0.010 A 
ATOM     33  C   UNL A   1      42.424  26.443  28.146  1.00  0.00    -0.014 A 
BRANCH  33  34
ATOM     34  C   UNL A   1      41.899  27.305  29.232  1.00  0.00     0.031 A 
ATOM     35  C   UNL A   1      42.626  27.352  30.548  1.00  0.00     0.074 A 
ATOM     36  C   UNL A   1      40.808  28.067  29.038  1.00  0.00     0.049 A 
ATOM     37  N   UNL A   1      42.340  28.035  31.627  1.00  0.00    -0.248 NA
ATOM     38  C   UNL A   1      43.835  26.522  30.660  1.00  0.00     0.031 C 
ATOM     39  C   UNL A   1      40.039  28.146  27.799  1.00  0.00     0.029 A 
ATOM     40  N   UNL A   1      40.160  28.921  29.895  1.00  0.00    -0.354 N 
ATOM     41  C   UNL A   1      43.331  27.716  32.547  1.00  0.00     0.074 A 
ATOM     42  C   UNL A   1      44.212  26.761  31.908  1.00  0.00     0.031 C 
ATOM     43  C   UNL A   1      39.015  29.000  27.976  1.00  0.00     0.029 A 
ATOM     44  C   UNL A   1      39.043  29.504  29.348  1.00  0.00     0.049 A 
ATOM     45  H   UNL A   1      40.466  29.100  30.814  1.00  0.00     0.167 HD
ATOM     46  C   UNL A   1      43.498  28.178  33.808  1.00  0.00     0.031 A 
ATOM     47  C   UNL A   1      38.137  30.334  29.898  1.00  0.00     0.031 A 
ATOM     48  C   UNL A   1      42.620  29.114  34.455  1.00  0.00     0.049 A 
ATOM     49  C   UNL A   1      38.298  30.769  31.328  1.00  0.00     0.074 A 
ATOM     50  C   UNL A   1      42.718  29.654  35.726  1.00  0.00     0.029 A 
ATOM     51  N   UNL A   1      41.473  29.642  33.884  1.00  0.00    -0.354 N 
ATOM     52  N   UNL A   1      39.257  30.483  32.176  1.00  0.00    -0.248 NA
ATOM     53  C   UNL A   1      37.252  31.645  31.876  1.00  0.00     0.031 C 
ATOM     54  C   UNL A   1      41.604  30.472  35.941  1.00  0.00     0.029 A 
ATOM     55  C   UNL A   1      40.838  30.478  34.785  1.00  0.00     0.049 A 
ATOM     56  H   UNL A   1      41.157  29.450  32.971  1.00  0.00     0.167 HD
ATOM     57  C   UNL A   1      38.941  31.160  33.348  1.00  0.00     0.074 A 
ATOM     58  C   UNL A   1      37.709  31.882  33.098  1.00  0.00     0.031 C 
ATOM     59  C   UNL A   1      39.613  31.185  34.524  1.00  0.00     0.031 A 
BRANCH  46  60
ATOM     60  C   UNL A   1      44.667  27.646  34.586  1.00  0.00    -0.014 A 
ATOM     61  C   UNL A   1      45.905  28.307  34.578  1.00  0.00     0.009 A 
ATOM     62  C   UNL A   1      44.518  26.486  35.360  1.00  0.00     0.009 A 
ATOM     63  C   UNL A   1      46.981  27.797  35.309  1.00  0.00     0.001 A 
ATOM     64  C   UNL A   1      45.590  25.991  36.107  1.00  0.00     0.001 A 
ATOM     65  C   UNL A   1      46.821  26.643  36.075  1.00  0.00     0.000 A 
ENDBRANCH  46  60
BRANCH  47  66
ATOM     66  C   UNL A   1      36.974  30.797  29.098  1.00  0.00    -0.014 A 
ATOM     67  C   UNL A   1      36.886  32.129  28.668  1.00  0.00     0.009 A 
ATOM     68  C   UNL A   1      35.937  29.907  28.777  1.00  0.00     0.009 A 
ATOM     69  C   UNL A   1      35.770  32.566  27.949  1.00  0.00     0.001 A 
ATOM     70  C   UNL A   1      34.836  30.342  28.037  1.00  0.00     0.001 A 
ATOM     71  C   UNL A   1      34.749  31.671  27.632  1.00  0.00     0.000 A 
ENDBRANCH  47  66
BRANCH  59  72
ATOM     72  C   UNL A   1      39.046  32.037  35.624  1.00  0.00    -0.014 A 
ATOM     73  C   UNL A   1      38.198  31.494  36.600  1.00  0.00     0.009 A 
ATOM     74  C   UNL A   1      39.400  33.393  35.706  1.00  0.00     0.009 A 
ATOM     75  C   UNL A   1      37.694  32.299  37.624  1.00  0.00     0.001 A 
ATOM     76  C   UNL A   1      38.915  34.190  36.744  1.00  0.00     0.001 A 
ATOM     77  C   UNL A   1      38.057  33.644  37.697  1.00  0.00     0.000 A 
ENDBRANCH  59  72
ENDBRANCH  33  34
ENDBRANCH  26  28
ENDBRANCH  25  26
ENDBRANCH  24  25
ENDBRANCH  23  24
ENDBRANCH  22  23
ENDBRANCH   1  22
TORSDOF 17
ENDMDL
MODEL 3
REMARK VINA RESULT:      -9.6      8.018     12.663
REMARK SMILES Cn1ccc(S(=O)(=O)N[C@H]2C=C[C@@H](C(=O)OCCOCCOC(=O)c3ccc(-c4c5nc(c(-c6ccccc6)c6ccc([nH]6)c(-c6ccccc6)c6nc(c(-c7ccccc7)c7ccc4[nH]7)C=C6)C=C5)cc3)C2)c1
REMARK SMILES IDX 18 1 17 2 16 3 14 4 15 5 13 6 10 7 11 8 73 9 12 10 9 11 6 13
REMARK SMILES IDX 7 14 8 15 5 16 1 17 2 18 3 19 74 20 4 21 19 22 20 23 21 24
REMARK SMILES IDX 22 25 23 26 24 27 25 28 26 29 72 30 27 31 71 32 28 33 29 34
REMARK SMILES IDX 30 35 65 36 31 37 70 38 64 39 66 40 32 41 69 42 63 43 62 44
REMARK SMILES IDX 33 46 55 47 40 48 54 49 41 50 44 51 53 52 67 53 42 54 43 55
REMARK SMILES IDX 52 57 68 58 45 59 34 60 35 61 39 62 36 63 38 64 37 65 56 66
REMARK SMILES IDX 57 67 61 68 58 69 60 70 59 71 46 72 47 73 51 74 48 75 50 76
REMARK SMILES IDX 49 77
REMARK H PARENT 9 12 66 45 44 56
REMARK Flexibility Score: inf
ROOT
ATOM      1  C   UNL A   1      41.631  21.238  26.135  1.00  0.00     0.202 C 
ENDROOT
BRANCH   1   2
ATOM      2  C   UNL A   1      40.332  21.711  26.791  1.00  0.00     0.261 C 
BRANCH   2   3
ATOM      3  O   UNL A   1      39.207  21.259  26.021  1.00  0.00    -0.463 OA
BRANCH   3   4
ATOM      4  C   UNL A   1      38.279  22.199  25.716  1.00  0.00     0.312 C 
ATOM      5  O   UNL A   1      38.252  23.332  26.184  1.00  0.00    -0.252 OA
BRANCH   4   6
ATOM      6  C   UNL A   1      37.271  21.719  24.678  1.00  0.00     0.123 C 
ATOM      7  C   UNL A   1      34.864  21.870  24.166  1.00  0.00     0.093 C 
ATOM      8  C   UNL A   1      35.647  22.955  23.515  1.00  0.00    -0.011 C 
ATOM      9  C   UNL A   1      35.880  21.275  25.161  1.00  0.00     0.043 C 
ATOM     10  C   UNL A   1      36.955  22.854  23.759  1.00  0.00    -0.015 C 
BRANCH   7  11
ATOM     11  N   UNL A   1      33.646  22.271  24.873  1.00  0.00    -0.204 NA
ATOM     12  H   UNL A   1      33.940  22.949  25.578  1.00  0.00     0.142 HD
BRANCH  11  13
ATOM     13  S   UNL A   1      32.651  21.178  25.668  1.00  0.00     0.242 S 
ATOM     14  O   UNL A   1      31.291  21.649  25.528  1.00  0.00    -0.207 OA
ATOM     15  O   UNL A   1      33.237  20.950  26.970  1.00  0.00    -0.207 OA
BRANCH  13  16
ATOM     16  C   UNL A   1      32.678  19.640  24.893  1.00  0.00     0.100 A 
ATOM     17  C   UNL A   1      33.270  16.079  24.621  1.00  0.00     0.149 C 
ATOM     18  N   UNL A   1      32.955  17.481  24.464  1.00  0.00    -0.356 N 
ATOM     19  C   UNL A   1      32.682  18.087  23.265  1.00  0.00     0.086 A 
ATOM     20  C   UNL A   1      32.921  18.409  25.471  1.00  0.00     0.106 A 
ATOM     21  C   UNL A   1      32.503  19.433  23.501  1.00  0.00     0.041 A 
ENDBRANCH  13  16
ENDBRANCH  11  13
ENDBRANCH   7  11
ENDBRANCH   4   6
ENDBRANCH   3   4
ENDBRANCH   2   3
ENDBRANCH   1   2
BRANCH   1  22
ATOM     22  O   UNL A   1      42.253  20.114  26.762  1.00  0.00    -0.374 OA
BRANCH  22  23
ATOM     23  C   UNL A   1      42.272  18.883  26.037  1.00  0.00     0.202 C 
BRANCH  23  24
ATOM     24  C   UNL A   1      43.627  18.476  25.446  1.00  0.00     0.261 C 
BRANCH  24  25
ATOM     25  O   UNL A   1      43.918  19.188  24.229  1.00  0.00    -0.460 OA
BRANCH  25  26
ATOM     26  C   UNL A   1      45.135  19.787  24.202  1.00  0.00     0.338 C 
ATOM     27  O   UNL A   1      46.147  19.381  23.656  1.00  0.00    -0.246 OA
BRANCH  26  28
ATOM     28  C   UNL A   1      45.054  21.133  24.800  1.00  0.00     0.060 A 
ATOM     29  C   UNL A   1      44.702  22.192  23.952  1.00  0.00     0.016 A 
ATOM     30  C   UNL A   1      45.399  21.373  26.132  1.00  0.00     0.016 A 
ATOM     31  C   UNL A   1      44.742  23.504  24.422  1.00  0.00     0.010 A 
ATOM     32  C   UNL A   1      45.448  22.692  26.598  1.00  0.00     0.010 A 
ATOM     33  C   UNL A   1      45.153  23.764  25.736  1.00  0.00    -0.014 A 
BRANCH  33  34
ATOM     34  C   UNL A   1      45.407  25.162  26.155  1.00  0.00     0.031 A 
ATOM     35  C   UNL A   1      44.265  25.992  26.675  1.00  0.00     0.074 A 
ATOM     36  C   UNL A   1      46.648  25.679  26.110  1.00  0.00     0.049 A 
ATOM     37  N   UNL A   1      44.266  27.232  27.094  1.00  0.00    -0.248 NA
ATOM     38  C   UNL A   1      42.950  25.336  26.733  1.00  0.00     0.031 C 
ATOM     39  C   UNL A   1      47.846  24.969  25.670  1.00  0.00     0.029 A 
ATOM     40  N   UNL A   1      47.099  26.932  26.442  1.00  0.00    -0.354 N 
ATOM     41  C   UNL A   1      42.955  27.505  27.462  1.00  0.00     0.074 A 
ATOM     42  C   UNL A   1      42.181  26.311  27.196  1.00  0.00     0.031 C 
ATOM     43  C   UNL A   1      48.900  25.801  25.752  1.00  0.00     0.029 A 
ATOM     44  C   UNL A   1      48.444  27.107  26.224  1.00  0.00     0.049 A 
ATOM     45  H   UNL A   1      46.515  27.639  26.803  1.00  0.00     0.167 HD
ATOM     46  C   UNL A   1      42.439  28.645  27.980  1.00  0.00     0.031 A 
ATOM     47  C   UNL A   1      49.214  28.201  26.372  1.00  0.00     0.031 A 
ATOM     48  C   UNL A   1      43.197  29.840  28.232  1.00  0.00     0.049 A 
ATOM     49  C   UNL A   1      48.601  29.481  26.870  1.00  0.00     0.074 A 
ATOM     50  C   UNL A   1      42.764  31.039  28.771  1.00  0.00     0.029 A 
ATOM     51  N   UNL A   1      44.546  29.991  27.951  1.00  0.00    -0.354 N 
ATOM     52  N   UNL A   1      47.367  29.716  27.244  1.00  0.00    -0.248 NA
ATOM     53  C   UNL A   1      49.492  30.646  26.971  1.00  0.00     0.031 C 
ATOM     54  C   UNL A   1      43.841  31.932  28.773  1.00  0.00     0.029 A 
ATOM     55  C   UNL A   1      44.955  31.272  28.279  1.00  0.00     0.049 A 
ATOM     56  H   UNL A   1      45.126  29.290  27.575  1.00  0.00     0.167 HD
ATOM     57  C   UNL A   1      47.338  31.046  27.643  1.00  0.00     0.074 A 
ATOM     58  C   UNL A   1      48.681  31.564  27.479  1.00  0.00     0.031 C 
ATOM     59  C   UNL A   1      46.292  31.773  28.107  1.00  0.00     0.031 A 
BRANCH  46  60
ATOM     60  C   UNL A   1      40.968  28.660  28.278  1.00  0.00    -0.014 A 
ATOM     61  C   UNL A   1      40.041  29.129  27.334  1.00  0.00     0.009 A 
ATOM     62  C   UNL A   1      40.501  28.171  29.507  1.00  0.00     0.009 A 
ATOM     63  C   UNL A   1      38.675  29.134  27.630  1.00  0.00     0.001 A 
ATOM     64  C   UNL A   1      39.135  28.158  29.791  1.00  0.00     0.001 A 
ATOM     65  C   UNL A   1      38.224  28.645  28.855  1.00  0.00     0.000 A 
ENDBRANCH  46  60
BRANCH  47  66
ATOM     66  C   UNL A   1      50.657  28.145  26.021  1.00  0.00    -0.014 A 
ATOM     67  C   UNL A   1      51.624  27.910  27.008  1.00  0.00     0.009 A 
ATOM     68  C   UNL A   1      51.071  28.345  24.695  1.00  0.00     0.009 A 
ATOM     69  C   UNL A   1      52.982  27.897  26.677  1.00  0.00     0.001 A 
ATOM     70  C   UNL A   1      52.426  28.307  24.364  1.00  0.00     0.001 A 
ATOM     71  C   UNL A   1      53.380  28.091  25.355  1.00  0.00     0.000 A 
ENDBRANCH  47  66
BRANCH  59  72
ATOM     72  C   UNL A   1      46.564  33.199  28.494  1.00  0.00    -0.014 A 
ATOM     73  C   UNL A   1      46.400  34.245  27.574  1.00  0.00     0.009 A 
ATOM     74  C   UNL A   1      46.946  33.501  29.810  1.00  0.00     0.009 A 
ATOM     75  C   UNL A   1      46.641  35.566  27.959  1.00  0.00     0.001 A 
ATOM     76  C   UNL A   1      47.163  34.825  30.198  1.00  0.00     0.001 A 
ATOM     77  C   UNL A   1      47.017  35.854  29.270  1.00  0.00     0.000 A 
ENDBRANCH  59  72
ENDBRANCH  33  34
ENDBRANCH  26  28
ENDBRANCH  25  26
ENDBRANCH  24  25
ENDBRANCH  23  24
ENDBRANCH  22  23
ENDBRANCH   1  22
TORSDOF 17
ENDMDL
