MODEL 1
REMARK VINA RESULT:      -8.2      0.000      0.000
REMARK SMILES CC[C@@H](C)CNC(=O)N1CCO[C@@H](CC(=O)OCCOCCOC(=O)c2ccc(-c3c4nc(c(-c5ccccc5)c5ccc([nH]5)c(-c5ccccc5)c5nc(c(-c6ccccc6)c6ccc3[nH]6)C=C5)C=C4)cc2)C1
REMARK SMILES IDX 18 1 17 2 15 3 16 4 14 5 13 6 9 7 10 8 74 9 11 10 12 11 7 12
REMARK SMILES IDX 6 13 8 15 5 16 3 17 4 18 2 19 1 20 19 21 20 22 21 23 22 24
REMARK SMILES IDX 23 25 24 26 25 27 26 28 27 29 73 30 28 31 72 32 29 33 30 34
REMARK SMILES IDX 31 35 66 36 32 37 71 38 65 39 67 40 33 41 70 42 64 43 63 44
REMARK SMILES IDX 34 46 56 47 41 48 55 49 42 50 45 51 54 52 68 53 43 54 44 55
REMARK SMILES IDX 53 57 69 58 46 59 35 60 36 61 40 62 37 63 39 64 38 65 57 66
REMARK SMILES IDX 58 67 62 68 59 69 61 70 60 71 47 72 48 73 52 74 49 75 51 76
REMARK SMILES IDX 50 77
REMARK H PARENT 6 14 67 45 45 56
REMARK Flexibility Score: inf
ROOT
ATOM      1  C   UNL A   1      33.303  35.776  31.091  1.00  0.00     0.261 C 
ENDROOT
BRANCH   1   2
ATOM      2  O   UNL A   1      33.520  34.773  32.104  1.00  0.00    -0.463 OA
BRANCH   2   3
ATOM      3  C   UNL A   1      34.555  34.997  32.955  1.00  0.00     0.308 C 
ATOM      4  O   UNL A   1      34.681  35.990  33.659  1.00  0.00    -0.252 OA
BRANCH   3   5
ATOM      5  C   UNL A   1      35.593  33.911  32.884  1.00  0.00     0.156 C 
BRANCH   5   6
ATOM      6  C   UNL A   1      36.594  33.824  34.038  1.00  0.00     0.149 C 
ATOM      7  N   UNL A   1      38.319  32.447  35.166  1.00  0.00    -0.320 N 
ATOM      8  C   UNL A   1      39.345  33.376  34.714  1.00  0.00     0.150 C 
ATOM      9  C   UNL A   1      37.159  32.399  34.268  1.00  0.00     0.154 C 
ATOM     10  C   UNL A   1      38.728  34.765  34.632  1.00  0.00     0.182 C 
ATOM     11  O   UNL A   1      37.650  34.758  33.683  1.00  0.00    -0.374 OA
BRANCH   7  12
ATOM     12  C   UNL A   1      38.535  31.437  36.053  1.00  0.00     0.317 C 
ATOM     13  N   UNL A   1      39.011  30.242  35.628  1.00  0.00    -0.338 N 
ATOM     14  H   UNL A   1      38.958  29.528  36.302  1.00  0.00     0.165 HD
ATOM     15  O   UNL A   1      38.354  31.587  37.261  1.00  0.00    -0.249 OA
BRANCH  13  16
ATOM     16  C   UNL A   1      39.587  29.816  34.361  1.00  0.00     0.121 C 
BRANCH  16  17
ATOM     17  C   UNL A   1      41.106  29.556  34.417  1.00  0.00     0.005 C 
ATOM     18  C   UNL A   1      41.422  28.366  33.500  1.00  0.00     0.009 C 
BRANCH  17  19
ATOM     19  C   UNL A   1      41.577  29.306  35.863  1.00  0.00     0.002 C 
ATOM     20  C   UNL A   1      42.431  30.430  36.439  1.00  0.00     0.004 C 
ENDBRANCH  17  19
ENDBRANCH  16  17
ENDBRANCH  13  16
ENDBRANCH   7  12
ENDBRANCH   5   6
ENDBRANCH   3   5
ENDBRANCH   2   3
ENDBRANCH   1   2
BRANCH   1  21
ATOM     21  C   UNL A   1      33.142  35.148  29.705  1.00  0.00     0.202 C 
BRANCH  21  22
ATOM     22  O   UNL A   1      34.288  35.220  28.858  1.00  0.00    -0.374 OA
BRANCH  22  23
ATOM     23  C   UNL A   1      35.341  34.297  29.126  1.00  0.00     0.202 C 
BRANCH  23  24
ATOM     24  C   UNL A   1      34.920  32.828  29.270  1.00  0.00     0.261 C 
BRANCH  24  25
ATOM     25  O   UNL A   1      34.718  32.201  27.992  1.00  0.00    -0.460 OA
BRANCH  25  26
ATOM     26  C   UNL A   1      34.601  30.851  28.018  1.00  0.00     0.338 C 
ATOM     27  O   UNL A   1      33.607  30.188  27.754  1.00  0.00    -0.246 OA
BRANCH  26  28
ATOM     28  C   UNL A   1      35.922  30.242  28.246  1.00  0.00     0.060 A 
ATOM     29  C   UNL A   1      36.164  29.615  29.475  1.00  0.00     0.016 A 
ATOM     30  C   UNL A   1      36.924  30.304  27.281  1.00  0.00     0.016 A 
ATOM     31  C   UNL A   1      37.415  29.055  29.741  1.00  0.00     0.010 A 
ATOM     32  C   UNL A   1      38.171  29.726  27.539  1.00  0.00     0.010 A 
ATOM     33  C   UNL A   1      38.434  29.121  28.779  1.00  0.00    -0.014 A 
BRANCH  33  34
ATOM     34  C   UNL A   1      39.807  28.660  29.101  1.00  0.00     0.031 A 
ATOM     35  C   UNL A   1      40.728  29.573  29.860  1.00  0.00     0.074 A 
ATOM     36  C   UNL A   1      40.236  27.442  28.722  1.00  0.00     0.049 A 
ATOM     37  N   UNL A   1      41.977  29.389  30.211  1.00  0.00    -0.248 NA
ATOM     38  C   UNL A   1      40.169  30.869  30.276  1.00  0.00     0.031 C 
ATOM     39  C   UNL A   1      39.437  26.449  28.007  1.00  0.00     0.029 A 
ATOM     40  N   UNL A   1      41.458  26.840  28.885  1.00  0.00    -0.354 N 
ATOM     41  C   UNL A   1      42.354  30.550  30.875  1.00  0.00     0.074 A 
ATOM     42  C   UNL A   1      41.216  31.442  30.849  1.00  0.00     0.031 C 
ATOM     43  C   UNL A   1      40.188  25.353  27.801  1.00  0.00     0.029 A 
ATOM     44  C   UNL A   1      41.531  25.586  28.330  1.00  0.00     0.049 A 
ATOM     45  H   UNL A   1      42.211  27.266  29.356  1.00  0.00     0.167 HD
ATOM     46  C   UNL A   1      43.539  30.846  31.461  1.00  0.00     0.031 A 
ATOM     47  C   UNL A   1      42.569  24.731  28.239  1.00  0.00     0.031 A 
ATOM     48  C   UNL A   1      44.679  29.968  31.476  1.00  0.00     0.049 A 
ATOM     49  C   UNL A   1      43.906  25.122  28.809  1.00  0.00     0.074 A 
ATOM     50  C   UNL A   1      45.910  30.161  32.079  1.00  0.00     0.029 A 
ATOM     51  N   UNL A   1      44.732  28.736  30.843  1.00  0.00    -0.354 N 
ATOM     52  N   UNL A   1      44.238  26.203  29.471  1.00  0.00    -0.248 NA
ATOM     53  C   UNL A   1      45.012  24.175  28.607  1.00  0.00     0.031 C 
ATOM     54  C   UNL A   1      46.730  29.075  31.753  1.00  0.00     0.029 A 
ATOM     55  C   UNL A   1      45.991  28.179  30.998  1.00  0.00     0.049 A 
ATOM     56  H   UNL A   1      43.986  28.319  30.353  1.00  0.00     0.167 HD
ATOM     57  C   UNL A   1      45.586  26.060  29.779  1.00  0.00     0.074 A 
ATOM     58  C   UNL A   1      46.005  24.780  29.246  1.00  0.00     0.031 C 
ATOM     59  C   UNL A   1      46.403  26.914  30.445  1.00  0.00     0.031 A 
BRANCH  46  60
ATOM     60  C   UNL A   1      43.667  32.202  32.098  1.00  0.00    -0.014 A 
ATOM     61  C   UNL A   1      43.308  32.418  33.439  1.00  0.00     0.009 A 
ATOM     62  C   UNL A   1      44.153  33.280  31.343  1.00  0.00     0.009 A 
ATOM     63  C   UNL A   1      43.390  33.696  33.994  1.00  0.00     0.001 A 
ATOM     64  C   UNL A   1      44.262  34.551  31.910  1.00  0.00     0.001 A 
ATOM     65  C   UNL A   1      43.868  34.761  33.231  1.00  0.00     0.000 A 
ENDBRANCH  46  60
BRANCH  47  66
ATOM     66  C   UNL A   1      42.388  23.421  27.563  1.00  0.00    -0.014 A 
ATOM     67  C   UNL A   1      41.873  22.323  28.267  1.00  0.00     0.009 A 
ATOM     68  C   UNL A   1      42.726  23.261  26.210  1.00  0.00     0.009 A 
ATOM     69  C   UNL A   1      41.709  21.089  27.633  1.00  0.00     0.001 A 
ATOM     70  C   UNL A   1      42.536  22.034  25.571  1.00  0.00     0.001 A 
ATOM     71  C   UNL A   1      42.033  20.948  26.285  1.00  0.00     0.000 A 
ENDBRANCH  47  66
BRANCH  59  72
ATOM     72  C   UNL A   1      47.833  26.492  30.638  1.00  0.00    -0.014 A 
ATOM     73  C   UNL A   1      48.229  25.774  31.778  1.00  0.00     0.009 A 
ATOM     74  C   UNL A   1      48.785  26.769  29.645  1.00  0.00     0.009 A 
ATOM     75  C   UNL A   1      49.555  25.367  31.931  1.00  0.00     0.001 A 
ATOM     76  C   UNL A   1      50.104  26.337  29.787  1.00  0.00     0.001 A 
ATOM     77  C   UNL A   1      50.490  25.642  30.933  1.00  0.00     0.000 A 
ENDBRANCH  59  72
ENDBRANCH  33  34
ENDBRANCH  26  28
ENDBRANCH  25  26
ENDBRANCH  24  25
ENDBRANCH  23  24
ENDBRANCH  22  23
ENDBRANCH  21  22
ENDBRANCH   1  21
TORSDOF 19
ENDMDL
MODEL 2
REMARK VINA RESULT:      -7.9      4.725     10.252
REMARK SMILES CC[C@@H](C)CNC(=O)N1CCO[C@@H](CC(=O)OCCOCCOC(=O)c2ccc(-c3c4nc(c(-c5ccccc5)c5ccc([nH]5)c(-c5ccccc5)c5nc(c(-c6ccccc6)c6ccc3[nH]6)C=C5)C=C4)cc2)C1
REMARK SMILES IDX 18 1 17 2 15 3 16 4 14 5 13 6 9 7 10 8 74 9 11 10 12 11 7 12
REMARK SMILES IDX 6 13 8 15 5 16 3 17 4 18 2 19 1 20 19 21 20 22 21 23 22 24
REMARK SMILES IDX 23 25 24 26 25 27 26 28 27 29 73 30 28 31 72 32 29 33 30 34
REMARK SMILES IDX 31 35 66 36 32 37 71 38 65 39 67 40 33 41 70 42 64 43 63 44
REMARK SMILES IDX 34 46 56 47 41 48 55 49 42 50 45 51 54 52 68 53 43 54 44 55
REMARK SMILES IDX 53 57 69 58 46 59 35 60 36 61 40 62 37 63 39 64 38 65 57 66
REMARK SMILES IDX 58 67 62 68 59 69 61 70 60 71 47 72 48 73 52 74 49 75 51 76
REMARK SMILES IDX 50 77
REMARK H PARENT 6 14 67 45 45 56
REMARK Flexibility Score: inf
ROOT
ATOM      1  C   UNL A   1      34.816  22.871  24.474  1.00  0.00     0.261 C 
ENDROOT
BRANCH   1   2
ATOM      2  O   UNL A   1      33.452  22.404  24.507  1.00  0.00    -0.463 OA
BRANCH   2   3
ATOM      3  C   UNL A   1      32.731  22.740  25.607  1.00  0.00     0.308 C 
ATOM      4  O   UNL A   1      31.847  22.054  26.101  1.00  0.00    -0.252 OA
BRANCH   3   5
ATOM      5  C   UNL A   1      33.087  24.108  26.122  1.00  0.00     0.156 C 
BRANCH   5   6
ATOM      6  C   UNL A   1      32.094  25.238  25.846  1.00  0.00     0.149 C 
ATOM      7  N   UNL A   1      30.806  26.471  24.123  1.00  0.00    -0.320 N 
ATOM      8  C   UNL A   1      29.574  25.891  24.640  1.00  0.00     0.150 C 
ATOM      9  C   UNL A   1      31.976  25.613  24.346  1.00  0.00     0.154 C 
ATOM     10  C   UNL A   1      29.744  25.668  26.137  1.00  0.00     0.182 C 
ATOM     11  O   UNL A   1      30.826  24.754  26.368  1.00  0.00    -0.374 OA
BRANCH   7  12
ATOM     12  C   UNL A   1      30.855  27.460  23.189  1.00  0.00     0.317 C 
ATOM     13  N   UNL A   1      31.180  28.726  23.547  1.00  0.00    -0.338 N 
ATOM     14  H   UNL A   1      31.009  29.395  22.847  1.00  0.00     0.165 HD
ATOM     15  O   UNL A   1      30.655  27.233  21.997  1.00  0.00    -0.249 OA
BRANCH  13  16
ATOM     16  C   UNL A   1      31.735  29.282  24.772  1.00  0.00     0.121 C 
BRANCH  16  17
ATOM     17  C   UNL A   1      33.276  29.331  24.798  1.00  0.00     0.005 C 
ATOM     18  C   UNL A   1      33.791  28.898  23.417  1.00  0.00     0.009 C 
BRANCH  17  19
ATOM     19  C   UNL A   1      33.845  28.445  25.924  1.00  0.00     0.002 C 
ATOM     20  C   UNL A   1      33.086  28.557  27.241  1.00  0.00     0.004 C 
ENDBRANCH  17  19
ENDBRANCH  16  17
ENDBRANCH  13  16
ENDBRANCH   7  12
ENDBRANCH   5   6
ENDBRANCH   3   5
ENDBRANCH   2   3
ENDBRANCH   1   2
BRANCH   1  21
ATOM     21  C   UNL A   1      35.808  21.707  24.432  1.00  0.00     0.202 C 
BRANCH  21  22
ATOM     22  O   UNL A   1      36.881  21.775  25.370  1.00  0.00    -0.374 OA
BRANCH  22  23
ATOM     23  C   UNL A   1      37.985  20.902  25.144  1.00  0.00     0.202 C 
BRANCH  23  24
ATOM     24  C   UNL A   1      39.217  21.140  26.027  1.00  0.00     0.261 C 
BRANCH  24  25
ATOM     25  O   UNL A   1      39.950  19.927  26.264  1.00  0.00    -0.460 OA
BRANCH  25  26
ATOM     26  C   UNL A   1      41.284  19.999  26.039  1.00  0.00     0.338 C 
ATOM     27  O   UNL A   1      41.969  19.225  25.384  1.00  0.00    -0.246 OA
BRANCH  26  28
ATOM     28  C   UNL A   1      41.808  21.273  26.561  1.00  0.00     0.060 A 
ATOM     29  C   UNL A   1      41.800  21.480  27.946  1.00  0.00     0.016 A 
ATOM     30  C   UNL A   1      42.277  22.267  25.706  1.00  0.00     0.016 A 
ATOM     31  C   UNL A   1      42.257  22.688  28.476  1.00  0.00     0.010 A 
ATOM     32  C   UNL A   1      42.753  23.469  26.237  1.00  0.00     0.010 A 
ATOM     33  C   UNL A   1      42.723  23.699  27.622  1.00  0.00    -0.014 A 
BRANCH  33  34
ATOM     34  C   UNL A   1      43.076  25.036  28.158  1.00  0.00     0.031 A 
ATOM     35  C   UNL A   1      41.988  26.052  28.372  1.00  0.00     0.074 A 
ATOM     36  C   UNL A   1      44.350  25.351  28.453  1.00  0.00     0.049 A 
ATOM     37  N   UNL A   1      42.076  27.290  28.791  1.00  0.00    -0.248 NA
ATOM     38  C   UNL A   1      40.616  25.614  28.068  1.00  0.00     0.031 C 
ATOM     39  C   UNL A   1      45.496  24.453  28.320  1.00  0.00     0.029 A 
ATOM     40  N   UNL A   1      44.891  26.523  28.920  1.00  0.00    -0.354 N 
ATOM     41  C   UNL A   1      40.777  27.781  28.786  1.00  0.00     0.074 A 
ATOM     42  C   UNL A   1      39.925  26.721  28.293  1.00  0.00     0.031 C 
ATOM     43  C   UNL A   1      46.606  25.104  28.709  1.00  0.00     0.029 A 
ATOM     44  C   UNL A   1      46.255  26.475  29.074  1.00  0.00     0.049 A 
ATOM     45  H   UNL A   1      44.353  27.321  29.126  1.00  0.00     0.167 HD
ATOM     46  C   UNL A   1      40.330  29.002  29.166  1.00  0.00     0.031 A 
ATOM     47  C   UNL A   1      47.125  27.434  29.445  1.00  0.00     0.031 A 
ATOM     48  C   UNL A   1      41.175  30.064  29.643  1.00  0.00     0.049 A 
ATOM     49  C   UNL A   1      46.617  28.814  29.766  1.00  0.00     0.074 A 
ATOM     50  C   UNL A   1      40.812  31.323  30.090  1.00  0.00     0.029 A 
ATOM     51  N   UNL A   1      42.558  29.996  29.717  1.00  0.00    -0.354 N 
ATOM     52  N   UNL A   1      45.383  29.255  29.800  1.00  0.00    -0.248 NA
ATOM     53  C   UNL A   1      47.629  29.832  30.090  1.00  0.00     0.031 C 
ATOM     54  C   UNL A   1      41.980  32.039  30.371  1.00  0.00     0.029 A 
ATOM     55  C   UNL A   1      43.067  31.207  30.157  1.00  0.00     0.049 A 
ATOM     56  H   UNL A   1      43.098  29.205  29.491  1.00  0.00     0.167 HD
ATOM     57  C   UNL A   1      45.467  30.594  30.164  1.00  0.00     0.074 A 
ATOM     58  C   UNL A   1      46.872  30.889  30.356  1.00  0.00     0.031 C 
ATOM     59  C   UNL A   1      44.468  31.496  30.324  1.00  0.00     0.031 A 
BRANCH  46  60
ATOM     60  C   UNL A   1      38.854  29.260  29.035  1.00  0.00    -0.014 A 
ATOM     61  C   UNL A   1      38.288  29.679  27.820  1.00  0.00     0.009 A 
ATOM     62  C   UNL A   1      38.017  29.081  30.148  1.00  0.00     0.009 A 
ATOM     63  C   UNL A   1      36.923  29.958  27.736  1.00  0.00     0.001 A 
ATOM     64  C   UNL A   1      36.647  29.333  30.052  1.00  0.00     0.001 A 
ATOM     65  C   UNL A   1      36.104  29.784  28.851  1.00  0.00     0.000 A 
ENDBRANCH  46  60
BRANCH  47  66
ATOM     66  C   UNL A   1      48.577  27.126  29.519  1.00  0.00    -0.014 A 
ATOM     67  C   UNL A   1      49.389  27.257  28.383  1.00  0.00     0.009 A 
ATOM     68  C   UNL A   1      49.158  26.704  30.725  1.00  0.00     0.009 A 
ATOM     69  C   UNL A   1      50.753  26.962  28.452  1.00  0.00     0.001 A 
ATOM     70  C   UNL A   1      50.526  26.435  30.797  1.00  0.00     0.001 A 
ATOM     71  C   UNL A   1      51.321  26.559  29.659  1.00  0.00     0.000 A 
ENDBRANCH  47  66
BRANCH  59  72
ATOM     72  C   UNL A   1      44.857  32.891  30.730  1.00  0.00    -0.014 A 
ATOM     73  C   UNL A   1      45.177  33.863  29.769  1.00  0.00     0.009 A 
ATOM     74  C   UNL A   1      44.853  33.252  32.087  1.00  0.00     0.009 A 
ATOM     75  C   UNL A   1      45.511  35.160  30.161  1.00  0.00     0.001 A 
ATOM     76  C   UNL A   1      45.160  34.557  32.474  1.00  0.00     0.001 A 
ATOM     77  C   UNL A   1      45.496  35.509  31.512  1.00  0.00     0.000 A 
ENDBRANCH  59  72
ENDBRANCH  33  34
ENDBRANCH  26  28
ENDBRANCH  25  26
ENDBRANCH  24  25
ENDBRANCH  23  24
ENDBRANCH  22  23
ENDBRANCH  21  22
ENDBRANCH   1  21
TORSDOF 19
ENDMDL
MODEL 3
REMARK VINA RESULT:      -7.9      4.798     10.695
REMARK SMILES CC[C@@H](C)CNC(=O)N1CCO[C@@H](CC(=O)OCCOCCOC(=O)c2ccc(-c3c4nc(c(-c5ccccc5)c5ccc([nH]5)c(-c5ccccc5)c5nc(c(-c6ccccc6)c6ccc3[nH]6)C=C5)C=C4)cc2)C1
REMARK SMILES IDX 18 1 17 2 15 3 16 4 14 5 13 6 9 7 10 8 74 9 11 10 12 11 7 12
REMARK SMILES IDX 6 13 8 15 5 16 3 17 4 18 2 19 1 20 19 21 20 22 21 23 22 24
REMARK SMILES IDX 23 25 24 26 25 27 26 28 27 29 73 30 28 31 72 32 29 33 30 34
REMARK SMILES IDX 31 35 66 36 32 37 71 38 65 39 67 40 33 41 70 42 64 43 63 44
REMARK SMILES IDX 34 46 56 47 41 48 55 49 42 50 45 51 54 52 68 53 43 54 44 55
REMARK SMILES IDX 53 57 69 58 46 59 35 60 36 61 40 62 37 63 39 64 38 65 57 66
REMARK SMILES IDX 58 67 62 68 59 69 61 70 60 71 47 72 48 73 52 74 49 75 51 76
REMARK SMILES IDX 50 77
REMARK H PARENT 6 14 67 45 45 56
REMARK Flexibility Score: inf
ROOT
ATOM      1  C   UNL A   1      34.588  21.854  24.995  1.00  0.00     0.261 C 
ENDROOT
BRANCH   1   2
ATOM      2  O   UNL A   1      33.475  21.712  25.901  1.00  0.00    -0.463 OA
BRANCH   2   3
ATOM      3  C   UNL A   1      33.311  22.710  26.807  1.00  0.00     0.308 C 
ATOM      4  O   UNL A   1      32.773  22.584  27.899  1.00  0.00    -0.252 OA
BRANCH   3   5
ATOM      5  C   UNL A   1      33.799  24.034  26.287  1.00  0.00     0.156 C 
BRANCH   5   6
ATOM      6  C   UNL A   1      32.853  24.818  25.374  1.00  0.00     0.149 C 
ATOM      7  N   UNL A   1      32.093  25.211  23.048  1.00  0.00    -0.320 N 
ATOM      8  C   UNL A   1      30.818  24.585  23.367  1.00  0.00     0.150 C 
ATOM      9  C   UNL A   1      33.198  24.699  23.867  1.00  0.00     0.154 C 
ATOM     10  C   UNL A   1      30.508  24.855  24.833  1.00  0.00     0.182 C 
ATOM     11  O   UNL A   1      31.533  24.277  25.656  1.00  0.00    -0.374 OA
BRANCH   7  12
ATOM     12  C   UNL A   1      32.356  25.867  21.884  1.00  0.00     0.317 C 
ATOM     13  N   UNL A   1      31.664  26.985  21.557  1.00  0.00    -0.338 N 
ATOM     14  H   UNL A   1      31.792  27.276  20.626  1.00  0.00     0.165 HD
ATOM     15  O   UNL A   1      33.249  25.500  21.122  1.00  0.00    -0.249 OA
BRANCH  13  16
ATOM     16  C   UNL A   1      30.767  27.837  22.323  1.00  0.00     0.121 C 
BRANCH  16  17
ATOM     17  C   UNL A   1      31.451  29.072  22.943  1.00  0.00     0.005 C 
ATOM     18  C   UNL A   1      32.971  28.883  22.831  1.00  0.00     0.009 C 
BRANCH  17  19
ATOM     19  C   UNL A   1      31.007  29.283  24.404  1.00  0.00     0.002 C 
ATOM     20  C   UNL A   1      32.154  29.586  25.361  1.00  0.00     0.004 C 
ENDBRANCH  17  19
ENDBRANCH  16  17
ENDBRANCH  13  16
ENDBRANCH   7  12
ENDBRANCH   5   6
ENDBRANCH   3   5
ENDBRANCH   2   3
ENDBRANCH   1   2
BRANCH   1  21
ATOM     21  C   UNL A   1      35.433  20.579  24.939  1.00  0.00     0.202 C 
BRANCH  21  22
ATOM     22  O   UNL A   1      36.694  20.646  25.604  1.00  0.00    -0.374 OA
BRANCH  22  23
ATOM     23  C   UNL A   1      37.838  20.266  24.843  1.00  0.00     0.202 C 
BRANCH  23  24
ATOM     24  C   UNL A   1      39.196  20.677  25.429  1.00  0.00     0.261 C 
BRANCH  24  25
ATOM     25  O   UNL A   1      39.868  19.570  26.053  1.00  0.00    -0.460 OA
BRANCH  25  26
ATOM     26  C   UNL A   1      41.221  19.640  26.062  1.00  0.00     0.338 C 
ATOM     27  O   UNL A   1      42.008  18.834  25.584  1.00  0.00    -0.246 OA
BRANCH  26  28
ATOM     28  C   UNL A   1      41.648  20.947  26.590  1.00  0.00     0.060 A 
ATOM     29  C   UNL A   1      41.377  21.245  27.931  1.00  0.00     0.016 A 
ATOM     30  C   UNL A   1      42.283  21.883  25.777  1.00  0.00     0.016 A 
ATOM     31  C   UNL A   1      41.737  22.487  28.458  1.00  0.00     0.010 A 
ATOM     32  C   UNL A   1      42.662  23.118  26.310  1.00  0.00     0.010 A 
ATOM     33  C   UNL A   1      42.369  23.440  27.646  1.00  0.00    -0.014 A 
BRANCH  33  34
ATOM     34  C   UNL A   1      42.626  24.811  28.151  1.00  0.00     0.031 A 
ATOM     35  C   UNL A   1      44.019  25.190  28.568  1.00  0.00     0.074 A 
ATOM     36  C   UNL A   1      41.632  25.714  28.240  1.00  0.00     0.049 A 
ATOM     37  N   UNL A   1      44.458  26.316  29.074  1.00  0.00    -0.248 NA
ATOM     38  C   UNL A   1      45.056  24.160  28.398  1.00  0.00     0.031 C 
ATOM     39  C   UNL A   1      40.244  25.486  27.843  1.00  0.00     0.029 A 
ATOM     40  N   UNL A   1      41.645  27.006  28.703  1.00  0.00    -0.354 N 
ATOM     41  C   UNL A   1      45.816  26.124  29.294  1.00  0.00     0.074 A 
ATOM     42  C   UNL A   1      46.122  24.766  28.899  1.00  0.00     0.031 C 
ATOM     43  C   UNL A   1      39.538  26.607  28.069  1.00  0.00     0.029 A 
ATOM     44  C   UNL A   1      40.414  27.614  28.668  1.00  0.00     0.049 A 
ATOM     45  H   UNL A   1      42.459  27.454  29.028  1.00  0.00     0.167 HD
ATOM     46  C   UNL A   1      46.730  27.001  29.774  1.00  0.00     0.031 A 
ATOM     47  C   UNL A   1      40.031  28.835  29.089  1.00  0.00     0.031 A 
ATOM     48  C   UNL A   1      46.428  28.347  30.182  1.00  0.00     0.049 A 
ATOM     49  C   UNL A   1      41.044  29.756  29.713  1.00  0.00     0.074 A 
ATOM     50  C   UNL A   1      47.293  29.324  30.644  1.00  0.00     0.029 A 
ATOM     51  N   UNL A   1      45.157  28.899  30.195  1.00  0.00    -0.354 N 
ATOM     52  N   UNL A   1      42.333  29.581  29.876  1.00  0.00    -0.248 NA
ATOM     53  C   UNL A   1      40.543  31.043  30.220  1.00  0.00     0.031 C 
ATOM     54  C   UNL A   1      46.534  30.445  30.999  1.00  0.00     0.029 A 
ATOM     55  C   UNL A   1      45.206  30.187  30.702  1.00  0.00     0.049 A 
ATOM     56  H   UNL A   1      44.340  28.443  29.890  1.00  0.00     0.167 HD
ATOM     57  C   UNL A   1      42.800  30.737  30.489  1.00  0.00     0.074 A 
ATOM     58  C   UNL A   1      41.659  31.615  30.654  1.00  0.00     0.031 C 
ATOM     59  C   UNL A   1      44.061  31.043  30.881  1.00  0.00     0.031 A 
BRANCH  46  60
ATOM     60  C   UNL A   1      48.142  26.503  29.921  1.00  0.00    -0.014 A 
ATOM     61  C   UNL A   1      49.077  26.634  28.881  1.00  0.00     0.009 A 
ATOM     62  C   UNL A   1      48.541  25.894  31.121  1.00  0.00     0.009 A 
ATOM     63  C   UNL A   1      50.368  26.122  29.024  1.00  0.00     0.001 A 
ATOM     64  C   UNL A   1      49.842  25.409  31.271  1.00  0.00     0.001 A 
ATOM     65  C   UNL A   1      50.750  25.511  30.218  1.00  0.00     0.000 A 
ENDBRANCH  46  60
BRANCH  47  66
ATOM     66  C   UNL A   1      38.612  29.253  28.950  1.00  0.00    -0.014 A 
ATOM     67  C   UNL A   1      37.704  29.045  29.998  1.00  0.00     0.009 A 
ATOM     68  C   UNL A   1      38.160  29.865  27.771  1.00  0.00     0.009 A 
ATOM     69  C   UNL A   1      36.369  29.434  29.865  1.00  0.00     0.001 A 
ATOM     70  C   UNL A   1      36.831  30.277  27.650  1.00  0.00     0.001 A 
ATOM     71  C   UNL A   1      35.936  30.056  28.695  1.00  0.00     0.000 A 
ENDBRANCH  47  66
BRANCH  59  72
ATOM     72  C   UNL A   1      44.278  32.385  31.523  1.00  0.00    -0.014 A 
ATOM     73  C   UNL A   1      44.713  33.487  30.770  1.00  0.00     0.009 A 
ATOM     74  C   UNL A   1      43.994  32.563  32.886  1.00  0.00     0.009 A 
ATOM     75  C   UNL A   1      44.885  34.733  31.375  1.00  0.00     0.001 A 
ATOM     76  C   UNL A   1      44.140  33.817  33.482  1.00  0.00     0.001 A 
ATOM     77  C   UNL A   1      44.593  34.899  32.729  1.00  0.00     0.000 A 
ENDBRANCH  59  72
ENDBRANCH  33  34
ENDBRANCH  26  28
ENDBRANCH  25  26
ENDBRANCH  24  25
ENDBRANCH  23  24
ENDBRANCH  22  23
ENDBRANCH  21  22
ENDBRANCH   1  21
TORSDOF 19
ENDMDL
