MODEL 1
REMARK VINA RESULT:     -11.1      0.000      0.000
REMARK SMILES C=C(C)COc1ccc2nc(C)n(-c3cccc(C(=O)OCCOCCOC(=O)c4ccc(-c5c6nc(c(-c7ccccc7)c7ccc([nH]7)c(-c7ccccc7)c7nc(c(-c8ccccc8)c8ccc5[nH]8)C=C7)C=C6)cc4)c3)c(=O)c2c1
REMARK SMILES IDX 23 1 22 2 21 3 19 4 20 5 18 6 14 7 15 8 78 9 16 10 17 11
REMARK SMILES IDX 13 12 6 13 7 14 82 15 8 16 81 17 9 18 79 19 10 20 80 21
REMARK SMILES IDX 11 22 12 23 5 24 4 25 2 26 1 27 3 28 24 29 25 30 26 31 27 32
REMARK SMILES IDX 28 33 29 34 30 35 31 36 77 37 32 38 76 39 33 40 34 41 35 42
REMARK SMILES IDX 70 43 36 44 75 45 69 46 71 47 37 48 74 49 68 50 67 51 38 53
REMARK SMILES IDX 60 54 45 55 59 56 46 57 49 58 58 59 72 60 47 61 48 62 57 64
REMARK SMILES IDX 73 65 50 66 39 67 40 68 44 69 41 70 43 71 42 72 61 73 62 74
REMARK SMILES IDX 66 75 63 76 65 77 64 78 51 79 52 80 56 81 53 82 55 83 54 84
REMARK H PARENT 71 52 49 63
REMARK Flexibility Score: inf
ROOT
ATOM      1  C   UNL A   1      35.003  34.015  29.055  1.00  0.00     0.202 C 
ENDROOT
BRANCH   1   2
ATOM      2  C   UNL A   1      34.568  32.545  29.058  1.00  0.00     0.261 C 
BRANCH   2   3
ATOM      3  O   UNL A   1      34.507  32.006  27.727  1.00  0.00    -0.460 OA
BRANCH   3   4
ATOM      4  C   UNL A   1      34.680  30.662  27.643  1.00  0.00     0.338 C 
ATOM      5  O   UNL A   1      35.455  29.984  28.296  1.00  0.00    -0.246 OA
BRANCH   4   6
ATOM      6  C   UNL A   1      33.633  30.073  26.773  1.00  0.00     0.062 A 
ATOM      7  C   UNL A   1      32.817  28.394  25.218  1.00  0.00     0.051 A 
ATOM      8  C   UNL A   1      31.630  29.129  25.075  1.00  0.00     0.027 A 
ATOM      9  C   UNL A   1      33.815  28.869  26.084  1.00  0.00     0.042 A 
ATOM     10  C   UNL A   1      31.452  30.333  25.758  1.00  0.00     0.003 A 
ATOM     11  C   UNL A   1      32.453  30.805  26.602  1.00  0.00     0.016 A 
BRANCH   7  12
ATOM     12  N   UNL A   1      33.006  27.167  24.506  1.00  0.00    -0.264 N 
ATOM     13  C   UNL A   1      32.720  22.325  24.240  1.00  0.00     0.120 A 
ATOM     14  C   UNL A   1      33.135  22.416  22.911  1.00  0.00     0.049 A 
ATOM     15  C   UNL A   1      32.550  23.478  24.999  1.00  0.00     0.062 A 
ATOM     16  C   UNL A   1      33.430  23.658  22.355  1.00  0.00     0.033 A 
ATOM     17  C   UNL A   1      32.848  24.723  24.426  1.00  0.00     0.070 A 
ATOM     18  C   UNL A   1      33.284  24.821  23.109  1.00  0.00     0.078 A 
ATOM     19  C   UNL A   1      32.701  25.976  25.188  1.00  0.00     0.266 A 
ATOM     20  N   UNL A   1      33.587  26.040  22.509  1.00  0.00    -0.234 NA
ATOM     21  O   UNL A   1      32.298  25.902  26.349  1.00  0.00    -0.268 OA
ATOM     22  C   UNL A   1      33.457  27.131  23.195  1.00  0.00     0.113 A 
ATOM     23  C   UNL A   1      33.893  28.392  22.473  1.00  0.00     0.088 C 
BRANCH  13  24
ATOM     24  O   UNL A   1      32.379  21.117  24.786  1.00  0.00    -0.489 OA
BRANCH  24  25
ATOM     25  C   UNL A   1      32.212  20.093  23.789  1.00  0.00     0.260 C 
BRANCH  25  26
ATOM     26  C   UNL A   1      32.782  18.760  24.230  1.00  0.00    -0.043 C 
ATOM     27  C   UNL A   1      32.861  18.399  25.522  1.00  0.00     0.011 C 
ATOM     28  C   UNL A   1      33.201  17.833  23.124  1.00  0.00     0.042 C 
ENDBRANCH  25  26
ENDBRANCH  24  25
ENDBRANCH  13  24
ENDBRANCH   7  12
ENDBRANCH   4   6
ENDBRANCH   3   4
ENDBRANCH   2   3
ENDBRANCH   1   2
BRANCH   1  29
ATOM     29  O   UNL A   1      34.197  34.932  28.317  1.00  0.00    -0.374 OA
BRANCH  29  30
ATOM     30  C   UNL A   1      32.920  35.276  28.854  1.00  0.00     0.202 C 
BRANCH  30  31
ATOM     31  C   UNL A   1      32.886  36.297  29.999  1.00  0.00     0.261 C 
BRANCH  31  32
ATOM     32  O   UNL A   1      32.137  35.832  31.133  1.00  0.00    -0.460 OA
BRANCH  32  33
ATOM     33  C   UNL A   1      32.695  36.101  32.339  1.00  0.00     0.338 C 
ATOM     34  O   UNL A   1      32.256  36.832  33.213  1.00  0.00    -0.246 OA
BRANCH  33  35
ATOM     35  C   UNL A   1      33.862  35.219  32.540  1.00  0.00     0.060 A 
ATOM     36  C   UNL A   1      35.164  35.695  32.380  1.00  0.00     0.016 A 
ATOM     37  C   UNL A   1      33.633  33.889  32.917  1.00  0.00     0.016 A 
ATOM     38  C   UNL A   1      36.239  34.836  32.619  1.00  0.00     0.010 A 
ATOM     39  C   UNL A   1      34.710  33.036  33.167  1.00  0.00     0.010 A 
ATOM     40  C   UNL A   1      36.022  33.508  33.034  1.00  0.00    -0.014 A 
BRANCH  40  41
ATOM     41  C   UNL A   1      37.183  32.671  33.432  1.00  0.00     0.031 A 
ATOM     42  C   UNL A   1      37.741  31.615  32.526  1.00  0.00     0.074 A 
ATOM     43  C   UNL A   1      37.757  32.903  34.628  1.00  0.00     0.049 A 
ATOM     44  N   UNL A   1      38.850  30.931  32.657  1.00  0.00    -0.248 NA
ATOM     45  C   UNL A   1      36.964  31.279  31.323  1.00  0.00     0.031 C 
ATOM     46  C   UNL A   1      37.277  33.876  35.610  1.00  0.00     0.029 A 
ATOM     47  N   UNL A   1      38.881  32.368  35.209  1.00  0.00    -0.354 N 
ATOM     48  C   UNL A   1      38.917  30.102  31.545  1.00  0.00     0.074 A 
ATOM     49  C   UNL A   1      37.710  30.326  30.778  1.00  0.00     0.031 C 
ATOM     50  C   UNL A   1      38.133  33.916  36.641  1.00  0.00     0.029 A 
ATOM     51  C   UNL A   1      39.203  32.948  36.413  1.00  0.00     0.049 A 
ATOM     52  H   UNL A   1      39.405  31.641  34.802  1.00  0.00     0.167 HD
ATOM     53  C   UNL A   1      39.910  29.253  31.188  1.00  0.00     0.031 A 
ATOM     54  C   UNL A   1      40.251  32.746  37.235  1.00  0.00     0.031 A 
ATOM     55  C   UNL A   1      41.097  29.018  31.973  1.00  0.00     0.049 A 
ATOM     56  C   UNL A   1      41.324  31.773  36.831  1.00  0.00     0.074 A 
ATOM     57  C   UNL A   1      42.171  28.197  31.675  1.00  0.00     0.029 A 
ATOM     58  N   UNL A   1      41.362  29.588  33.209  1.00  0.00    -0.354 N 
ATOM     59  N   UNL A   1      41.423  31.065  35.731  1.00  0.00    -0.248 NA
ATOM     60  C   UNL A   1      42.442  31.586  37.766  1.00  0.00     0.031 C 
ATOM     61  C   UNL A   1      43.046  28.209  32.762  1.00  0.00     0.029 A 
ATOM     62  C   UNL A   1      42.568  29.113  33.698  1.00  0.00     0.049 A 
ATOM     63  H   UNL A   1      40.780  30.234  33.670  1.00  0.00     0.167 HD
ATOM     64  C   UNL A   1      42.626  30.378  35.826  1.00  0.00     0.074 A 
ATOM     65  C   UNL A   1      43.230  30.765  37.084  1.00  0.00     0.031 C 
ATOM     66  C   UNL A   1      43.176  29.508  34.945  1.00  0.00     0.031 A 
BRANCH  53  67
ATOM     67  C   UNL A   1      39.782  28.512  29.884  1.00  0.00    -0.014 A 
ATOM     68  C   UNL A   1      39.265  27.206  29.862  1.00  0.00     0.009 A 
ATOM     69  C   UNL A   1      40.294  29.055  28.694  1.00  0.00     0.009 A 
ATOM     70  C   UNL A   1      39.284  26.452  28.687  1.00  0.00     0.001 A 
ATOM     71  C   UNL A   1      40.283  28.310  27.512  1.00  0.00     0.001 A 
ATOM     72  C   UNL A   1      39.791  27.007  27.512  1.00  0.00     0.000 A 
ENDBRANCH  53  67
BRANCH  54  73
ATOM     73  C   UNL A   1      40.357  33.539  38.490  1.00  0.00    -0.014 A 
ATOM     74  C   UNL A   1      41.072  34.748  38.515  1.00  0.00     0.009 A 
ATOM     75  C   UNL A   1      39.792  33.067  39.685  1.00  0.00     0.009 A 
ATOM     76  C   UNL A   1      41.246  35.449  39.709  1.00  0.00     0.001 A 
ATOM     77  C   UNL A   1      39.934  33.790  40.872  1.00  0.00     0.001 A 
ATOM     78  C   UNL A   1      40.672  34.973  40.886  1.00  0.00     0.000 A 
ENDBRANCH  54  73
BRANCH  66  79
ATOM     79  C   UNL A   1      44.525  28.919  35.268  1.00  0.00    -0.014 A 
ATOM     80  C   UNL A   1      45.678  29.463  34.674  1.00  0.00     0.009 A 
ATOM     81  C   UNL A   1      44.653  27.763  36.052  1.00  0.00     0.009 A 
ATOM     82  C   UNL A   1      46.922  28.850  34.835  1.00  0.00     0.001 A 
ATOM     83  C   UNL A   1      45.906  27.173  36.245  1.00  0.00     0.001 A 
ATOM     84  C   UNL A   1      47.035  27.708  35.625  1.00  0.00     0.000 A 
ENDBRANCH  66  79
ENDBRANCH  40  41
ENDBRANCH  33  35
ENDBRANCH  32  33
ENDBRANCH  31  32
ENDBRANCH  30  31
ENDBRANCH  29  30
ENDBRANCH   1  29
TORSDOF 18
ENDMDL
MODEL 2
REMARK VINA RESULT:     -10.8      0.708      5.733
REMARK SMILES C=C(C)COc1ccc2nc(C)n(-c3cccc(C(=O)OCCOCCOC(=O)c4ccc(-c5c6nc(c(-c7ccccc7)c7ccc([nH]7)c(-c7ccccc7)c7nc(c(-c8ccccc8)c8ccc5[nH]8)C=C7)C=C6)cc4)c3)c(=O)c2c1
REMARK SMILES IDX 23 1 22 2 21 3 19 4 20 5 18 6 14 7 15 8 78 9 16 10 17 11
REMARK SMILES IDX 13 12 6 13 7 14 82 15 8 16 81 17 9 18 79 19 10 20 80 21
REMARK SMILES IDX 11 22 12 23 5 24 4 25 2 26 1 27 3 28 24 29 25 30 26 31 27 32
REMARK SMILES IDX 28 33 29 34 30 35 31 36 77 37 32 38 76 39 33 40 34 41 35 42
REMARK SMILES IDX 70 43 36 44 75 45 69 46 71 47 37 48 74 49 68 50 67 51 38 53
REMARK SMILES IDX 60 54 45 55 59 56 46 57 49 58 58 59 72 60 47 61 48 62 57 64
REMARK SMILES IDX 73 65 50 66 39 67 40 68 44 69 41 70 43 71 42 72 61 73 62 74
REMARK SMILES IDX 66 75 63 76 65 77 64 78 51 79 52 80 56 81 53 82 55 83 54 84
REMARK H PARENT 71 52 49 63
REMARK Flexibility Score: inf
ROOT
ATOM      1  C   UNL A   1      35.223  33.829  28.705  1.00  0.00     0.202 C 
ENDROOT
BRANCH   1   2
ATOM      2  C   UNL A   1      34.839  32.355  28.877  1.00  0.00     0.261 C 
BRANCH   2   3
ATOM      3  O   UNL A   1      34.763  31.674  27.614  1.00  0.00    -0.460 OA
BRANCH   3   4
ATOM      4  C   UNL A   1      34.791  30.319  27.689  1.00  0.00     0.338 C 
ATOM      5  O   UNL A   1      35.472  29.644  28.442  1.00  0.00    -0.246 OA
BRANCH   4   6
ATOM      6  C   UNL A   1      33.706  29.747  26.854  1.00  0.00     0.062 A 
ATOM      7  C   UNL A   1      32.803  28.064  25.352  1.00  0.00     0.051 A 
ATOM      8  C   UNL A   1      31.637  28.834  25.219  1.00  0.00     0.027 A 
ATOM      9  C   UNL A   1      33.835  28.524  26.187  1.00  0.00     0.042 A 
ATOM     10  C   UNL A   1      31.512  30.056  25.881  1.00  0.00     0.003 A 
ATOM     11  C   UNL A   1      32.546  30.513  26.694  1.00  0.00     0.016 A 
BRANCH   7  12
ATOM     12  N   UNL A   1      32.937  26.817  24.663  1.00  0.00    -0.264 N 
ATOM     13  C   UNL A   1      32.343  22.001  24.442  1.00  0.00     0.120 A 
ATOM     14  C   UNL A   1      32.812  22.046  23.129  1.00  0.00     0.049 A 
ATOM     15  C   UNL A   1      32.222  23.173  25.181  1.00  0.00     0.062 A 
ATOM     16  C   UNL A   1      33.207  23.259  22.569  1.00  0.00     0.033 A 
ATOM     17  C   UNL A   1      32.622  24.388  24.605  1.00  0.00     0.070 A 
ATOM     18  C   UNL A   1      33.110  24.439  23.304  1.00  0.00     0.078 A 
ATOM     19  C   UNL A   1      32.529  25.658  25.346  1.00  0.00     0.266 A 
ATOM     20  N   UNL A   1      33.515  25.627  22.701  1.00  0.00    -0.234 NA
ATOM     21  O   UNL A   1      32.081  25.627  26.492  1.00  0.00    -0.268 OA
ATOM     22  C   UNL A   1      33.432  26.734  23.369  1.00  0.00     0.113 A 
ATOM     23  C   UNL A   1      33.975  27.953  22.650  1.00  0.00     0.088 C 
BRANCH  13  24
ATOM     24  O   UNL A   1      31.904  20.825  24.989  1.00  0.00    -0.489 OA
BRANCH  24  25
ATOM     25  C   UNL A   1      32.960  19.857  25.125  1.00  0.00     0.260 C 
BRANCH  25  26
ATOM     26  C   UNL A   1      32.588  18.511  24.536  1.00  0.00    -0.043 C 
ATOM     27  C   UNL A   1      32.434  17.409  25.291  1.00  0.00     0.011 C 
ATOM     28  C   UNL A   1      32.341  18.495  23.054  1.00  0.00     0.042 C 
ENDBRANCH  25  26
ENDBRANCH  24  25
ENDBRANCH  13  24
ENDBRANCH   7  12
ENDBRANCH   4   6
ENDBRANCH   3   4
ENDBRANCH   2   3
ENDBRANCH   1   2
BRANCH   1  29
ATOM     29  O   UNL A   1      34.355  34.641  27.914  1.00  0.00    -0.374 OA
BRANCH  29  30
ATOM     30  C   UNL A   1      33.094  35.006  28.472  1.00  0.00     0.202 C 
BRANCH  30  31
ATOM     31  C   UNL A   1      33.102  35.745  29.816  1.00  0.00     0.261 C 
BRANCH  31  32
ATOM     32  O   UNL A   1      32.543  34.961  30.882  1.00  0.00    -0.460 OA
BRANCH  32  33
ATOM     33  C   UNL A   1      32.857  35.383  32.132  1.00  0.00     0.338 C 
ATOM     34  O   UNL A   1      32.163  36.044  32.888  1.00  0.00    -0.246 OA
BRANCH  33  35
ATOM     35  C   UNL A   1      34.132  34.763  32.546  1.00  0.00     0.060 A 
ATOM     36  C   UNL A   1      34.173  33.464  33.053  1.00  0.00     0.016 A 
ATOM     37  C   UNL A   1      35.310  35.506  32.399  1.00  0.00     0.016 A 
ATOM     38  C   UNL A   1      35.406  32.904  33.395  1.00  0.00     0.010 A 
ATOM     39  C   UNL A   1      36.542  34.939  32.731  1.00  0.00     0.010 A 
ATOM     40  C   UNL A   1      36.600  33.627  33.218  1.00  0.00    -0.014 A 
BRANCH  40  41
ATOM     41  C   UNL A   1      37.902  32.948  33.441  1.00  0.00     0.031 A 
ATOM     42  C   UNL A   1      38.710  33.182  34.682  1.00  0.00     0.074 A 
ATOM     43  C   UNL A   1      38.337  32.078  32.509  1.00  0.00     0.049 A 
ATOM     44  N   UNL A   1      39.770  32.534  35.098  1.00  0.00    -0.248 NA
ATOM     45  C   UNL A   1      38.285  34.275  35.568  1.00  0.00     0.031 C 
ATOM     46  C   UNL A   1      37.655  31.801  31.244  1.00  0.00     0.029 A 
ATOM     47  N   UNL A   1      39.429  31.245  32.491  1.00  0.00    -0.354 N 
ATOM     48  C   UNL A   1      40.125  33.124  36.305  1.00  0.00     0.074 A 
ATOM     49  C   UNL A   1      39.203  34.217  36.526  1.00  0.00     0.031 C 
ATOM     50  C   UNL A   1      38.306  30.820  30.602  1.00  0.00     0.029 A 
ATOM     51  C   UNL A   1      39.470  30.422  31.390  1.00  0.00     0.049 A 
ATOM     52  H   UNL A   1      40.114  31.238  33.197  1.00  0.00     0.167 HD
ATOM     53  C   UNL A   1      41.113  32.765  37.158  1.00  0.00     0.031 A 
ATOM     54  C   UNL A   1      40.331  29.440  31.057  1.00  0.00     0.031 A 
ATOM     55  C   UNL A   1      42.042  31.689  36.915  1.00  0.00     0.049 A 
ATOM     56  C   UNL A   1      41.440  29.083  32.008  1.00  0.00     0.074 A 
ATOM     57  C   UNL A   1      43.058  31.234  37.738  1.00  0.00     0.029 A 
ATOM     58  N   UNL A   1      42.082  30.913  35.767  1.00  0.00    -0.354 N 
ATOM     59  N   UNL A   1      41.707  29.586  33.189  1.00  0.00    -0.248 NA
ATOM     60  C   UNL A   1      42.354  28.009  31.593  1.00  0.00     0.031 C 
ATOM     61  C   UNL A   1      43.760  30.238  37.058  1.00  0.00     0.029 A 
ATOM     62  C   UNL A   1      43.122  30.002  35.850  1.00  0.00     0.049 A 
ATOM     63  H   UNL A   1      41.461  30.995  35.007  1.00  0.00     0.167 HD
ATOM     64  C   UNL A   1      42.793  28.868  33.673  1.00  0.00     0.074 A 
ATOM     65  C   UNL A   1      43.127  27.884  32.664  1.00  0.00     0.031 C 
ATOM     66  C   UNL A   1      43.448  29.014  34.851  1.00  0.00     0.031 A 
BRANCH  53  67
ATOM     67  C   UNL A   1      41.249  33.522  38.452  1.00  0.00    -0.014 A 
ATOM     68  C   UNL A   1      42.138  34.606  38.545  1.00  0.00     0.009 A 
ATOM     69  C   UNL A   1      40.597  33.083  39.616  1.00  0.00     0.009 A 
ATOM     70  C   UNL A   1      42.390  35.217  39.775  1.00  0.00     0.001 A 
ATOM     71  C   UNL A   1      40.826  33.717  40.839  1.00  0.00     0.001 A 
ATOM     72  C   UNL A   1      41.731  34.773  40.921  1.00  0.00     0.000 A 
ENDBRANCH  53  67
BRANCH  54  73
ATOM     73  C   UNL A   1      40.124  28.688  29.789  1.00  0.00    -0.014 A 
ATOM     74  C   UNL A   1      39.438  27.462  29.788  1.00  0.00     0.009 A 
ATOM     75  C   UNL A   1      40.659  29.162  28.581  1.00  0.00     0.009 A 
ATOM     76  C   UNL A   1      39.318  26.714  28.616  1.00  0.00     0.001 A 
ATOM     77  C   UNL A   1      40.504  28.429  27.401  1.00  0.00     0.001 A 
ATOM     78  C   UNL A   1      39.846  27.200  27.422  1.00  0.00     0.000 A 
ENDBRANCH  54  73
BRANCH  66  79
ATOM     79  C   UNL A   1      44.585  28.074  35.159  1.00  0.00    -0.014 A 
ATOM     80  C   UNL A   1      45.881  28.386  34.714  1.00  0.00     0.009 A 
ATOM     81  C   UNL A   1      44.364  26.831  35.772  1.00  0.00     0.009 A 
ATOM     82  C   UNL A   1      46.924  27.469  34.852  1.00  0.00     0.001 A 
ATOM     83  C   UNL A   1      45.418  25.931  35.946  1.00  0.00     0.001 A 
ATOM     84  C   UNL A   1      46.693  26.244  35.473  1.00  0.00     0.000 A 
ENDBRANCH  66  79
ENDBRANCH  40  41
ENDBRANCH  33  35
ENDBRANCH  32  33
ENDBRANCH  31  32
ENDBRANCH  30  31
ENDBRANCH  29  30
ENDBRANCH   1  29
TORSDOF 18
ENDMDL
MODEL 3
REMARK VINA RESULT:     -10.6      4.284      6.310
REMARK SMILES C=C(C)COc1ccc2nc(C)n(-c3cccc(C(=O)OCCOCCOC(=O)c4ccc(-c5c6nc(c(-c7ccccc7)c7ccc([nH]7)c(-c7ccccc7)c7nc(c(-c8ccccc8)c8ccc5[nH]8)C=C7)C=C6)cc4)c3)c(=O)c2c1
REMARK SMILES IDX 23 1 22 2 21 3 19 4 20 5 18 6 14 7 15 8 78 9 16 10 17 11
REMARK SMILES IDX 13 12 6 13 7 14 82 15 8 16 81 17 9 18 79 19 10 20 80 21
REMARK SMILES IDX 11 22 12 23 5 24 4 25 2 26 1 27 3 28 24 29 25 30 26 31 27 32
REMARK SMILES IDX 28 33 29 34 30 35 31 36 77 37 32 38 76 39 33 40 34 41 35 42
REMARK SMILES IDX 70 43 36 44 75 45 69 46 71 47 37 48 74 49 68 50 67 51 38 53
REMARK SMILES IDX 60 54 45 55 59 56 46 57 49 58 58 59 72 60 47 61 48 62 57 64
REMARK SMILES IDX 73 65 50 66 39 67 40 68 44 69 41 70 43 71 42 72 61 73 62 74
REMARK SMILES IDX 66 75 63 76 65 77 64 78 51 79 52 80 56 81 53 82 55 83 54 84
REMARK H PARENT 71 52 49 63
REMARK Flexibility Score: inf
ROOT
ATOM      1  C   UNL A   1      34.761  31.665  27.637  1.00  0.00     0.202 C 
ENDROOT
BRANCH   1   2
ATOM      2  C   UNL A   1      33.420  30.922  27.619  1.00  0.00     0.261 C 
BRANCH   2   3
ATOM      3  O   UNL A   1      33.063  30.503  26.291  1.00  0.00    -0.460 OA
BRANCH   3   4
ATOM      4  C   UNL A   1      31.767  30.720  25.950  1.00  0.00     0.338 C 
ATOM      5  O   UNL A   1      31.083  31.682  26.256  1.00  0.00    -0.246 OA
BRANCH   4   6
ATOM      6  C   UNL A   1      31.332  29.707  24.957  1.00  0.00     0.062 A 
ATOM      7  C   UNL A   1      31.570  27.584  23.800  1.00  0.00     0.051 A 
ATOM      8  C   UNL A   1      30.490  27.934  22.974  1.00  0.00     0.027 A 
ATOM      9  C   UNL A   1      31.979  28.476  24.804  1.00  0.00     0.042 A 
ATOM     10  C   UNL A   1      29.849  29.164  23.124  1.00  0.00     0.003 A 
ATOM     11  C   UNL A   1      30.271  30.050  24.111  1.00  0.00     0.016 A 
BRANCH   7  12
ATOM     12  N   UNL A   1      32.237  26.328  23.637  1.00  0.00    -0.264 N 
ATOM     13  C   UNL A   1      32.562  21.553  24.464  1.00  0.00     0.120 A 
ATOM     14  C   UNL A   1      33.660  21.521  23.604  1.00  0.00     0.049 A 
ATOM     15  C   UNL A   1      31.889  22.748  24.694  1.00  0.00     0.062 A 
ATOM     16  C   UNL A   1      34.118  22.696  23.013  1.00  0.00     0.033 A 
ATOM     17  C   UNL A   1      32.359  23.924  24.091  1.00  0.00     0.070 A 
ATOM     18  C   UNL A   1      33.466  23.905  23.249  1.00  0.00     0.078 A 
ATOM     19  C   UNL A   1      31.694  25.220  24.310  1.00  0.00     0.266 A 
ATOM     20  N   UNL A   1      33.958  25.052  22.633  1.00  0.00    -0.234 NA
ATOM     21  O   UNL A   1      30.702  25.245  25.038  1.00  0.00    -0.268 OA
ATOM     22  C   UNL A   1      33.365  26.185  22.842  1.00  0.00     0.113 A 
ATOM     23  C   UNL A   1      34.031  27.382  22.190  1.00  0.00     0.088 C 
BRANCH  13  24
ATOM     24  O   UNL A   1      32.069  20.400  25.014  1.00  0.00    -0.489 OA
BRANCH  24  25
ATOM     25  C   UNL A   1      32.165  19.280  24.115  1.00  0.00     0.260 C 
BRANCH  25  26
ATOM     26  C   UNL A   1      32.988  18.146  24.691  1.00  0.00    -0.043 C 
ATOM     27  C   UNL A   1      32.678  17.545  25.853  1.00  0.00     0.011 C 
ATOM     28  C   UNL A   1      34.147  17.690  23.850  1.00  0.00     0.042 C 
ENDBRANCH  25  26
ENDBRANCH  24  25
ENDBRANCH  13  24
ENDBRANCH   7  12
ENDBRANCH   4   6
ENDBRANCH   3   4
ENDBRANCH   2   3
ENDBRANCH   1   2
BRANCH   1  29
ATOM     29  O   UNL A   1      34.717  33.089  27.720  1.00  0.00    -0.374 OA
BRANCH  29  30
ATOM     30  C   UNL A   1      33.677  33.678  28.499  1.00  0.00     0.202 C 
BRANCH  30  31
ATOM     31  C   UNL A   1      34.017  34.089  29.937  1.00  0.00     0.261 C 
BRANCH  31  32
ATOM     32  O   UNL A   1      34.478  32.986  30.733  1.00  0.00    -0.460 OA
BRANCH  32  33
ATOM     33  C   UNL A   1      35.574  33.241  31.489  1.00  0.00     0.338 C 
ATOM     34  O   UNL A   1      35.629  33.885  32.525  1.00  0.00    -0.246 OA
BRANCH  33  35
ATOM     35  C   UNL A   1      36.713  32.457  30.970  1.00  0.00     0.060 A 
ATOM     36  C   UNL A   1      37.224  32.683  29.691  1.00  0.00     0.016 A 
ATOM     37  C   UNL A   1      37.286  31.486  31.802  1.00  0.00     0.016 A 
ATOM     38  C   UNL A   1      38.328  31.946  29.257  1.00  0.00     0.010 A 
ATOM     39  C   UNL A   1      38.396  30.759  31.369  1.00  0.00     0.010 A 
ATOM     40  C   UNL A   1      38.935  30.993  30.098  1.00  0.00    -0.014 A 
BRANCH  40  41
ATOM     41  C   UNL A   1      40.198  30.342  29.667  1.00  0.00     0.031 A 
ATOM     42  C   UNL A   1      40.223  28.935  29.152  1.00  0.00     0.074 A 
ATOM     43  C   UNL A   1      41.337  31.060  29.717  1.00  0.00     0.049 A 
ATOM     44  N   UNL A   1      41.210  28.294  28.576  1.00  0.00    -0.248 NA
ATOM     45  C   UNL A   1      38.993  28.141  29.297  1.00  0.00     0.031 C 
ATOM     46  C   UNL A   1      41.441  32.425  30.237  1.00  0.00     0.029 A 
ATOM     47  N   UNL A   1      42.610  30.764  29.298  1.00  0.00    -0.354 N 
ATOM     48  C   UNL A   1      40.716  27.033  28.270  1.00  0.00     0.074 A 
ATOM     49  C   UNL A   1      39.361  26.977  28.773  1.00  0.00     0.031 C 
ATOM     50  C   UNL A   1      42.691  32.870  30.049  1.00  0.00     0.029 A 
ATOM     51  C   UNL A   1      43.487  31.814  29.429  1.00  0.00     0.049 A 
ATOM     52  H   UNL A   1      42.870  29.884  28.938  1.00  0.00     0.167 HD
ATOM     53  C   UNL A   1      41.333  26.027  27.605  1.00  0.00     0.031 A 
ATOM     54  C   UNL A   1      44.781  31.930  29.070  1.00  0.00     0.031 A 
ATOM     55  C   UNL A   1      42.693  26.084  27.131  1.00  0.00     0.049 A 
ATOM     56  C   UNL A   1      45.453  30.785  28.363  1.00  0.00     0.074 A 
ATOM     57  C   UNL A   1      43.393  25.123  26.421  1.00  0.00     0.029 A 
ATOM     58  N   UNL A   1      43.563  27.146  27.326  1.00  0.00    -0.354 N 
ATOM     59  N   UNL A   1      44.946  29.633  27.995  1.00  0.00    -0.248 NA
ATOM     60  C   UNL A   1      46.866  30.962  28.000  1.00  0.00     0.031 C 
ATOM     61  C   UNL A   1      44.705  25.569  26.255  1.00  0.00     0.029 A 
ATOM     62  C   UNL A   1      44.800  26.850  26.775  1.00  0.00     0.049 A 
ATOM     63  H   UNL A   1      43.336  27.986  27.786  1.00  0.00     0.167 HD
ATOM     64  C   UNL A   1      45.964  28.964  27.328  1.00  0.00     0.074 A 
ATOM     65  C   UNL A   1      47.114  29.845  27.329  1.00  0.00     0.031 C 
ATOM     66  C   UNL A   1      45.941  27.732  26.765  1.00  0.00     0.031 A 
BRANCH  53  67
ATOM     67  C   UNL A   1      40.552  24.770  27.328  1.00  0.00    -0.014 A 
ATOM     68  C   UNL A   1      41.024  23.530  27.790  1.00  0.00     0.009 A 
ATOM     69  C   UNL A   1      39.419  24.795  26.498  1.00  0.00     0.009 A 
ATOM     70  C   UNL A   1      40.396  22.343  27.409  1.00  0.00     0.001 A 
ATOM     71  C   UNL A   1      38.773  23.608  26.145  1.00  0.00     0.001 A 
ATOM     72  C   UNL A   1      39.269  22.383  26.589  1.00  0.00     0.000 A 
ENDBRANCH  53  67
BRANCH  54  73
ATOM     73  C   UNL A   1      45.495  33.212  29.323  1.00  0.00    -0.014 A 
ATOM     74  C   UNL A   1      45.466  34.247  28.373  1.00  0.00     0.009 A 
ATOM     75  C   UNL A   1      46.257  33.389  30.489  1.00  0.00     0.009 A 
ATOM     76  C   UNL A   1      46.205  35.414  28.568  1.00  0.00     0.001 A 
ATOM     77  C   UNL A   1      46.966  34.575  30.700  1.00  0.00     0.001 A 
ATOM     78  C   UNL A   1      46.950  35.580  29.734  1.00  0.00     0.000 A 
ENDBRANCH  54  73
BRANCH  66  79
ATOM     79  C   UNL A   1      47.180  27.244  26.060  1.00  0.00    -0.014 A 
ATOM     80  C   UNL A   1      47.304  27.428  24.671  1.00  0.00     0.009 A 
ATOM     81  C   UNL A   1      48.162  26.499  26.730  1.00  0.00     0.009 A 
ATOM     82  C   UNL A   1      48.366  26.860  23.967  1.00  0.00     0.001 A 
ATOM     83  C   UNL A   1      49.246  25.964  26.030  1.00  0.00     0.001 A 
ATOM     84  C   UNL A   1      49.339  26.131  24.647  1.00  0.00     0.000 A 
ENDBRANCH  66  79
ENDBRANCH  40  41
ENDBRANCH  33  35
ENDBRANCH  32  33
ENDBRANCH  31  32
ENDBRANCH  30  31
ENDBRANCH  29  30
ENDBRANCH   1  29
TORSDOF 18
ENDMDL
