MODEL 1
REMARK VINA RESULT:     -12.3      0.000      0.000
REMARK SMILES Cc1ccccc1C(=O)Nc1cc(C(=O)OCCOCCOC(=O)c2ccc(-c3c4nc(c(-c5ccccc5)c5ccc([nH]5)c(-c5ccccc5)c5nc(c(-c6ccccc6)c6ccc3[nH]6)C=C5)C=C4)cc2)ccc1N1CC[NH+](CC(=O)Nc2ccc(F)cc2)CC1
REMARK SMILES IDX 18 1 17 2 16 3 14 4 15 5 13 6 11 7 12 8 75 9 74 10 73 11
REMARK SMILES IDX 10 12 8 13 9 14 7 16 1 17 2 18 3 19 4 20 6 21 5 22 76 23
REMARK SMILES IDX 77 24 92 25 78 26 91 27 79 28 80 30 81 31 82 32 83 33 84 35
REMARK SMILES IDX 85 36 90 37 86 38 89 39 87 40 88 41 19 42 20 43 21 44 22 45
REMARK SMILES IDX 23 46 24 47 25 48 26 49 72 50 27 51 71 52 28 53 29 54 30 55
REMARK SMILES IDX 65 56 31 57 70 58 64 59 66 60 32 61 69 62 63 63 62 64 33 66
REMARK SMILES IDX 55 67 40 68 54 69 41 70 44 71 53 72 67 73 42 74 43 75 52 77
REMARK SMILES IDX 68 78 45 79 34 80 35 81 39 82 36 83 38 84 37 85 56 86 57 87
REMARK SMILES IDX 61 88 58 89 60 90 59 91 46 92 47 93 51 94 48 95 50 96 49 97
REMARK H PARENT 10 15 79 29 83 34 66 65 44 76
REMARK Flexibility Score: inf
ROOT
ATOM      1  C   UNL A   1      40.181  22.714  27.535  1.00  0.00     0.202 C 
ENDROOT
BRANCH   1   2
ATOM      2  C   UNL A   1      39.704  21.765  26.473  1.00  0.00     0.261 C 
BRANCH   2   3
ATOM      3  O   UNL A   1      38.580  22.150  25.643  1.00  0.00    -0.460 OA
BRANCH   3   4
ATOM      4  C   UNL A   1      37.780  21.207  25.091  1.00  0.00     0.338 C 
ATOM      5  O   UNL A   1      38.087  20.030  24.951  1.00  0.00    -0.246 OA
BRANCH   4   6
ATOM      6  C   UNL A   1      36.644  21.837  24.380  1.00  0.00     0.062 A 
ATOM      7  C   UNL A   1      34.313  22.355  24.472  1.00  0.00     0.065 A 
ATOM      8  C   UNL A   1      35.365  21.543  24.822  1.00  0.00     0.044 A 
ATOM      9  C   UNL A   1      34.448  23.428  23.546  1.00  0.00     0.061 A 
ATOM     10  C   UNL A   1      35.733  23.621  23.005  1.00  0.00     0.029 A 
ATOM     11  C   UNL A   1      36.833  22.862  23.449  1.00  0.00     0.018 A 
BRANCH   7  12
ATOM     12  N   UNL A   1      33.133  22.136  25.177  1.00  0.00    -0.320 N 
ATOM     13  C   UNL A   1      32.281  21.042  25.127  1.00  0.00     0.255 C 
ATOM     14  O   UNL A   1      31.349  21.076  25.942  1.00  0.00    -0.269 OA
ATOM     15  H   UNL A   1      32.867  22.854  25.794  1.00  0.00     0.170 HD
BRANCH  13  16
ATOM     16  C   UNL A   1      32.412  19.788  24.266  1.00  0.00     0.043 A 
ATOM     17  C   UNL A   1      31.845  20.524  21.798  1.00  0.00     0.045 C 
ATOM     18  C   UNL A   1      32.207  19.553  22.882  1.00  0.00    -0.038 A 
ATOM     19  C   UNL A   1      32.437  18.257  22.352  1.00  0.00     0.004 A 
ATOM     20  C   UNL A   1      33.013  17.245  23.105  1.00  0.00     0.000 A 
ATOM     21  C   UNL A   1      32.985  18.719  25.001  1.00  0.00     0.014 A 
ATOM     22  C   UNL A   1      33.311  17.485  24.430  1.00  0.00     0.001 A 
ENDBRANCH  13  16
ENDBRANCH   7  12
BRANCH   9  23
ATOM     23  N   UNL A   1      33.406  24.343  23.343  1.00  0.00    -0.359 N 
ATOM     24  C   UNL A   1      33.083  24.914  22.005  1.00  0.00     0.178 C 
ATOM     25  C   UNL A   1      33.266  25.375  24.378  1.00  0.00     0.178 C 
ATOM     26  C   UNL A   1      31.806  25.836  22.050  1.00  0.00     0.284 C 
ATOM     27  C   UNL A   1      31.816  25.838  24.419  1.00  0.00     0.284 C 
ATOM     28  N   UNL A   1      31.549  26.663  23.255  1.00  0.00    -0.324 N 
ATOM     29  H   UNL A   1      30.570  26.933  23.166  1.00  0.00     0.348 HD
BRANCH  28  30
ATOM     30  C   UNL A   1      32.123  28.029  23.371  1.00  0.00     0.364 C 
BRANCH  30  31
ATOM     31  C   UNL A   1      31.374  29.120  24.147  1.00  0.00     0.279 C 
ATOM     32  O   UNL A   1      30.335  29.593  23.656  1.00  0.00    -0.268 OA
ATOM     33  N   UNL A   1      31.683  29.581  25.404  1.00  0.00    -0.321 N 
ATOM     34  H   UNL A   1      30.880  29.965  25.825  1.00  0.00     0.170 HD
BRANCH  33  35
ATOM     35  C   UNL A   1      32.786  29.681  26.289  1.00  0.00     0.041 A 
ATOM     36  C   UNL A   1      32.897  30.888  27.007  1.00  0.00     0.029 A 
ATOM     37  C   UNL A   1      33.838  28.780  26.426  1.00  0.00     0.029 A 
ATOM     38  C   UNL A   1      34.012  31.179  27.810  1.00  0.00     0.041 A 
ATOM     39  C   UNL A   1      34.987  29.085  27.181  1.00  0.00     0.041 A 
ATOM     40  C   UNL A   1      35.061  30.279  27.875  1.00  0.00     0.123 A 
ATOM     41  F   UNL A   1      36.144  30.562  28.610  1.00  0.00    -0.207 F 
ENDBRANCH  33  35
ENDBRANCH  30  31
ENDBRANCH  28  30
ENDBRANCH   9  23
ENDBRANCH   4   6
ENDBRANCH   3   4
ENDBRANCH   2   3
ENDBRANCH   1   2
BRANCH   1  42
ATOM     42  O   UNL A   1      41.569  22.490  27.706  1.00  0.00    -0.374 OA
BRANCH  42  43
ATOM     43  C   UNL A   1      42.293  23.581  28.244  1.00  0.00     0.202 C 
BRANCH  43  44
ATOM     44  C   UNL A   1      42.378  24.763  27.271  1.00  0.00     0.261 C 
BRANCH  44  45
ATOM     45  O   UNL A   1      41.538  25.836  27.748  1.00  0.00    -0.460 OA
BRANCH  45  46
ATOM     46  C   UNL A   1      40.899  26.569  26.785  1.00  0.00     0.338 C 
ATOM     47  O   UNL A   1      40.865  26.304  25.609  1.00  0.00    -0.246 OA
BRANCH  46  48
ATOM     48  C   UNL A   1      40.508  27.901  27.350  1.00  0.00     0.060 A 
ATOM     49  C   UNL A   1      41.509  28.814  27.739  1.00  0.00     0.016 A 
ATOM     50  C   UNL A   1      39.208  28.062  27.815  1.00  0.00     0.016 A 
ATOM     51  C   UNL A   1      41.242  29.775  28.726  1.00  0.00     0.010 A 
ATOM     52  C   UNL A   1      38.993  28.909  28.878  1.00  0.00     0.010 A 
ATOM     53  C   UNL A   1      40.008  29.749  29.367  1.00  0.00    -0.014 A 
BRANCH  53  54
ATOM     54  C   UNL A   1      39.635  30.440  30.606  1.00  0.00     0.031 A 
ATOM     55  C   UNL A   1      38.906  31.721  30.457  1.00  0.00     0.074 A 
ATOM     56  C   UNL A   1      39.595  29.784  31.794  1.00  0.00     0.049 A 
ATOM     57  N   UNL A   1      38.353  32.343  31.428  1.00  0.00    -0.248 NA
ATOM     58  C   UNL A   1      38.697  32.400  29.179  1.00  0.00     0.031 C 
ATOM     59  C   UNL A   1      38.775  30.080  32.968  1.00  0.00     0.029 A 
ATOM     60  N   UNL A   1      40.365  28.705  32.247  1.00  0.00    -0.354 N 
ATOM     61  C   UNL A   1      37.469  33.253  30.915  1.00  0.00     0.074 A 
ATOM     62  C   UNL A   1      37.760  33.298  29.507  1.00  0.00     0.031 C 
ATOM     63  C   UNL A   1      39.331  29.528  34.056  1.00  0.00     0.029 A 
ATOM     64  C   UNL A   1      40.560  28.898  33.623  1.00  0.00     0.049 A 
ATOM     65  H   UNL A   1      40.702  27.956  31.705  1.00  0.00     0.167 HD
ATOM     66  C   UNL A   1      36.545  33.765  31.774  1.00  0.00     0.031 A 
ATOM     67  C   UNL A   1      41.803  29.082  34.134  1.00  0.00     0.031 A 
ATOM     68  C   UNL A   1      36.902  33.434  33.166  1.00  0.00     0.049 A 
ATOM     69  C   UNL A   1      41.808  30.454  34.746  1.00  0.00     0.074 A 
ATOM     70  C   UNL A   1      36.377  32.601  34.139  1.00  0.00     0.029 A 
ATOM     71  N   UNL A   1      38.195  33.759  33.595  1.00  0.00    -0.354 N 
ATOM     72  N   UNL A   1      41.100  31.453  34.267  1.00  0.00    -0.248 NA
ATOM     73  C   UNL A   1      42.314  30.702  36.091  1.00  0.00     0.031 C 
ATOM     74  C   UNL A   1      37.417  32.344  35.094  1.00  0.00     0.029 A 
ATOM     75  C   UNL A   1      38.564  33.029  34.709  1.00  0.00     0.049 A 
ATOM     76  H   UNL A   1      38.771  34.427  33.158  1.00  0.00     0.167 HD
ATOM     77  C   UNL A   1      40.857  32.331  35.289  1.00  0.00     0.074 A 
ATOM     78  C   UNL A   1      41.698  31.859  36.386  1.00  0.00     0.031 C 
ATOM     79  C   UNL A   1      39.858  33.264  35.351  1.00  0.00     0.031 A 
BRANCH  66  80
ATOM     80  C   UNL A   1      35.266  34.452  31.351  1.00  0.00    -0.014 A 
ATOM     81  C   UNL A   1      34.549  35.225  32.282  1.00  0.00     0.009 A 
ATOM     82  C   UNL A   1      34.674  34.330  30.079  1.00  0.00     0.009 A 
ATOM     83  C   UNL A   1      33.331  35.846  31.956  1.00  0.00     0.001 A 
ATOM     84  C   UNL A   1      33.466  34.959  29.740  1.00  0.00     0.001 A 
ATOM     85  C   UNL A   1      32.793  35.721  30.681  1.00  0.00     0.000 A 
ENDBRANCH  66  80
BRANCH  67  86
ATOM     86  C   UNL A   1      42.811  28.240  33.419  1.00  0.00    -0.014 A 
ATOM     87  C   UNL A   1      43.902  28.965  32.871  1.00  0.00     0.009 A 
ATOM     88  C   UNL A   1      43.042  26.901  33.772  1.00  0.00     0.009 A 
ATOM     89  C   UNL A   1      45.204  28.446  32.876  1.00  0.00     0.001 A 
ATOM     90  C   UNL A   1      44.351  26.378  33.754  1.00  0.00     0.001 A 
ATOM     91  C   UNL A   1      45.435  27.166  33.362  1.00  0.00     0.000 A 
ENDBRANCH  67  86
BRANCH  79  92
ATOM     92  C   UNL A   1      40.055  34.563  36.090  1.00  0.00    -0.014 A 
ATOM     93  C   UNL A   1      39.455  34.843  37.326  1.00  0.00     0.009 A 
ATOM     94  C   UNL A   1      41.041  35.469  35.641  1.00  0.00     0.009 A 
ATOM     95  C   UNL A   1      39.790  35.985  38.054  1.00  0.00     0.001 A 
ATOM     96  C   UNL A   1      41.423  36.575  36.395  1.00  0.00     0.001 A 
ATOM     97  C   UNL A   1      40.786  36.840  37.598  1.00  0.00     0.000 A 
ENDBRANCH  79  92
ENDBRANCH  53  54
ENDBRANCH  46  48
ENDBRANCH  45  46
ENDBRANCH  44  45
ENDBRANCH  43  44
ENDBRANCH  42  43
ENDBRANCH   1  42
TORSDOF 20
ENDMDL
MODEL 2
REMARK VINA RESULT:     -11.9      3.842      8.850
REMARK SMILES Cc1ccccc1C(=O)Nc1cc(C(=O)OCCOCCOC(=O)c2ccc(-c3c4nc(c(-c5ccccc5)c5ccc([nH]5)c(-c5ccccc5)c5nc(c(-c6ccccc6)c6ccc3[nH]6)C=C5)C=C4)cc2)ccc1N1CC[NH+](CC(=O)Nc2ccc(F)cc2)CC1
REMARK SMILES IDX 18 1 17 2 16 3 14 4 15 5 13 6 11 7 12 8 75 9 74 10 73 11
REMARK SMILES IDX 10 12 8 13 9 14 7 16 1 17 2 18 3 19 4 20 6 21 5 22 76 23
REMARK SMILES IDX 77 24 92 25 78 26 91 27 79 28 80 30 81 31 82 32 83 33 84 35
REMARK SMILES IDX 85 36 90 37 86 38 89 39 87 40 88 41 19 42 20 43 21 44 22 45
REMARK SMILES IDX 23 46 24 47 25 48 26 49 72 50 27 51 71 52 28 53 29 54 30 55
REMARK SMILES IDX 65 56 31 57 70 58 64 59 66 60 32 61 69 62 63 63 62 64 33 66
REMARK SMILES IDX 55 67 40 68 54 69 41 70 44 71 53 72 67 73 42 74 43 75 52 77
REMARK SMILES IDX 68 78 45 79 34 80 35 81 39 82 36 83 38 84 37 85 56 86 57 87
REMARK SMILES IDX 61 88 58 89 60 90 59 91 46 92 47 93 51 94 48 95 50 96 49 97
REMARK H PARENT 10 15 79 29 83 34 66 65 44 76
REMARK Flexibility Score: inf
ROOT
ATOM      1  C   UNL A   1      35.469  22.922  23.180  1.00  0.00     0.202 C 
ENDROOT
BRANCH   1   2
ATOM      2  C   UNL A   1      34.745  24.147  22.699  1.00  0.00     0.261 C 
BRANCH   2   3
ATOM      3  O   UNL A   1      33.522  23.983  21.938  1.00  0.00    -0.460 OA
BRANCH   3   4
ATOM      4  C   UNL A   1      33.034  25.006  21.196  1.00  0.00     0.338 C 
ATOM      5  O   UNL A   1      33.059  25.052  19.973  1.00  0.00    -0.246 OA
BRANCH   4   6
ATOM      6  C   UNL A   1      32.782  26.193  22.045  1.00  0.00     0.062 A 
ATOM      7  C   UNL A   1      31.634  27.024  23.969  1.00  0.00     0.065 A 
ATOM      8  C   UNL A   1      31.704  26.146  22.914  1.00  0.00     0.044 A 
ATOM      9  C   UNL A   1      32.558  28.093  24.140  1.00  0.00     0.061 A 
ATOM     10  C   UNL A   1      33.567  28.201  23.164  1.00  0.00     0.029 A 
ATOM     11  C   UNL A   1      33.706  27.236  22.149  1.00  0.00     0.018 A 
BRANCH   7  12
ATOM     12  N   UNL A   1      30.670  26.725  24.927  1.00  0.00    -0.320 N 
ATOM     13  C   UNL A   1      30.556  25.594  25.723  1.00  0.00     0.255 C 
ATOM     14  O   UNL A   1      29.647  25.643  26.563  1.00  0.00    -0.269 OA
ATOM     15  H   UNL A   1      29.975  27.409  25.059  1.00  0.00     0.170 HD
BRANCH  13  16
ATOM     16  C   UNL A   1      31.461  24.364  25.743  1.00  0.00     0.043 A 
ATOM     17  C   UNL A   1      33.910  25.256  26.143  1.00  0.00     0.045 C 
ATOM     18  C   UNL A   1      32.864  24.212  25.891  1.00  0.00    -0.038 A 
ATOM     19  C   UNL A   1      33.428  22.910  25.893  1.00  0.00     0.004 A 
ATOM     20  C   UNL A   1      32.644  21.767  25.922  1.00  0.00     0.000 A 
ATOM     21  C   UNL A   1      30.699  23.168  25.757  1.00  0.00     0.014 A 
ATOM     22  C   UNL A   1      31.271  21.897  25.878  1.00  0.00     0.001 A 
ENDBRANCH  13  16
ENDBRANCH   7  12
BRANCH   9  23
ATOM     23  N   UNL A   1      32.567  28.861  25.313  1.00  0.00    -0.359 N 
ATOM     24  C   UNL A   1      31.909  30.194  25.409  1.00  0.00     0.178 C 
ATOM     25  C   UNL A   1      33.839  28.872  26.046  1.00  0.00     0.178 C 
ATOM     26  C   UNL A   1      31.989  30.787  26.867  1.00  0.00     0.284 C 
ATOM     27  C   UNL A   1      33.557  29.134  27.519  1.00  0.00     0.284 C 
ATOM     28  N   UNL A   1      33.196  30.530  27.691  1.00  0.00    -0.324 N 
ATOM     29  H   UNL A   1      32.901  30.758  28.640  1.00  0.00     0.348 HD
BRANCH  28  30
ATOM     30  C   UNL A   1      34.367  31.442  27.621  1.00  0.00     0.364 C 
BRANCH  30  31
ATOM     31  C   UNL A   1      34.340  32.793  28.347  1.00  0.00     0.279 C 
ATOM     32  O   UNL A   1      33.544  33.663  27.957  1.00  0.00    -0.268 OA
ATOM     33  N   UNL A   1      35.056  33.126  29.472  1.00  0.00    -0.321 N 
ATOM     34  H   UNL A   1      34.602  33.856  29.952  1.00  0.00     0.170 HD
BRANCH  33  35
ATOM     35  C   UNL A   1      36.238  32.756  30.163  1.00  0.00     0.041 A 
ATOM     36  C   UNL A   1      37.431  32.798  29.415  1.00  0.00     0.029 A 
ATOM     37  C   UNL A   1      36.330  32.232  31.449  1.00  0.00     0.029 A 
ATOM     38  C   UNL A   1      38.650  32.325  29.929  1.00  0.00     0.041 A 
ATOM     39  C   UNL A   1      37.533  31.701  31.953  1.00  0.00     0.041 A 
ATOM     40  C   UNL A   1      38.687  31.760  31.192  1.00  0.00     0.123 A 
ATOM     41  F   UNL A   1      39.837  31.276  31.678  1.00  0.00    -0.207 F 
ENDBRANCH  33  35
ENDBRANCH  30  31
ENDBRANCH  28  30
ENDBRANCH   9  23
ENDBRANCH   4   6
ENDBRANCH   3   4
ENDBRANCH   2   3
ENDBRANCH   1   2
BRANCH   1  42
ATOM     42  O   UNL A   1      36.763  23.331  23.584  1.00  0.00    -0.374 OA
BRANCH  42  43
ATOM     43  C   UNL A   1      36.909  23.584  24.969  1.00  0.00     0.202 C 
BRANCH  43  44
ATOM     44  C   UNL A   1      37.617  22.438  25.701  1.00  0.00     0.261 C 
BRANCH  44  45
ATOM     45  O   UNL A   1      38.920  22.882  26.138  1.00  0.00    -0.460 OA
BRANCH  45  46
ATOM     46  C   UNL A   1      39.880  21.912  26.234  1.00  0.00     0.338 C 
ATOM     47  O   UNL A   1      39.694  20.725  26.120  1.00  0.00    -0.246 OA
BRANCH  46  48
ATOM     48  C   UNL A   1      41.134  22.507  26.799  1.00  0.00     0.060 A 
ATOM     49  C   UNL A   1      41.136  23.009  28.116  1.00  0.00     0.016 A 
ATOM     50  C   UNL A   1      42.140  22.882  25.915  1.00  0.00     0.016 A 
ATOM     51  C   UNL A   1      42.040  24.017  28.485  1.00  0.00     0.010 A 
ATOM     52  C   UNL A   1      42.926  23.964  26.240  1.00  0.00     0.010 A 
ATOM     53  C   UNL A   1      42.865  24.564  27.509  1.00  0.00    -0.014 A 
BRANCH  53  54
ATOM     54  C   UNL A   1      43.646  25.803  27.598  1.00  0.00     0.031 A 
ATOM     55  C   UNL A   1      45.103  25.653  27.820  1.00  0.00     0.074 A 
ATOM     56  C   UNL A   1      43.161  26.977  27.118  1.00  0.00     0.049 A 
ATOM     57  N   UNL A   1      45.939  26.618  27.734  1.00  0.00    -0.248 NA
ATOM     58  C   UNL A   1      45.759  24.382  28.122  1.00  0.00     0.031 C 
ATOM     59  C   UNL A   1      43.907  28.129  26.613  1.00  0.00     0.029 A 
ATOM     60  N   UNL A   1      41.840  27.434  27.040  1.00  0.00    -0.354 N 
ATOM     61  C   UNL A   1      47.198  26.093  27.619  1.00  0.00     0.074 A 
ATOM     62  C   UNL A   1      47.046  24.696  27.927  1.00  0.00     0.031 C 
ATOM     63  C   UNL A   1      43.135  29.224  26.670  1.00  0.00     0.029 A 
ATOM     64  C   UNL A   1      41.879  28.820  27.264  1.00  0.00     0.049 A 
ATOM     65  H   UNL A   1      41.039  26.890  26.864  1.00  0.00     0.167 HD
ATOM     66  C   UNL A   1      48.176  26.931  27.178  1.00  0.00     0.031 A 
ATOM     67  C   UNL A   1      41.259  29.373  28.335  1.00  0.00     0.031 A 
ATOM     68  C   UNL A   1      47.703  28.328  27.203  1.00  0.00     0.049 A 
ATOM     69  C   UNL A   1      42.339  30.010  29.163  1.00  0.00     0.074 A 
ATOM     70  C   UNL A   1      47.377  29.268  26.242  1.00  0.00     0.029 A 
ATOM     71  N   UNL A   1      47.162  28.804  28.405  1.00  0.00    -0.354 N 
ATOM     72  N   UNL A   1      43.559  29.526  29.241  1.00  0.00    -0.248 NA
ATOM     73  C   UNL A   1      42.229  31.375  29.666  1.00  0.00     0.031 C 
ATOM     74  C   UNL A   1      46.539  30.251  26.865  1.00  0.00     0.029 A 
ATOM     75  C   UNL A   1      46.366  29.915  28.204  1.00  0.00     0.049 A 
ATOM     76  H   UNL A   1      47.330  28.397  29.285  1.00  0.00     0.167 HD
ATOM     77  C   UNL A   1      44.406  30.556  29.555  1.00  0.00     0.074 A 
ATOM     78  C   UNL A   1      43.521  31.671  29.885  1.00  0.00     0.031 C 
ATOM     79  C   UNL A   1      45.756  30.603  29.343  1.00  0.00     0.031 A 
BRANCH  66  80
ATOM     80  C   UNL A   1      49.503  26.480  26.612  1.00  0.00    -0.014 A 
ATOM     81  C   UNL A   1      49.850  26.820  25.291  1.00  0.00     0.009 A 
ATOM     82  C   UNL A   1      50.430  25.666  27.292  1.00  0.00     0.009 A 
ATOM     83  C   UNL A   1      51.049  26.387  24.700  1.00  0.00     0.001 A 
ATOM     84  C   UNL A   1      51.637  25.243  26.714  1.00  0.00     0.001 A 
ATOM     85  C   UNL A   1      51.948  25.606  25.415  1.00  0.00     0.000 A 
ENDBRANCH  66  80
BRANCH  67  86
ATOM     86  C   UNL A   1      39.971  28.676  28.634  1.00  0.00    -0.014 A 
ATOM     87  C   UNL A   1      39.916  28.060  29.912  1.00  0.00     0.009 A 
ATOM     88  C   UNL A   1      38.754  29.093  28.069  1.00  0.00     0.009 A 
ATOM     89  C   UNL A   1      38.740  28.057  30.675  1.00  0.00     0.001 A 
ATOM     90  C   UNL A   1      37.570  29.065  28.834  1.00  0.00     0.001 A 
ATOM     91  C   UNL A   1      37.576  28.603  30.152  1.00  0.00     0.000 A 
ENDBRANCH  67  86
BRANCH  79  92
ATOM     92  C   UNL A   1      46.661  31.371  30.273  1.00  0.00    -0.014 A 
ATOM     93  C   UNL A   1      47.090  30.874  31.511  1.00  0.00     0.009 A 
ATOM     94  C   UNL A   1      47.280  32.552  29.811  1.00  0.00     0.009 A 
ATOM     95  C   UNL A   1      48.054  31.542  32.268  1.00  0.00     0.001 A 
ATOM     96  C   UNL A   1      48.288  33.187  30.534  1.00  0.00     0.001 A 
ATOM     97  C   UNL A   1      48.665  32.687  31.771  1.00  0.00     0.000 A 
ENDBRANCH  79  92
ENDBRANCH  53  54
ENDBRANCH  46  48
ENDBRANCH  45  46
ENDBRANCH  44  45
ENDBRANCH  43  44
ENDBRANCH  42  43
ENDBRANCH   1  42
TORSDOF 20
ENDMDL
MODEL 3
REMARK VINA RESULT:     -11.8      3.317      7.490
REMARK SMILES Cc1ccccc1C(=O)Nc1cc(C(=O)OCCOCCOC(=O)c2ccc(-c3c4nc(c(-c5ccccc5)c5ccc([nH]5)c(-c5ccccc5)c5nc(c(-c6ccccc6)c6ccc3[nH]6)C=C5)C=C4)cc2)ccc1N1CC[NH+](CC(=O)Nc2ccc(F)cc2)CC1
REMARK SMILES IDX 18 1 17 2 16 3 14 4 15 5 13 6 11 7 12 8 75 9 74 10 73 11
REMARK SMILES IDX 10 12 8 13 9 14 7 16 1 17 2 18 3 19 4 20 6 21 5 22 76 23
REMARK SMILES IDX 77 24 92 25 78 26 91 27 79 28 80 30 81 31 82 32 83 33 84 35
REMARK SMILES IDX 85 36 90 37 86 38 89 39 87 40 88 41 19 42 20 43 21 44 22 45
REMARK SMILES IDX 23 46 24 47 25 48 26 49 72 50 27 51 71 52 28 53 29 54 30 55
REMARK SMILES IDX 65 56 31 57 70 58 64 59 66 60 32 61 69 62 63 63 62 64 33 66
REMARK SMILES IDX 55 67 40 68 54 69 41 70 44 71 53 72 67 73 42 74 43 75 52 77
REMARK SMILES IDX 68 78 45 79 34 80 35 81 39 82 36 83 38 84 37 85 56 86 57 87
REMARK SMILES IDX 61 88 58 89 60 90 59 91 46 92 47 93 51 94 48 95 50 96 49 97
REMARK H PARENT 10 15 79 29 83 34 66 65 44 76
REMARK Flexibility Score: inf
ROOT
ATOM      1  C   UNL A   1      34.531  22.606  22.879  1.00  0.00     0.202 C 
ENDROOT
BRANCH   1   2
ATOM      2  C   UNL A   1      33.438  23.448  22.286  1.00  0.00     0.261 C 
BRANCH   2   3
ATOM      3  O   UNL A   1      33.791  24.686  21.620  1.00  0.00    -0.460 OA
BRANCH   3   4
ATOM      4  C   UNL A   1      32.826  25.534  21.193  1.00  0.00     0.338 C 
ATOM      5  O   UNL A   1      32.328  25.516  20.073  1.00  0.00    -0.246 OA
BRANCH   4   6
ATOM      6  C   UNL A   1      32.694  26.685  22.116  1.00  0.00     0.062 A 
ATOM      7  C   UNL A   1      31.697  27.476  24.138  1.00  0.00     0.065 A 
ATOM      8  C   UNL A   1      31.658  26.658  23.035  1.00  0.00     0.044 A 
ATOM      9  C   UNL A   1      32.698  28.472  24.320  1.00  0.00     0.061 A 
ATOM     10  C   UNL A   1      33.665  28.571  23.301  1.00  0.00     0.029 A 
ATOM     11  C   UNL A   1      33.690  27.658  22.229  1.00  0.00     0.018 A 
BRANCH   7  12
ATOM     12  N   UNL A   1      30.762  27.186  25.127  1.00  0.00    -0.320 N 
ATOM     13  C   UNL A   1      30.647  26.044  25.907  1.00  0.00     0.255 C 
ATOM     14  O   UNL A   1      29.771  26.102  26.781  1.00  0.00    -0.269 OA
ATOM     15  H   UNL A   1      30.090  27.885  25.296  1.00  0.00     0.170 HD
BRANCH  13  16
ATOM     16  C   UNL A   1      31.519  24.791  25.872  1.00  0.00     0.043 A 
ATOM     17  C   UNL A   1      34.017  25.627  25.984  1.00  0.00     0.045 C 
ATOM     18  C   UNL A   1      32.925  24.605  25.878  1.00  0.00    -0.038 A 
ATOM     19  C   UNL A   1      33.456  23.289  25.864  1.00  0.00     0.004 A 
ATOM     20  C   UNL A   1      32.651  22.169  26.013  1.00  0.00     0.000 A 
ATOM     21  C   UNL A   1      30.734  23.617  26.007  1.00  0.00     0.014 A 
ATOM     22  C   UNL A   1      31.285  22.335  26.109  1.00  0.00     0.001 A 
ENDBRANCH  13  16
ENDBRANCH   7  12
BRANCH   9  23
ATOM     23  N   UNL A   1      32.814  29.169  25.530  1.00  0.00    -0.359 N 
ATOM     24  C   UNL A   1      32.166  30.490  25.765  1.00  0.00     0.178 C 
ATOM     25  C   UNL A   1      34.148  29.145  26.143  1.00  0.00     0.178 C 
ATOM     26  C   UNL A   1      32.379  30.996  27.243  1.00  0.00     0.284 C 
ATOM     27  C   UNL A   1      34.002  29.318  27.648  1.00  0.00     0.284 C 
ATOM     28  N   UNL A   1      33.657  30.698  27.935  1.00  0.00    -0.324 N 
ATOM     29  H   UNL A   1      33.450  30.868  28.919  1.00  0.00     0.348 HD
BRANCH  28  30
ATOM     30  C   UNL A   1      34.815  31.621  27.813  1.00  0.00     0.364 C 
BRANCH  30  31
ATOM     31  C   UNL A   1      34.658  33.110  28.148  1.00  0.00     0.279 C 
ATOM     32  O   UNL A   1      34.605  33.928  27.214  1.00  0.00    -0.268 OA
ATOM     33  N   UNL A   1      34.472  33.646  29.399  1.00  0.00    -0.321 N 
ATOM     34  H   UNL A   1      34.026  34.521  29.324  1.00  0.00     0.170 HD
BRANCH  33  35
ATOM     35  C   UNL A   1      34.716  33.345  30.763  1.00  0.00     0.041 A 
ATOM     36  C   UNL A   1      34.425  34.370  31.686  1.00  0.00     0.029 A 
ATOM     37  C   UNL A   1      35.332  32.207  31.275  1.00  0.00     0.029 A 
ATOM     38  C   UNL A   1      34.749  34.261  33.048  1.00  0.00     0.041 A 
ATOM     39  C   UNL A   1      35.714  32.111  32.627  1.00  0.00     0.041 A 
ATOM     40  C   UNL A   1      35.411  33.135  33.506  1.00  0.00     0.123 A 
ATOM     41  F   UNL A   1      35.755  33.037  34.796  1.00  0.00    -0.207 F 
ENDBRANCH  33  35
ENDBRANCH  30  31
ENDBRANCH  28  30
ENDBRANCH   9  23
ENDBRANCH   4   6
ENDBRANCH   3   4
ENDBRANCH   2   3
ENDBRANCH   1   2
BRANCH   1  42
ATOM     42  O   UNL A   1      35.580  23.482  23.250  1.00  0.00    -0.374 OA
BRANCH  42  43
ATOM     43  C   UNL A   1      36.857  22.880  23.354  1.00  0.00     0.202 C 
BRANCH  43  44
ATOM     44  C   UNL A   1      36.886  21.742  24.381  1.00  0.00     0.261 C 
BRANCH  44  45
ATOM     45  O   UNL A   1      37.362  22.251  25.646  1.00  0.00    -0.460 OA
BRANCH  45  46
ATOM     46  C   UNL A   1      38.707  22.132  25.869  1.00  0.00     0.338 C 
ATOM     47  O   UNL A   1      39.395  21.200  25.534  1.00  0.00    -0.246 OA
BRANCH  46  48
ATOM     48  C   UNL A   1      39.143  23.177  26.851  1.00  0.00     0.060 A 
ATOM     49  C   UNL A   1      38.474  24.417  26.894  1.00  0.00     0.016 A 
ATOM     50  C   UNL A   1      40.400  23.050  27.431  1.00  0.00     0.016 A 
ATOM     51  C   UNL A   1      39.139  25.561  27.358  1.00  0.00     0.010 A 
ATOM     52  C   UNL A   1      41.092  24.196  27.752  1.00  0.00     0.010 A 
ATOM     53  C   UNL A   1      40.486  25.463  27.690  1.00  0.00    -0.014 A 
BRANCH  53  54
ATOM     54  C   UNL A   1      41.433  26.563  27.898  1.00  0.00     0.031 A 
ATOM     55  C   UNL A   1      40.851  27.888  28.212  1.00  0.00     0.074 A 
ATOM     56  C   UNL A   1      42.740  26.324  28.181  1.00  0.00     0.049 A 
ATOM     57  N   UNL A   1      41.539  28.895  28.601  1.00  0.00    -0.248 NA
ATOM     58  C   UNL A   1      39.422  28.189  28.156  1.00  0.00     0.031 C 
ATOM     59  C   UNL A   1      43.675  27.163  28.930  1.00  0.00     0.029 A 
ATOM     60  N   UNL A   1      43.562  25.263  27.783  1.00  0.00    -0.354 N 
ATOM     61  C   UNL A   1      40.691  29.813  29.156  1.00  0.00     0.074 A 
ATOM     62  C   UNL A   1      39.371  29.360  28.802  1.00  0.00     0.031 C 
ATOM     63  C   UNL A   1      44.934  26.830  28.608  1.00  0.00     0.029 A 
ATOM     64  C   UNL A   1      44.848  25.795  27.600  1.00  0.00     0.049 A 
ATOM     65  H   UNL A   1      43.291  24.326  27.656  1.00  0.00     0.167 HD
ATOM     66  C   UNL A   1      41.253  30.785  29.926  1.00  0.00     0.031 A 
ATOM     67  C   UNL A   1      45.444  25.782  26.382  1.00  0.00     0.031 A 
ATOM     68  C   UNL A   1      42.717  30.798  29.744  1.00  0.00     0.049 A 
ATOM     69  C   UNL A   1      45.657  27.220  26.002  1.00  0.00     0.074 A 
ATOM     70  C   UNL A   1      43.804  30.463  30.533  1.00  0.00     0.029 A 
ATOM     71  N   UNL A   1      43.203  30.877  28.433  1.00  0.00    -0.354 N 
ATOM     72  N   UNL A   1      44.839  28.184  26.365  1.00  0.00    -0.248 NA
ATOM     73  C   UNL A   1      46.937  27.711  25.505  1.00  0.00     0.031 C 
ATOM     74  C   UNL A   1      44.917  30.232  29.657  1.00  0.00     0.029 A 
ATOM     75  C   UNL A   1      44.511  30.438  28.344  1.00  0.00     0.049 A 
ATOM     76  H   UNL A   1      42.678  31.205  27.668  1.00  0.00     0.167 HD
ATOM     77  C   UNL A   1      45.545  29.357  26.384  1.00  0.00     0.074 A 
ATOM     78  C   UNL A   1      46.827  29.023  25.768  1.00  0.00     0.031 C 
ATOM     79  C   UNL A   1      45.224  30.498  27.068  1.00  0.00     0.031 A 
BRANCH  66  80
ATOM     80  C   UNL A   1      40.501  31.631  30.928  1.00  0.00    -0.014 A 
ATOM     81  C   UNL A   1      40.578  31.325  32.298  1.00  0.00     0.009 A 
ATOM     82  C   UNL A   1      39.648  32.701  30.592  1.00  0.00     0.009 A 
ATOM     83  C   UNL A   1      39.862  32.048  33.267  1.00  0.00     0.001 A 
ATOM     84  C   UNL A   1      38.942  33.439  31.555  1.00  0.00     0.001 A 
ATOM     85  C   UNL A   1      39.050  33.113  32.896  1.00  0.00     0.000 A 
ENDBRANCH  66  80
BRANCH  67  86
ATOM     86  C   UNL A   1      45.118  24.529  25.634  1.00  0.00    -0.014 A 
ATOM     87  C   UNL A   1      45.673  23.347  26.193  1.00  0.00     0.009 A 
ATOM     88  C   UNL A   1      43.932  24.395  24.894  1.00  0.00     0.009 A 
ATOM     89  C   UNL A   1      44.967  22.136  26.195  1.00  0.00     0.001 A 
ATOM     90  C   UNL A   1      43.239  23.167  24.882  1.00  0.00     0.001 A 
ATOM     91  C   UNL A   1      43.726  22.059  25.578  1.00  0.00     0.000 A 
ENDBRANCH  67  86
BRANCH  79  92
ATOM     92  C   UNL A   1      45.602  31.855  26.531  1.00  0.00    -0.014 A 
ATOM     93  C   UNL A   1      44.694  32.706  25.885  1.00  0.00     0.009 A 
ATOM     94  C   UNL A   1      46.862  32.400  26.861  1.00  0.00     0.009 A 
ATOM     95  C   UNL A   1      45.039  34.016  25.549  1.00  0.00     0.001 A 
ATOM     96  C   UNL A   1      47.186  33.726  26.585  1.00  0.00     0.001 A 
ATOM     97  C   UNL A   1      46.277  34.530  25.915  1.00  0.00     0.000 A 
ENDBRANCH  79  92
ENDBRANCH  53  54
ENDBRANCH  46  48
ENDBRANCH  45  46
ENDBRANCH  44  45
ENDBRANCH  43  44
ENDBRANCH  42  43
ENDBRANCH   1  42
TORSDOF 20
ENDMDL
