MODEL 1
REMARK VINA RESULT:     -10.6      0.000      0.000
REMARK SMILES C/C(=N\Nc1ccccc1C(=O)OCCOCCOC(=O)c1ccc(-c2c3nc(c(-c4ccccc4)c4ccc([nH]4)c(-c4ccccc4)c4nc(c(-c5ccccc5)c5ccc2[nH]5)C=C4)C=C3)cc1)c1ccc(S(C)(=O)=O)cc1
REMARK SMILES IDX 15 1 14 2 13 3 11 4 12 5 10 6 5 7 6 8 7 9 9 10 8 11 4 12
REMARK SMILES IDX 3 14 1 15 2 16 70 17 71 18 79 19 72 20 78 21 73 22 74 23
REMARK SMILES IDX 75 24 76 25 77 26 16 27 17 28 18 29 19 30 20 31 21 32 22 33
REMARK SMILES IDX 23 34 69 35 24 36 68 37 25 38 26 39 27 40 62 41 28 42 67 43
REMARK SMILES IDX 61 44 63 45 29 46 66 47 60 48 59 49 30 51 52 52 37 53 51 54
REMARK SMILES IDX 38 55 41 56 50 57 64 58 39 59 40 60 49 62 65 63 42 64 31 65
REMARK SMILES IDX 32 66 36 67 33 68 35 69 34 70 53 71 54 72 58 73 55 74 57 75
REMARK SMILES IDX 56 76 43 77 44 78 48 79 45 80 47 81 46 82
REMARK H PARENT 4 13 63 50 41 61
REMARK Flexibility Score: inf
ROOT
ATOM      1  C   UNL A   1      36.167  21.561  25.573  1.00  0.00     0.202 C 
ENDROOT
BRANCH   1   2
ATOM      2  C   UNL A   1      35.273  21.841  26.784  1.00  0.00     0.261 C 
BRANCH   2   3
ATOM      3  O   UNL A   1      34.414  22.976  26.619  1.00  0.00    -0.460 OA
BRANCH   3   4
ATOM      4  C   UNL A   1      33.094  22.677  26.516  1.00  0.00     0.340 C 
ATOM      5  O   UNL A   1      32.263  22.734  27.411  1.00  0.00    -0.246 OA
BRANCH   4   6
ATOM      6  C   UNL A   1      32.701  22.407  25.119  1.00  0.00     0.085 A 
ATOM      7  C   UNL A   1      32.574  23.387  24.122  1.00  0.00     0.071 A 
ATOM      8  C   UNL A   1      32.252  22.948  22.818  1.00  0.00     0.028 A 
ATOM      9  C   UNL A   1      32.102  21.592  22.507  1.00  0.00     0.002 A 
ATOM     10  C   UNL A   1      32.538  21.041  24.803  1.00  0.00     0.018 A 
ATOM     11  C   UNL A   1      32.249  20.636  23.502  1.00  0.00     0.001 A 
BRANCH   7  12
ATOM     12  N   UNL A   1      32.931  24.751  24.226  1.00  0.00    -0.277 N 
ATOM     13  H   UNL A   1      33.813  24.954  24.617  1.00  0.00     0.190 HD
BRANCH  12  14
ATOM     14  N   UNL A   1      32.178  25.799  23.841  1.00  0.00    -0.180 NA
ATOM     15  C   UNL A   1      30.519  25.329  25.664  1.00  0.00     0.069 C 
ATOM     16  C   UNL A   1      31.081  26.101  24.482  1.00  0.00     0.065 C 
BRANCH  16  17
ATOM     17  C   UNL A   1      30.308  27.305  24.018  1.00  0.00    -0.002 A 
ATOM     18  C   UNL A   1      30.927  28.568  24.015  1.00  0.00     0.011 A 
ATOM     19  C   UNL A   1      28.976  27.200  23.598  1.00  0.00     0.011 A 
ATOM     20  C   UNL A   1      30.222  29.706  23.613  1.00  0.00     0.021 A 
ATOM     21  C   UNL A   1      28.262  28.335  23.212  1.00  0.00     0.021 A 
ATOM     22  C   UNL A   1      28.885  29.583  23.232  1.00  0.00     0.067 A 
BRANCH  22  23
ATOM     23  S   UNL A   1      27.966  31.028  22.761  1.00  0.00     0.175 S 
ATOM     24  C   UNL A   1      29.124  32.357  22.963  1.00  0.00     0.163 C 
ATOM     25  O   UNL A   1      27.664  30.891  21.346  1.00  0.00    -0.224 OA
ATOM     26  O   UNL A   1      26.915  31.217  23.737  1.00  0.00    -0.224 OA
ENDBRANCH  22  23
ENDBRANCH  16  17
ENDBRANCH  12  14
ENDBRANCH   7  12
ENDBRANCH   4   6
ENDBRANCH   3   4
ENDBRANCH   2   3
ENDBRANCH   1   2
BRANCH   1  27
ATOM     27  O   UNL A   1      37.321  22.361  25.355  1.00  0.00    -0.374 OA
BRANCH  27  28
ATOM     28  C   UNL A   1      38.565  21.935  25.896  1.00  0.00     0.202 C 
BRANCH  28  29
ATOM     29  C   UNL A   1      39.155  20.574  25.486  1.00  0.00     0.261 C 
BRANCH  29  30
ATOM     30  O   UNL A   1      40.039  19.962  26.440  1.00  0.00    -0.460 OA
BRANCH  30  31
ATOM     31  C   UNL A   1      41.343  19.969  26.068  1.00  0.00     0.338 C 
ATOM     32  O   UNL A   1      41.905  19.188  25.318  1.00  0.00    -0.246 OA
BRANCH  31  33
ATOM     33  C   UNL A   1      42.040  21.154  26.596  1.00  0.00     0.060 A 
ATOM     34  C   UNL A   1      42.028  21.347  27.982  1.00  0.00     0.016 A 
ATOM     35  C   UNL A   1      42.514  22.151  25.743  1.00  0.00     0.016 A 
ATOM     36  C   UNL A   1      42.436  22.565  28.516  1.00  0.00     0.010 A 
ATOM     37  C   UNL A   1      42.925  23.377  26.283  1.00  0.00     0.010 A 
ATOM     38  C   UNL A   1      42.843  23.605  27.668  1.00  0.00    -0.014 A 
BRANCH  38  39
ATOM     39  C   UNL A   1      43.059  24.952  28.250  1.00  0.00     0.031 A 
ATOM     40  C   UNL A   1      44.456  25.412  28.579  1.00  0.00     0.074 A 
ATOM     41  C   UNL A   1      42.022  25.795  28.398  1.00  0.00     0.049 A 
ATOM     42  N   UNL A   1      44.864  26.583  29.004  1.00  0.00    -0.248 NA
ATOM     43  C   UNL A   1      45.535  24.427  28.405  1.00  0.00     0.031 C 
ATOM     44  C   UNL A   1      40.628  25.479  28.084  1.00  0.00     0.029 A 
ATOM     45  N   UNL A   1      41.985  27.097  28.830  1.00  0.00    -0.354 N 
ATOM     46  C   UNL A   1      46.242  26.474  29.148  1.00  0.00     0.074 A 
ATOM     47  C   UNL A   1      46.596  25.114  28.803  1.00  0.00     0.031 C 
ATOM     48  C   UNL A   1      39.874  26.567  28.313  1.00  0.00     0.029 A 
ATOM     49  C   UNL A   1      40.725  27.642  28.818  1.00  0.00     0.049 A 
ATOM     50  H   UNL A   1      42.785  27.591  29.121  1.00  0.00     0.167 HD
ATOM     51  C   UNL A   1      47.135  27.422  29.523  1.00  0.00     0.031 A 
ATOM     52  C   UNL A   1      40.303  28.869  29.175  1.00  0.00     0.031 A 
ATOM     53  C   UNL A   1      46.783  28.773  29.879  1.00  0.00     0.049 A 
ATOM     54  C   UNL A   1      41.309  29.886  29.643  1.00  0.00     0.074 A 
ATOM     55  C   UNL A   1      47.616  29.812  30.258  1.00  0.00     0.029 A 
ATOM     56  N   UNL A   1      45.489  29.270  29.909  1.00  0.00    -0.354 N 
ATOM     57  N   UNL A   1      42.612  29.778  29.744  1.00  0.00    -0.248 NA
ATOM     58  C   UNL A   1      40.781  31.202  30.029  1.00  0.00     0.031 C 
ATOM     59  C   UNL A   1      46.821  30.919  30.577  1.00  0.00     0.029 A 
ATOM     60  C   UNL A   1      45.498  30.591  30.328  1.00  0.00     0.049 A 
ATOM     61  H   UNL A   1      44.682  28.760  29.667  1.00  0.00     0.167 HD
ATOM     62  C   UNL A   1      43.062  31.019  30.180  1.00  0.00     0.074 A 
ATOM     63  C   UNL A   1      41.894  31.868  30.297  1.00  0.00     0.031 C 
ATOM     64  C   UNL A   1      44.327  31.420  30.459  1.00  0.00     0.031 A 
BRANCH  51  65
ATOM     65  C   UNL A   1      48.584  27.020  29.602  1.00  0.00    -0.014 A 
ATOM     66  C   UNL A   1      49.452  27.186  28.510  1.00  0.00     0.009 A 
ATOM     67  C   UNL A   1      49.099  26.503  30.801  1.00  0.00     0.009 A 
ATOM     68  C   UNL A   1      50.795  26.809  28.609  1.00  0.00     0.001 A 
ATOM     69  C   UNL A   1      50.447  26.155  30.907  1.00  0.00     0.001 A 
ATOM     70  C   UNL A   1      51.291  26.299  29.808  1.00  0.00     0.000 A 
ENDBRANCH  51  65
BRANCH  52  71
ATOM     71  C   UNL A   1      38.857  29.205  29.110  1.00  0.00    -0.014 A 
ATOM     72  C   UNL A   1      38.287  29.713  27.933  1.00  0.00     0.009 A 
ATOM     73  C   UNL A   1      38.040  29.033  30.239  1.00  0.00     0.009 A 
ATOM     74  C   UNL A   1      36.937  30.071  27.898  1.00  0.00     0.001 A 
ATOM     75  C   UNL A   1      36.683  29.360  30.191  1.00  0.00     0.001 A 
ATOM     76  C   UNL A   1      36.135  29.889  29.024  1.00  0.00     0.000 A 
ENDBRANCH  52  71
BRANCH  64  77
ATOM     77  C   UNL A   1      44.508  32.852  30.888  1.00  0.00    -0.014 A 
ATOM     78  C   UNL A   1      44.480  33.221  32.244  1.00  0.00     0.009 A 
ATOM     79  C   UNL A   1      44.704  33.849  29.919  1.00  0.00     0.009 A 
ATOM     80  C   UNL A   1      44.586  34.564  32.613  1.00  0.00     0.001 A 
ATOM     81  C   UNL A   1      44.847  35.186  30.294  1.00  0.00     0.001 A 
ATOM     82  C   UNL A   1      44.770  35.544  31.639  1.00  0.00     0.000 A 
ENDBRANCH  64  77
ENDBRANCH  38  39
ENDBRANCH  31  33
ENDBRANCH  30  31
ENDBRANCH  29  30
ENDBRANCH  28  29
ENDBRANCH  27  28
ENDBRANCH   1  27
TORSDOF 18
ENDMDL
MODEL 2
REMARK VINA RESULT:     -10.5      0.532      5.749
REMARK SMILES C/C(=N\Nc1ccccc1C(=O)OCCOCCOC(=O)c1ccc(-c2c3nc(c(-c4ccccc4)c4ccc([nH]4)c(-c4ccccc4)c4nc(c(-c5ccccc5)c5ccc2[nH]5)C=C4)C=C3)cc1)c1ccc(S(C)(=O)=O)cc1
REMARK SMILES IDX 15 1 14 2 13 3 11 4 12 5 10 6 5 7 6 8 7 9 9 10 8 11 4 12
REMARK SMILES IDX 3 14 1 15 2 16 70 17 71 18 79 19 72 20 78 21 73 22 74 23
REMARK SMILES IDX 75 24 76 25 77 26 16 27 17 28 18 29 19 30 20 31 21 32 22 33
REMARK SMILES IDX 23 34 69 35 24 36 68 37 25 38 26 39 27 40 62 41 28 42 67 43
REMARK SMILES IDX 61 44 63 45 29 46 66 47 60 48 59 49 30 51 52 52 37 53 51 54
REMARK SMILES IDX 38 55 41 56 50 57 64 58 39 59 40 60 49 62 65 63 42 64 31 65
REMARK SMILES IDX 32 66 36 67 33 68 35 69 34 70 53 71 54 72 58 73 55 74 57 75
REMARK SMILES IDX 56 76 43 77 44 78 48 79 45 80 47 81 46 82
REMARK H PARENT 4 13 63 50 41 61
REMARK Flexibility Score: inf
ROOT
ATOM      1  C   UNL A   1      35.500  21.528  26.205  1.00  0.00     0.202 C 
ENDROOT
BRANCH   1   2
ATOM      2  C   UNL A   1      34.792  22.481  27.173  1.00  0.00     0.261 C 
BRANCH   2   3
ATOM      3  O   UNL A   1      33.901  23.402  26.531  1.00  0.00    -0.460 OA
BRANCH   3   4
ATOM      4  C   UNL A   1      32.642  22.932  26.341  1.00  0.00     0.340 C 
ATOM      5  O   UNL A   1      31.730  22.943  27.155  1.00  0.00    -0.246 OA
BRANCH   4   6
ATOM      6  C   UNL A   1      32.416  22.521  24.941  1.00  0.00     0.085 A 
ATOM      7  C   UNL A   1      32.412  23.396  23.843  1.00  0.00     0.071 A 
ATOM      8  C   UNL A   1      32.246  22.826  22.560  1.00  0.00     0.028 A 
ATOM      9  C   UNL A   1      32.130  21.445  22.371  1.00  0.00     0.002 A 
ATOM     10  C   UNL A   1      32.288  21.129  24.745  1.00  0.00     0.018 A 
ATOM     11  C   UNL A   1      32.155  20.594  23.467  1.00  0.00     0.001 A 
BRANCH   7  12
ATOM     12  N   UNL A   1      32.759  24.766  23.852  1.00  0.00    -0.277 N 
ATOM     13  H   UNL A   1      33.680  24.993  24.117  1.00  0.00     0.190 HD
BRANCH  12  14
ATOM     14  N   UNL A   1      31.945  25.791  23.532  1.00  0.00    -0.180 NA
ATOM     15  C   UNL A   1      31.991  26.622  25.900  1.00  0.00     0.069 C 
ATOM     16  C   UNL A   1      31.588  26.664  24.435  1.00  0.00     0.065 C 
BRANCH  16  17
ATOM     17  C   UNL A   1      30.706  27.802  23.998  1.00  0.00    -0.002 A 
ATOM     18  C   UNL A   1      31.040  29.118  24.365  1.00  0.00     0.011 A 
ATOM     19  C   UNL A   1      29.549  27.579  23.241  1.00  0.00     0.011 A 
ATOM     20  C   UNL A   1      30.223  30.190  23.993  1.00  0.00     0.021 A 
ATOM     21  C   UNL A   1      28.720  28.643  22.881  1.00  0.00     0.021 A 
ATOM     22  C   UNL A   1      29.056  29.941  23.269  1.00  0.00     0.067 A 
BRANCH  22  23
ATOM     23  S   UNL A   1      27.987  31.290  22.828  1.00  0.00     0.175 S 
ATOM     24  C   UNL A   1      29.013  32.726  23.009  1.00  0.00     0.163 C 
ATOM     25  O   UNL A   1      27.665  31.128  21.421  1.00  0.00    -0.224 OA
ATOM     26  O   UNL A   1      26.947  31.371  23.831  1.00  0.00    -0.224 OA
ENDBRANCH  22  23
ENDBRANCH  16  17
ENDBRANCH  12  14
ENDBRANCH   7  12
ENDBRANCH   4   6
ENDBRANCH   3   4
ENDBRANCH   2   3
ENDBRANCH   1   2
BRANCH   1  27
ATOM     27  O   UNL A   1      36.511  22.031  25.342  1.00  0.00    -0.374 OA
BRANCH  27  28
ATOM     28  C   UNL A   1      37.822  22.223  25.858  1.00  0.00     0.202 C 
BRANCH  28  29
ATOM     29  C   UNL A   1      38.975  21.324  25.380  1.00  0.00     0.261 C 
BRANCH  29  30
ATOM     30  O   UNL A   1      39.434  20.339  26.322  1.00  0.00    -0.460 OA
BRANCH  30  31
ATOM     31  C   UNL A   1      40.754  20.050  26.219  1.00  0.00     0.338 C 
ATOM     32  O   UNL A   1      41.260  19.048  25.742  1.00  0.00    -0.246 OA
BRANCH  31  33
ATOM     33  C   UNL A   1      41.582  21.185  26.661  1.00  0.00     0.060 A 
ATOM     34  C   UNL A   1      41.486  21.572  28.003  1.00  0.00     0.016 A 
ATOM     35  C   UNL A   1      42.276  21.973  25.742  1.00  0.00     0.016 A 
ATOM     36  C   UNL A   1      42.034  22.782  28.417  1.00  0.00     0.010 A 
ATOM     37  C   UNL A   1      42.828  23.191  26.161  1.00  0.00     0.010 A 
ATOM     38  C   UNL A   1      42.668  23.622  27.490  1.00  0.00    -0.014 A 
BRANCH  38  39
ATOM     39  C   UNL A   1      43.043  24.993  27.915  1.00  0.00     0.031 A 
ATOM     40  C   UNL A   1      41.972  26.027  28.145  1.00  0.00     0.074 A 
ATOM     41  C   UNL A   1      44.328  25.285  28.184  1.00  0.00     0.049 A 
ATOM     42  N   UNL A   1      42.085  27.248  28.607  1.00  0.00    -0.248 NA
ATOM     43  C   UNL A   1      40.593  25.635  27.813  1.00  0.00     0.031 C 
ATOM     44  C   UNL A   1      45.452  24.360  28.034  1.00  0.00     0.029 A 
ATOM     45  N   UNL A   1      44.900  26.438  28.661  1.00  0.00    -0.354 N 
ATOM     46  C   UNL A   1      40.796  27.768  28.620  1.00  0.00     0.074 A 
ATOM     47  C   UNL A   1      39.923  26.746  28.084  1.00  0.00     0.031 C 
ATOM     48  C   UNL A   1      46.577  24.976  28.433  1.00  0.00     0.029 A 
ATOM     49  C   UNL A   1      46.258  26.343  28.835  1.00  0.00     0.049 A 
ATOM     50  H   UNL A   1      44.385  27.253  28.858  1.00  0.00     0.167 HD
ATOM     51  C   UNL A   1      40.374  28.982  29.048  1.00  0.00     0.031 A 
ATOM     52  C   UNL A   1      47.146  27.258  29.269  1.00  0.00     0.031 A 
ATOM     53  C   UNL A   1      41.244  30.007  29.570  1.00  0.00     0.049 A 
ATOM     54  C   UNL A   1      46.658  28.618  29.685  1.00  0.00     0.074 A 
ATOM     55  C   UNL A   1      40.910  31.264  30.044  1.00  0.00     0.029 A 
ATOM     56  N   UNL A   1      42.621  29.893  29.678  1.00  0.00    -0.354 N 
ATOM     57  N   UNL A   1      45.433  29.085  29.721  1.00  0.00    -0.248 NA
ATOM     58  C   UNL A   1      47.681  29.572  30.137  1.00  0.00     0.031 C 
ATOM     59  C   UNL A   1      42.092  31.934  30.380  1.00  0.00     0.029 A 
ATOM     60  C   UNL A   1      43.156  31.068  30.183  1.00  0.00     0.049 A 
ATOM     61  H   UNL A   1      43.143  29.095  29.432  1.00  0.00     0.167 HD
ATOM     62  C   UNL A   1      45.535  30.377  30.224  1.00  0.00     0.074 A 
ATOM     63  C   UNL A   1      46.938  30.607  30.503  1.00  0.00     0.031 C 
ATOM     64  C   UNL A   1      44.555  31.291  30.437  1.00  0.00     0.031 A 
BRANCH  51  65
ATOM     65  C   UNL A   1      38.903  29.286  28.938  1.00  0.00    -0.014 A 
ATOM     66  C   UNL A   1      38.332  29.721  27.731  1.00  0.00     0.009 A 
ATOM     67  C   UNL A   1      38.068  29.096  30.051  1.00  0.00     0.009 A 
ATOM     68  C   UNL A   1      36.962  29.992  27.653  1.00  0.00     0.001 A 
ATOM     69  C   UNL A   1      36.696  29.339  29.962  1.00  0.00     0.001 A 
ATOM     70  C   UNL A   1      36.146  29.797  28.766  1.00  0.00     0.000 A 
ENDBRANCH  51  65
BRANCH  52  71
ATOM     71  C   UNL A   1      48.592  26.918  29.327  1.00  0.00    -0.014 A 
ATOM     72  C   UNL A   1      49.412  27.061  28.198  1.00  0.00     0.009 A 
ATOM     73  C   UNL A   1      49.156  26.428  30.517  1.00  0.00     0.009 A 
ATOM     74  C   UNL A   1      50.759  26.692  28.251  1.00  0.00     0.001 A 
ATOM     75  C   UNL A   1      50.510  26.092  30.576  1.00  0.00     0.001 A 
ATOM     76  C   UNL A   1      51.308  26.214  29.439  1.00  0.00     0.000 A 
ENDBRANCH  52  71
BRANCH  64  77
ATOM     77  C   UNL A   1      44.975  32.611  31.028  1.00  0.00    -0.014 A 
ATOM     78  C   UNL A   1      45.024  32.811  32.418  1.00  0.00     0.009 A 
ATOM     79  C   UNL A   1      45.321  33.674  30.178  1.00  0.00     0.009 A 
ATOM     80  C   UNL A   1      45.354  34.064  32.940  1.00  0.00     0.001 A 
ATOM     81  C   UNL A   1      45.687  34.915  30.705  1.00  0.00     0.001 A 
ATOM     82  C   UNL A   1      45.686  35.113  32.084  1.00  0.00     0.000 A 
ENDBRANCH  64  77
ENDBRANCH  38  39
ENDBRANCH  31  33
ENDBRANCH  30  31
ENDBRANCH  29  30
ENDBRANCH  28  29
ENDBRANCH  27  28
ENDBRANCH   1  27
TORSDOF 18
ENDMDL
MODEL 3
REMARK VINA RESULT:     -10.5      3.806      8.072
REMARK SMILES C/C(=N\Nc1ccccc1C(=O)OCCOCCOC(=O)c1ccc(-c2c3nc(c(-c4ccccc4)c4ccc([nH]4)c(-c4ccccc4)c4nc(c(-c5ccccc5)c5ccc2[nH]5)C=C4)C=C3)cc1)c1ccc(S(C)(=O)=O)cc1
REMARK SMILES IDX 15 1 14 2 13 3 11 4 12 5 10 6 5 7 6 8 7 9 9 10 8 11 4 12
REMARK SMILES IDX 3 14 1 15 2 16 70 17 71 18 79 19 72 20 78 21 73 22 74 23
REMARK SMILES IDX 75 24 76 25 77 26 16 27 17 28 18 29 19 30 20 31 21 32 22 33
REMARK SMILES IDX 23 34 69 35 24 36 68 37 25 38 26 39 27 40 62 41 28 42 67 43
REMARK SMILES IDX 61 44 63 45 29 46 66 47 60 48 59 49 30 51 52 52 37 53 51 54
REMARK SMILES IDX 38 55 41 56 50 57 64 58 39 59 40 60 49 62 65 63 42 64 31 65
REMARK SMILES IDX 32 66 36 67 33 68 35 69 34 70 53 71 54 72 58 73 55 74 57 75
REMARK SMILES IDX 56 76 43 77 44 78 48 79 45 80 47 81 46 82
REMARK H PARENT 4 13 63 50 41 61
REMARK Flexibility Score: inf
ROOT
ATOM      1  C   UNL A   1      32.775  27.938  26.982  1.00  0.00     0.202 C 
ENDROOT
BRANCH   1   2
ATOM      2  C   UNL A   1      32.882  26.638  26.178  1.00  0.00     0.261 C 
BRANCH   2   3
ATOM      3  O   UNL A   1      31.755  25.766  26.336  1.00  0.00    -0.460 OA
BRANCH   3   4
ATOM      4  C   UNL A   1      32.073  24.461  26.530  1.00  0.00     0.340 C 
ATOM      5  O   UNL A   1      31.626  23.724  27.397  1.00  0.00    -0.246 OA
BRANCH   4   6
ATOM      6  C   UNL A   1      32.940  23.942  25.453  1.00  0.00     0.085 A 
ATOM      7  C   UNL A   1      32.520  23.708  24.134  1.00  0.00     0.071 A 
ATOM      8  C   UNL A   1      33.496  23.272  23.210  1.00  0.00     0.028 A 
ATOM      9  C   UNL A   1      34.839  23.113  23.569  1.00  0.00     0.002 A 
ATOM     10  C   UNL A   1      34.293  23.770  25.812  1.00  0.00     0.018 A 
ATOM     11  C   UNL A   1      35.239  23.366  24.873  1.00  0.00     0.001 A 
BRANCH   7  12
ATOM     12  N   UNL A   1      31.270  24.055  23.570  1.00  0.00    -0.277 N 
ATOM     13  H   UNL A   1      30.772  23.339  23.113  1.00  0.00     0.190 HD
BRANCH  12  14
ATOM     14  N   UNL A   1      30.698  25.274  23.600  1.00  0.00    -0.180 NA
ATOM     15  C   UNL A   1      31.957  25.961  21.541  1.00  0.00     0.069 C 
ATOM     16  C   UNL A   1      30.976  26.161  22.684  1.00  0.00     0.065 C 
BRANCH  16  17
ATOM     17  C   UNL A   1      30.274  27.490  22.761  1.00  0.00    -0.002 A 
ATOM     18  C   UNL A   1      30.938  28.651  22.326  1.00  0.00     0.011 A 
ATOM     19  C   UNL A   1      28.972  27.599  23.267  1.00  0.00     0.011 A 
ATOM     20  C   UNL A   1      30.317  29.901  22.412  1.00  0.00     0.021 A 
ATOM     21  C   UNL A   1      28.354  28.846  23.370  1.00  0.00     0.021 A 
ATOM     22  C   UNL A   1      29.033  29.991  22.952  1.00  0.00     0.067 A 
BRANCH  22  23
ATOM     23  S   UNL A   1      28.250  31.578  23.106  1.00  0.00     0.175 S 
ATOM     24  C   UNL A   1      28.017  32.105  21.428  1.00  0.00     0.163 C 
ATOM     25  O   UNL A   1      26.946  31.347  23.703  1.00  0.00    -0.224 OA
ATOM     26  O   UNL A   1      29.204  32.480  23.715  1.00  0.00    -0.224 OA
ENDBRANCH  22  23
ENDBRANCH  16  17
ENDBRANCH  12  14
ENDBRANCH   7  12
ENDBRANCH   4   6
ENDBRANCH   3   4
ENDBRANCH   2   3
ENDBRANCH   1   2
BRANCH   1  27
ATOM     27  O   UNL A   1      31.611  28.744  26.857  1.00  0.00    -0.374 OA
BRANCH  27  28
ATOM     28  C   UNL A   1      31.649  29.877  25.999  1.00  0.00     0.202 C 
BRANCH  28  29
ATOM     29  C   UNL A   1      32.648  31.015  26.273  1.00  0.00     0.261 C 
BRANCH  29  30
ATOM     30  O   UNL A   1      32.423  31.772  27.474  1.00  0.00    -0.460 OA
BRANCH  30  31
ATOM     31  C   UNL A   1      33.354  32.730  27.705  1.00  0.00     0.338 C 
ATOM     32  O   UNL A   1      33.171  33.931  27.814  1.00  0.00    -0.246 OA
BRANCH  31  33
ATOM     33  C   UNL A   1      34.679  32.135  27.945  1.00  0.00     0.060 A 
ATOM     34  C   UNL A   1      34.723  30.807  28.386  1.00  0.00     0.016 A 
ATOM     35  C   UNL A   1      35.834  32.918  27.933  1.00  0.00     0.016 A 
ATOM     36  C   UNL A   1      35.912  30.277  28.875  1.00  0.00     0.010 A 
ATOM     37  C   UNL A   1      37.032  32.382  28.424  1.00  0.00     0.010 A 
ATOM     38  C   UNL A   1      37.064  31.074  28.941  1.00  0.00    -0.014 A 
BRANCH  38  39
ATOM     39  C   UNL A   1      38.249  30.552  29.665  1.00  0.00     0.031 A 
ATOM     40  C   UNL A   1      38.438  30.875  31.124  1.00  0.00     0.074 A 
ATOM     41  C   UNL A   1      39.101  29.716  29.046  1.00  0.00     0.049 A 
ATOM     42  N   UNL A   1      39.351  30.440  31.957  1.00  0.00    -0.248 NA
ATOM     43  C   UNL A   1      37.472  31.808  31.726  1.00  0.00     0.031 C 
ATOM     44  C   UNL A   1      39.006  29.301  27.646  1.00  0.00     0.029 A 
ATOM     45  N   UNL A   1      40.203  29.052  29.522  1.00  0.00    -0.354 N 
ATOM     46  C   UNL A   1      39.071  31.046  33.176  1.00  0.00     0.074 A 
ATOM     47  C   UNL A   1      37.927  31.908  32.967  1.00  0.00     0.031 C 
ATOM     48  C   UNL A   1      39.997  28.433  27.383  1.00  0.00     0.029 A 
ATOM     49  C   UNL A   1      40.811  28.257  28.582  1.00  0.00     0.049 A 
ATOM     50  H   UNL A   1      40.525  29.137  30.448  1.00  0.00     0.167 HD
ATOM     51  C   UNL A   1      39.701  30.892  34.367  1.00  0.00     0.031 A 
ATOM     52  C   UNL A   1      41.904  27.476  28.678  1.00  0.00     0.031 A 
ATOM     53  C   UNL A   1      40.848  30.044  34.575  1.00  0.00     0.049 A 
ATOM     54  C   UNL A   1      42.618  27.367  29.997  1.00  0.00     0.074 A 
ATOM     55  C   UNL A   1      41.547  29.810  35.747  1.00  0.00     0.029 A 
ATOM     56  N   UNL A   1      41.469  29.299  33.585  1.00  0.00    -0.354 N 
ATOM     57  N   UNL A   1      42.323  27.921  31.148  1.00  0.00    -0.248 NA
ATOM     58  C   UNL A   1      43.810  26.508  30.029  1.00  0.00     0.031 C 
ATOM     59  C   UNL A   1      42.629  28.971  35.451  1.00  0.00     0.029 A 
ATOM     60  C   UNL A   1      42.561  28.627  34.111  1.00  0.00     0.049 A 
ATOM     61  H   UNL A   1      41.177  29.253  32.645  1.00  0.00     0.167 HD
ATOM     62  C   UNL A   1      43.276  27.457  32.047  1.00  0.00     0.074 A 
ATOM     63  C   UNL A   1      44.140  26.557  31.311  1.00  0.00     0.031 C 
ATOM     64  C   UNL A   1      43.424  27.749  33.364  1.00  0.00     0.031 A 
BRANCH  51  65
ATOM     65  C   UNL A   1      39.182  31.687  35.536  1.00  0.00    -0.014 A 
ATOM     66  C   UNL A   1      39.627  32.995  35.789  1.00  0.00     0.009 A 
ATOM     67  C   UNL A   1      38.203  31.132  36.375  1.00  0.00     0.009 A 
ATOM     68  C   UNL A   1      39.127  33.715  36.878  1.00  0.00     0.001 A 
ATOM     69  C   UNL A   1      37.684  31.864  37.444  1.00  0.00     0.001 A 
ATOM     70  C   UNL A   1      38.153  33.151  37.701  1.00  0.00     0.000 A 
ENDBRANCH  51  65
BRANCH  52  71
ATOM     71  C   UNL A   1      42.394  26.738  27.484  1.00  0.00    -0.014 A 
ATOM     72  C   UNL A   1      43.306  27.327  26.596  1.00  0.00     0.009 A 
ATOM     73  C   UNL A   1      41.933  25.438  27.219  1.00  0.00     0.009 A 
ATOM     74  C   UNL A   1      43.722  26.642  25.452  1.00  0.00     0.001 A 
ATOM     75  C   UNL A   1      42.376  24.743  26.092  1.00  0.00     0.001 A 
ATOM     76  C   UNL A   1      43.262  25.350  25.203  1.00  0.00     0.000 A 
ENDBRANCH  52  71
BRANCH  64  77
ATOM     77  C   UNL A   1      44.547  27.059  34.092  1.00  0.00    -0.014 A 
ATOM     78  C   UNL A   1      44.365  25.808  34.705  1.00  0.00     0.009 A 
ATOM     79  C   UNL A   1      45.807  27.674  34.168  1.00  0.00     0.009 A 
ATOM     80  C   UNL A   1      45.404  25.218  35.429  1.00  0.00     0.001 A 
ATOM     81  C   UNL A   1      46.855  27.063  34.861  1.00  0.00     0.001 A 
ATOM     82  C   UNL A   1      46.647  25.845  35.504  1.00  0.00     0.000 A 
ENDBRANCH  64  77
ENDBRANCH  38  39
ENDBRANCH  31  33
ENDBRANCH  30  31
ENDBRANCH  29  30
ENDBRANCH  28  29
ENDBRANCH  27  28
ENDBRANCH   1  27
TORSDOF 18
ENDMDL
