MODEL 1
REMARK VINA RESULT:     -11.7      0.000      0.000
REMARK SMILES O=C(OCCOCCOC(=O)C1CCN(C2=[NH+]C(Cl)=[NH+]C3=[NH+]C=N[C@@H]32)CC1)c1ccc(-c2c3nc(c(-c4ccccc4)c4ccc([nH]4)c(-c4ccccc4)c4nc(c(-c5ccccc5)c5ccc2[nH]5)C=C4)C=C3)cc1
REMARK SMILES IDX 5 1 4 2 3 3 2 4 1 5 28 6 29 7 75 8 30 9 74 10 31 11 32 12
REMARK SMILES IDX 33 13 68 14 34 15 73 16 67 17 69 18 35 19 72 20 66 21 65 22
REMARK SMILES IDX 36 24 58 25 43 26 57 27 44 28 47 29 56 30 70 31 45 32 46 33
REMARK SMILES IDX 55 35 71 36 48 37 37 38 38 39 42 40 39 41 41 42 40 43 59 44
REMARK SMILES IDX 60 45 64 46 61 47 63 48 62 49 49 50 50 51 54 52 51 53 53 54
REMARK SMILES IDX 52 55 6 56 7 57 8 58 9 59 10 60 11 61 12 62 13 63 27 64
REMARK SMILES IDX 14 65 26 66 15 67 16 68 17 69 25 70 18 71 21 73 24 74 19 75
REMARK SMILES IDX 20 76 22 77 23 78
REMARK H PARENT 69 23 47 34 17 72 20 79 22 80
REMARK Flexibility Score: inf
ROOT
ATOM      1  C   UNL A   1      42.283  19.334  26.736  1.00  0.00     0.202 C 
ENDROOT
BRANCH   1   2
ATOM      2  C   UNL A   1      43.318  18.557  25.917  1.00  0.00     0.261 C 
BRANCH   2   3
ATOM      3  O   UNL A   1      43.388  18.983  24.553  1.00  0.00    -0.460 OA
BRANCH   3   4
ATOM      4  C   UNL A   1      44.302  19.804  24.000  1.00  0.00     0.338 C 
ATOM      5  O   UNL A   1      44.811  19.487  22.926  1.00  0.00    -0.246 OA
BRANCH   4   6
ATOM      6  C   UNL A   1      44.653  21.132  24.587  1.00  0.00     0.060 A 
ATOM      7  C   UNL A   1      45.638  21.380  25.543  1.00  0.00     0.016 A 
ATOM      8  C   UNL A   1      43.864  22.206  24.144  1.00  0.00     0.016 A 
ATOM      9  C   UNL A   1      45.634  22.560  26.257  1.00  0.00     0.010 A 
ATOM     10  C   UNL A   1      43.906  23.422  24.797  1.00  0.00     0.010 A 
ATOM     11  C   UNL A   1      44.708  23.540  25.925  1.00  0.00    -0.014 A 
BRANCH  11  12
ATOM     12  C   UNL A   1      44.639  24.702  26.784  1.00  0.00     0.031 A 
ATOM     13  C   UNL A   1      45.794  25.626  26.679  1.00  0.00     0.074 A 
ATOM     14  C   UNL A   1      43.563  24.927  27.558  1.00  0.00     0.049 A 
ATOM     15  N   UNL A   1      46.626  25.969  27.605  1.00  0.00    -0.248 NA
ATOM     16  C   UNL A   1      46.133  26.134  25.340  1.00  0.00     0.031 C 
ATOM     17  C   UNL A   1      42.280  24.216  27.548  1.00  0.00     0.029 A 
ATOM     18  N   UNL A   1      43.343  25.942  28.432  1.00  0.00    -0.354 N 
ATOM     19  C   UNL A   1      47.499  26.877  27.011  1.00  0.00     0.074 A 
ATOM     20  C   UNL A   1      47.241  26.828  25.594  1.00  0.00     0.031 C 
ATOM     21  C   UNL A   1      41.349  24.982  28.156  1.00  0.00     0.029 A 
ATOM     22  C   UNL A   1      42.003  26.153  28.714  1.00  0.00     0.049 A 
ATOM     23  H   UNL A   1      44.068  26.478  28.827  1.00  0.00     0.167 HD
ATOM     24  C   UNL A   1      48.208  27.776  27.745  1.00  0.00     0.031 A 
ATOM     25  C   UNL A   1      41.468  27.262  29.278  1.00  0.00     0.031 A 
ATOM     26  C   UNL A   1      48.274  27.411  29.134  1.00  0.00     0.049 A 
ATOM     27  C   UNL A   1      42.564  28.002  29.947  1.00  0.00     0.074 A 
ATOM     28  C   UNL A   1      48.795  26.345  29.837  1.00  0.00     0.029 A 
ATOM     29  N   UNL A   1      47.411  28.048  29.992  1.00  0.00    -0.354 N 
ATOM     30  N   UNL A   1      43.184  27.562  31.004  1.00  0.00    -0.248 NA
ATOM     31  C   UNL A   1      43.281  29.012  29.182  1.00  0.00     0.031 C 
ATOM     32  C   UNL A   1      47.871  26.118  30.897  1.00  0.00     0.029 A 
ATOM     33  C   UNL A   1      46.874  27.092  30.814  1.00  0.00     0.049 A 
ATOM     34  H   UNL A   1      47.214  29.012  30.014  1.00  0.00     0.167 HD
ATOM     35  C   UNL A   1      44.516  27.893  30.798  1.00  0.00     0.074 A 
ATOM     36  C   UNL A   1      44.499  28.877  29.718  1.00  0.00     0.031 C 
ATOM     37  C   UNL A   1      45.521  27.129  31.320  1.00  0.00     0.031 A 
BRANCH  24  38
ATOM     38  C   UNL A   1      48.474  29.184  27.277  1.00  0.00    -0.014 A 
ATOM     39  C   UNL A   1      49.804  29.625  27.176  1.00  0.00     0.009 A 
ATOM     40  C   UNL A   1      47.471  30.170  27.222  1.00  0.00     0.009 A 
ATOM     41  C   UNL A   1      50.112  30.989  27.101  1.00  0.00     0.001 A 
ATOM     42  C   UNL A   1      47.773  31.529  27.105  1.00  0.00     0.001 A 
ATOM     43  C   UNL A   1      49.096  31.940  27.076  1.00  0.00     0.000 A 
ENDBRANCH  24  38
BRANCH  25  44
ATOM     44  C   UNL A   1      40.150  27.870  28.998  1.00  0.00    -0.014 A 
ATOM     45  C   UNL A   1      39.181  27.976  30.006  1.00  0.00     0.009 A 
ATOM     46  C   UNL A   1      39.932  28.580  27.802  1.00  0.00     0.009 A 
ATOM     47  C   UNL A   1      38.053  28.790  29.834  1.00  0.00     0.001 A 
ATOM     48  C   UNL A   1      38.806  29.387  27.628  1.00  0.00     0.001 A 
ATOM     49  C   UNL A   1      37.873  29.504  28.651  1.00  0.00     0.000 A 
ENDBRANCH  25  44
BRANCH  37  50
ATOM     50  C   UNL A   1      45.146  26.049  32.305  1.00  0.00    -0.014 A 
ATOM     51  C   UNL A   1      44.721  24.768  31.910  1.00  0.00     0.009 A 
ATOM     52  C   UNL A   1      45.382  26.281  33.668  1.00  0.00     0.009 A 
ATOM     53  C   UNL A   1      44.509  23.760  32.856  1.00  0.00     0.001 A 
ATOM     54  C   UNL A   1      45.191  25.268  34.610  1.00  0.00     0.001 A 
ATOM     55  C   UNL A   1      44.749  24.010  34.205  1.00  0.00     0.000 A 
ENDBRANCH  37  50
ENDBRANCH  11  12
ENDBRANCH   4   6
ENDBRANCH   3   4
ENDBRANCH   2   3
ENDBRANCH   1   2
BRANCH   1  56
ATOM     56  O   UNL A   1      41.132  19.906  26.127  1.00  0.00    -0.374 OA
BRANCH  56  57
ATOM     57  C   UNL A   1      40.888  21.316  26.133  1.00  0.00     0.202 C 
BRANCH  57  58
ATOM     58  C   UNL A   1      39.630  21.941  26.753  1.00  0.00     0.261 C 
BRANCH  58  59
ATOM     59  O   UNL A   1      38.599  22.197  25.797  1.00  0.00    -0.463 OA
BRANCH  59  60
ATOM     60  C   UNL A   1      37.915  23.348  26.045  1.00  0.00     0.309 C 
ATOM     61  O   UNL A   1      38.153  24.108  26.962  1.00  0.00    -0.252 OA
BRANCH  60  62
ATOM     62  C   UNL A   1      36.903  23.610  24.940  1.00  0.00     0.108 C 
ATOM     63  C   UNL A   1      35.479  23.648  25.513  1.00  0.00     0.070 C 
ATOM     64  C   UNL A   1      37.026  22.532  23.877  1.00  0.00     0.070 C 
ATOM     65  C   UNL A   1      35.023  22.282  26.012  1.00  0.00     0.277 C 
ATOM     66  C   UNL A   1      36.654  21.173  24.465  1.00  0.00     0.277 C 
ATOM     67  N   UNL A   1      35.308  21.245  25.025  1.00  0.00    -0.230 N 
ATOM     68  C   UNL A   1      34.417  20.215  24.813  1.00  0.00     0.383 C 
ATOM     69  N   UNL A   1      34.807  18.973  24.747  1.00  0.00    -0.155 N 
ATOM     70  C   UNL A   1      32.951  20.545  24.628  1.00  0.00     0.523 C 
ATOM     71  C   UNL A   1      33.860  18.004  24.526  1.00  0.00     0.414 C 
ATOM     72  H   UNL A   1      35.757  18.736  24.854  1.00  0.00     0.367 HD
ATOM     73  C   UNL A   1      32.452  19.488  23.724  1.00  0.00     0.389 C 
ATOM     74  N   UNL A   1      32.726  21.756  23.804  1.00  0.00     0.003 NA
ATOM     75  Cl  UNL A   1      34.308  16.418  24.981  1.00  0.00     0.028 Cl
ATOM     76  N   UNL A   1      32.686  18.189  24.013  1.00  0.00    -0.155 N 
ATOM     77  N   UNL A   1      31.933  19.940  22.640  1.00  0.00    -0.169 N 
ATOM     78  C   UNL A   1      32.136  21.295  22.740  1.00  0.00     0.532 C 
ATOM     79  H   UNL A   1      32.038  17.465  23.852  1.00  0.00     0.367 HD
ATOM     80  H   UNL A   1      31.499  19.437  21.914  1.00  0.00     0.365 HD
ENDBRANCH  60  62
ENDBRANCH  59  60
ENDBRANCH  58  59
ENDBRANCH  57  58
ENDBRANCH  56  57
ENDBRANCH   1  56
TORSDOF 14
ENDMDL
MODEL 2
REMARK VINA RESULT:     -11.3      5.856     11.528
REMARK SMILES O=C(OCCOCCOC(=O)C1CCN(C2=[NH+]C(Cl)=[NH+]C3=[NH+]C=N[C@@H]32)CC1)c1ccc(-c2c3nc(c(-c4ccccc4)c4ccc([nH]4)c(-c4ccccc4)c4nc(c(-c5ccccc5)c5ccc2[nH]5)C=C4)C=C3)cc1
REMARK SMILES IDX 5 1 4 2 3 3 2 4 1 5 28 6 29 7 75 8 30 9 74 10 31 11 32 12
REMARK SMILES IDX 33 13 68 14 34 15 73 16 67 17 69 18 35 19 72 20 66 21 65 22
REMARK SMILES IDX 36 24 58 25 43 26 57 27 44 28 47 29 56 30 70 31 45 32 46 33
REMARK SMILES IDX 55 35 71 36 48 37 37 38 38 39 42 40 39 41 41 42 40 43 59 44
REMARK SMILES IDX 60 45 64 46 61 47 63 48 62 49 49 50 50 51 54 52 51 53 53 54
REMARK SMILES IDX 52 55 6 56 7 57 8 58 9 59 10 60 11 61 12 62 13 63 27 64
REMARK SMILES IDX 14 65 26 66 15 67 16 68 17 69 25 70 18 71 21 73 24 74 19 75
REMARK SMILES IDX 20 76 22 77 23 78
REMARK H PARENT 69 23 47 34 17 72 20 79 22 80
REMARK Flexibility Score: inf
ROOT
ATOM      1  C   UNL A   1      34.425  34.843  27.918  1.00  0.00     0.202 C 
ENDROOT
BRANCH   1   2
ATOM      2  C   UNL A   1      35.557  34.057  28.588  1.00  0.00     0.261 C 
BRANCH   2   3
ATOM      3  O   UNL A   1      36.040  32.975  27.785  1.00  0.00    -0.460 OA
BRANCH   3   4
ATOM      4  C   UNL A   1      35.914  31.657  28.030  1.00  0.00     0.338 C 
ATOM      5  O   UNL A   1      34.936  31.062  27.582  1.00  0.00    -0.246 OA
BRANCH   4   6
ATOM      6  C   UNL A   1      36.963  30.865  28.740  1.00  0.00     0.060 A 
ATOM      7  C   UNL A   1      38.146  31.362  29.289  1.00  0.00     0.016 A 
ATOM      8  C   UNL A   1      36.723  29.482  28.805  1.00  0.00     0.016 A 
ATOM      9  C   UNL A   1      39.182  30.506  29.599  1.00  0.00     0.010 A 
ATOM     10  C   UNL A   1      37.726  28.615  29.192  1.00  0.00     0.010 A 
ATOM     11  C   UNL A   1      38.983  29.138  29.469  1.00  0.00    -0.014 A 
BRANCH  11  12
ATOM     12  C   UNL A   1      40.132  28.281  29.665  1.00  0.00     0.031 A 
ATOM     13  C   UNL A   1      40.626  28.210  31.061  1.00  0.00     0.074 A 
ATOM     14  C   UNL A   1      40.645  27.568  28.647  1.00  0.00     0.049 A 
ATOM     15  N   UNL A   1      41.789  28.547  31.512  1.00  0.00    -0.248 NA
ATOM     16  C   UNL A   1      39.658  27.832  32.102  1.00  0.00     0.031 C 
ATOM     17  C   UNL A   1      40.084  27.379  27.305  1.00  0.00     0.029 A 
ATOM     18  N   UNL A   1      41.722  26.741  28.649  1.00  0.00    -0.354 N 
ATOM     19  C   UNL A   1      41.763  28.260  32.875  1.00  0.00     0.074 A 
ATOM     20  C   UNL A   1      40.392  27.964  33.206  1.00  0.00     0.031 C 
ATOM     21  C   UNL A   1      40.661  26.298  26.737  1.00  0.00     0.029 A 
ATOM     22  C   UNL A   1      41.717  25.820  27.613  1.00  0.00     0.049 A 
ATOM     23  H   UNL A   1      42.438  26.792  29.323  1.00  0.00     0.167 HD
ATOM     24  C   UNL A   1      42.904  28.055  33.587  1.00  0.00     0.031 A 
ATOM     25  C   UNL A   1      42.464  24.693  27.541  1.00  0.00     0.031 A 
ATOM     26  C   UNL A   1      44.065  28.564  32.909  1.00  0.00     0.049 A 
ATOM     27  C   UNL A   1      43.589  24.835  28.496  1.00  0.00     0.074 A 
ATOM     28  C   UNL A   1      44.483  29.812  32.497  1.00  0.00     0.029 A 
ATOM     29  N   UNL A   1      44.844  27.659  32.230  1.00  0.00    -0.354 N 
ATOM     30  N   UNL A   1      44.560  25.687  28.336  1.00  0.00    -0.248 NA
ATOM     31  C   UNL A   1      43.402  24.353  29.856  1.00  0.00     0.031 C 
ATOM     32  C   UNL A   1      45.145  29.586  31.257  1.00  0.00     0.029 A 
ATOM     33  C   UNL A   1      45.144  28.211  31.013  1.00  0.00     0.049 A 
ATOM     34  H   UNL A   1      45.133  26.776  32.557  1.00  0.00     0.167 HD
ATOM     35  C   UNL A   1      44.811  26.181  29.609  1.00  0.00     0.074 A 
ATOM     36  C   UNL A   1      44.147  25.246  30.516  1.00  0.00     0.031 C 
ATOM     37  C   UNL A   1      45.282  27.450  29.792  1.00  0.00     0.031 A 
BRANCH  24  38
ATOM     38  C   UNL A   1      43.007  27.028  34.684  1.00  0.00    -0.014 A 
ATOM     39  C   UNL A   1      43.211  27.464  36.005  1.00  0.00     0.009 A 
ATOM     40  C   UNL A   1      43.210  25.658  34.429  1.00  0.00     0.009 A 
ATOM     41  C   UNL A   1      43.668  26.587  36.996  1.00  0.00     0.001 A 
ATOM     42  C   UNL A   1      43.625  24.772  35.426  1.00  0.00     0.001 A 
ATOM     43  C   UNL A   1      43.883  25.244  36.703  1.00  0.00     0.000 A 
ENDBRANCH  24  38
BRANCH  25  44
ATOM     44  C   UNL A   1      42.084  23.396  26.943  1.00  0.00    -0.014 A 
ATOM     45  C   UNL A   1      42.968  22.710  26.096  1.00  0.00     0.009 A 
ATOM     46  C   UNL A   1      40.950  22.704  27.405  1.00  0.00     0.009 A 
ATOM     47  C   UNL A   1      42.739  21.371  25.755  1.00  0.00     0.001 A 
ATOM     48  C   UNL A   1      40.718  21.370  27.061  1.00  0.00     0.001 A 
ATOM     49  C   UNL A   1      41.622  20.698  26.246  1.00  0.00     0.000 A 
ENDBRANCH  25  44
BRANCH  37  50
ATOM     50  C   UNL A   1      45.731  28.218  28.573  1.00  0.00    -0.014 A 
ATOM     51  C   UNL A   1      47.039  28.143  28.061  1.00  0.00     0.009 A 
ATOM     52  C   UNL A   1      44.764  28.911  27.830  1.00  0.00     0.009 A 
ATOM     53  C   UNL A   1      47.373  28.770  26.856  1.00  0.00     0.001 A 
ATOM     54  C   UNL A   1      45.093  29.519  26.617  1.00  0.00     0.001 A 
ATOM     55  C   UNL A   1      46.399  29.453  26.133  1.00  0.00     0.000 A 
ENDBRANCH  37  50
ENDBRANCH  11  12
ENDBRANCH   4   6
ENDBRANCH   3   4
ENDBRANCH   2   3
ENDBRANCH   1   2
BRANCH   1  56
ATOM     56  O   UNL A   1      33.162  35.007  28.551  1.00  0.00    -0.374 OA
BRANCH  56  57
ATOM     57  C   UNL A   1      32.898  36.081  29.460  1.00  0.00     0.202 C 
BRANCH  57  58
ATOM     58  C   UNL A   1      32.804  35.883  30.979  1.00  0.00     0.261 C 
BRANCH  58  59
ATOM     59  O   UNL A   1      33.587  34.785  31.453  1.00  0.00    -0.463 OA
BRANCH  59  60
ATOM     60  C   UNL A   1      34.347  35.102  32.537  1.00  0.00     0.309 C 
ATOM     61  O   UNL A   1      34.843  36.192  32.738  1.00  0.00    -0.252 OA
BRANCH  60  62
ATOM     62  C   UNL A   1      34.377  33.939  33.519  1.00  0.00     0.108 C 
ATOM     63  C   UNL A   1      35.236  34.291  34.742  1.00  0.00     0.070 C 
ATOM     64  C   UNL A   1      34.918  32.704  32.820  1.00  0.00     0.070 C 
ATOM     65  C   UNL A   1      36.713  34.419  34.391  1.00  0.00     0.277 C 
ATOM     66  C   UNL A   1      36.369  32.931  32.404  1.00  0.00     0.277 C 
ATOM     67  N   UNL A   1      37.155  33.288  33.580  1.00  0.00    -0.230 N 
ATOM     68  C   UNL A   1      38.403  32.735  33.769  1.00  0.00     0.383 C 
ATOM     69  N   UNL A   1      39.194  32.467  32.769  1.00  0.00    -0.155 N 
ATOM     70  C   UNL A   1      38.851  32.410  35.179  1.00  0.00     0.523 C 
ATOM     71  C   UNL A   1      40.420  31.909  33.038  1.00  0.00     0.414 C 
ATOM     72  H   UNL A   1      38.920  32.660  31.843  1.00  0.00     0.367 HD
ATOM     73  C   UNL A   1      39.739  31.240  35.017  1.00  0.00     0.389 C 
ATOM     74  N   UNL A   1      37.771  31.835  36.016  1.00  0.00     0.003 NA
ATOM     75  Cl  UNL A   1      41.594  32.081  31.808  1.00  0.00     0.028 Cl
ATOM     76  N   UNL A   1      40.749  31.280  34.120  1.00  0.00    -0.155 N 
ATOM     77  N   UNL A   1      39.362  30.210  35.687  1.00  0.00    -0.169 N 
ATOM     78  C   UNL A   1      38.180  30.622  36.251  1.00  0.00     0.532 C 
ATOM     79  H   UNL A   1      41.634  30.876  34.272  1.00  0.00     0.367 HD
ATOM     80  H   UNL A   1      39.812  29.339  35.773  1.00  0.00     0.365 HD
ENDBRANCH  60  62
ENDBRANCH  59  60
ENDBRANCH  58  59
ENDBRANCH  57  58
ENDBRANCH  56  57
ENDBRANCH   1  56
TORSDOF 14
ENDMDL
MODEL 3
REMARK VINA RESULT:     -11.3      2.028      2.542
REMARK SMILES O=C(OCCOCCOC(=O)C1CCN(C2=[NH+]C(Cl)=[NH+]C3=[NH+]C=N[C@@H]32)CC1)c1ccc(-c2c3nc(c(-c4ccccc4)c4ccc([nH]4)c(-c4ccccc4)c4nc(c(-c5ccccc5)c5ccc2[nH]5)C=C4)C=C3)cc1
REMARK SMILES IDX 5 1 4 2 3 3 2 4 1 5 28 6 29 7 75 8 30 9 74 10 31 11 32 12
REMARK SMILES IDX 33 13 68 14 34 15 73 16 67 17 69 18 35 19 72 20 66 21 65 22
REMARK SMILES IDX 36 24 58 25 43 26 57 27 44 28 47 29 56 30 70 31 45 32 46 33
REMARK SMILES IDX 55 35 71 36 48 37 37 38 38 39 42 40 39 41 41 42 40 43 59 44
REMARK SMILES IDX 60 45 64 46 61 47 63 48 62 49 49 50 50 51 54 52 51 53 53 54
REMARK SMILES IDX 52 55 6 56 7 57 8 58 9 59 10 60 11 61 12 62 13 63 27 64
REMARK SMILES IDX 14 65 26 66 15 67 16 68 17 69 25 70 18 71 21 73 24 74 19 75
REMARK SMILES IDX 20 76 22 77 23 78
REMARK H PARENT 69 23 47 34 17 72 20 79 22 80
REMARK Flexibility Score: inf
ROOT
ATOM      1  C   UNL A   1      41.250  19.742  26.078  1.00  0.00     0.202 C 
ENDROOT
BRANCH   1   2
ATOM      2  C   UNL A   1      42.676  19.293  26.415  1.00  0.00     0.261 C 
BRANCH   2   3
ATOM      3  O   UNL A   1      43.473  19.039  25.254  1.00  0.00    -0.460 OA
BRANCH   3   4
ATOM      4  C   UNL A   1      44.173  19.935  24.533  1.00  0.00     0.338 C 
ATOM      5  O   UNL A   1      44.535  19.628  23.398  1.00  0.00    -0.246 OA
BRANCH   4   6
ATOM      6  C   UNL A   1      44.444  21.322  25.014  1.00  0.00     0.060 A 
ATOM      7  C   UNL A   1      45.474  21.715  25.870  1.00  0.00     0.016 A 
ATOM      8  C   UNL A   1      43.529  22.294  24.579  1.00  0.00     0.016 A 
ATOM      9  C   UNL A   1      45.417  22.933  26.515  1.00  0.00     0.010 A 
ATOM     10  C   UNL A   1      43.509  23.547  25.158  1.00  0.00     0.010 A 
ATOM     11  C   UNL A   1      44.382  23.806  26.207  1.00  0.00    -0.014 A 
BRANCH  11  12
ATOM     12  C   UNL A   1      44.273  25.009  27.003  1.00  0.00     0.031 A 
ATOM     13  C   UNL A   1      45.399  25.961  26.853  1.00  0.00     0.074 A 
ATOM     14  C   UNL A   1      43.186  25.240  27.760  1.00  0.00     0.049 A 
ATOM     15  N   UNL A   1      46.216  26.378  27.763  1.00  0.00    -0.248 NA
ATOM     16  C   UNL A   1      45.729  26.407  25.491  1.00  0.00     0.031 C 
ATOM     17  C   UNL A   1      41.926  24.491  27.783  1.00  0.00     0.029 A 
ATOM     18  N   UNL A   1      42.931  26.294  28.578  1.00  0.00    -0.354 N 
ATOM     19  C   UNL A   1      47.064  27.279  27.125  1.00  0.00     0.074 A 
ATOM     20  C   UNL A   1      46.815  27.148  25.711  1.00  0.00     0.031 C 
ATOM     21  C   UNL A   1      40.969  25.259  28.347  1.00  0.00     0.029 A 
ATOM     22  C   UNL A   1      41.584  26.477  28.845  1.00  0.00     0.049 A 
ATOM     23  H   UNL A   1      43.638  26.872  28.947  1.00  0.00     0.167 HD
ATOM     24  C   UNL A   1      47.741  28.238  27.812  1.00  0.00     0.031 A 
ATOM     25  C   UNL A   1      41.012  27.598  29.347  1.00  0.00     0.031 A 
ATOM     26  C   UNL A   1      47.811  27.948  29.219  1.00  0.00     0.049 A 
ATOM     27  C   UNL A   1      42.082  28.405  29.979  1.00  0.00     0.074 A 
ATOM     28  C   UNL A   1      48.361  26.938  29.979  1.00  0.00     0.029 A 
ATOM     29  N   UNL A   1      46.925  28.603  30.039  1.00  0.00    -0.354 N 
ATOM     30  N   UNL A   1      42.709  28.041  31.061  1.00  0.00    -0.248 NA
ATOM     31  C   UNL A   1      42.771  29.395  29.165  1.00  0.00     0.031 C 
ATOM     32  C   UNL A   1      47.439  26.739  31.047  1.00  0.00     0.029 A 
ATOM     33  C   UNL A   1      46.413  27.676  30.908  1.00  0.00     0.049 A 
ATOM     34  H   UNL A   1      46.698  29.560  30.009  1.00  0.00     0.167 HD
ATOM     35  C   UNL A   1      44.031  28.402  30.842  1.00  0.00     0.074 A 
ATOM     36  C   UNL A   1      43.990  29.327  29.711  1.00  0.00     0.031 C 
ATOM     37  C   UNL A   1      45.057  27.697  31.407  1.00  0.00     0.031 A 
BRANCH  24  38
ATOM     38  C   UNL A   1      47.966  29.626  27.271  1.00  0.00    -0.014 A 
ATOM     39  C   UNL A   1      49.261  30.169  27.313  1.00  0.00     0.009 A 
ATOM     40  C   UNL A   1      46.911  30.519  27.003  1.00  0.00     0.009 A 
ATOM     41  C   UNL A   1      49.476  31.545  27.170  1.00  0.00     0.001 A 
ATOM     42  C   UNL A   1      47.126  31.887  26.817  1.00  0.00     0.001 A 
ATOM     43  C   UNL A   1      48.407  32.403  26.932  1.00  0.00     0.000 A 
ENDBRANCH  24  38
BRANCH  25  44
ATOM     44  C   UNL A   1      39.678  28.149  29.031  1.00  0.00    -0.014 A 
ATOM     45  C   UNL A   1      38.696  28.265  30.026  1.00  0.00     0.009 A 
ATOM     46  C   UNL A   1      39.448  28.800  27.804  1.00  0.00     0.009 A 
ATOM     47  C   UNL A   1      37.544  29.034  29.810  1.00  0.00     0.001 A 
ATOM     48  C   UNL A   1      38.297  29.562  27.586  1.00  0.00     0.001 A 
ATOM     49  C   UNL A   1      37.351  29.690  28.596  1.00  0.00     0.000 A 
ENDBRANCH  25  44
BRANCH  37  50
ATOM     50  C   UNL A   1      44.710  26.660  32.447  1.00  0.00    -0.014 A 
ATOM     51  C   UNL A   1      44.518  25.302  32.136  1.00  0.00     0.009 A 
ATOM     52  C   UNL A   1      44.738  27.037  33.797  1.00  0.00     0.009 A 
ATOM     53  C   UNL A   1      44.326  24.356  33.149  1.00  0.00     0.001 A 
ATOM     54  C   UNL A   1      44.568  26.089  34.809  1.00  0.00     0.001 A 
ATOM     55  C   UNL A   1      44.356  24.750  34.484  1.00  0.00     0.000 A 
ENDBRANCH  37  50
ENDBRANCH  11  12
ENDBRANCH   4   6
ENDBRANCH   3   4
ENDBRANCH   2   3
ENDBRANCH   1   2
BRANCH   1  56
ATOM     56  O   UNL A   1      40.440  20.417  27.033  1.00  0.00    -0.374 OA
BRANCH  56  57
ATOM     57  C   UNL A   1      39.787  21.656  26.738  1.00  0.00     0.202 C 
BRANCH  57  58
ATOM     58  C   UNL A   1      38.786  21.815  25.585  1.00  0.00     0.261 C 
BRANCH  58  59
ATOM     59  O   UNL A   1      37.449  22.052  26.028  1.00  0.00    -0.463 OA
BRANCH  59  60
ATOM     60  C   UNL A   1      36.509  21.644  25.130  1.00  0.00     0.309 C 
ATOM     61  O   UNL A   1      36.085  20.510  25.042  1.00  0.00    -0.252 OA
BRANCH  60  62
ATOM     62  C   UNL A   1      35.976  22.835  24.346  1.00  0.00     0.108 C 
ATOM     63  C   UNL A   1      35.822  24.056  25.263  1.00  0.00     0.070 C 
ATOM     64  C   UNL A   1      34.646  22.466  23.713  1.00  0.00     0.070 C 
ATOM     65  C   UNL A   1      34.718  23.865  26.295  1.00  0.00     0.277 C 
ATOM     66  C   UNL A   1      33.609  22.188  24.798  1.00  0.00     0.277 C 
ATOM     67  N   UNL A   1      33.501  23.354  25.669  1.00  0.00    -0.230 N 
ATOM     68  C   UNL A   1      32.262  23.797  26.079  1.00  0.00     0.383 C 
ATOM     69  N   UNL A   1      31.283  22.972  26.316  1.00  0.00    -0.155 N 
ATOM     70  C   UNL A   1      32.034  25.287  26.231  1.00  0.00     0.523 C 
ATOM     71  C   UNL A   1      30.075  23.491  26.715  1.00  0.00     0.414 C 
ATOM     72  H   UNL A   1      31.405  22.000  26.214  1.00  0.00     0.367 HD
ATOM     73  C   UNL A   1      30.602  25.468  25.914  1.00  0.00     0.389 C 
ATOM     74  N   UNL A   1      32.668  26.086  25.157  1.00  0.00     0.003 NA
ATOM     75  Cl  UNL A   1      29.032  22.399  27.517  1.00  0.00     0.028 Cl
ATOM     76  N   UNL A   1      29.673  24.707  26.535  1.00  0.00    -0.155 N 
ATOM     77  N   UNL A   1      30.388  26.280  24.942  1.00  0.00    -0.169 N 
ATOM     78  C   UNL A   1      31.656  26.606  24.525  1.00  0.00     0.532 C 
ATOM     79  H   UNL A   1      28.791  25.041  26.819  1.00  0.00     0.367 HD
ATOM     80  H   UNL A   1      29.526  26.591  24.584  1.00  0.00     0.365 HD
ENDBRANCH  60  62
ENDBRANCH  59  60
ENDBRANCH  58  59
ENDBRANCH  57  58
ENDBRANCH  56  57
ENDBRANCH   1  56
TORSDOF 14
ENDMDL
