MODEL 1
REMARK VINA RESULT:     -10.5      0.000      0.000
REMARK SMILES O=C(Cc1ccccc1-c1ccn(C(F)F)c(=O)c1)OCCOCCOC(=O)c1ccc(-c2c3nc(c(-c4ccccc4)c4ccc([nH]4)c(-c4ccccc4)c4nc(c(-c5ccccc5)c5ccc2[nH]5)C=C4)C=C3)cc1
REMARK SMILES IDX 22 1 21 2 20 3 2 4 1 5 3 6 4 7 5 8 9 9 6 10 8 11 7 12 10 13
REMARK SMILES IDX 11 14 19 15 12 16 17 17 13 18 18 19 14 20 15 21 16 22 23 23
REMARK SMILES IDX 24 24 25 25 26 26 27 27 28 28 29 29 30 30 76 31 31 32 75 33
REMARK SMILES IDX 32 34 33 35 34 36 69 37 35 38 74 39 68 40 70 41 36 42 73 43
REMARK SMILES IDX 67 44 66 45 37 47 59 48 44 49 58 50 45 51 48 52 57 53 71 54
REMARK SMILES IDX 46 55 47 56 56 58 72 59 49 60 38 61 39 62 43 63 40 64 42 65
REMARK SMILES IDX 41 66 60 67 61 68 65 69 62 70 64 71 63 72 50 73 51 74 55 75
REMARK SMILES IDX 52 76 54 77 53 78
REMARK H PARENT 70 46 48 57
REMARK Flexibility Score: inf
ROOT
ATOM      1  C   UNL A   1      32.906  26.327  26.040  1.00  0.00     0.202 C 
ENDROOT
BRANCH   1   2
ATOM      2  C   UNL A   1      33.976  25.355  25.564  1.00  0.00     0.261 C 
BRANCH   2   3
ATOM      3  O   UNL A   1      34.267  24.324  26.523  1.00  0.00    -0.463 OA
BRANCH   3   4
ATOM      4  C   UNL A   1      34.108  22.996  26.329  1.00  0.00     0.310 C 
ATOM      5  O   UNL A   1      33.487  22.338  27.166  1.00  0.00    -0.252 OA
BRANCH   4   6
ATOM      6  C   UNL A   1      34.746  22.306  25.142  1.00  0.00     0.158 C 
BRANCH   6   7
ATOM      7  C   UNL A   1      33.921  21.246  24.450  1.00  0.00    -0.029 A 
ATOM      8  C   UNL A   1      34.201  19.899  24.770  1.00  0.00     0.005 A 
ATOM      9  C   UNL A   1      32.867  21.544  23.549  1.00  0.00    -0.014 A 
ATOM     10  C   UNL A   1      33.433  18.863  24.252  1.00  0.00     0.000 A 
ATOM     11  C   UNL A   1      32.138  20.469  23.003  1.00  0.00     0.009 A 
ATOM     12  C   UNL A   1      32.406  19.147  23.363  1.00  0.00     0.001 A 
BRANCH   9  13
ATOM     13  C   UNL A   1      32.418  22.926  23.213  1.00  0.00    -0.011 A 
ATOM     14  C   UNL A   1      31.274  23.586  23.819  1.00  0.00     0.027 A 
ATOM     15  C   UNL A   1      33.108  23.601  22.272  1.00  0.00     0.080 A 
ATOM     16  C   UNL A   1      30.888  24.805  23.417  1.00  0.00     0.095 A 
ATOM     17  C   UNL A   1      32.725  24.978  21.850  1.00  0.00     0.255 A 
ATOM     18  N   UNL A   1      31.589  25.495  22.445  1.00  0.00    -0.258 N 
ATOM     19  O   UNL A   1      33.433  25.553  21.029  1.00  0.00    -0.269 OA
BRANCH  18  20
ATOM     20  C   UNL A   1      31.173  26.809  22.026  1.00  0.00     0.451 C 
ATOM     21  F   UNL A   1      30.028  27.183  22.649  1.00  0.00    -0.185 F 
ATOM     22  F   UNL A   1      32.120  27.739  22.300  1.00  0.00    -0.185 F 
ENDBRANCH  18  20
ENDBRANCH   9  13
ENDBRANCH   6   7
ENDBRANCH   4   6
ENDBRANCH   3   4
ENDBRANCH   2   3
ENDBRANCH   1   2
BRANCH   1  23
ATOM     23  O   UNL A   1      32.827  27.564  25.340  1.00  0.00    -0.374 OA
BRANCH  23  24
ATOM     24  C   UNL A   1      31.598  28.285  25.491  1.00  0.00     0.202 C 
BRANCH  24  25
ATOM     25  C   UNL A   1      31.731  29.728  25.988  1.00  0.00     0.261 C 
BRANCH  25  26
ATOM     26  O   UNL A   1      33.106  30.139  26.047  1.00  0.00    -0.460 OA
BRANCH  26  27
ATOM     27  C   UNL A   1      33.371  31.143  26.916  1.00  0.00     0.338 C 
ATOM     28  O   UNL A   1      32.604  32.003  27.312  1.00  0.00    -0.246 OA
BRANCH  27  29
ATOM     29  C   UNL A   1      34.702  30.907  27.510  1.00  0.00     0.060 A 
ATOM     30  C   UNL A   1      35.130  29.580  27.666  1.00  0.00     0.016 A 
ATOM     31  C   UNL A   1      35.524  31.969  27.888  1.00  0.00     0.016 A 
ATOM     32  C   UNL A   1      36.370  29.309  28.238  1.00  0.00     0.010 A 
ATOM     33  C   UNL A   1      36.759  31.698  28.473  1.00  0.00     0.010 A 
ATOM     34  C   UNL A   1      37.171  30.369  28.679  1.00  0.00    -0.014 A 
BRANCH  34  35
ATOM     35  C   UNL A   1      38.367  30.112  29.509  1.00  0.00     0.031 A 
ATOM     36  C   UNL A   1      39.448  29.236  28.944  1.00  0.00     0.074 A 
ATOM     37  C   UNL A   1      38.463  30.611  30.754  1.00  0.00     0.049 A 
ATOM     38  N   UNL A   1      40.510  28.749  29.529  1.00  0.00    -0.248 NA
ATOM     39  C   UNL A   1      39.300  28.840  27.532  1.00  0.00     0.031 C 
ATOM     40  C   UNL A   1      37.492  31.503  31.386  1.00  0.00     0.029 A 
ATOM     41  N   UNL A   1      39.417  30.410  31.717  1.00  0.00    -0.354 N 
ATOM     42  C   UNL A   1      41.141  27.970  28.567  1.00  0.00     0.074 A 
ATOM     43  C   UNL A   1      40.337  28.034  27.368  1.00  0.00     0.031 C 
ATOM     44  C   UNL A   1      37.889  31.751  32.647  1.00  0.00     0.029 A 
ATOM     45  C   UNL A   1      39.111  31.000  32.919  1.00  0.00     0.049 A 
ATOM     46  H   UNL A   1      40.241  29.892  31.563  1.00  0.00     0.167 HD
ATOM     47  C   UNL A   1      42.287  27.261  28.681  1.00  0.00     0.031 A 
ATOM     48  C   UNL A   1      39.729  30.906  34.113  1.00  0.00     0.031 A 
ATOM     49  C   UNL A   1      43.076  27.202  29.882  1.00  0.00     0.049 A 
ATOM     50  C   UNL A   1      40.964  30.050  34.231  1.00  0.00     0.074 A 
ATOM     51  C   UNL A   1      44.278  26.551  30.091  1.00  0.00     0.029 A 
ATOM     52  N   UNL A   1      42.730  27.807  31.079  1.00  0.00    -0.354 N 
ATOM     53  N   UNL A   1      41.584  29.358  33.305  1.00  0.00    -0.248 NA
ATOM     54  C   UNL A   1      41.586  29.963  35.560  1.00  0.00     0.031 C 
ATOM     55  C   UNL A   1      44.623  26.702  31.436  1.00  0.00     0.029 A 
ATOM     56  C   UNL A   1      43.673  27.507  32.046  1.00  0.00     0.049 A 
ATOM     57  H   UNL A   1      41.933  28.366  31.222  1.00  0.00     0.167 HD
ATOM     58  C   UNL A   1      42.679  28.777  33.932  1.00  0.00     0.074 A 
ATOM     59  C   UNL A   1      42.650  29.212  35.312  1.00  0.00     0.031 C 
ATOM     60  C   UNL A   1      43.624  27.955  33.414  1.00  0.00     0.031 A 
BRANCH  47  61
ATOM     61  C   UNL A   1      42.734  26.454  27.494  1.00  0.00    -0.014 A 
ATOM     62  C   UNL A   1      43.582  26.994  26.514  1.00  0.00     0.009 A 
ATOM     63  C   UNL A   1      42.337  25.112  27.384  1.00  0.00     0.009 A 
ATOM     64  C   UNL A   1      43.999  26.212  25.434  1.00  0.00     0.001 A 
ATOM     65  C   UNL A   1      42.781  24.324  26.321  1.00  0.00     0.001 A 
ATOM     66  C   UNL A   1      43.606  24.877  25.343  1.00  0.00     0.000 A 
ENDBRANCH  47  61
BRANCH  48  67
ATOM     67  C   UNL A   1      39.168  31.596  35.304  1.00  0.00    -0.014 A 
ATOM     68  C   UNL A   1      38.312  30.921  36.188  1.00  0.00     0.009 A 
ATOM     69  C   UNL A   1      39.464  32.946  35.550  1.00  0.00     0.009 A 
ATOM     70  C   UNL A   1      37.740  31.593  37.273  1.00  0.00     0.001 A 
ATOM     71  C   UNL A   1      38.918  33.606  36.654  1.00  0.00     0.001 A 
ATOM     72  C   UNL A   1      38.048  32.932  37.507  1.00  0.00     0.000 A 
ENDBRANCH  48  67
BRANCH  60  73
ATOM     73  C   UNL A   1      44.723  27.498  34.331  1.00  0.00    -0.014 A 
ATOM     74  C   UNL A   1      45.887  28.259  34.510  1.00  0.00     0.009 A 
ATOM     75  C   UNL A   1      44.558  26.320  35.079  1.00  0.00     0.009 A 
ATOM     76  C   UNL A   1      46.876  27.837  35.401  1.00  0.00     0.001 A 
ATOM     77  C   UNL A   1      45.531  25.918  35.994  1.00  0.00     0.001 A 
ATOM     78  C   UNL A   1      46.693  26.673  36.148  1.00  0.00     0.000 A 
ENDBRANCH  60  73
ENDBRANCH  34  35
ENDBRANCH  27  29
ENDBRANCH  26  27
ENDBRANCH  25  26
ENDBRANCH  24  25
ENDBRANCH  23  24
ENDBRANCH   1  23
TORSDOF 17
ENDMDL
MODEL 2
REMARK VINA RESULT:     -10.4      6.045     10.975
REMARK SMILES O=C(Cc1ccccc1-c1ccn(C(F)F)c(=O)c1)OCCOCCOC(=O)c1ccc(-c2c3nc(c(-c4ccccc4)c4ccc([nH]4)c(-c4ccccc4)c4nc(c(-c5ccccc5)c5ccc2[nH]5)C=C4)C=C3)cc1
REMARK SMILES IDX 22 1 21 2 20 3 2 4 1 5 3 6 4 7 5 8 9 9 6 10 8 11 7 12 10 13
REMARK SMILES IDX 11 14 19 15 12 16 17 17 13 18 18 19 14 20 15 21 16 22 23 23
REMARK SMILES IDX 24 24 25 25 26 26 27 27 28 28 29 29 30 30 76 31 31 32 75 33
REMARK SMILES IDX 32 34 33 35 34 36 69 37 35 38 74 39 68 40 70 41 36 42 73 43
REMARK SMILES IDX 67 44 66 45 37 47 59 48 44 49 58 50 45 51 48 52 57 53 71 54
REMARK SMILES IDX 46 55 47 56 56 58 72 59 49 60 38 61 39 62 43 63 40 64 42 65
REMARK SMILES IDX 41 66 60 67 61 68 65 69 62 70 64 71 63 72 50 73 51 74 55 75
REMARK SMILES IDX 52 76 54 77 53 78
REMARK H PARENT 70 46 48 57
REMARK Flexibility Score: inf
ROOT
ATOM      1  C   UNL A   1      44.742  21.690  24.272  1.00  0.00     0.202 C 
ENDROOT
BRANCH   1   2
ATOM      2  C   UNL A   1      45.721  21.767  25.436  1.00  0.00     0.261 C 
BRANCH   2   3
ATOM      3  O   UNL A   1      46.915  22.502  25.119  1.00  0.00    -0.463 OA
BRANCH   3   4
ATOM      4  C   UNL A   1      47.006  23.844  24.989  1.00  0.00     0.310 C 
ATOM      5  O   UNL A   1      47.048  24.335  23.860  1.00  0.00    -0.252 OA
BRANCH   4   6
ATOM      6  C   UNL A   1      47.134  24.732  26.208  1.00  0.00     0.158 C 
BRANCH   6   7
ATOM      7  C   UNL A   1      47.928  26.006  26.039  1.00  0.00    -0.029 A 
ATOM      8  C   UNL A   1      49.326  25.880  25.883  1.00  0.00     0.005 A 
ATOM      9  C   UNL A   1      47.334  27.293  25.981  1.00  0.00    -0.014 A 
ATOM     10  C   UNL A   1      50.124  26.990  25.630  1.00  0.00     0.000 A 
ATOM     11  C   UNL A   1      48.176  28.403  25.771  1.00  0.00     0.009 A 
ATOM     12  C   UNL A   1      49.550  28.252  25.580  1.00  0.00     0.001 A 
BRANCH   9  13
ATOM     13  C   UNL A   1      45.863  27.539  26.034  1.00  0.00    -0.011 A 
ATOM     14  C   UNL A   1      44.862  26.642  25.481  1.00  0.00     0.027 A 
ATOM     15  C   UNL A   1      45.436  28.677  26.615  1.00  0.00     0.080 A 
ATOM     16  C   UNL A   1      43.561  26.963  25.505  1.00  0.00     0.095 A 
ATOM     17  C   UNL A   1      43.989  29.025  26.697  1.00  0.00     0.255 A 
ATOM     18  N   UNL A   1      43.121  28.134  26.092  1.00  0.00    -0.258 N 
ATOM     19  O   UNL A   1      43.670  30.051  27.291  1.00  0.00    -0.269 OA
BRANCH  18  20
ATOM     20  C   UNL A   1      41.720  28.467  26.122  1.00  0.00     0.451 C 
ATOM     21  F   UNL A   1      41.448  29.516  25.306  1.00  0.00    -0.185 F 
ATOM     22  F   UNL A   1      40.954  27.421  25.729  1.00  0.00    -0.185 F 
ENDBRANCH  18  20
ENDBRANCH   9  13
ENDBRANCH   6   7
ENDBRANCH   4   6
ENDBRANCH   3   4
ENDBRANCH   2   3
ENDBRANCH   1   2
BRANCH   1  23
ATOM     23  O   UNL A   1      44.501  20.392  23.741  1.00  0.00    -0.374 OA
BRANCH  23  24
ATOM     24  C   UNL A   1      44.617  19.309  24.672  1.00  0.00     0.202 C 
BRANCH  24  25
ATOM     25  C   UNL A   1      43.313  18.862  25.339  1.00  0.00     0.261 C 
BRANCH  25  26
ATOM     26  O   UNL A   1      42.253  19.801  25.101  1.00  0.00    -0.460 OA
BRANCH  26  27
ATOM     27  C   UNL A   1      41.337  19.901  26.093  1.00  0.00     0.338 C 
ATOM     28  O   UNL A   1      40.625  19.017  26.537  1.00  0.00    -0.246 OA
BRANCH  27  29
ATOM     29  C   UNL A   1      41.487  21.222  26.736  1.00  0.00     0.060 A 
ATOM     30  C   UNL A   1      41.930  22.294  25.947  1.00  0.00     0.016 A 
ATOM     31  C   UNL A   1      41.178  21.411  28.083  1.00  0.00     0.016 A 
ATOM     32  C   UNL A   1      42.104  23.554  26.514  1.00  0.00     0.010 A 
ATOM     33  C   UNL A   1      41.364  22.668  28.655  1.00  0.00     0.010 A 
ATOM     34  C   UNL A   1      41.858  23.734  27.880  1.00  0.00    -0.014 A 
BRANCH  34  35
ATOM     35  C   UNL A   1      42.268  24.981  28.560  1.00  0.00     0.031 A 
ATOM     36  C   UNL A   1      41.248  26.072  28.716  1.00  0.00     0.074 A 
ATOM     37  C   UNL A   1      43.532  25.151  28.984  1.00  0.00     0.049 A 
ATOM     38  N   UNL A   1      41.404  27.299  29.138  1.00  0.00    -0.248 NA
ATOM     39  C   UNL A   1      39.866  25.738  28.325  1.00  0.00     0.031 C 
ATOM     40  C   UNL A   1      44.591  24.146  28.918  1.00  0.00     0.029 A 
ATOM     41  N   UNL A   1      44.142  26.251  29.530  1.00  0.00    -0.354 N 
ATOM     42  C   UNL A   1      40.151  27.890  29.039  1.00  0.00     0.074 A 
ATOM     43  C   UNL A   1      39.249  26.896  28.502  1.00  0.00     0.031 C 
ATOM     44  C   UNL A   1      45.732  24.687  29.382  1.00  0.00     0.029 A 
ATOM     45  C   UNL A   1      45.490  26.084  29.731  1.00  0.00     0.049 A 
ATOM     46  H   UNL A   1      43.660  27.081  29.756  1.00  0.00     0.167 HD
ATOM     47  C   UNL A   1      39.791  29.153  29.362  1.00  0.00     0.031 A 
ATOM     48  C   UNL A   1      46.426  26.975  30.113  1.00  0.00     0.031 A 
ATOM     49  C   UNL A   1      40.699  30.133  29.891  1.00  0.00     0.049 A 
ATOM     50  C   UNL A   1      46.011  28.395  30.398  1.00  0.00     0.074 A 
ATOM     51  C   UNL A   1      40.428  31.428  30.295  1.00  0.00     0.029 A 
ATOM     52  N   UNL A   1      42.058  29.928  30.073  1.00  0.00    -0.354 N 
ATOM     53  N   UNL A   1      44.815  28.933  30.352  1.00  0.00    -0.248 NA
ATOM     54  C   UNL A   1      47.074  29.331  30.789  1.00  0.00     0.031 C 
ATOM     55  C   UNL A   1      41.637  32.030  30.655  1.00  0.00     0.029 A 
ATOM     56  C   UNL A   1      42.648  31.088  30.543  1.00  0.00     0.049 A 
ATOM     57  H   UNL A   1      42.532  29.084  29.896  1.00  0.00     0.167 HD
ATOM     58  C   UNL A   1      44.979  30.260  30.731  1.00  0.00     0.074 A 
ATOM     59  C   UNL A   1      46.386  30.440  31.022  1.00  0.00     0.031 C 
ATOM     60  C   UNL A   1      44.051  31.243  30.829  1.00  0.00     0.031 A 
BRANCH  47  61
ATOM     61  C   UNL A   1      38.367  29.562  29.111  1.00  0.00    -0.014 A 
ATOM     62  C   UNL A   1      37.958  30.090  27.876  1.00  0.00     0.009 A 
ATOM     63  C   UNL A   1      37.406  29.367  30.116  1.00  0.00     0.009 A 
ATOM     64  C   UNL A   1      36.623  30.440  27.665  1.00  0.00     0.001 A 
ATOM     65  C   UNL A   1      36.067  29.688  29.892  1.00  0.00     0.001 A 
ATOM     66  C   UNL A   1      35.678  30.231  28.669  1.00  0.00     0.000 A 
ENDBRANCH  47  61
BRANCH  48  67
ATOM     67  C   UNL A   1      47.854  26.570  30.202  1.00  0.00    -0.014 A 
ATOM     68  C   UNL A   1      48.761  26.911  29.187  1.00  0.00     0.009 A 
ATOM     69  C   UNL A   1      48.314  25.813  31.292  1.00  0.00     0.009 A 
ATOM     70  C   UNL A   1      50.088  26.477  29.246  1.00  0.00     0.001 A 
ATOM     71  C   UNL A   1      49.649  25.409  31.366  1.00  0.00     0.001 A 
ATOM     72  C   UNL A   1      50.531  25.730  30.338  1.00  0.00     0.000 A 
ENDBRANCH  48  67
BRANCH  60  73
ATOM     73  C   UNL A   1      44.516  32.591  31.299  1.00  0.00    -0.014 A 
ATOM     74  C   UNL A   1      44.607  32.896  32.666  1.00  0.00     0.009 A 
ATOM     75  C   UNL A   1      44.936  33.547  30.360  1.00  0.00     0.009 A 
ATOM     76  C   UNL A   1      45.085  34.140  33.081  1.00  0.00     0.001 A 
ATOM     77  C   UNL A   1      45.444  34.778  30.777  1.00  0.00     0.001 A 
ATOM     78  C   UNL A   1      45.511  35.076  32.138  1.00  0.00     0.000 A 
ENDBRANCH  60  73
ENDBRANCH  34  35
ENDBRANCH  27  29
ENDBRANCH  26  27
ENDBRANCH  25  26
ENDBRANCH  24  25
ENDBRANCH  23  24
ENDBRANCH   1  23
TORSDOF 17
ENDMDL
MODEL 3
REMARK VINA RESULT:     -10.4      3.768      8.767
REMARK SMILES O=C(Cc1ccccc1-c1ccn(C(F)F)c(=O)c1)OCCOCCOC(=O)c1ccc(-c2c3nc(c(-c4ccccc4)c4ccc([nH]4)c(-c4ccccc4)c4nc(c(-c5ccccc5)c5ccc2[nH]5)C=C4)C=C3)cc1
REMARK SMILES IDX 22 1 21 2 20 3 2 4 1 5 3 6 4 7 5 8 9 9 6 10 8 11 7 12 10 13
REMARK SMILES IDX 11 14 19 15 12 16 17 17 13 18 18 19 14 20 15 21 16 22 23 23
REMARK SMILES IDX 24 24 25 25 26 26 27 27 28 28 29 29 30 30 76 31 31 32 75 33
REMARK SMILES IDX 32 34 33 35 34 36 69 37 35 38 74 39 68 40 70 41 36 42 73 43
REMARK SMILES IDX 67 44 66 45 37 47 59 48 44 49 58 50 45 51 48 52 57 53 71 54
REMARK SMILES IDX 46 55 47 56 56 58 72 59 49 60 38 61 39 62 43 63 40 64 42 65
REMARK SMILES IDX 41 66 60 67 61 68 65 69 62 70 64 71 63 72 50 73 51 74 55 75
REMARK SMILES IDX 52 76 54 77 53 78
REMARK H PARENT 70 46 48 57
REMARK Flexibility Score: inf
ROOT
ATOM      1  C   UNL A   1      33.585  23.117  23.644  1.00  0.00     0.202 C 
ENDROOT
BRANCH   1   2
ATOM      2  C   UNL A   1      33.123  24.559  23.802  1.00  0.00     0.261 C 
BRANCH   2   3
ATOM      3  O   UNL A   1      33.030  24.974  25.175  1.00  0.00    -0.463 OA
BRANCH   3   4
ATOM      4  C   UNL A   1      31.925  24.897  25.951  1.00  0.00     0.310 C 
ATOM      5  O   UNL A   1      31.539  23.792  26.335  1.00  0.00    -0.252 OA
BRANCH   4   6
ATOM      6  C   UNL A   1      31.125  26.139  26.281  1.00  0.00     0.158 C 
BRANCH   6   7
ATOM      7  C   UNL A   1      30.752  27.033  25.122  1.00  0.00    -0.029 A 
ATOM      8  C   UNL A   1      29.669  26.623  24.313  1.00  0.00     0.005 A 
ATOM      9  C   UNL A   1      31.399  28.265  24.848  1.00  0.00    -0.014 A 
ATOM     10  C   UNL A   1      29.197  27.427  23.282  1.00  0.00     0.000 A 
ATOM     11  C   UNL A   1      30.928  29.036  23.766  1.00  0.00     0.009 A 
ATOM     12  C   UNL A   1      29.831  28.630  23.004  1.00  0.00     0.001 A 
BRANCH   9  13
ATOM     13  C   UNL A   1      32.485  28.845  25.690  1.00  0.00    -0.011 A 
ATOM     14  C   UNL A   1      33.755  28.191  25.954  1.00  0.00     0.027 A 
ATOM     15  C   UNL A   1      32.265  30.047  26.261  1.00  0.00     0.080 A 
ATOM     16  C   UNL A   1      34.657  28.743  26.778  1.00  0.00     0.095 A 
ATOM     17  C   UNL A   1      33.278  30.700  27.138  1.00  0.00     0.255 A 
ATOM     18  N   UNL A   1      34.430  29.971  27.371  1.00  0.00    -0.258 N 
ATOM     19  O   UNL A   1      33.033  31.820  27.576  1.00  0.00    -0.269 OA
BRANCH  18  20
ATOM     20  C   UNL A   1      35.409  30.562  28.247  1.00  0.00     0.451 C 
ATOM     21  F   UNL A   1      36.316  29.642  28.660  1.00  0.00    -0.185 F 
ATOM     22  F   UNL A   1      36.081  31.566  27.634  1.00  0.00    -0.185 F 
ENDBRANCH  18  20
ENDBRANCH   9  13
ENDBRANCH   6   7
ENDBRANCH   4   6
ENDBRANCH   3   4
ENDBRANCH   2   3
ENDBRANCH   1   2
BRANCH   1  23
ATOM     23  O   UNL A   1      34.885  22.818  24.141  1.00  0.00    -0.374 OA
BRANCH  23  24
ATOM     24  C   UNL A   1      34.935  21.881  25.223  1.00  0.00     0.202 C 
BRANCH  24  25
ATOM     25  C   UNL A   1      36.214  21.044  25.319  1.00  0.00     0.261 C 
BRANCH  25  26
ATOM     26  O   UNL A   1      37.386  21.853  25.133  1.00  0.00    -0.460 OA
BRANCH  26  27
ATOM     27  C   UNL A   1      38.497  21.415  25.773  1.00  0.00     0.338 C 
ATOM     28  O   UNL A   1      38.977  20.295  25.744  1.00  0.00    -0.246 OA
BRANCH  27  29
ATOM     29  C   UNL A   1      39.193  22.581  26.351  1.00  0.00     0.060 A 
ATOM     30  C   UNL A   1      38.665  23.857  26.101  1.00  0.00     0.016 A 
ATOM     31  C   UNL A   1      40.332  22.426  27.142  1.00  0.00     0.016 A 
ATOM     32  C   UNL A   1      39.299  24.987  26.610  1.00  0.00     0.010 A 
ATOM     33  C   UNL A   1      40.974  23.557  27.640  1.00  0.00     0.010 A 
ATOM     34  C   UNL A   1      40.478  24.841  27.349  1.00  0.00    -0.014 A 
BRANCH  34  35
ATOM     35  C   UNL A   1      41.304  26.020  27.687  1.00  0.00     0.031 A 
ATOM     36  C   UNL A   1      40.719  27.058  28.600  1.00  0.00     0.074 A 
ATOM     37  C   UNL A   1      42.528  26.180  27.154  1.00  0.00     0.049 A 
ATOM     38  N   UNL A   1      41.183  28.237  28.920  1.00  0.00    -0.248 NA
ATOM     39  C   UNL A   1      39.423  26.729  29.221  1.00  0.00     0.031 C 
ATOM     40  C   UNL A   1      43.208  25.218  26.288  1.00  0.00     0.029 A 
ATOM     41  N   UNL A   1      43.402  27.232  27.245  1.00  0.00    -0.354 N 
ATOM     42  C   UNL A   1      40.227  28.799  29.757  1.00  0.00     0.074 A 
ATOM     43  C   UNL A   1      39.150  27.843  29.881  1.00  0.00     0.031 C 
ATOM     44  C   UNL A   1      44.387  25.738  25.904  1.00  0.00     0.029 A 
ATOM     45  C   UNL A   1      44.519  27.083  26.459  1.00  0.00     0.049 A 
ATOM     46  H   UNL A   1      43.245  28.018  27.817  1.00  0.00     0.167 HD
ATOM     47  C   UNL A   1      40.247  30.010  30.360  1.00  0.00     0.031 A 
ATOM     48  C   UNL A   1      45.511  27.953  26.188  1.00  0.00     0.031 A 
ATOM     49  C   UNL A   1      41.323  30.954  30.223  1.00  0.00     0.049 A 
ATOM     50  C   UNL A   1      45.473  29.322  26.816  1.00  0.00     0.074 A 
ATOM     51  C   UNL A   1      41.466  32.189  30.828  1.00  0.00     0.029 A 
ATOM     52  N   UNL A   1      42.433  30.769  29.414  1.00  0.00    -0.354 N 
ATOM     53  N   UNL A   1      44.593  29.828  27.647  1.00  0.00    -0.248 NA
ATOM     54  C   UNL A   1      46.566  30.242  26.470  1.00  0.00     0.031 C 
ATOM     55  C   UNL A   1      42.627  32.784  30.328  1.00  0.00     0.029 A 
ATOM     56  C   UNL A   1      43.244  31.888  29.468  1.00  0.00     0.049 A 
ATOM     57  H   UNL A   1      42.616  29.963  28.880  1.00  0.00     0.167 HD
ATOM     58  C   UNL A   1      45.039  31.111  27.941  1.00  0.00     0.074 A 
ATOM     59  C   UNL A   1      46.277  31.299  27.215  1.00  0.00     0.031 C 
ATOM     60  C   UNL A   1      44.475  32.051  28.738  1.00  0.00     0.031 A 
BRANCH  47  61
ATOM     61  C   UNL A   1      39.054  30.403  31.184  1.00  0.00    -0.014 A 
ATOM     62  C   UNL A   1      38.888  29.952  32.503  1.00  0.00     0.009 A 
ATOM     63  C   UNL A   1      38.103  31.284  30.643  1.00  0.00     0.009 A 
ATOM     64  C   UNL A   1      37.780  30.354  33.252  1.00  0.00     0.001 A 
ATOM     65  C   UNL A   1      37.013  31.708  31.405  1.00  0.00     0.001 A 
ATOM     66  C   UNL A   1      36.849  31.237  32.706  1.00  0.00     0.000 A 
ENDBRANCH  47  61
BRANCH  48  67
ATOM     67  C   UNL A   1      46.597  27.583  25.243  1.00  0.00    -0.014 A 
ATOM     68  C   UNL A   1      47.634  26.725  25.641  1.00  0.00     0.009 A 
ATOM     69  C   UNL A   1      46.618  28.109  23.941  1.00  0.00     0.009 A 
ATOM     70  C   UNL A   1      48.684  26.429  24.767  1.00  0.00     0.001 A 
ATOM     71  C   UNL A   1      47.651  27.785  23.058  1.00  0.00     0.001 A 
ATOM     72  C   UNL A   1      48.688  26.955  23.476  1.00  0.00     0.000 A 
ENDBRANCH  48  67
BRANCH  60  73
ATOM     73  C   UNL A   1      45.205  33.355  28.896  1.00  0.00    -0.014 A 
ATOM     74  C   UNL A   1      46.198  33.521  29.873  1.00  0.00     0.009 A 
ATOM     75  C   UNL A   1      44.942  34.410  28.007  1.00  0.00     0.009 A 
ATOM     76  C   UNL A   1      46.895  34.726  29.973  1.00  0.00     0.001 A 
ATOM     77  C   UNL A   1      45.663  35.601  28.087  1.00  0.00     0.001 A 
ATOM     78  C   UNL A   1      46.634  35.761  29.075  1.00  0.00     0.000 A 
ENDBRANCH  60  73
ENDBRANCH  34  35
ENDBRANCH  27  29
ENDBRANCH  26  27
ENDBRANCH  25  26
ENDBRANCH  24  25
ENDBRANCH  23  24
ENDBRANCH   1  23
TORSDOF 17
ENDMDL
