MODEL 1
REMARK VINA RESULT:      -9.5      0.000      0.000
REMARK SMILES C[C@H](NC(=O)c1cc(S(=O)(=O)N(C)C)cs1)C(=O)OCCOCCOC(=O)c1ccc(-c2c3nc(c(-c4ccccc4)c4ccc([nH]4)c(-c4ccccc4)c4nc(c(-c5ccccc5)c5ccc2[nH]5)C=C4)C=C3)cc1
REMARK SMILES IDX 21 1 20 2 19 3 17 4 18 5 2 6 1 7 3 8 4 9 5 11 6 12 7 13
REMARK SMILES IDX 16 14 8 15 15 16 9 17 10 18 11 19 12 20 13 21 14 22 22 23
REMARK SMILES IDX 23 24 24 25 25 26 26 27 27 28 28 29 29 30 75 31 30 32 74 33
REMARK SMILES IDX 31 34 32 35 33 36 68 37 34 38 73 39 67 40 69 41 35 42 72 43
REMARK SMILES IDX 66 44 65 45 36 47 58 48 43 49 57 50 44 51 47 52 56 53 70 54
REMARK SMILES IDX 45 55 46 56 55 58 71 59 48 60 37 61 38 62 42 63 39 64 41 65
REMARK SMILES IDX 40 66 59 67 60 68 64 69 61 70 63 71 62 72 49 73 50 74 54 75
REMARK SMILES IDX 51 76 53 77 52 78
REMARK H PARENT 3 10 69 46 47 57
REMARK Flexibility Score: inf
ROOT
ATOM      1  C   UNL A   1      31.803  32.809  26.967  1.00  0.00     0.202 C 
ENDROOT
BRANCH   1   2
ATOM      2  C   UNL A   1      31.790  31.303  26.695  1.00  0.00     0.261 C 
BRANCH   2   3
ATOM      3  O   UNL A   1      33.108  30.772  26.488  1.00  0.00    -0.462 OA
BRANCH   3   4
ATOM      4  C   UNL A   1      33.245  29.452  26.791  1.00  0.00     0.328 C 
ATOM      5  O   UNL A   1      34.012  29.001  27.637  1.00  0.00    -0.250 OA
BRANCH   4   6
ATOM      6  C   UNL A   1      32.348  28.550  25.935  1.00  0.00     0.189 C 
ATOM      7  C   UNL A   1      31.617  27.590  26.868  1.00  0.00     0.043 C 
BRANCH   6   8
ATOM      8  N   UNL A   1      33.035  27.818  24.863  1.00  0.00    -0.338 N 
ATOM      9  C   UNL A   1      32.501  27.285  23.709  1.00  0.00     0.262 C 
ATOM     10  H   UNL A   1      34.003  27.690  24.984  1.00  0.00     0.164 HD
ATOM     11  O   UNL A   1      33.230  26.592  23.000  1.00  0.00    -0.268 OA
BRANCH   9  12
ATOM     12  C   UNL A   1      31.111  27.568  23.406  1.00  0.00     0.093 A 
ATOM     13  C   UNL A   1      30.564  28.672  22.781  1.00  0.00     0.047 A 
ATOM     14  S   UNL A   1      29.896  26.451  23.868  1.00  0.00    -0.137 S 
ATOM     15  C   UNL A   1      29.141  28.684  22.859  1.00  0.00     0.094 A 
ATOM     16  C   UNL A   1      28.641  27.533  23.428  1.00  0.00     0.087 A 
BRANCH  15  17
ATOM     17  S   UNL A   1      28.162  30.035  22.394  1.00  0.00     0.243 S 
ATOM     18  O   UNL A   1      27.998  29.895  20.967  1.00  0.00    -0.207 OA
ATOM     19  O   UNL A   1      27.048  29.949  23.315  1.00  0.00    -0.207 OA
BRANCH  17  20
ATOM     20  N   UNL A   1      29.021  31.477  22.713  1.00  0.00    -0.204 NA
ATOM     21  C   UNL A   1      28.503  32.675  22.016  1.00  0.00     0.124 C 
ATOM     22  C   UNL A   1      29.221  31.735  24.158  1.00  0.00     0.124 C 
ENDBRANCH  17  20
ENDBRANCH  15  17
ENDBRANCH   9  12
ENDBRANCH   6   8
ENDBRANCH   4   6
ENDBRANCH   3   4
ENDBRANCH   2   3
ENDBRANCH   1   2
BRANCH   1  23
ATOM     23  O   UNL A   1      32.574  33.240  28.084  1.00  0.00    -0.374 OA
BRANCH  23  24
ATOM     24  C   UNL A   1      33.157  34.546  28.028  1.00  0.00     0.202 C 
BRANCH  24  25
ATOM     25  C   UNL A   1      33.560  35.179  29.365  1.00  0.00     0.261 C 
BRANCH  25  26
ATOM     26  O   UNL A   1      32.565  34.958  30.384  1.00  0.00    -0.460 OA
BRANCH  26  27
ATOM     27  C   UNL A   1      32.822  35.562  31.571  1.00  0.00     0.338 C 
ATOM     28  O   UNL A   1      32.164  36.430  32.119  1.00  0.00    -0.246 OA
BRANCH  27  29
ATOM     29  C   UNL A   1      33.949  34.895  32.246  1.00  0.00     0.060 A 
ATOM     30  C   UNL A   1      35.195  35.536  32.222  1.00  0.00     0.016 A 
ATOM     31  C   UNL A   1      33.819  33.614  32.785  1.00  0.00     0.016 A 
ATOM     32  C   UNL A   1      36.329  34.876  32.692  1.00  0.00     0.010 A 
ATOM     33  C   UNL A   1      34.962  32.948  33.244  1.00  0.00     0.010 A 
ATOM     34  C   UNL A   1      36.226  33.561  33.164  1.00  0.00    -0.014 A 
BRANCH  34  35
ATOM     35  C   UNL A   1      37.457  32.777  33.421  1.00  0.00     0.031 A 
ATOM     36  C   UNL A   1      38.220  33.011  34.695  1.00  0.00     0.074 A 
ATOM     37  C   UNL A   1      37.878  31.846  32.547  1.00  0.00     0.049 A 
ATOM     38  N   UNL A   1      39.327  32.453  35.113  1.00  0.00    -0.248 NA
ATOM     39  C   UNL A   1      37.656  34.005  35.624  1.00  0.00     0.031 C 
ATOM     40  C   UNL A   1      37.205  31.488  31.299  1.00  0.00     0.029 A 
ATOM     41  N   UNL A   1      38.983  31.033  32.581  1.00  0.00    -0.354 N 
ATOM     42  C   UNL A   1      39.597  33.030  36.349  1.00  0.00     0.074 A 
ATOM     43  C   UNL A   1      38.550  33.996  36.603  1.00  0.00     0.031 C 
ATOM     44  C   UNL A   1      37.919  30.531  30.681  1.00  0.00     0.029 A 
ATOM     45  C   UNL A   1      39.109  30.231  31.476  1.00  0.00     0.049 A 
ATOM     46  H   UNL A   1      39.624  31.027  33.329  1.00  0.00     0.167 HD
ATOM     47  C   UNL A   1      40.621  32.778  37.197  1.00  0.00     0.031 A 
ATOM     48  C   UNL A   1      40.083  29.366  31.135  1.00  0.00     0.031 A 
ATOM     49  C   UNL A   1      41.673  31.833  36.944  1.00  0.00     0.049 A 
ATOM     50  C   UNL A   1      41.254  29.161  32.058  1.00  0.00     0.074 A 
ATOM     51  C   UNL A   1      42.750  31.503  37.750  1.00  0.00     0.029 A 
ATOM     52  N   UNL A   1      41.787  31.072  35.792  1.00  0.00    -0.354 N 
ATOM     53  N   UNL A   1      41.484  29.698  33.231  1.00  0.00    -0.248 NA
ATOM     54  C   UNL A   1      42.296  28.227  31.607  1.00  0.00     0.031 C 
ATOM     55  C   UNL A   1      43.539  30.573  37.065  1.00  0.00     0.029 A 
ATOM     56  C   UNL A   1      42.929  30.292  35.854  1.00  0.00     0.049 A 
ATOM     57  H   UNL A   1      41.151  31.085  35.041  1.00  0.00     0.167 HD
ATOM     58  C   UNL A   1      42.684  29.150  33.668  1.00  0.00     0.074 A 
ATOM     59  C   UNL A   1      43.127  28.231  32.640  1.00  0.00     0.031 C 
ATOM     60  C   UNL A   1      43.357  29.384  34.822  1.00  0.00     0.031 A 
BRANCH  47  61
ATOM     61  C   UNL A   1      40.665  33.571  38.472  1.00  0.00    -0.014 A 
ATOM     62  C   UNL A   1      41.341  34.799  38.540  1.00  0.00     0.009 A 
ATOM     63  C   UNL A   1      40.003  33.092  39.612  1.00  0.00     0.009 A 
ATOM     64  C   UNL A   1      41.379  35.517  39.737  1.00  0.00     0.001 A 
ATOM     65  C   UNL A   1      40.024  33.823  40.801  1.00  0.00     0.001 A 
ATOM     66  C   UNL A   1      40.718  35.031  40.865  1.00  0.00     0.000 A 
ENDBRANCH  47  61
BRANCH  48  67
ATOM     67  C   UNL A   1      40.009  28.638  29.843  1.00  0.00    -0.014 A 
ATOM     68  C   UNL A   1      39.453  27.351  29.778  1.00  0.00     0.009 A 
ATOM     69  C   UNL A   1      40.508  29.223  28.670  1.00  0.00     0.009 A 
ATOM     70  C   UNL A   1      39.418  26.657  28.566  1.00  0.00     0.001 A 
ATOM     71  C   UNL A   1      40.451  28.537  27.455  1.00  0.00     0.001 A 
ATOM     72  C   UNL A   1      39.914  27.252  27.406  1.00  0.00     0.000 A 
ENDBRANCH  48  67
BRANCH  60  73
ATOM     73  C   UNL A   1      44.626  28.614  35.046  1.00  0.00    -0.014 A 
ATOM     74  C   UNL A   1      45.862  29.105  34.601  1.00  0.00     0.009 A 
ATOM     75  C   UNL A   1      44.587  27.402  35.753  1.00  0.00     0.009 A 
ATOM     76  C   UNL A   1      47.034  28.382  34.837  1.00  0.00     0.001 A 
ATOM     77  C   UNL A   1      45.762  26.693  36.006  1.00  0.00     0.001 A 
ATOM     78  C   UNL A   1      46.983  27.179  35.541  1.00  0.00     0.000 A 
ENDBRANCH  60  73
ENDBRANCH  34  35
ENDBRANCH  27  29
ENDBRANCH  26  27
ENDBRANCH  25  26
ENDBRANCH  24  25
ENDBRANCH  23  24
ENDBRANCH   1  23
TORSDOF 18
ENDMDL
MODEL 2
REMARK VINA RESULT:      -9.2      1.933      3.596
REMARK SMILES C[C@H](NC(=O)c1cc(S(=O)(=O)N(C)C)cs1)C(=O)OCCOCCOC(=O)c1ccc(-c2c3nc(c(-c4ccccc4)c4ccc([nH]4)c(-c4ccccc4)c4nc(c(-c5ccccc5)c5ccc2[nH]5)C=C4)C=C3)cc1
REMARK SMILES IDX 21 1 20 2 19 3 17 4 18 5 2 6 1 7 3 8 4 9 5 11 6 12 7 13
REMARK SMILES IDX 16 14 8 15 15 16 9 17 10 18 11 19 12 20 13 21 14 22 22 23
REMARK SMILES IDX 23 24 24 25 25 26 26 27 27 28 28 29 29 30 75 31 30 32 74 33
REMARK SMILES IDX 31 34 32 35 33 36 68 37 34 38 73 39 67 40 69 41 35 42 72 43
REMARK SMILES IDX 66 44 65 45 36 47 58 48 43 49 57 50 44 51 47 52 56 53 70 54
REMARK SMILES IDX 45 55 46 56 55 58 71 59 48 60 37 61 38 62 42 63 39 64 41 65
REMARK SMILES IDX 40 66 59 67 60 68 64 69 61 70 63 71 62 72 49 73 50 74 54 75
REMARK SMILES IDX 51 76 53 77 52 78
REMARK H PARENT 3 10 69 46 47 57
REMARK Flexibility Score: inf
ROOT
ATOM      1  C   UNL A   1      32.936  32.618  27.650  1.00  0.00     0.202 C 
ENDROOT
BRANCH   1   2
ATOM      2  C   UNL A   1      33.417  31.165  27.638  1.00  0.00     0.261 C 
BRANCH   2   3
ATOM      3  O   UNL A   1      33.208  30.529  26.368  1.00  0.00    -0.462 OA
BRANCH   3   4
ATOM      4  C   UNL A   1      33.560  29.214  26.323  1.00  0.00     0.328 C 
ATOM      5  O   UNL A   1      34.541  28.731  26.880  1.00  0.00    -0.250 OA
BRANCH   4   6
ATOM      6  C   UNL A   1      32.608  28.374  25.465  1.00  0.00     0.189 C 
ATOM      7  C   UNL A   1      31.966  29.294  24.432  1.00  0.00     0.043 C 
BRANCH   6   8
ATOM      8  N   UNL A   1      31.585  27.627  26.210  1.00  0.00    -0.338 N 
ATOM      9  C   UNL A   1      31.180  26.321  26.038  1.00  0.00     0.262 C 
ATOM     10  H   UNL A   1      31.128  28.126  26.925  1.00  0.00     0.164 HD
ATOM     11  O   UNL A   1      30.211  25.925  26.685  1.00  0.00    -0.268 OA
BRANCH   9  12
ATOM     12  C   UNL A   1      31.918  25.495  25.101  1.00  0.00     0.093 A 
ATOM     13  C   UNL A   1      33.007  24.678  25.331  1.00  0.00     0.047 A 
ATOM     14  S   UNL A   1      31.468  25.480  23.446  1.00  0.00    -0.137 S 
ATOM     15  C   UNL A   1      33.585  24.199  24.119  1.00  0.00     0.094 A 
ATOM     16  C   UNL A   1      32.848  24.559  23.013  1.00  0.00     0.087 A 
BRANCH  15  17
ATOM     17  S   UNL A   1      35.096  23.354  24.040  1.00  0.00     0.243 S 
ATOM     18  O   UNL A   1      35.345  23.181  22.630  1.00  0.00    -0.207 OA
ATOM     19  O   UNL A   1      35.951  24.159  24.887  1.00  0.00    -0.207 OA
BRANCH  17  20
ATOM     20  N   UNL A   1      34.908  21.817  24.762  1.00  0.00    -0.204 NA
ATOM     21  C   UNL A   1      35.119  21.790  26.227  1.00  0.00     0.124 C 
ATOM     22  C   UNL A   1      33.646  21.139  24.384  1.00  0.00     0.124 C 
ENDBRANCH  17  20
ENDBRANCH  15  17
ENDBRANCH   9  12
ENDBRANCH   6   8
ENDBRANCH   4   6
ENDBRANCH   3   4
ENDBRANCH   2   3
ENDBRANCH   1   2
BRANCH   1  23
ATOM     23  O   UNL A   1      33.947  33.614  27.769  1.00  0.00    -0.374 OA
BRANCH  23  24
ATOM     24  C   UNL A   1      34.241  34.113  29.078  1.00  0.00     0.202 C 
BRANCH  24  25
ATOM     25  C   UNL A   1      33.413  35.309  29.562  1.00  0.00     0.261 C 
BRANCH  25  26
ATOM     26  O   UNL A   1      32.581  34.965  30.688  1.00  0.00    -0.460 OA
BRANCH  26  27
ATOM     27  C   UNL A   1      32.893  35.604  31.842  1.00  0.00     0.338 C 
ATOM     28  O   UNL A   1      32.273  36.505  32.382  1.00  0.00    -0.246 OA
BRANCH  27  29
ATOM     29  C   UNL A   1      34.030  34.937  32.501  1.00  0.00     0.060 A 
ATOM     30  C   UNL A   1      35.274  35.581  32.460  1.00  0.00     0.016 A 
ATOM     31  C   UNL A   1      33.909  33.655  33.038  1.00  0.00     0.016 A 
ATOM     32  C   UNL A   1      36.416  34.921  32.914  1.00  0.00     0.010 A 
ATOM     33  C   UNL A   1      35.059  32.990  33.481  1.00  0.00     0.010 A 
ATOM     34  C   UNL A   1      36.321  33.605  33.385  1.00  0.00    -0.014 A 
BRANCH  34  35
ATOM     35  C   UNL A   1      37.557  32.822  33.623  1.00  0.00     0.031 A 
ATOM     36  C   UNL A   1      38.328  33.045  34.894  1.00  0.00     0.074 A 
ATOM     37  C   UNL A   1      37.974  31.902  32.736  1.00  0.00     0.049 A 
ATOM     38  N   UNL A   1      39.441  32.486  35.297  1.00  0.00    -0.248 NA
ATOM     39  C   UNL A   1      37.769  34.027  35.838  1.00  0.00     0.031 C 
ATOM     40  C   UNL A   1      37.292  31.556  31.489  1.00  0.00     0.029 A 
ATOM     41  N   UNL A   1      39.081  31.093  32.752  1.00  0.00    -0.354 N 
ATOM     42  C   UNL A   1      39.719  33.050  36.537  1.00  0.00     0.074 A 
ATOM     43  C   UNL A   1      38.671  34.009  36.810  1.00  0.00     0.031 C 
ATOM     44  C   UNL A   1      38.005  30.609  30.854  1.00  0.00     0.029 A 
ATOM     45  C   UNL A   1      39.201  30.304  31.637  1.00  0.00     0.049 A 
ATOM     46  H   UNL A   1      39.728  31.080  33.495  1.00  0.00     0.167 HD
ATOM     47  C   UNL A   1      40.750  32.792  37.374  1.00  0.00     0.031 A 
ATOM     48  C   UNL A   1      40.175  29.446  31.279  1.00  0.00     0.031 A 
ATOM     49  C   UNL A   1      41.804  31.853  37.103  1.00  0.00     0.049 A 
ATOM     50  C   UNL A   1      41.354  29.235  32.190  1.00  0.00     0.074 A 
ATOM     51  C   UNL A   1      42.888  31.518  37.896  1.00  0.00     0.029 A 
ATOM     52  N   UNL A   1      41.911  31.106  35.941  1.00  0.00    -0.354 N 
ATOM     53  N   UNL A   1      41.592  29.759  33.367  1.00  0.00    -0.248 NA
ATOM     54  C   UNL A   1      42.396  28.309  31.721  1.00  0.00     0.031 C 
ATOM     55  C   UNL A   1      43.674  30.599  37.194  1.00  0.00     0.029 A 
ATOM     56  C   UNL A   1      43.055  30.329  35.985  1.00  0.00     0.049 A 
ATOM     57  H   UNL A   1      41.268  31.125  35.196  1.00  0.00     0.167 HD
ATOM     58  C   UNL A   1      42.797  29.210  33.789  1.00  0.00     0.074 A 
ATOM     59  C   UNL A   1      43.235  28.305  32.747  1.00  0.00     0.031 C 
ATOM     60  C   UNL A   1      43.478  29.434  34.940  1.00  0.00     0.031 A 
BRANCH  47  61
ATOM     61  C   UNL A   1      40.802  33.571  38.657  1.00  0.00    -0.014 A 
ATOM     62  C   UNL A   1      40.190  33.087  39.825  1.00  0.00     0.009 A 
ATOM     63  C   UNL A   1      41.488  34.793  38.702  1.00  0.00     0.009 A 
ATOM     64  C   UNL A   1      40.241  33.830  41.006  1.00  0.00     0.001 A 
ATOM     65  C   UNL A   1      41.555  35.523  39.890  1.00  0.00     0.001 A 
ATOM     66  C   UNL A   1      40.925  35.045  41.039  1.00  0.00     0.000 A 
ENDBRANCH  47  61
BRANCH  48  67
ATOM     67  C   UNL A   1      40.093  28.732  29.979  1.00  0.00    -0.014 A 
ATOM     68  C   UNL A   1      40.561  29.334  28.802  1.00  0.00     0.009 A 
ATOM     69  C   UNL A   1      39.532  27.448  29.910  1.00  0.00     0.009 A 
ATOM     70  C   UNL A   1      40.450  28.672  27.577  1.00  0.00     0.001 A 
ATOM     71  C   UNL A   1      39.441  26.778  28.688  1.00  0.00     0.001 A 
ATOM     72  C   UNL A   1      39.893  27.394  27.522  1.00  0.00     0.000 A 
ENDBRANCH  48  67
BRANCH  60  73
ATOM     73  C   UNL A   1      44.752  28.666  35.146  1.00  0.00    -0.014 A 
ATOM     74  C   UNL A   1      45.962  29.101  34.585  1.00  0.00     0.009 A 
ATOM     75  C   UNL A   1      44.746  27.515  35.950  1.00  0.00     0.009 A 
ATOM     76  C   UNL A   1      47.139  28.381  34.804  1.00  0.00     0.001 A 
ATOM     77  C   UNL A   1      45.928  26.812  36.185  1.00  0.00     0.001 A 
ATOM     78  C   UNL A   1      47.122  27.241  35.606  1.00  0.00     0.000 A 
ENDBRANCH  60  73
ENDBRANCH  34  35
ENDBRANCH  27  29
ENDBRANCH  26  27
ENDBRANCH  25  26
ENDBRANCH  24  25
ENDBRANCH  23  24
ENDBRANCH   1  23
TORSDOF 18
ENDMDL
MODEL 3
REMARK VINA RESULT:      -9.2      5.778      9.754
REMARK SMILES C[C@H](NC(=O)c1cc(S(=O)(=O)N(C)C)cs1)C(=O)OCCOCCOC(=O)c1ccc(-c2c3nc(c(-c4ccccc4)c4ccc([nH]4)c(-c4ccccc4)c4nc(c(-c5ccccc5)c5ccc2[nH]5)C=C4)C=C3)cc1
REMARK SMILES IDX 21 1 20 2 19 3 17 4 18 5 2 6 1 7 3 8 4 9 5 11 6 12 7 13
REMARK SMILES IDX 16 14 8 15 15 16 9 17 10 18 11 19 12 20 13 21 14 22 22 23
REMARK SMILES IDX 23 24 24 25 25 26 26 27 27 28 28 29 29 30 75 31 30 32 74 33
REMARK SMILES IDX 31 34 32 35 33 36 68 37 34 38 73 39 67 40 69 41 35 42 72 43
REMARK SMILES IDX 66 44 65 45 36 47 58 48 43 49 57 50 44 51 47 52 56 53 70 54
REMARK SMILES IDX 45 55 46 56 55 58 71 59 48 60 37 61 38 62 42 63 39 64 41 65
REMARK SMILES IDX 40 66 59 67 60 68 64 69 61 70 63 71 62 72 49 73 50 74 54 75
REMARK SMILES IDX 51 76 53 77 52 78
REMARK H PARENT 3 10 69 46 47 57
REMARK Flexibility Score: inf
ROOT
ATOM      1  C   UNL A   1      32.469  28.422  27.248  1.00  0.00     0.202 C 
ENDROOT
BRANCH   1   2
ATOM      2  C   UNL A   1      31.544  27.665  26.291  1.00  0.00     0.261 C 
BRANCH   2   3
ATOM      3  O   UNL A   1      32.260  27.054  25.207  1.00  0.00    -0.462 OA
BRANCH   3   4
ATOM      4  C   UNL A   1      32.264  27.772  24.049  1.00  0.00     0.328 C 
ATOM      5  O   UNL A   1      31.390  28.564  23.711  1.00  0.00    -0.250 OA
BRANCH   4   6
ATOM      6  C   UNL A   1      33.482  27.471  23.169  1.00  0.00     0.189 C 
ATOM      7  C   UNL A   1      34.308  28.749  23.054  1.00  0.00     0.043 C 
BRANCH   6   8
ATOM      8  N   UNL A   1      33.178  26.922  21.841  1.00  0.00    -0.338 N 
ATOM      9  C   UNL A   1      33.023  25.603  21.472  1.00  0.00     0.262 C 
ATOM     10  H   UNL A   1      33.070  27.583  21.119  1.00  0.00     0.164 HD
ATOM     11  O   UNL A   1      32.897  25.346  20.276  1.00  0.00    -0.268 OA
BRANCH   9  12
ATOM     12  C   UNL A   1      33.024  24.597  22.518  1.00  0.00     0.093 A 
ATOM     13  C   UNL A   1      34.095  23.943  23.096  1.00  0.00     0.047 A 
ATOM     14  S   UNL A   1      31.537  24.059  23.181  1.00  0.00    -0.137 S 
ATOM     15  C   UNL A   1      33.679  22.870  23.936  1.00  0.00     0.094 A 
ATOM     16  C   UNL A   1      32.310  22.817  24.074  1.00  0.00     0.087 A 
BRANCH  15  17
ATOM     17  S   UNL A   1      34.765  21.703  24.616  1.00  0.00     0.243 S 
ATOM     18  O   UNL A   1      34.104  20.434  24.429  1.00  0.00    -0.207 OA
ATOM     19  O   UNL A   1      36.020  22.028  23.971  1.00  0.00    -0.207 OA
BRANCH  17  20
ATOM     20  N   UNL A   1      34.920  22.004  26.291  1.00  0.00    -0.204 NA
ATOM     21  C   UNL A   1      35.199  23.413  26.644  1.00  0.00     0.124 C 
ATOM     22  C   UNL A   1      33.804  21.453  27.094  1.00  0.00     0.124 C 
ENDBRANCH  17  20
ENDBRANCH  15  17
ENDBRANCH   9  12
ENDBRANCH   6   8
ENDBRANCH   4   6
ENDBRANCH   3   4
ENDBRANCH   2   3
ENDBRANCH   1   2
BRANCH   1  23
ATOM     23  O   UNL A   1      32.470  29.842  27.130  1.00  0.00    -0.374 OA
BRANCH  23  24
ATOM     24  C   UNL A   1      33.714  30.526  27.319  1.00  0.00     0.202 C 
BRANCH  24  25
ATOM     25  C   UNL A   1      34.854  29.720  27.955  1.00  0.00     0.261 C 
BRANCH  25  26
ATOM     26  O   UNL A   1      35.736  30.559  28.728  1.00  0.00    -0.460 OA
BRANCH  26  27
ATOM     27  C   UNL A   1      36.425  29.914  29.701  1.00  0.00     0.338 C 
ATOM     28  O   UNL A   1      35.968  29.279  30.636  1.00  0.00    -0.246 OA
BRANCH  27  29
ATOM     29  C   UNL A   1      37.865  29.915  29.389  1.00  0.00     0.060 A 
ATOM     30  C   UNL A   1      38.240  29.849  28.040  1.00  0.00     0.016 A 
ATOM     31  C   UNL A   1      38.828  29.858  30.398  1.00  0.00     0.016 A 
ATOM     32  C   UNL A   1      39.579  29.675  27.695  1.00  0.00     0.010 A 
ATOM     33  C   UNL A   1      40.171  29.669  30.049  1.00  0.00     0.010 A 
ATOM     34  C   UNL A   1      40.546  29.539  28.700  1.00  0.00    -0.014 A 
BRANCH  34  35
ATOM     35  C   UNL A   1      41.916  29.100  28.342  1.00  0.00     0.031 A 
ATOM     36  C   UNL A   1      42.160  27.651  28.027  1.00  0.00     0.074 A 
ATOM     37  C   UNL A   1      42.927  29.984  28.269  1.00  0.00     0.049 A 
ATOM     38  N   UNL A   1      43.278  27.048  27.709  1.00  0.00    -0.248 NA
ATOM     39  C   UNL A   1      40.986  26.763  28.071  1.00  0.00     0.031 C 
ATOM     40  C   UNL A   1      42.815  31.422  28.504  1.00  0.00     0.029 A 
ATOM     41  N   UNL A   1      44.254  29.790  27.978  1.00  0.00    -0.354 N 
ATOM     42  C   UNL A   1      42.944  25.711  27.522  1.00  0.00     0.074 A 
ATOM     43  C   UNL A   1      41.526  25.587  27.782  1.00  0.00     0.031 C 
ATOM     44  C   UNL A   1      44.029  31.981  28.357  1.00  0.00     0.029 A 
ATOM     45  C   UNL A   1      45.003  30.937  28.044  1.00  0.00     0.049 A 
ATOM     46  H   UNL A   1      44.631  28.911  27.744  1.00  0.00     0.167 HD
ATOM     47  C   UNL A   1      43.745  24.680  27.163  1.00  0.00     0.031 A 
ATOM     48  C   UNL A   1      46.328  31.121  27.887  1.00  0.00     0.031 A 
ATOM     49  C   UNL A   1      45.156  24.792  26.920  1.00  0.00     0.049 A 
ATOM     50  C   UNL A   1      47.211  29.945  27.568  1.00  0.00     0.074 A 
ATOM     51  C   UNL A   1      46.049  23.802  26.544  1.00  0.00     0.029 A 
ATOM     52  N   UNL A   1      45.885  25.964  27.040  1.00  0.00    -0.354 N 
ATOM     53  N   UNL A   1      46.879  28.692  27.374  1.00  0.00    -0.248 NA
ATOM     54  C   UNL A   1      48.651  30.213  27.443  1.00  0.00     0.031 C 
ATOM     55  C   UNL A   1      47.326  24.369  26.479  1.00  0.00     0.029 A 
ATOM     56  C   UNL A   1      47.220  25.719  26.770  1.00  0.00     0.049 A 
ATOM     57  H   UNL A   1      45.508  26.841  27.282  1.00  0.00     0.167 HD
ATOM     58  C   UNL A   1      48.064  28.028  27.082  1.00  0.00     0.074 A 
ATOM     59  C   UNL A   1      49.121  29.017  27.113  1.00  0.00     0.031 C 
ATOM     60  C   UNL A   1      48.259  26.714  26.807  1.00  0.00     0.031 A 
BRANCH  47  61
ATOM     61  C   UNL A   1      43.105  23.326  27.047  1.00  0.00    -0.014 A 
ATOM     62  C   UNL A   1      42.747  22.798  25.796  1.00  0.00     0.009 A 
ATOM     63  C   UNL A   1      42.878  22.562  28.201  1.00  0.00     0.009 A 
ATOM     64  C   UNL A   1      42.145  21.541  25.709  1.00  0.00     0.001 A 
ATOM     65  C   UNL A   1      42.296  21.297  28.108  1.00  0.00     0.001 A 
ATOM     66  C   UNL A   1      41.923  20.790  26.863  1.00  0.00     0.000 A 
ENDBRANCH  47  61
BRANCH  48  67
ATOM     67  C   UNL A   1      46.913  32.476  28.054  1.00  0.00    -0.014 A 
ATOM     68  C   UNL A   1      47.003  33.354  26.964  1.00  0.00     0.009 A 
ATOM     69  C   UNL A   1      47.398  32.890  29.303  1.00  0.00     0.009 A 
ATOM     70  C   UNL A   1      47.586  34.614  27.118  1.00  0.00     0.001 A 
ATOM     71  C   UNL A   1      47.960  34.158  29.461  1.00  0.00     0.001 A 
ATOM     72  C   UNL A   1      48.061  35.016  28.367  1.00  0.00     0.000 A 
ENDBRANCH  48  67
BRANCH  60  73
ATOM     73  C   UNL A   1      49.661  26.278  26.491  1.00  0.00    -0.014 A 
ATOM     74  C   UNL A   1      50.185  26.402  25.196  1.00  0.00     0.009 A 
ATOM     75  C   UNL A   1      50.481  25.780  27.516  1.00  0.00     0.009 A 
ATOM     76  C   UNL A   1      51.498  26.007  24.927  1.00  0.00     0.001 A 
ATOM     77  C   UNL A   1      51.799  25.408  27.249  1.00  0.00     0.001 A 
ATOM     78  C   UNL A   1      52.304  25.515  25.954  1.00  0.00     0.000 A 
ENDBRANCH  60  73
ENDBRANCH  34  35
ENDBRANCH  27  29
ENDBRANCH  26  27
ENDBRANCH  25  26
ENDBRANCH  24  25
ENDBRANCH  23  24
ENDBRANCH   1  23
TORSDOF 18
ENDMDL
