MODEL 1
REMARK VINA RESULT:     -10.8      0.000      0.000
REMARK SMILES CCc1ccc(C(=O)OCCOCCOC(=O)c2ccc(-c3c4nc(c(-c5ccccc5)c5ccc([nH]5)c(-c5ccccc5)c5nc(c(-c6ccccc6)c6ccc3[nH]6)C=C5)C=C4)cc2)cc1S(=O)(=O)Nc1ccc(F)c(F)c1F
REMARK SMILES IDX 11 1 10 2 9 3 7 4 8 5 6 6 3 7 4 8 67 9 5 10 66 11 2 12 1 13
REMARK SMILES IDX 68 14 69 15 70 16 71 17 72 19 73 20 79 21 74 22 77 23 80 24
REMARK SMILES IDX 75 25 78 26 76 27 12 28 13 29 14 30 15 31 16 32 17 33 18 34
REMARK SMILES IDX 19 35 65 36 20 37 64 38 21 39 22 40 23 41 58 42 24 43 63 44
REMARK SMILES IDX 57 45 59 46 25 47 62 48 56 49 55 50 26 52 48 53 33 54 47 55
REMARK SMILES IDX 34 56 37 57 46 58 60 59 35 60 36 61 45 63 61 64 38 65 27 66
REMARK SMILES IDX 28 67 32 68 29 69 31 70 30 71 49 72 50 73 54 74 51 75 53 76
REMARK SMILES IDX 52 77 39 78 40 79 44 80 41 81 43 82 42 83
REMARK H PARENT 71 18 59 51 37 62
REMARK Flexibility Score: inf
ROOT
ATOM      1  C   UNL A   1      34.574  32.471  29.218  1.00  0.00     0.202 C 
ENDROOT
BRANCH   1   2
ATOM      2  C   UNL A   1      34.404  31.941  27.787  1.00  0.00     0.261 C 
BRANCH   2   3
ATOM      3  O   UNL A   1      33.652  30.717  27.730  1.00  0.00    -0.460 OA
BRANCH   3   4
ATOM      4  C   UNL A   1      32.451  30.812  27.104  1.00  0.00     0.338 C 
ATOM      5  O   UNL A   1      31.818  31.820  26.850  1.00  0.00    -0.246 OA
BRANCH   4   6
ATOM      6  C   UNL A   1      32.134  29.501  26.512  1.00  0.00     0.061 A 
ATOM      7  C   UNL A   1      31.148  27.074  25.515  1.00  0.00    -0.028 A 
ATOM      8  C   UNL A   1      31.275  27.304  26.904  1.00  0.00     0.006 A 
ATOM      9  C   UNL A   1      31.752  27.986  24.630  1.00  0.00     0.091 A 
ATOM     10  C   UNL A   1      31.779  28.495  27.402  1.00  0.00     0.016 A 
ATOM     11  C   UNL A   1      32.168  29.245  25.139  1.00  0.00     0.038 A 
BRANCH   7  12
ATOM     12  C   UNL A   1      30.257  25.913  25.176  1.00  0.00     0.033 C 
ATOM     13  C   UNL A   1      30.677  24.607  25.833  1.00  0.00     0.009 C 
ENDBRANCH   7  12
BRANCH   9  14
ATOM     14  S   UNL A   1      32.186  27.758  22.895  1.00  0.00     0.262 S 
ATOM     15  O   UNL A   1      30.996  27.203  22.281  1.00  0.00    -0.201 OA
ATOM     16  O   UNL A   1      32.713  29.033  22.454  1.00  0.00    -0.201 OA
BRANCH  14  17
ATOM     17  N   UNL A   1      33.359  26.609  22.620  1.00  0.00    -0.277 N 
ATOM     18  H   UNL A   1      34.134  26.904  22.089  1.00  0.00     0.180 HD
BRANCH  17  19
ATOM     19  C   UNL A   1      33.379  25.257  23.054  1.00  0.00     0.088 A 
ATOM     20  C   UNL A   1      32.919  24.180  22.299  1.00  0.00     0.033 A 
ATOM     21  C   UNL A   1      34.008  25.013  24.290  1.00  0.00     0.185 A 
ATOM     22  C   UNL A   1      33.229  22.874  22.708  1.00  0.00     0.045 A 
ATOM     23  C   UNL A   1      34.360  23.725  24.663  1.00  0.00     0.196 A 
ATOM     24  F   UNL A   1      34.424  26.054  25.030  1.00  0.00    -0.201 F 
ATOM     25  C   UNL A   1      33.990  22.661  23.858  1.00  0.00     0.162 A 
ATOM     26  F   UNL A   1      35.143  23.530  25.733  1.00  0.00    -0.200 F 
ATOM     27  F   UNL A   1      34.396  21.420  24.157  1.00  0.00    -0.204 F 
ENDBRANCH  17  19
ENDBRANCH  14  17
ENDBRANCH   9  14
ENDBRANCH   4   6
ENDBRANCH   3   4
ENDBRANCH   2   3
ENDBRANCH   1   2
BRANCH   1  28
ATOM     28  O   UNL A   1      34.835  33.863  29.380  1.00  0.00    -0.374 OA
BRANCH  28  29
ATOM     29  C   UNL A   1      33.981  34.778  28.691  1.00  0.00     0.202 C 
BRANCH  29  30
ATOM     30  C   UNL A   1      33.060  35.668  29.537  1.00  0.00     0.261 C 
BRANCH  30  31
ATOM     31  O   UNL A   1      32.555  34.985  30.697  1.00  0.00    -0.460 OA
BRANCH  31  32
ATOM     32  C   UNL A   1      32.826  35.600  31.875  1.00  0.00     0.338 C 
ATOM     33  O   UNL A   1      32.168  36.461  32.428  1.00  0.00    -0.246 OA
BRANCH  32  34
ATOM     34  C   UNL A   1      33.971  34.947  32.534  1.00  0.00     0.060 A 
ATOM     35  C   UNL A   1      35.198  35.621  32.504  1.00  0.00     0.016 A 
ATOM     36  C   UNL A   1      33.877  33.661  33.068  1.00  0.00     0.016 A 
ATOM     37  C   UNL A   1      36.353  34.983  32.943  1.00  0.00     0.010 A 
ATOM     38  C   UNL A   1      35.040  33.018  33.505  1.00  0.00     0.010 A 
ATOM     39  C   UNL A   1      36.289  33.658  33.396  1.00  0.00    -0.014 A 
BRANCH  39  40
ATOM     40  C   UNL A   1      37.555  32.906  33.580  1.00  0.00     0.031 A 
ATOM     41  C   UNL A   1      38.349  33.116  34.842  1.00  0.00     0.074 A 
ATOM     42  C   UNL A   1      37.951  31.995  32.675  1.00  0.00     0.049 A 
ATOM     43  N   UNL A   1      39.452  32.529  35.236  1.00  0.00    -0.248 NA
ATOM     44  C   UNL A   1      37.831  34.117  35.789  1.00  0.00     0.031 C 
ATOM     45  C   UNL A   1      37.246  31.670  31.437  1.00  0.00     0.029 A 
ATOM     46  N   UNL A   1      39.043  31.165  32.671  1.00  0.00    -0.354 N 
ATOM     47  C   UNL A   1      39.760  33.094  36.467  1.00  0.00     0.074 A 
ATOM     48  C   UNL A   1      38.753  34.095  36.739  1.00  0.00     0.031 C 
ATOM     49  C   UNL A   1      37.920  30.701  30.794  1.00  0.00     0.029 A 
ATOM     50  C   UNL A   1      39.117  30.360  31.562  1.00  0.00     0.049 A 
ATOM     51  H   UNL A   1      39.711  31.148  33.395  1.00  0.00     0.167 HD
ATOM     52  C   UNL A   1      40.785  32.799  37.304  1.00  0.00     0.031 A 
ATOM     53  C   UNL A   1      40.049  29.457  31.202  1.00  0.00     0.031 A 
ATOM     54  C   UNL A   1      41.795  31.813  37.029  1.00  0.00     0.049 A 
ATOM     55  C   UNL A   1      41.215  29.197  32.118  1.00  0.00     0.074 A 
ATOM     56  C   UNL A   1      42.867  31.431  37.818  1.00  0.00     0.029 A 
ATOM     57  N   UNL A   1      41.861  31.054  35.871  1.00  0.00    -0.354 N 
ATOM     58  N   UNL A   1      41.479  29.718  33.292  1.00  0.00    -0.248 NA
ATOM     59  C   UNL A   1      42.202  28.209  31.662  1.00  0.00     0.031 C 
ATOM     60  C   UNL A   1      43.616  30.486  37.109  1.00  0.00     0.029 A 
ATOM     61  C   UNL A   1      42.971  30.226  35.911  1.00  0.00     0.049 A 
ATOM     62  H   UNL A   1      41.215  31.097  35.130  1.00  0.00     0.167 HD
ATOM     63  C   UNL A   1      42.644  29.097  33.728  1.00  0.00     0.074 A 
ATOM     64  C   UNL A   1      43.022  28.148  32.701  1.00  0.00     0.031 C 
ATOM     65  C   UNL A   1      43.338  29.292  34.878  1.00  0.00     0.031 A 
BRANCH  52  66
ATOM     66  C   UNL A   1      40.881  33.587  38.583  1.00  0.00    -0.014 A 
ATOM     67  C   UNL A   1      40.229  33.168  39.754  1.00  0.00     0.009 A 
ATOM     68  C   UNL A   1      41.659  34.755  38.622  1.00  0.00     0.009 A 
ATOM     69  C   UNL A   1      40.325  33.922  40.926  1.00  0.00     0.001 A 
ATOM     70  C   UNL A   1      41.778  35.490  39.804  1.00  0.00     0.001 A 
ATOM     71  C   UNL A   1      41.104  35.079  40.951  1.00  0.00     0.000 A 
ENDBRANCH  52  66
BRANCH  53  72
ATOM     72  C   UNL A   1      39.926  28.734  29.909  1.00  0.00    -0.014 A 
ATOM     73  C   UNL A   1      39.503  27.396  29.871  1.00  0.00     0.009 A 
ATOM     74  C   UNL A   1      40.257  29.374  28.704  1.00  0.00     0.009 A 
ATOM     75  C   UNL A   1      39.443  26.707  28.656  1.00  0.00     0.001 A 
ATOM     76  C   UNL A   1      40.164  28.693  27.489  1.00  0.00     0.001 A 
ATOM     77  C   UNL A   1      39.769  27.357  27.467  1.00  0.00     0.000 A 
ENDBRANCH  53  72
BRANCH  65  78
ATOM     78  C   UNL A   1      44.551  28.429  35.101  1.00  0.00    -0.014 A 
ATOM     79  C   UNL A   1      44.458  27.177  35.730  1.00  0.00     0.009 A 
ATOM     80  C   UNL A   1      45.807  28.872  34.658  1.00  0.00     0.009 A 
ATOM     81  C   UNL A   1      45.604  26.412  35.956  1.00  0.00     0.001 A 
ATOM     82  C   UNL A   1      46.946  28.089  34.853  1.00  0.00     0.001 A 
ATOM     83  C   UNL A   1      46.846  26.867  35.515  1.00  0.00     0.000 A 
ENDBRANCH  65  78
ENDBRANCH  39  40
ENDBRANCH  32  34
ENDBRANCH  31  32
ENDBRANCH  30  31
ENDBRANCH  29  30
ENDBRANCH  28  29
ENDBRANCH   1  28
TORSDOF 18
ENDMDL
MODEL 2
REMARK VINA RESULT:     -10.7      4.066      9.493
REMARK SMILES CCc1ccc(C(=O)OCCOCCOC(=O)c2ccc(-c3c4nc(c(-c5ccccc5)c5ccc([nH]5)c(-c5ccccc5)c5nc(c(-c6ccccc6)c6ccc3[nH]6)C=C5)C=C4)cc2)cc1S(=O)(=O)Nc1ccc(F)c(F)c1F
REMARK SMILES IDX 11 1 10 2 9 3 7 4 8 5 6 6 3 7 4 8 67 9 5 10 66 11 2 12 1 13
REMARK SMILES IDX 68 14 69 15 70 16 71 17 72 19 73 20 79 21 74 22 77 23 80 24
REMARK SMILES IDX 75 25 78 26 76 27 12 28 13 29 14 30 15 31 16 32 17 33 18 34
REMARK SMILES IDX 19 35 65 36 20 37 64 38 21 39 22 40 23 41 58 42 24 43 63 44
REMARK SMILES IDX 57 45 59 46 25 47 62 48 56 49 55 50 26 52 48 53 33 54 47 55
REMARK SMILES IDX 34 56 37 57 46 58 60 59 35 60 36 61 45 63 61 64 38 65 27 66
REMARK SMILES IDX 28 67 32 68 29 69 31 70 30 71 49 72 50 73 54 74 51 75 53 76
REMARK SMILES IDX 52 77 39 78 40 79 44 80 41 81 43 82 42 83
REMARK H PARENT 71 18 59 51 37 62
REMARK Flexibility Score: inf
ROOT
ATOM      1  C   UNL A   1      40.535  20.703  26.951  1.00  0.00     0.202 C 
ENDROOT
BRANCH   1   2
ATOM      2  C   UNL A   1      39.908  21.648  25.916  1.00  0.00     0.261 C 
BRANCH   2   3
ATOM      3  O   UNL A   1      38.474  21.698  26.001  1.00  0.00    -0.460 OA
BRANCH   3   4
ATOM      4  C   UNL A   1      37.819  21.001  25.036  1.00  0.00     0.338 C 
ATOM      5  O   UNL A   1      38.054  19.875  24.639  1.00  0.00    -0.246 OA
BRANCH   4   6
ATOM      6  C   UNL A   1      36.574  21.718  24.712  1.00  0.00     0.061 A 
ATOM      7  C   UNL A   1      34.199  22.858  23.755  1.00  0.00    -0.028 A 
ATOM      8  C   UNL A   1      35.443  23.116  23.136  1.00  0.00     0.006 A 
ATOM      9  C   UNL A   1      34.198  22.216  25.008  1.00  0.00     0.091 A 
ATOM     10  C   UNL A   1      36.623  22.570  23.617  1.00  0.00     0.016 A 
ATOM     11  C   UNL A   1      35.389  21.572  25.437  1.00  0.00     0.038 A 
BRANCH   7  12
ATOM     12  C   UNL A   1      33.015  23.215  22.901  1.00  0.00     0.033 C 
ATOM     13  C   UNL A   1      33.125  24.582  22.245  1.00  0.00     0.009 C 
ENDBRANCH   7  12
BRANCH   9  14
ATOM     14  S   UNL A   1      32.892  22.165  26.250  1.00  0.00     0.262 S 
ATOM     15  O   UNL A   1      31.726  21.668  25.547  1.00  0.00    -0.201 OA
ATOM     16  O   UNL A   1      33.445  21.428  27.367  1.00  0.00    -0.201 OA
BRANCH  14  17
ATOM     17  N   UNL A   1      32.418  23.656  26.819  1.00  0.00    -0.277 N 
ATOM     18  H   UNL A   1      32.430  23.768  27.797  1.00  0.00     0.180 HD
BRANCH  17  19
ATOM     19  C   UNL A   1      31.998  24.787  26.068  1.00  0.00     0.088 A 
ATOM     20  C   UNL A   1      30.670  25.087  25.772  1.00  0.00     0.033 A 
ATOM     21  C   UNL A   1      33.007  25.698  25.704  1.00  0.00     0.185 A 
ATOM     22  C   UNL A   1      30.350  26.354  25.262  1.00  0.00     0.045 A 
ATOM     23  C   UNL A   1      32.685  26.968  25.251  1.00  0.00     0.196 A 
ATOM     24  F   UNL A   1      34.290  25.393  25.962  1.00  0.00    -0.201 F 
ATOM     25  C   UNL A   1      31.355  27.300  25.054  1.00  0.00     0.162 A 
ATOM     26  F   UNL A   1      33.646  27.892  25.114  1.00  0.00    -0.200 F 
ATOM     27  F   UNL A   1      31.021  28.549  24.702  1.00  0.00    -0.204 F 
ENDBRANCH  17  19
ENDBRANCH  14  17
ENDBRANCH   9  14
ENDBRANCH   4   6
ENDBRANCH   3   4
ENDBRANCH   2   3
ENDBRANCH   1   2
BRANCH   1  28
ATOM     28  O   UNL A   1      41.955  20.695  27.063  1.00  0.00    -0.374 OA
BRANCH  28  29
ATOM     29  C   UNL A   1      42.710  20.502  25.865  1.00  0.00     0.202 C 
BRANCH  29  30
ATOM     30  C   UNL A   1      43.759  21.563  25.506  1.00  0.00     0.261 C 
BRANCH  30  31
ATOM     31  O   UNL A   1      43.720  22.694  26.394  1.00  0.00    -0.460 OA
BRANCH  31  32
ATOM     32  C   UNL A   1      43.667  23.897  25.772  1.00  0.00     0.338 C 
ATOM     33  O   UNL A   1      44.012  24.159  24.635  1.00  0.00    -0.246 OA
BRANCH  32  34
ATOM     34  C   UNL A   1      42.937  24.866  26.609  1.00  0.00     0.060 A 
ATOM     35  C   UNL A   1      43.411  26.184  26.627  1.00  0.00     0.016 A 
ATOM     36  C   UNL A   1      41.888  24.475  27.443  1.00  0.00     0.016 A 
ATOM     37  C   UNL A   1      42.885  27.100  27.530  1.00  0.00     0.010 A 
ATOM     38  C   UNL A   1      41.363  25.397  28.355  1.00  0.00     0.010 A 
ATOM     39  C   UNL A   1      41.896  26.697  28.437  1.00  0.00    -0.014 A 
BRANCH  39  40
ATOM     40  C   UNL A   1      41.561  27.593  29.571  1.00  0.00     0.031 A 
ATOM     41  C   UNL A   1      40.365  28.499  29.455  1.00  0.00     0.074 A 
ATOM     42  C   UNL A   1      42.264  27.544  30.716  1.00  0.00     0.049 A 
ATOM     43  N   UNL A   1      39.859  29.323  30.339  1.00  0.00    -0.248 NA
ATOM     44  C   UNL A   1      39.639  28.473  28.175  1.00  0.00     0.031 C 
ATOM     45  C   UNL A   1      43.414  26.677  30.967  1.00  0.00     0.029 A 
ATOM     46  N   UNL A   1      42.099  28.236  31.890  1.00  0.00    -0.354 N 
ATOM     47  C   UNL A   1      38.764  29.915  29.719  1.00  0.00     0.074 A 
ATOM     48  C   UNL A   1      38.701  29.386  28.375  1.00  0.00     0.031 C 
ATOM     49  C   UNL A   1      43.847  26.883  32.223  1.00  0.00     0.029 A 
ATOM     50  C   UNL A   1      43.024  27.915  32.851  1.00  0.00     0.049 A 
ATOM     51  H   UNL A   1      41.385  28.899  32.029  1.00  0.00     0.167 HD
ATOM     52  C   UNL A   1      37.883  30.810  30.226  1.00  0.00     0.031 A 
ATOM     53  C   UNL A   1      43.193  28.404  34.094  1.00  0.00     0.031 A 
ATOM     54  C   UNL A   1      37.951  31.347  31.559  1.00  0.00     0.049 A 
ATOM     55  C   UNL A   1      42.240  29.449  34.610  1.00  0.00     0.074 A 
ATOM     56  C   UNL A   1      37.100  32.249  32.172  1.00  0.00     0.029 A 
ATOM     57  N   UNL A   1      38.934  31.032  32.486  1.00  0.00    -0.354 N 
ATOM     58  N   UNL A   1      41.193  29.979  34.024  1.00  0.00    -0.248 NA
ATOM     59  C   UNL A   1      42.486  29.950  35.969  1.00  0.00     0.031 C 
ATOM     60  C   UNL A   1      37.603  32.528  33.447  1.00  0.00     0.029 A 
ATOM     61  C   UNL A   1      38.726  31.744  33.655  1.00  0.00     0.049 A 
ATOM     62  H   UNL A   1      39.671  30.397  32.334  1.00  0.00     0.167 HD
ATOM     63  C   UNL A   1      40.639  30.850  34.954  1.00  0.00     0.074 A 
ATOM     64  C   UNL A   1      41.454  30.761  36.148  1.00  0.00     0.031 C 
ATOM     65  C   UNL A   1      39.550  31.651  34.833  1.00  0.00     0.031 A 
BRANCH  52  66
ATOM     66  C   UNL A   1      36.788  31.295  29.314  1.00  0.00    -0.014 A 
ATOM     67  C   UNL A   1      35.716  30.463  28.948  1.00  0.00     0.009 A 
ATOM     68  C   UNL A   1      36.817  32.613  28.834  1.00  0.00     0.009 A 
ATOM     69  C   UNL A   1      34.717  30.932  28.092  1.00  0.00     0.001 A 
ATOM     70  C   UNL A   1      35.800  33.089  28.003  1.00  0.00     0.001 A 
ATOM     71  C   UNL A   1      34.758  32.246  27.624  1.00  0.00     0.000 A 
ENDBRANCH  52  66
BRANCH  53  72
ATOM     72  C   UNL A   1      44.315  27.918  34.940  1.00  0.00    -0.014 A 
ATOM     73  C   UNL A   1      44.143  26.826  35.804  1.00  0.00     0.009 A 
ATOM     74  C   UNL A   1      45.561  28.565  34.905  1.00  0.00     0.009 A 
ATOM     75  C   UNL A   1      45.187  26.411  36.637  1.00  0.00     0.001 A 
ATOM     76  C   UNL A   1      46.611  28.128  35.713  1.00  0.00     0.001 A 
ATOM     77  C   UNL A   1      46.420  27.059  36.587  1.00  0.00     0.000 A 
ENDBRANCH  53  72
BRANCH  65  78
ATOM     78  C   UNL A   1      39.155  32.458  36.040  1.00  0.00    -0.014 A 
ATOM     79  C   UNL A   1      38.259  31.958  36.999  1.00  0.00     0.009 A 
ATOM     80  C   UNL A   1      39.704  33.736  36.228  1.00  0.00     0.009 A 
ATOM     81  C   UNL A   1      37.882  32.742  38.091  1.00  0.00     0.001 A 
ATOM     82  C   UNL A   1      39.354  34.504  37.340  1.00  0.00     0.001 A 
ATOM     83  C   UNL A   1      38.432  34.013  38.263  1.00  0.00     0.000 A 
ENDBRANCH  65  78
ENDBRANCH  39  40
ENDBRANCH  32  34
ENDBRANCH  31  32
ENDBRANCH  30  31
ENDBRANCH  29  30
ENDBRANCH  28  29
ENDBRANCH   1  28
TORSDOF 18
ENDMDL
MODEL 3
REMARK VINA RESULT:     -10.4      4.809      8.460
REMARK SMILES CCc1ccc(C(=O)OCCOCCOC(=O)c2ccc(-c3c4nc(c(-c5ccccc5)c5ccc([nH]5)c(-c5ccccc5)c5nc(c(-c6ccccc6)c6ccc3[nH]6)C=C5)C=C4)cc2)cc1S(=O)(=O)Nc1ccc(F)c(F)c1F
REMARK SMILES IDX 11 1 10 2 9 3 7 4 8 5 6 6 3 7 4 8 67 9 5 10 66 11 2 12 1 13
REMARK SMILES IDX 68 14 69 15 70 16 71 17 72 19 73 20 79 21 74 22 77 23 80 24
REMARK SMILES IDX 75 25 78 26 76 27 12 28 13 29 14 30 15 31 16 32 17 33 18 34
REMARK SMILES IDX 19 35 65 36 20 37 64 38 21 39 22 40 23 41 58 42 24 43 63 44
REMARK SMILES IDX 57 45 59 46 25 47 62 48 56 49 55 50 26 52 48 53 33 54 47 55
REMARK SMILES IDX 34 56 37 57 46 58 60 59 35 60 36 61 45 63 61 64 38 65 27 66
REMARK SMILES IDX 28 67 32 68 29 69 31 70 30 71 49 72 50 73 54 74 51 75 53 76
REMARK SMILES IDX 52 77 39 78 40 79 44 80 41 81 43 82 42 83
REMARK H PARENT 71 18 59 51 37 62
REMARK Flexibility Score: inf
ROOT
ATOM      1  C   UNL A   1      33.601  30.773  27.236  1.00  0.00     0.202 C 
ENDROOT
BRANCH   1   2
ATOM      2  C   UNL A   1      34.071  29.759  26.183  1.00  0.00     0.261 C 
BRANCH   2   3
ATOM      3  O   UNL A   1      33.766  28.400  26.540  1.00  0.00    -0.460 OA
BRANCH   3   4
ATOM      4  C   UNL A   1      32.738  27.843  25.847  1.00  0.00     0.338 C 
ATOM      5  O   UNL A   1      31.761  28.401  25.383  1.00  0.00    -0.246 OA
BRANCH   4   6
ATOM      6  C   UNL A   1      33.117  26.465  25.488  1.00  0.00     0.061 A 
ATOM      7  C   UNL A   1      34.222  23.964  24.875  1.00  0.00    -0.028 A 
ATOM      8  C   UNL A   1      34.405  25.080  24.026  1.00  0.00     0.006 A 
ATOM      9  C   UNL A   1      33.273  24.061  25.910  1.00  0.00     0.091 A 
ATOM     10  C   UNL A   1      33.845  26.314  24.316  1.00  0.00     0.016 A 
ATOM     11  C   UNL A   1      32.789  25.349  26.261  1.00  0.00     0.038 A 
BRANCH   7  12
ATOM     12  C   UNL A   1      35.185  22.841  24.610  1.00  0.00     0.033 C 
ATOM     13  C   UNL A   1      36.603  23.309  24.317  1.00  0.00     0.009 C 
ENDBRANCH   7  12
BRANCH   9  14
ATOM     14  S   UNL A   1      32.469  22.738  26.833  1.00  0.00     0.262 S 
ATOM     15  O   UNL A   1      33.556  21.943  27.370  1.00  0.00    -0.201 OA
ATOM     16  O   UNL A   1      31.532  23.395  27.720  1.00  0.00    -0.201 OA
BRANCH  14  17
ATOM     17  N   UNL A   1      31.605  21.666  25.898  1.00  0.00    -0.277 N 
ATOM     18  H   UNL A   1      30.633  21.645  26.052  1.00  0.00     0.180 HD
BRANCH  17  19
ATOM     19  C   UNL A   1      32.097  20.777  24.905  1.00  0.00     0.088 A 
ATOM     20  C   UNL A   1      32.540  19.480  25.158  1.00  0.00     0.033 A 
ATOM     21  C   UNL A   1      32.019  21.230  23.574  1.00  0.00     0.185 A 
ATOM     22  C   UNL A   1      32.750  18.604  24.082  1.00  0.00     0.045 A 
ATOM     23  C   UNL A   1      32.174  20.348  22.516  1.00  0.00     0.196 A 
ATOM     24  F   UNL A   1      31.621  22.490  23.333  1.00  0.00    -0.201 F 
ATOM     25  C   UNL A   1      32.515  19.032  22.774  1.00  0.00     0.162 A 
ATOM     26  F   UNL A   1      31.887  20.745  21.268  1.00  0.00    -0.200 F 
ATOM     27  F   UNL A   1      32.582  18.146  21.771  1.00  0.00    -0.204 F 
ENDBRANCH  17  19
ENDBRANCH  14  17
ENDBRANCH   9  14
ENDBRANCH   4   6
ENDBRANCH   3   4
ENDBRANCH   2   3
ENDBRANCH   1   2
BRANCH   1  28
ATOM     28  O   UNL A   1      34.514  31.799  27.617  1.00  0.00    -0.374 OA
BRANCH  28  29
ATOM     29  C   UNL A   1      33.985  32.924  28.321  1.00  0.00     0.202 C 
BRANCH  29  30
ATOM     30  C   UNL A   1      34.404  33.111  29.785  1.00  0.00     0.261 C 
BRANCH  30  31
ATOM     31  O   UNL A   1      35.791  32.797  30.001  1.00  0.00    -0.460 OA
BRANCH  31  32
ATOM     32  C   UNL A   1      36.012  31.814  30.908  1.00  0.00     0.338 C 
ATOM     33  O   UNL A   1      35.345  31.550  31.891  1.00  0.00    -0.246 OA
BRANCH  32  34
ATOM     34  C   UNL A   1      37.104  30.937  30.446  1.00  0.00     0.060 A 
ATOM     35  C   UNL A   1      37.841  30.261  31.427  1.00  0.00     0.016 A 
ATOM     36  C   UNL A   1      37.471  30.865  29.102  1.00  0.00     0.016 A 
ATOM     37  C   UNL A   1      38.993  29.566  31.075  1.00  0.00     0.010 A 
ATOM     38  C   UNL A   1      38.633  30.170  28.750  1.00  0.00     0.010 A 
ATOM     39  C   UNL A   1      39.425  29.563  29.742  1.00  0.00    -0.014 A 
BRANCH  39  40
ATOM     40  C   UNL A   1      40.792  29.072  29.438  1.00  0.00     0.031 A 
ATOM     41  C   UNL A   1      40.969  27.656  28.958  1.00  0.00     0.074 A 
ATOM     42  C   UNL A   1      41.851  29.898  29.513  1.00  0.00     0.049 A 
ATOM     43  N   UNL A   1      42.060  27.036  28.586  1.00  0.00    -0.248 NA
ATOM     44  C   UNL A   1      39.753  26.829  28.885  1.00  0.00     0.031 C 
ATOM     45  C   UNL A   1      41.803  31.301  29.920  1.00  0.00     0.029 A 
ATOM     46  N   UNL A   1      43.175  29.671  29.233  1.00  0.00    -0.354 N 
ATOM     47  C   UNL A   1      41.664  25.749  28.243  1.00  0.00     0.074 A 
ATOM     48  C   UNL A   1      40.241  25.664  28.486  1.00  0.00     0.031 C 
ATOM     49  C   UNL A   1      43.044  31.814  29.855  1.00  0.00     0.029 A 
ATOM     50  C   UNL A   1      43.973  30.769  29.431  1.00  0.00     0.049 A 
ATOM     51  H   UNL A   1      43.519  28.803  28.920  1.00  0.00     0.167 HD
ATOM     52  C   UNL A   1      42.414  24.730  27.758  1.00  0.00     0.031 A 
ATOM     53  C   UNL A   1      45.305  30.913  29.294  1.00  0.00     0.031 A 
ATOM     54  C   UNL A   1      43.832  24.808  27.527  1.00  0.00     0.049 A 
ATOM     55  C   UNL A   1      46.127  29.745  28.818  1.00  0.00     0.074 A 
ATOM     56  C   UNL A   1      44.680  23.836  27.026  1.00  0.00     0.029 A 
ATOM     57  N   UNL A   1      44.612  25.925  27.787  1.00  0.00    -0.354 N 
ATOM     58  N   UNL A   1      45.735  28.542  28.470  1.00  0.00    -0.248 NA
ATOM     59  C   UNL A   1      47.575  29.963  28.700  1.00  0.00     0.031 C 
ATOM     60  C   UNL A   1      45.984  24.344  27.042  1.00  0.00     0.029 A 
ATOM     61  C   UNL A   1      45.937  25.656  27.484  1.00  0.00     0.049 A 
ATOM     62  H   UNL A   1      44.274  26.781  28.136  1.00  0.00     0.167 HD
ATOM     63  C   UNL A   1      46.884  27.873  28.063  1.00  0.00     0.074 A 
ATOM     64  C   UNL A   1      47.981  28.811  28.188  1.00  0.00     0.031 C 
ATOM     65  C   UNL A   1      47.019  26.597  27.621  1.00  0.00     0.031 A 
BRANCH  52  66
ATOM     66  C   UNL A   1      41.714  23.426  27.481  1.00  0.00    -0.014 A 
ATOM     67  C   UNL A   1      42.079  22.242  28.143  1.00  0.00     0.009 A 
ATOM     68  C   UNL A   1      40.654  23.389  26.562  1.00  0.00     0.009 A 
ATOM     69  C   UNL A   1      41.422  21.042  27.862  1.00  0.00     0.001 A 
ATOM     70  C   UNL A   1      39.977  22.194  26.307  1.00  0.00     0.001 A 
ATOM     71  C   UNL A   1      40.369  21.021  26.948  1.00  0.00     0.000 A 
ENDBRANCH  52  66
BRANCH  53  72
ATOM     72  C   UNL A   1      45.952  32.212  29.617  1.00  0.00    -0.014 A 
ATOM     73  C   UNL A   1      46.154  33.182  28.623  1.00  0.00     0.009 A 
ATOM     74  C   UNL A   1      46.396  32.477  30.922  1.00  0.00     0.009 A 
ATOM     75  C   UNL A   1      46.813  34.378  28.924  1.00  0.00     0.001 A 
ATOM     76  C   UNL A   1      47.024  33.686  31.228  1.00  0.00     0.001 A 
ATOM     77  C   UNL A   1      47.243  34.630  30.226  1.00  0.00     0.000 A 
ENDBRANCH  53  72
BRANCH  65  78
ATOM     78  C   UNL A   1      48.396  26.160  27.199  1.00  0.00    -0.014 A 
ATOM     79  C   UNL A   1      49.265  25.507  28.087  1.00  0.00     0.009 A 
ATOM     80  C   UNL A   1      48.823  26.393  25.882  1.00  0.00     0.009 A 
ATOM     81  C   UNL A   1      50.551  25.144  27.680  1.00  0.00     0.001 A 
ATOM     82  C   UNL A   1      50.095  25.996  25.467  1.00  0.00     0.001 A 
ATOM     83  C   UNL A   1      50.963  25.386  26.370  1.00  0.00     0.000 A 
ENDBRANCH  65  78
ENDBRANCH  39  40
ENDBRANCH  32  34
ENDBRANCH  31  32
ENDBRANCH  30  31
ENDBRANCH  29  30
ENDBRANCH  28  29
ENDBRANCH   1  28
TORSDOF 18
ENDMDL
