MODEL 1
REMARK VINA RESULT:      -9.2      0.000      0.000
REMARK SMILES CC(C)(C)OC(=O)[C@H]1CC[C@]1([NH3+])C(=O)OCCOCCOC(=O)c1ccc(-c2c3nc(c(-c4ccccc4)c4ccc([nH]4)c(-c4ccccc4)c4nc(c(-c5ccccc5)c5ccc2[nH]5)C=C4)C=C3)cc1
REMARK SMILES IDX 17 1 16 2 15 3 13 4 14 5 11 6 8 7 9 8 10 9 6 10 7 11 5 12
REMARK SMILES IDX 2 13 1 14 3 15 4 16 12 17 18 21 19 22 20 23 21 24 22 25
REMARK SMILES IDX 23 26 24 27 25 28 71 29 26 30 70 31 27 32 28 33 29 34 64 35
REMARK SMILES IDX 30 36 69 37 63 38 65 39 31 40 68 41 62 42 61 43 32 45 54 46
REMARK SMILES IDX 39 47 53 48 40 49 43 50 52 51 66 52 41 53 42 54 51 56 67 57
REMARK SMILES IDX 44 58 33 59 34 60 38 61 35 62 37 63 36 64 55 65 56 66 60 67
REMARK SMILES IDX 57 68 59 69 58 70 45 71 46 72 50 73 47 74 49 75 48 76
REMARK H PARENT 12 18 12 19 12 20 65 44 43 55
REMARK Flexibility Score: inf
ROOT
ATOM      1  C   UNL A   1      45.919  19.583  24.752  1.00  0.00     0.202 C 
ENDROOT
BRANCH   1   2
ATOM      2  C   UNL A   1      44.613  18.798  24.602  1.00  0.00     0.261 C 
BRANCH   2   3
ATOM      3  O   UNL A   1      43.479  19.645  24.872  1.00  0.00    -0.459 OA
BRANCH   3   4
ATOM      4  C   UNL A   1      42.613  19.207  25.837  1.00  0.00     0.368 C 
ATOM      5  O   UNL A   1      42.428  18.014  26.082  1.00  0.00    -0.245 OA
BRANCH   4   6
ATOM      6  C   UNL A   1      41.880  20.390  26.596  1.00  0.00     0.206 C 
ATOM      7  C   UNL A   1      41.033  21.444  25.803  1.00  0.00     0.172 C 
ATOM      8  C   UNL A   1      42.300  22.358  25.836  1.00  0.00     0.030 C 
ATOM      9  C   UNL A   1      42.793  21.565  27.054  1.00  0.00     0.083 C 
BRANCH   7  10
ATOM     10  C   UNL A   1      39.709  22.005  26.389  1.00  0.00     0.316 C 
ATOM     11  O   UNL A   1      38.583  21.616  26.090  1.00  0.00    -0.252 OA
BRANCH  10  12
ATOM     12  O   UNL A   1      39.937  23.020  27.276  1.00  0.00    -0.460 OA
BRANCH  12  13
ATOM     13  C   UNL A   1      39.315  24.323  27.128  1.00  0.00     0.104 C 
ATOM     14  C   UNL A   1      40.221  25.078  26.141  1.00  0.00     0.056 C 
ATOM     15  C   UNL A   1      39.320  25.068  28.466  1.00  0.00     0.056 C 
ATOM     16  C   UNL A   1      37.912  24.232  26.520  1.00  0.00     0.056 C 
ENDBRANCH  12  13
ENDBRANCH  10  12
ENDBRANCH   7  10
BRANCH   6  17
ATOM     17  N   UNL A   1      41.161  19.910  27.795  1.00  0.00    -0.343 N 
ATOM     18  H   UNL A   1      41.410  20.491  28.596  1.00  0.00     0.345 HD
ATOM     19  H   UNL A   1      41.421  18.941  27.982  1.00  0.00     0.345 HD
ATOM     20  H   UNL A   1      40.155  19.967  27.634  1.00  0.00     0.345 HD
ENDBRANCH   6  17
ENDBRANCH   4   6
ENDBRANCH   3   4
ENDBRANCH   2   3
ENDBRANCH   1   2
BRANCH   1  21
ATOM     21  O   UNL A   1      45.898  20.919  24.241  1.00  0.00    -0.374 OA
BRANCH  21  22
ATOM     22  C   UNL A   1      46.012  21.972  25.195  1.00  0.00     0.202 C 
BRANCH  22  23
ATOM     23  C   UNL A   1      46.205  23.381  24.624  1.00  0.00     0.261 C 
BRANCH  23  24
ATOM     24  O   UNL A   1      46.402  24.363  25.656  1.00  0.00    -0.460 OA
BRANCH  24  25
ATOM     25  C   UNL A   1      46.034  25.618  25.306  1.00  0.00     0.338 C 
ATOM     26  O   UNL A   1      46.423  26.258  24.338  1.00  0.00    -0.246 OA
BRANCH  25  27
ATOM     27  C   UNL A   1      44.944  26.107  26.171  1.00  0.00     0.060 A 
ATOM     28  C   UNL A   1      44.837  27.494  26.329  1.00  0.00     0.016 A 
ATOM     29  C   UNL A   1      44.105  25.247  26.885  1.00  0.00     0.016 A 
ATOM     30  C   UNL A   1      43.944  28.025  27.254  1.00  0.00     0.010 A 
ATOM     31  C   UNL A   1      43.209  25.784  27.820  1.00  0.00     0.010 A 
ATOM     32  C   UNL A   1      43.157  27.171  28.040  1.00  0.00    -0.014 A 
BRANCH  32  33
ATOM     33  C   UNL A   1      42.419  27.752  29.189  1.00  0.00     0.031 A 
ATOM     34  C   UNL A   1      43.060  27.745  30.551  1.00  0.00     0.074 A 
ATOM     35  C   UNL A   1      41.239  28.371  29.004  1.00  0.00     0.049 A 
ATOM     36  N   UNL A   1      42.642  28.289  31.667  1.00  0.00    -0.248 NA
ATOM     37  C   UNL A   1      44.348  27.042  30.671  1.00  0.00     0.031 C 
ATOM     38  C   UNL A   1      40.529  28.484  27.731  1.00  0.00     0.029 A 
ATOM     39  N   UNL A   1      40.439  29.042  29.896  1.00  0.00    -0.354 N 
ATOM     40  C   UNL A   1      43.619  28.006  32.613  1.00  0.00     0.074 A 
ATOM     41  C   UNL A   1      44.631  27.209  31.954  1.00  0.00     0.031 C 
ATOM     42  C   UNL A   1      39.404  29.194  27.921  1.00  0.00     0.029 A 
ATOM     43  C   UNL A   1      39.305  29.570  29.329  1.00  0.00     0.049 A 
ATOM     44  H   UNL A   1      40.658  29.136  30.851  1.00  0.00     0.167 HD
ATOM     45  C   UNL A   1      43.681  28.387  33.912  1.00  0.00     0.031 A 
ATOM     46  C   UNL A   1      38.303  30.279  29.884  1.00  0.00     0.031 A 
ATOM     47  C   UNL A   1      42.672  29.162  34.582  1.00  0.00     0.049 A 
ATOM     48  C   UNL A   1      38.366  30.632  31.347  1.00  0.00     0.074 A 
ATOM     49  C   UNL A   1      42.638  29.581  35.902  1.00  0.00     0.029 A 
ATOM     50  N   UNL A   1      41.517  29.636  33.982  1.00  0.00    -0.354 N 
ATOM     51  N   UNL A   1      39.306  30.374  32.222  1.00  0.00    -0.248 NA
ATOM     52  C   UNL A   1      37.230  31.392  31.890  1.00  0.00     0.031 C 
ATOM     53  C   UNL A   1      41.443  30.277  36.109  1.00  0.00     0.029 A 
ATOM     54  C   UNL A   1      40.757  30.333  34.907  1.00  0.00     0.049 A 
ATOM     55  H   UNL A   1      41.272  29.498  33.039  1.00  0.00     0.167 HD
ATOM     56  C   UNL A   1      38.891  30.965  33.409  1.00  0.00     0.074 A 
ATOM     57  C   UNL A   1      37.623  31.611  33.136  1.00  0.00     0.031 C 
ATOM     58  C   UNL A   1      39.502  30.973  34.619  1.00  0.00     0.031 A 
BRANCH  45  59
ATOM     59  C   UNL A   1      44.883  27.955  34.702  1.00  0.00    -0.014 A 
ATOM     60  C   UNL A   1      44.866  26.767  35.449  1.00  0.00     0.009 A 
ATOM     61  C   UNL A   1      46.059  28.719  34.662  1.00  0.00     0.009 A 
ATOM     62  C   UNL A   1      45.998  26.364  36.160  1.00  0.00     0.001 A 
ATOM     63  C   UNL A   1      47.197  28.301  35.356  1.00  0.00     0.001 A 
ATOM     64  C   UNL A   1      47.164  27.127  36.108  1.00  0.00     0.000 A 
ENDBRANCH  45  59
BRANCH  46  65
ATOM     65  C   UNL A   1      37.141  30.707  29.063  1.00  0.00    -0.014 A 
ATOM     66  C   UNL A   1      36.989  32.046  28.673  1.00  0.00     0.009 A 
ATOM     67  C   UNL A   1      36.146  29.782  28.712  1.00  0.00     0.009 A 
ATOM     68  C   UNL A   1      35.848  32.456  27.980  1.00  0.00     0.001 A 
ATOM     69  C   UNL A   1      35.020  30.188  27.995  1.00  0.00     0.001 A 
ATOM     70  C   UNL A   1      34.865  31.527  27.640  1.00  0.00     0.000 A 
ENDBRANCH  46  65
BRANCH  58  71
ATOM     71  C   UNL A   1      38.826  31.738  35.721  1.00  0.00    -0.014 A 
ATOM     72  C   UNL A   1      38.900  33.138  35.790  1.00  0.00     0.009 A 
ATOM     73  C   UNL A   1      38.094  31.046  36.698  1.00  0.00     0.009 A 
ATOM     74  C   UNL A   1      38.292  33.825  36.842  1.00  0.00     0.001 A 
ATOM     75  C   UNL A   1      37.462  31.739  37.733  1.00  0.00     0.001 A 
ATOM     76  C   UNL A   1      37.572  33.127  37.811  1.00  0.00     0.000 A 
ENDBRANCH  58  71
ENDBRANCH  32  33
ENDBRANCH  25  27
ENDBRANCH  24  25
ENDBRANCH  23  24
ENDBRANCH  22  23
ENDBRANCH  21  22
ENDBRANCH   1  21
TORSDOF 18
ENDMDL
MODEL 2
REMARK VINA RESULT:      -9.2      4.495      6.957
REMARK SMILES CC(C)(C)OC(=O)[C@H]1CC[C@]1([NH3+])C(=O)OCCOCCOC(=O)c1ccc(-c2c3nc(c(-c4ccccc4)c4ccc([nH]4)c(-c4ccccc4)c4nc(c(-c5ccccc5)c5ccc2[nH]5)C=C4)C=C3)cc1
REMARK SMILES IDX 17 1 16 2 15 3 13 4 14 5 11 6 8 7 9 8 10 9 6 10 7 11 5 12
REMARK SMILES IDX 2 13 1 14 3 15 4 16 12 17 18 21 19 22 20 23 21 24 22 25
REMARK SMILES IDX 23 26 24 27 25 28 71 29 26 30 70 31 27 32 28 33 29 34 64 35
REMARK SMILES IDX 30 36 69 37 63 38 65 39 31 40 68 41 62 42 61 43 32 45 54 46
REMARK SMILES IDX 39 47 53 48 40 49 43 50 52 51 66 52 41 53 42 54 51 56 67 57
REMARK SMILES IDX 44 58 33 59 34 60 38 61 35 62 37 63 36 64 55 65 56 66 60 67
REMARK SMILES IDX 57 68 59 69 58 70 45 71 46 72 50 73 47 74 49 75 48 76
REMARK H PARENT 12 18 12 19 12 20 65 44 43 55
REMARK Flexibility Score: inf
ROOT
ATOM      1  C   UNL A   1      37.008  22.128  23.877  1.00  0.00     0.202 C 
ENDROOT
BRANCH   1   2
ATOM      2  C   UNL A   1      36.230  23.407  24.198  1.00  0.00     0.261 C 
BRANCH   2   3
ATOM      3  O   UNL A   1      35.226  23.655  23.195  1.00  0.00    -0.459 OA
BRANCH   3   4
ATOM      4  C   UNL A   1      34.055  24.211  23.635  1.00  0.00     0.368 C 
ATOM      5  O   UNL A   1      33.868  25.427  23.691  1.00  0.00    -0.245 OA
BRANCH   4   6
ATOM      6  C   UNL A   1      32.977  23.130  24.062  1.00  0.00     0.206 C 
ATOM      7  C   UNL A   1      33.161  21.622  23.674  1.00  0.00     0.172 C 
ATOM      8  C   UNL A   1      32.226  21.910  22.457  1.00  0.00     0.030 C 
ATOM      9  C   UNL A   1      31.666  23.116  23.221  1.00  0.00     0.083 C 
BRANCH   7  10
ATOM     10  C   UNL A   1      32.757  20.492  24.659  1.00  0.00     0.316 C 
ATOM     11  O   UNL A   1      31.763  20.505  25.381  1.00  0.00    -0.252 OA
BRANCH  10  12
ATOM     12  O   UNL A   1      33.661  19.467  24.653  1.00  0.00    -0.460 OA
BRANCH  12  13
ATOM     13  C   UNL A   1      33.292  18.120  24.258  1.00  0.00     0.104 C 
ATOM     14  C   UNL A   1      34.631  17.402  24.025  1.00  0.00     0.056 C 
ATOM     15  C   UNL A   1      32.514  18.148  22.939  1.00  0.00     0.056 C 
ATOM     16  C   UNL A   1      32.533  17.377  25.363  1.00  0.00     0.056 C 
ENDBRANCH  12  13
ENDBRANCH  10  12
ENDBRANCH   7  10
BRANCH   6  17
ATOM     17  N   UNL A   1      32.581  23.279  25.477  1.00  0.00    -0.343 N 
ATOM     18  H   UNL A   1      32.530  24.271  25.713  1.00  0.00     0.345 HD
ATOM     19  H   UNL A   1      33.272  22.823  26.074  1.00  0.00     0.345 HD
ATOM     20  H   UNL A   1      31.668  22.848  25.623  1.00  0.00     0.345 HD
ENDBRANCH   6  17
ENDBRANCH   4   6
ENDBRANCH   3   4
ENDBRANCH   2   3
ENDBRANCH   1   2
BRANCH   1  21
ATOM     21  O   UNL A   1      37.248  21.256  24.985  1.00  0.00    -0.374 OA
BRANCH  21  22
ATOM     22  C   UNL A   1      38.574  21.234  25.508  1.00  0.00     0.202 C 
BRANCH  22  23
ATOM     23  C   UNL A   1      39.260  19.864  25.546  1.00  0.00     0.261 C 
BRANCH  23  24
ATOM     24  O   UNL A   1      40.283  19.798  26.554  1.00  0.00    -0.460 OA
BRANCH  24  25
ATOM     25  C   UNL A   1      41.542  19.946  26.078  1.00  0.00     0.338 C 
ATOM     26  O   UNL A   1      42.102  19.250  25.240  1.00  0.00    -0.246 OA
BRANCH  25  27
ATOM     27  C   UNL A   1      42.154  21.189  26.585  1.00  0.00     0.060 A 
ATOM     28  C   UNL A   1      42.172  21.363  27.974  1.00  0.00     0.016 A 
ATOM     29  C   UNL A   1      42.611  22.203  25.739  1.00  0.00     0.016 A 
ATOM     30  C   UNL A   1      42.579  22.576  28.521  1.00  0.00     0.010 A 
ATOM     31  C   UNL A   1      43.017  23.426  26.292  1.00  0.00     0.010 A 
ATOM     32  C   UNL A   1      42.959  23.632  27.681  1.00  0.00    -0.014 A 
BRANCH  32  33
ATOM     33  C   UNL A   1      43.131  24.980  28.277  1.00  0.00     0.031 A 
ATOM     34  C   UNL A   1      44.516  25.452  28.635  1.00  0.00     0.074 A 
ATOM     35  C   UNL A   1      42.083  25.814  28.402  1.00  0.00     0.049 A 
ATOM     36  N   UNL A   1      44.905  26.625  29.066  1.00  0.00    -0.248 NA
ATOM     37  C   UNL A   1      45.608  24.477  28.474  1.00  0.00     0.031 C 
ATOM     38  C   UNL A   1      40.699  25.496  28.056  1.00  0.00     0.029 A 
ATOM     39  N   UNL A   1      42.031  27.115  28.839  1.00  0.00    -0.354 N 
ATOM     40  C   UNL A   1      46.284  26.533  29.215  1.00  0.00     0.074 A 
ATOM     41  C   UNL A   1      46.660  25.180  28.867  1.00  0.00     0.031 C 
ATOM     42  C   UNL A   1      39.934  26.578  28.283  1.00  0.00     0.029 A 
ATOM     43  C   UNL A   1      40.770  27.656  28.805  1.00  0.00     0.049 A 
ATOM     44  H   UNL A   1      42.823  27.612  29.148  1.00  0.00     0.167 HD
ATOM     45  C   UNL A   1      47.165  27.491  29.591  1.00  0.00     0.031 A 
ATOM     46  C   UNL A   1      40.339  28.885  29.153  1.00  0.00     0.031 A 
ATOM     47  C   UNL A   1      46.801  28.833  29.958  1.00  0.00     0.049 A 
ATOM     48  C   UNL A   1      41.333  29.910  29.632  1.00  0.00     0.074 A 
ATOM     49  C   UNL A   1      47.622  29.869  30.371  1.00  0.00     0.029 A 
ATOM     50  N   UNL A   1      45.506  29.326  29.954  1.00  0.00    -0.354 N 
ATOM     51  N   UNL A   1      42.634  29.813  29.747  1.00  0.00    -0.248 NA
ATOM     52  C   UNL A   1      40.792  31.224  30.011  1.00  0.00     0.031 C 
ATOM     53  C   UNL A   1      46.819  30.978  30.653  1.00  0.00     0.029 A 
ATOM     54  C   UNL A   1      45.503  30.647  30.369  1.00  0.00     0.049 A 
ATOM     55  H   UNL A   1      44.707  28.813  29.695  1.00  0.00     0.167 HD
ATOM     56  C   UNL A   1      43.070  31.059  30.182  1.00  0.00     0.074 A 
ATOM     57  C   UNL A   1      41.896  31.900  30.291  1.00  0.00     0.031 C 
ATOM     58  C   UNL A   1      44.329  31.471  30.468  1.00  0.00     0.031 A 
BRANCH  45  59
ATOM     59  C   UNL A   1      48.618  27.113  29.639  1.00  0.00    -0.014 A 
ATOM     60  C   UNL A   1      49.502  27.521  28.627  1.00  0.00     0.009 A 
ATOM     61  C   UNL A   1      49.117  26.383  30.727  1.00  0.00     0.009 A 
ATOM     62  C   UNL A   1      50.855  27.185  28.695  1.00  0.00     0.001 A 
ATOM     63  C   UNL A   1      50.476  26.068  30.804  1.00  0.00     0.001 A 
ATOM     64  C   UNL A   1      51.342  26.464  29.785  1.00  0.00     0.000 A 
ENDBRANCH  45  59
BRANCH  46  65
ATOM     65  C   UNL A   1      38.896  29.227  29.071  1.00  0.00    -0.014 A 
ATOM     66  C   UNL A   1      38.051  29.052  30.178  1.00  0.00     0.009 A 
ATOM     67  C   UNL A   1      38.345  29.680  27.863  1.00  0.00     0.009 A 
ATOM     68  C   UNL A   1      36.680  29.290  30.066  1.00  0.00     0.001 A 
ATOM     69  C   UNL A   1      36.979  29.945  27.761  1.00  0.00     0.001 A 
ATOM     70  C   UNL A   1      36.144  29.737  28.859  1.00  0.00     0.000 A 
ENDBRANCH  46  65
BRANCH  58  71
ATOM     71  C   UNL A   1      44.501  32.905  30.884  1.00  0.00    -0.014 A 
ATOM     72  C   UNL A   1      44.457  33.283  32.235  1.00  0.00     0.009 A 
ATOM     73  C   UNL A   1      44.721  33.888  29.908  1.00  0.00     0.009 A 
ATOM     74  C   UNL A   1      44.586  34.625  32.596  1.00  0.00     0.001 A 
ATOM     75  C   UNL A   1      44.878  35.226  30.274  1.00  0.00     0.001 A 
ATOM     76  C   UNL A   1      44.798  35.595  31.616  1.00  0.00     0.000 A 
ENDBRANCH  58  71
ENDBRANCH  32  33
ENDBRANCH  25  27
ENDBRANCH  24  25
ENDBRANCH  23  24
ENDBRANCH  22  23
ENDBRANCH  21  22
ENDBRANCH   1  21
TORSDOF 18
ENDMDL
MODEL 3
REMARK VINA RESULT:      -8.9      5.159     10.336
REMARK SMILES CC(C)(C)OC(=O)[C@H]1CC[C@]1([NH3+])C(=O)OCCOCCOC(=O)c1ccc(-c2c3nc(c(-c4ccccc4)c4ccc([nH]4)c(-c4ccccc4)c4nc(c(-c5ccccc5)c5ccc2[nH]5)C=C4)C=C3)cc1
REMARK SMILES IDX 17 1 16 2 15 3 13 4 14 5 11 6 8 7 9 8 10 9 6 10 7 11 5 12
REMARK SMILES IDX 2 13 1 14 3 15 4 16 12 17 18 21 19 22 20 23 21 24 22 25
REMARK SMILES IDX 23 26 24 27 25 28 71 29 26 30 70 31 27 32 28 33 29 34 64 35
REMARK SMILES IDX 30 36 69 37 63 38 65 39 31 40 68 41 62 42 61 43 32 45 54 46
REMARK SMILES IDX 39 47 53 48 40 49 43 50 52 51 66 52 41 53 42 54 51 56 67 57
REMARK SMILES IDX 44 58 33 59 34 60 38 61 35 62 37 63 36 64 55 65 56 66 60 67
REMARK SMILES IDX 57 68 59 69 58 70 45 71 46 72 50 73 47 74 49 75 48 76
REMARK H PARENT 12 18 12 19 12 20 65 44 43 55
REMARK Flexibility Score: inf
ROOT
ATOM      1  C   UNL A   1      31.976  29.742  26.264  1.00  0.00     0.202 C 
ENDROOT
BRANCH   1   2
ATOM      2  C   UNL A   1      31.944  28.554  27.229  1.00  0.00     0.261 C 
BRANCH   2   3
ATOM      3  O   UNL A   1      32.591  27.407  26.643  1.00  0.00    -0.459 OA
BRANCH   3   4
ATOM      4  C   UNL A   1      31.766  26.438  26.139  1.00  0.00     0.368 C 
ATOM      5  O   UNL A   1      31.302  25.528  26.827  1.00  0.00    -0.245 OA
BRANCH   4   6
ATOM      6  C   UNL A   1      31.478  26.612  24.591  1.00  0.00     0.206 C 
ATOM      7  C   UNL A   1      30.358  27.589  24.092  1.00  0.00     0.172 C 
ATOM      8  C   UNL A   1      29.424  26.340  24.011  1.00  0.00     0.030 C 
ATOM      9  C   UNL A   1      30.676  25.457  23.920  1.00  0.00     0.083 C 
BRANCH   7  10
ATOM     10  C   UNL A   1      30.557  28.439  22.808  1.00  0.00     0.316 C 
ATOM     11  O   UNL A   1      31.618  28.950  22.455  1.00  0.00    -0.252 OA
BRANCH  10  12
ATOM     12  O   UNL A   1      29.392  28.583  22.109  1.00  0.00    -0.460 OA
BRANCH  12  13
ATOM     13  C   UNL A   1      28.418  29.607  22.444  1.00  0.00     0.104 C 
ATOM     14  C   UNL A   1      29.135  30.510  23.460  1.00  0.00     0.056 C 
ATOM     15  C   UNL A   1      27.198  28.976  23.123  1.00  0.00     0.056 C 
ATOM     16  C   UNL A   1      28.029  30.459  21.232  1.00  0.00     0.056 C 
ENDBRANCH  12  13
ENDBRANCH  10  12
ENDBRANCH   7  10
BRANCH   6  17
ATOM     17  N   UNL A   1      32.724  26.778  23.815  1.00  0.00    -0.343 N 
ATOM     18  H   UNL A   1      33.370  26.021  24.043  1.00  0.00     0.345 HD
ATOM     19  H   UNL A   1      33.154  27.673  24.051  1.00  0.00     0.345 HD
ATOM     20  H   UNL A   1      32.512  26.755  22.818  1.00  0.00     0.345 HD
ENDBRANCH   6  17
ENDBRANCH   4   6
ENDBRANCH   3   4
ENDBRANCH   2   3
ENDBRANCH   1   2
BRANCH   1  21
ATOM     21  O   UNL A   1      31.793  31.028  26.862  1.00  0.00    -0.374 OA
BRANCH  21  22
ATOM     22  C   UNL A   1      32.937  31.619  27.474  1.00  0.00     0.202 C 
BRANCH  22  23
ATOM     23  C   UNL A   1      33.087  33.135  27.301  1.00  0.00     0.261 C 
BRANCH  23  24
ATOM     24  O   UNL A   1      32.292  33.870  28.248  1.00  0.00    -0.460 OA
BRANCH  24  25
ATOM     25  C   UNL A   1      32.904  34.966  28.754  1.00  0.00     0.338 C 
ATOM     26  O   UNL A   1      32.501  36.122  28.713  1.00  0.00    -0.246 OA
BRANCH  25  27
ATOM     27  C   UNL A   1      34.098  34.590  29.534  1.00  0.00     0.060 A 
ATOM     28  C   UNL A   1      35.334  34.695  28.887  1.00  0.00     0.016 A 
ATOM     29  C   UNL A   1      34.017  34.059  30.825  1.00  0.00     0.016 A 
ATOM     30  C   UNL A   1      36.485  34.205  29.496  1.00  0.00     0.010 A 
ATOM     31  C   UNL A   1      35.178  33.562  31.435  1.00  0.00     0.010 A 
ATOM     32  C   UNL A   1      36.407  33.592  30.754  1.00  0.00    -0.014 A 
BRANCH  32  33
ATOM     33  C   UNL A   1      37.593  32.852  31.253  1.00  0.00     0.031 A 
ATOM     34  C   UNL A   1      38.160  33.201  32.603  1.00  0.00     0.074 A 
ATOM     35  C   UNL A   1      38.094  31.813  30.561  1.00  0.00     0.049 A 
ATOM     36  N   UNL A   1      39.120  32.616  33.275  1.00  0.00    -0.248 NA
ATOM     37  C   UNL A   1      37.560  34.355  33.293  1.00  0.00     0.031 C 
ATOM     38  C   UNL A   1      37.612  31.346  29.262  1.00  0.00     0.029 A 
ATOM     39  N   UNL A   1      39.114  30.948  30.872  1.00  0.00    -0.354 N 
ATOM     40  C   UNL A   1      39.228  33.320  34.468  1.00  0.00     0.074 A 
ATOM     41  C   UNL A   1      38.266  34.399  34.413  1.00  0.00     0.031 C 
ATOM     42  C   UNL A   1      38.329  30.271  28.892  1.00  0.00     0.029 A 
ATOM     43  C   UNL A   1      39.328  29.984  29.918  1.00  0.00     0.049 A 
ATOM     44  H   UNL A   1      39.641  31.013  31.701  1.00  0.00     0.167 HD
ATOM     45  C   UNL A   1      40.043  33.084  35.524  1.00  0.00     0.031 A 
ATOM     46  C   UNL A   1      40.229  28.982  29.879  1.00  0.00     0.031 A 
ATOM     47  C   UNL A   1      41.016  32.027  35.582  1.00  0.00     0.049 A 
ATOM     48  C   UNL A   1      41.168  28.784  31.040  1.00  0.00     0.074 A 
ATOM     49  C   UNL A   1      41.900  31.720  36.603  1.00  0.00     0.029 A 
ATOM     50  N   UNL A   1      41.233  31.102  34.573  1.00  0.00    -0.354 N 
ATOM     51  N   UNL A   1      41.243  29.446  32.168  1.00  0.00    -0.248 NA
ATOM     52  C   UNL A   1      42.135  27.683  30.922  1.00  0.00     0.031 C 
ATOM     53  C   UNL A   1      42.678  30.631  36.196  1.00  0.00     0.029 A 
ATOM     54  C   UNL A   1      42.245  30.231  34.942  1.00  0.00     0.049 A 
ATOM     55  H   UNL A   1      40.742  31.069  33.721  1.00  0.00     0.167 HD
ATOM     56  C   UNL A   1      42.242  28.823  32.906  1.00  0.00     0.074 A 
ATOM     57  C   UNL A   1      42.731  27.720  32.105  1.00  0.00     0.031 C 
ATOM     58  C   UNL A   1      42.716  29.137  34.137  1.00  0.00     0.031 A 
BRANCH  45  59
ATOM     59  C   UNL A   1      39.923  34.001  36.708  1.00  0.00    -0.014 A 
ATOM     60  C   UNL A   1      40.636  35.209  36.758  1.00  0.00     0.009 A 
ATOM     61  C   UNL A   1      39.055  33.677  37.761  1.00  0.00     0.009 A 
ATOM     62  C   UNL A   1      40.498  36.065  37.852  1.00  0.00     0.001 A 
ATOM     63  C   UNL A   1      38.902  34.546  38.844  1.00  0.00     0.001 A 
ATOM     64  C   UNL A   1      39.627  35.736  38.891  1.00  0.00     0.000 A 
ENDBRANCH  45  59
BRANCH  46  65
ATOM     65  C   UNL A   1      40.301  28.082  28.699  1.00  0.00    -0.014 A 
ATOM     66  C   UNL A   1      39.635  26.847  28.694  1.00  0.00     0.009 A 
ATOM     67  C   UNL A   1      41.085  28.434  27.590  1.00  0.00     0.009 A 
ATOM     68  C   UNL A   1      39.782  25.968  27.619  1.00  0.00     0.001 A 
ATOM     69  C   UNL A   1      41.208  27.566  26.505  1.00  0.00     0.001 A 
ATOM     70  C   UNL A   1      40.567  26.328  26.525  1.00  0.00     0.000 A 
ENDBRANCH  46  65
BRANCH  58  71
ATOM     71  C   UNL A   1      43.787  28.248  34.704  1.00  0.00    -0.014 A 
ATOM     72  C   UNL A   1      43.466  27.114  35.465  1.00  0.00     0.009 A 
ATOM     73  C   UNL A   1      45.136  28.546  34.461  1.00  0.00     0.009 A 
ATOM     74  C   UNL A   1      44.477  26.320  36.010  1.00  0.00     0.001 A 
ATOM     75  C   UNL A   1      46.145  27.735  34.984  1.00  0.00     0.001 A 
ATOM     76  C   UNL A   1      45.815  26.630  35.768  1.00  0.00     0.000 A 
ENDBRANCH  58  71
ENDBRANCH  32  33
ENDBRANCH  25  27
ENDBRANCH  24  25
ENDBRANCH  23  24
ENDBRANCH  22  23
ENDBRANCH  21  22
ENDBRANCH   1  21
TORSDOF 18
ENDMDL
