MODEL 1
REMARK VINA RESULT:     -11.7      0.000      0.000
REMARK SMILES O=C(OCCOCCOC(=O)[C@]1(NC(=O)C2CCN(C(=O)C3CC3)CC2)CCCc2ccccc21)c1ccc(-c2c3nc(c(-c4ccccc4)c4ccc([nH]4)c(-c4ccccc4)c4nc(c(-c5ccccc5)c5ccc2[nH]5)C=C4)C=C3)cc1
REMARK SMILES IDX 7 1 6 2 5 3 4 4 3 5 2 6 1 7 36 8 37 9 83 10 38 11 82 12
REMARK SMILES IDX 39 13 40 14 41 15 76 16 42 17 81 18 75 19 77 20 43 21 80 22
REMARK SMILES IDX 74 23 73 24 44 26 66 27 51 28 65 29 52 30 55 31 64 32 78 33
REMARK SMILES IDX 53 34 54 35 63 37 79 38 56 39 45 40 46 41 50 42 47 43 49 44
REMARK SMILES IDX 48 45 67 46 68 47 72 48 69 49 71 50 70 51 57 52 58 53 62 54
REMARK SMILES IDX 59 55 61 56 60 57 8 58 9 59 10 60 11 61 12 62 27 63 35 64
REMARK SMILES IDX 28 65 30 66 34 67 29 68 31 69 33 70 32 71 13 72 14 73 15 75
REMARK SMILES IDX 16 76 17 77 26 78 18 79 25 80 19 81 20 82 21 83 22 84 23 85
REMARK SMILES IDX 24 86
REMARK H PARENT 77 25 55 36 13 74
REMARK Flexibility Score: inf
ROOT
ATOM      1  C   UNL A   1      37.617  23.644  25.738  1.00  0.00     0.202 C 
ENDROOT
BRANCH   1   2
ATOM      2  O   UNL A   1      38.236  22.358  25.742  1.00  0.00    -0.374 OA
BRANCH   2   3
ATOM      3  C   UNL A   1      37.576  21.318  25.027  1.00  0.00     0.202 C 
BRANCH   3   4
ATOM      4  C   UNL A   1      38.347  20.001  24.876  1.00  0.00     0.261 C 
BRANCH   4   5
ATOM      5  O   UNL A   1      39.190  19.742  26.018  1.00  0.00    -0.460 OA
BRANCH   5   6
ATOM      6  C   UNL A   1      40.544  19.823  26.085  1.00  0.00     0.338 C 
ATOM      7  O   UNL A   1      41.226  18.888  25.677  1.00  0.00    -0.246 OA
BRANCH   6   8
ATOM      8  C   UNL A   1      41.242  21.021  26.630  1.00  0.00     0.060 A 
ATOM      9  C   UNL A   1      41.370  21.276  27.991  1.00  0.00     0.016 A 
ATOM     10  C   UNL A   1      41.836  21.923  25.736  1.00  0.00     0.016 A 
ATOM     11  C   UNL A   1      41.927  22.431  28.473  1.00  0.00     0.010 A 
ATOM     12  C   UNL A   1      42.444  23.092  26.210  1.00  0.00     0.010 A 
ATOM     13  C   UNL A   1      42.441  23.359  27.583  1.00  0.00    -0.014 A 
BRANCH  13  14
ATOM     14  C   UNL A   1      42.707  24.674  28.178  1.00  0.00     0.031 A 
ATOM     15  C   UNL A   1      44.139  25.108  28.251  1.00  0.00     0.074 A 
ATOM     16  C   UNL A   1      41.691  25.545  28.307  1.00  0.00     0.049 A 
ATOM     17  N   UNL A   1      44.641  26.228  28.686  1.00  0.00    -0.248 NA
ATOM     18  C   UNL A   1      45.143  24.162  27.723  1.00  0.00     0.031 C 
ATOM     19  C   UNL A   1      40.288  25.258  27.980  1.00  0.00     0.029 A 
ATOM     20  N   UNL A   1      41.690  26.869  28.639  1.00  0.00    -0.354 N 
ATOM     21  C   UNL A   1      46.015  26.095  28.548  1.00  0.00     0.074 A 
ATOM     22  C   UNL A   1      46.274  24.807  27.951  1.00  0.00     0.031 C 
ATOM     23  C   UNL A   1      39.577  26.393  28.065  1.00  0.00     0.029 A 
ATOM     24  C   UNL A   1      40.450  27.453  28.553  1.00  0.00     0.049 A 
ATOM     25  H   UNL A   1      42.499  27.357  28.914  1.00  0.00     0.167 HD
ATOM     26  C   UNL A   1      46.973  26.969  28.928  1.00  0.00     0.031 A 
ATOM     27  C   UNL A   1      40.071  28.700  28.881  1.00  0.00     0.031 A 
ATOM     28  C   UNL A   1      46.662  28.239  29.519  1.00  0.00     0.049 A 
ATOM     29  C   UNL A   1      41.133  29.608  29.436  1.00  0.00     0.074 A 
ATOM     30  C   UNL A   1      47.504  29.167  30.095  1.00  0.00     0.029 A 
ATOM     31  N   UNL A   1      45.373  28.756  29.592  1.00  0.00    -0.354 N 
ATOM     32  N   UNL A   1      42.431  29.416  29.493  1.00  0.00    -0.248 NA
ATOM     33  C   UNL A   1      40.680  30.876  30.013  1.00  0.00     0.031 C 
ATOM     34  C   UNL A   1      46.717  30.230  30.556  1.00  0.00     0.029 A 
ATOM     35  C   UNL A   1      45.391  29.984  30.220  1.00  0.00     0.049 A 
ATOM     36  H   UNL A   1      44.566  28.311  29.246  1.00  0.00     0.167 HD
ATOM     37  C   UNL A   1      42.953  30.536  30.119  1.00  0.00     0.074 A 
ATOM     38  C   UNL A   1      41.831  31.416  30.390  1.00  0.00     0.031 C 
ATOM     39  C   UNL A   1      44.237  30.813  30.458  1.00  0.00     0.031 A 
BRANCH  26  40
ATOM     40  C   UNL A   1      48.390  26.485  28.845  1.00  0.00    -0.014 A 
ATOM     41  C   UNL A   1      48.992  25.752  29.879  1.00  0.00     0.009 A 
ATOM     42  C   UNL A   1      49.170  26.872  27.744  1.00  0.00     0.009 A 
ATOM     43  C   UNL A   1      50.358  25.454  29.829  1.00  0.00     0.001 A 
ATOM     44  C   UNL A   1      50.528  26.555  27.686  1.00  0.00     0.001 A 
ATOM     45  C   UNL A   1      51.124  25.858  28.734  1.00  0.00     0.000 A 
ENDBRANCH  26  40
BRANCH  27  46
ATOM     46  C   UNL A   1      38.642  29.106  28.807  1.00  0.00    -0.014 A 
ATOM     47  C   UNL A   1      38.103  29.669  27.641  1.00  0.00     0.009 A 
ATOM     48  C   UNL A   1      37.800  28.939  29.921  1.00  0.00     0.009 A 
ATOM     49  C   UNL A   1      36.760  30.064  27.598  1.00  0.00     0.001 A 
ATOM     50  C   UNL A   1      36.453  29.303  29.866  1.00  0.00     0.001 A 
ATOM     51  C   UNL A   1      35.937  29.875  28.707  1.00  0.00     0.000 A 
ENDBRANCH  27  46
BRANCH  39  52
ATOM     52  C   UNL A   1      44.474  32.130  31.129  1.00  0.00    -0.014 A 
ATOM     53  C   UNL A   1      44.723  33.288  30.377  1.00  0.00     0.009 A 
ATOM     54  C   UNL A   1      44.405  32.213  32.527  1.00  0.00     0.009 A 
ATOM     55  C   UNL A   1      44.927  34.507  31.021  1.00  0.00     0.001 A 
ATOM     56  C   UNL A   1      44.586  33.438  33.165  1.00  0.00     0.001 A 
ATOM     57  C   UNL A   1      44.854  34.581  32.413  1.00  0.00     0.000 A 
ENDBRANCH  39  52
ENDBRANCH  13  14
ENDBRANCH   6   8
ENDBRANCH   5   6
ENDBRANCH   4   5
ENDBRANCH   3   4
ENDBRANCH   2   3
ENDBRANCH   1   2
BRANCH   1  58
ATOM     58  C   UNL A   1      36.115  23.458  25.760  1.00  0.00     0.261 C 
BRANCH  58  59
ATOM     59  O   UNL A   1      35.533  24.539  25.018  1.00  0.00    -0.461 OA
BRANCH  59  60
ATOM     60  C   UNL A   1      34.815  24.166  23.915  1.00  0.00     0.336 C 
ATOM     61  O   UNL A   1      35.310  23.728  22.881  1.00  0.00    -0.249 OA
BRANCH  60  62
ATOM     62  C   UNL A   1      33.330  24.595  24.067  1.00  0.00     0.164 C 
ATOM     63  C   UNL A   1      32.515  24.533  22.749  1.00  0.00     0.046 C 
ATOM     64  C   UNL A   1      33.373  26.059  24.563  1.00  0.00    -0.008 A 
ATOM     65  C   UNL A   1      32.967  25.535  21.692  1.00  0.00     0.008 C 
ATOM     66  C   UNL A   1      33.342  27.141  23.662  1.00  0.00    -0.042 A 
ATOM     67  C   UNL A   1      33.620  26.322  25.928  1.00  0.00     0.007 A 
ATOM     68  C   UNL A   1      33.027  26.974  22.198  1.00  0.00     0.036 C 
ATOM     69  C   UNL A   1      33.573  28.444  24.144  1.00  0.00     0.004 A 
ATOM     70  C   UNL A   1      33.840  27.618  26.390  1.00  0.00     0.000 A 
ATOM     71  C   UNL A   1      33.826  28.679  25.495  1.00  0.00     0.000 A 
BRANCH  62  72
ATOM     72  N   UNL A   1      32.620  23.759  25.085  1.00  0.00    -0.336 N 
ATOM     73  C   UNL A   1      32.296  22.432  25.115  1.00  0.00     0.224 C 
ATOM     74  H   UNL A   1      32.334  24.259  25.884  1.00  0.00     0.164 HD
ATOM     75  O   UNL A   1      31.232  22.116  25.653  1.00  0.00    -0.275 OA
BRANCH  73  76
ATOM     76  C   UNL A   1      33.278  21.361  24.641  1.00  0.00     0.082 C 
ATOM     77  C   UNL A   1      33.037  20.967  23.172  1.00  0.00     0.035 C 
ATOM     78  C   UNL A   1      33.309  20.168  25.620  1.00  0.00     0.035 C 
ATOM     79  C   UNL A   1      32.030  19.832  22.996  1.00  0.00     0.120 C 
ATOM     80  C   UNL A   1      32.265  19.119  25.287  1.00  0.00     0.120 C 
ATOM     81  N   UNL A   1      32.401  18.746  23.894  1.00  0.00    -0.342 N 
ATOM     82  C   UNL A   1      33.062  17.647  23.357  1.00  0.00     0.225 C 
ATOM     83  O   UNL A   1      33.043  17.425  22.146  1.00  0.00    -0.275 OA
BRANCH  82  84
ATOM     84  C   UNL A   1      33.937  16.740  24.157  1.00  0.00     0.079 C 
ATOM     85  C   UNL A   1      34.106  16.465  25.624  1.00  0.00     0.014 C 
ATOM     86  C   UNL A   1      33.266  15.541  24.801  1.00  0.00     0.014 C 
ENDBRANCH  82  84
ENDBRANCH  73  76
ENDBRANCH  62  72
ENDBRANCH  60  62
ENDBRANCH  59  60
ENDBRANCH  58  59
ENDBRANCH   1  58
TORSDOF 17
ENDMDL
MODEL 2
REMARK VINA RESULT:     -11.5      3.882      9.282
REMARK SMILES O=C(OCCOCCOC(=O)[C@]1(NC(=O)C2CCN(C(=O)C3CC3)CC2)CCCc2ccccc21)c1ccc(-c2c3nc(c(-c4ccccc4)c4ccc([nH]4)c(-c4ccccc4)c4nc(c(-c5ccccc5)c5ccc2[nH]5)C=C4)C=C3)cc1
REMARK SMILES IDX 7 1 6 2 5 3 4 4 3 5 2 6 1 7 36 8 37 9 83 10 38 11 82 12
REMARK SMILES IDX 39 13 40 14 41 15 76 16 42 17 81 18 75 19 77 20 43 21 80 22
REMARK SMILES IDX 74 23 73 24 44 26 66 27 51 28 65 29 52 30 55 31 64 32 78 33
REMARK SMILES IDX 53 34 54 35 63 37 79 38 56 39 45 40 46 41 50 42 47 43 49 44
REMARK SMILES IDX 48 45 67 46 68 47 72 48 69 49 71 50 70 51 57 52 58 53 62 54
REMARK SMILES IDX 59 55 61 56 60 57 8 58 9 59 10 60 11 61 12 62 27 63 35 64
REMARK SMILES IDX 28 65 30 66 34 67 29 68 31 69 33 70 32 71 13 72 14 73 15 75
REMARK SMILES IDX 16 76 17 77 26 78 18 79 25 80 19 81 20 82 21 83 22 84 23 85
REMARK SMILES IDX 24 86
REMARK H PARENT 77 25 55 36 13 74
REMARK Flexibility Score: inf
ROOT
ATOM      1  C   UNL A   1      34.020  29.179  27.251  1.00  0.00     0.202 C 
ENDROOT
BRANCH   1   2
ATOM      2  O   UNL A   1      33.523  30.488  26.974  1.00  0.00    -0.374 OA
BRANCH   2   3
ATOM      3  C   UNL A   1      32.108  30.648  26.927  1.00  0.00     0.202 C 
BRANCH   3   4
ATOM      4  C   UNL A   1      31.587  32.091  26.935  1.00  0.00     0.261 C 
BRANCH   4   5
ATOM      5  O   UNL A   1      32.666  33.048  26.970  1.00  0.00    -0.460 OA
BRANCH   5   6
ATOM      6  C   UNL A   1      33.113  33.755  28.040  1.00  0.00     0.338 C 
ATOM      7  O   UNL A   1      32.443  34.689  28.470  1.00  0.00    -0.246 OA
BRANCH   6   8
ATOM      8  C   UNL A   1      34.394  33.429  28.727  1.00  0.00     0.060 A 
ATOM      9  C   UNL A   1      35.625  33.936  28.326  1.00  0.00     0.016 A 
ATOM     10  C   UNL A   1      34.363  32.604  29.860  1.00  0.00     0.016 A 
ATOM     11  C   UNL A   1      36.803  33.548  28.907  1.00  0.00     0.010 A 
ATOM     12  C   UNL A   1      35.554  32.226  30.493  1.00  0.00     0.010 A 
ATOM     13  C   UNL A   1      36.776  32.667  29.975  1.00  0.00    -0.014 A 
BRANCH  13  14
ATOM     14  C   UNL A   1      38.080  32.079  30.299  1.00  0.00     0.031 A 
ATOM     15  C   UNL A   1      38.774  32.595  31.522  1.00  0.00     0.074 A 
ATOM     16  C   UNL A   1      38.428  30.915  29.721  1.00  0.00     0.049 A 
ATOM     17  N   UNL A   1      39.904  32.222  32.051  1.00  0.00    -0.248 NA
ATOM     18  C   UNL A   1      38.076  33.655  32.277  1.00  0.00     0.031 C 
ATOM     19  C   UNL A   1      37.638  30.211  28.703  1.00  0.00     0.029 A 
ATOM     20  N   UNL A   1      39.468  30.069  29.979  1.00  0.00    -0.354 N 
ATOM     21  C   UNL A   1      40.084  33.042  33.156  1.00  0.00     0.074 A 
ATOM     22  C   UNL A   1      38.932  33.907  33.253  1.00  0.00     0.031 C 
ATOM     23  C   UNL A   1      38.190  29.009  28.475  1.00  0.00     0.029 A 
ATOM     24  C   UNL A   1      39.422  28.908  29.245  1.00  0.00     0.049 A 
ATOM     25  H   UNL A   1      40.182  30.272  30.625  1.00  0.00     0.167 HD
ATOM     26  C   UNL A   1      41.146  33.086  33.989  1.00  0.00     0.031 A 
ATOM     27  C   UNL A   1      40.314  27.904  29.184  1.00  0.00     0.031 A 
ATOM     28  C   UNL A   1      42.268  32.203  33.848  1.00  0.00     0.049 A 
ATOM     29  C   UNL A   1      41.556  28.048  30.018  1.00  0.00     0.074 A 
ATOM     30  C   UNL A   1      43.481  32.215  34.506  1.00  0.00     0.029 A 
ATOM     31  N   UNL A   1      42.290  31.124  32.972  1.00  0.00    -0.354 N 
ATOM     32  N   UNL A   1      41.828  28.943  30.940  1.00  0.00    -0.248 NA
ATOM     33  C   UNL A   1      42.629  27.081  29.772  1.00  0.00     0.031 C 
ATOM     34  C   UNL A   1      44.254  31.166  33.994  1.00  0.00     0.029 A 
ATOM     35  C   UNL A   1      43.502  30.472  33.055  1.00  0.00     0.049 A 
ATOM     36  H   UNL A   1      41.549  30.864  32.378  1.00  0.00     0.167 HD
ATOM     37  C   UNL A   1      43.109  28.653  31.383  1.00  0.00     0.074 A 
ATOM     38  C   UNL A   1      43.541  27.477  30.649  1.00  0.00     0.031 C 
ATOM     39  C   UNL A   1      43.871  29.302  32.298  1.00  0.00     0.031 A 
BRANCH  26  40
ATOM     40  C   UNL A   1      41.170  34.209  34.983  1.00  0.00    -0.014 A 
ATOM     41  C   UNL A   1      40.657  34.069  36.282  1.00  0.00     0.009 A 
ATOM     42  C   UNL A   1      41.623  35.470  34.563  1.00  0.00     0.009 A 
ATOM     43  C   UNL A   1      40.560  35.182  37.124  1.00  0.00     0.001 A 
ATOM     44  C   UNL A   1      41.544  36.574  35.414  1.00  0.00     0.001 A 
ATOM     45  C   UNL A   1      41.000  36.432  36.688  1.00  0.00     0.000 A 
ENDBRANCH  26  40
BRANCH  27  46
ATOM     46  C   UNL A   1      40.121  26.772  28.238  1.00  0.00    -0.014 A 
ATOM     47  C   UNL A   1      39.376  25.640  28.598  1.00  0.00     0.009 A 
ATOM     48  C   UNL A   1      40.696  26.815  26.956  1.00  0.00     0.009 A 
ATOM     49  C   UNL A   1      39.224  24.575  27.702  1.00  0.00     0.001 A 
ATOM     50  C   UNL A   1      40.516  25.767  26.051  1.00  0.00     0.001 A 
ATOM     51  C   UNL A   1      39.788  24.643  26.428  1.00  0.00     0.000 A 
ENDBRANCH  27  46
BRANCH  39  52
ATOM     52  C   UNL A   1      45.227  28.724  32.559  1.00  0.00    -0.014 A 
ATOM     53  C   UNL A   1      45.440  27.842  33.628  1.00  0.00     0.009 A 
ATOM     54  C   UNL A   1      46.287  29.038  31.697  1.00  0.00     0.009 A 
ATOM     55  C   UNL A   1      46.708  27.304  33.846  1.00  0.00     0.001 A 
ATOM     56  C   UNL A   1      47.546  28.479  31.903  1.00  0.00     0.001 A 
ATOM     57  C   UNL A   1      47.757  27.620  32.981  1.00  0.00     0.000 A 
ENDBRANCH  39  52
ENDBRANCH  13  14
ENDBRANCH   6   8
ENDBRANCH   5   6
ENDBRANCH   4   5
ENDBRANCH   3   4
ENDBRANCH   2   3
ENDBRANCH   1   2
BRANCH   1  58
ATOM     58  C   UNL A   1      33.854  28.326  26.011  1.00  0.00     0.261 C 
BRANCH  58  59
ATOM     59  O   UNL A   1      33.760  26.959  26.434  1.00  0.00    -0.461 OA
BRANCH  59  60
ATOM     60  C   UNL A   1      32.507  26.414  26.365  1.00  0.00     0.336 C 
ATOM     61  O   UNL A   1      31.621  26.606  27.192  1.00  0.00    -0.249 OA
BRANCH  60  62
ATOM     62  C   UNL A   1      32.444  25.344  25.240  1.00  0.00     0.164 C 
ATOM     63  C   UNL A   1      31.148  24.493  25.247  1.00  0.00     0.046 C 
ATOM     64  C   UNL A   1      33.656  24.417  25.485  1.00  0.00    -0.008 A 
ATOM     65  C   UNL A   1      31.004  23.592  26.468  1.00  0.00     0.008 C 
ATOM     66  C   UNL A   1      33.543  23.251  26.267  1.00  0.00    -0.042 A 
ATOM     67  C   UNL A   1      34.941  24.827  25.066  1.00  0.00     0.007 A 
ATOM     68  C   UNL A   1      32.215  22.696  26.714  1.00  0.00     0.036 C 
ATOM     69  C   UNL A   1      34.708  22.542  26.619  1.00  0.00     0.004 A 
ATOM     70  C   UNL A   1      36.083  24.111  25.416  1.00  0.00     0.000 A 
ATOM     71  C   UNL A   1      35.967  22.973  26.202  1.00  0.00     0.000 A 
BRANCH  62  72
ATOM     72  N   UNL A   1      32.577  25.968  23.885  1.00  0.00    -0.336 N 
ATOM     73  C   UNL A   1      31.748  26.781  23.166  1.00  0.00     0.224 C 
ATOM     74  H   UNL A   1      33.421  25.751  23.427  1.00  0.00     0.164 HD
ATOM     75  O   UNL A   1      31.728  26.638  21.942  1.00  0.00    -0.275 OA
BRANCH  73  76
ATOM     76  C   UNL A   1      30.986  27.928  23.829  1.00  0.00     0.082 C 
ATOM     77  C   UNL A   1      29.544  27.530  24.192  1.00  0.00     0.035 C 
ATOM     78  C   UNL A   1      31.095  29.220  22.991  1.00  0.00     0.035 C 
ATOM     79  C   UNL A   1      28.536  27.778  23.071  1.00  0.00     0.120 C 
ATOM     80  C   UNL A   1      30.003  29.324  21.943  1.00  0.00     0.120 C 
ATOM     81  N   UNL A   1      28.717  29.140  22.584  1.00  0.00    -0.342 N 
ATOM     82  C   UNL A   1      27.818  30.113  23.006  1.00  0.00     0.225 C 
ATOM     83  O   UNL A   1      26.726  29.803  23.486  1.00  0.00    -0.275 OA
BRANCH  82  84
ATOM     84  C   UNL A   1      28.135  31.571  23.036  1.00  0.00     0.079 C 
ATOM     85  C   UNL A   1      29.285  32.408  22.552  1.00  0.00     0.014 C 
ATOM     86  C   UNL A   1      28.049  32.314  21.716  1.00  0.00     0.014 C 
ENDBRANCH  82  84
ENDBRANCH  73  76
ENDBRANCH  62  72
ENDBRANCH  60  62
ENDBRANCH  59  60
ENDBRANCH  58  59
ENDBRANCH   1  58
TORSDOF 17
ENDMDL
MODEL 3
REMARK VINA RESULT:     -11.2      1.679      2.183
REMARK SMILES O=C(OCCOCCOC(=O)[C@]1(NC(=O)C2CCN(C(=O)C3CC3)CC2)CCCc2ccccc21)c1ccc(-c2c3nc(c(-c4ccccc4)c4ccc([nH]4)c(-c4ccccc4)c4nc(c(-c5ccccc5)c5ccc2[nH]5)C=C4)C=C3)cc1
REMARK SMILES IDX 7 1 6 2 5 3 4 4 3 5 2 6 1 7 36 8 37 9 83 10 38 11 82 12
REMARK SMILES IDX 39 13 40 14 41 15 76 16 42 17 81 18 75 19 77 20 43 21 80 22
REMARK SMILES IDX 74 23 73 24 44 26 66 27 51 28 65 29 52 30 55 31 64 32 78 33
REMARK SMILES IDX 53 34 54 35 63 37 79 38 56 39 45 40 46 41 50 42 47 43 49 44
REMARK SMILES IDX 48 45 67 46 68 47 72 48 69 49 71 50 70 51 57 52 58 53 62 54
REMARK SMILES IDX 59 55 61 56 60 57 8 58 9 59 10 60 11 61 12 62 27 63 35 64
REMARK SMILES IDX 28 65 30 66 34 67 29 68 31 69 33 70 32 71 13 72 14 73 15 75
REMARK SMILES IDX 16 76 17 77 26 78 18 79 25 80 19 81 20 82 21 83 22 84 23 85
REMARK SMILES IDX 24 86
REMARK H PARENT 77 25 55 36 13 74
REMARK Flexibility Score: inf
ROOT
ATOM      1  C   UNL A   1      36.511  22.740  26.242  1.00  0.00     0.202 C 
ENDROOT
BRANCH   1   2
ATOM      2  O   UNL A   1      36.556  21.391  25.777  1.00  0.00    -0.374 OA
BRANCH   2   3
ATOM      3  C   UNL A   1      37.391  21.118  24.656  1.00  0.00     0.202 C 
BRANCH   3   4
ATOM      4  C   UNL A   1      38.397  19.972  24.819  1.00  0.00     0.261 C 
BRANCH   4   5
ATOM      5  O   UNL A   1      39.103  20.057  26.074  1.00  0.00    -0.460 OA
BRANCH   5   6
ATOM      6  C   UNL A   1      40.365  20.513  26.286  1.00  0.00     0.338 C 
ATOM      7  O   UNL A   1      41.322  19.821  25.950  1.00  0.00    -0.246 OA
BRANCH   6   8
ATOM      8  C   UNL A   1      40.636  21.839  26.909  1.00  0.00     0.060 A 
ATOM      9  C   UNL A   1      40.039  23.019  26.480  1.00  0.00     0.016 A 
ATOM     10  C   UNL A   1      41.504  21.905  28.007  1.00  0.00     0.016 A 
ATOM     11  C   UNL A   1      40.375  24.242  26.997  1.00  0.00     0.010 A 
ATOM     12  C   UNL A   1      41.831  23.143  28.576  1.00  0.00     0.010 A 
ATOM     13  C   UNL A   1      41.295  24.313  28.029  1.00  0.00    -0.014 A 
BRANCH  13  14
ATOM     14  C   UNL A   1      41.813  25.663  28.277  1.00  0.00     0.031 A 
ATOM     15  C   UNL A   1      43.043  26.068  27.523  1.00  0.00     0.074 A 
ATOM     16  C   UNL A   1      41.013  26.566  28.871  1.00  0.00     0.049 A 
ATOM     17  N   UNL A   1      43.676  27.206  27.524  1.00  0.00    -0.248 NA
ATOM     18  C   UNL A   1      43.617  25.059  26.609  1.00  0.00     0.031 C 
ATOM     19  C   UNL A   1      39.666  26.288  29.386  1.00  0.00     0.029 A 
ATOM     20  N   UNL A   1      41.164  27.912  29.044  1.00  0.00    -0.354 N 
ATOM     21  C   UNL A   1      44.755  27.029  26.669  1.00  0.00     0.074 A 
ATOM     22  C   UNL A   1      44.675  25.692  26.131  1.00  0.00     0.031 C 
ATOM     23  C   UNL A   1      39.091  27.444  29.755  1.00  0.00     0.029 A 
ATOM     24  C   UNL A   1      40.065  28.517  29.603  1.00  0.00     0.049 A 
ATOM     25  H   UNL A   1      41.981  28.400  28.794  1.00  0.00     0.167 HD
ATOM     26  C   UNL A   1      45.745  27.906  26.396  1.00  0.00     0.031 A 
ATOM     27  C   UNL A   1      39.899  29.795  29.986  1.00  0.00     0.031 A 
ATOM     28  C   UNL A   1      45.778  29.226  26.959  1.00  0.00     0.049 A 
ATOM     29  C   UNL A   1      41.071  30.717  29.798  1.00  0.00     0.074 A 
ATOM     30  C   UNL A   1      46.778  30.176  26.907  1.00  0.00     0.029 A 
ATOM     31  N   UNL A   1      44.727  29.778  27.682  1.00  0.00    -0.354 N 
ATOM     32  N   UNL A   1      42.194  30.499  29.152  1.00  0.00    -0.248 NA
ATOM     33  C   UNL A   1      40.978  32.037  30.428  1.00  0.00     0.031 C 
ATOM     34  C   UNL A   1      46.346  31.290  27.637  1.00  0.00     0.029 A 
ATOM     35  C   UNL A   1      45.057  31.050  28.099  1.00  0.00     0.049 A 
ATOM     36  H   UNL A   1      43.872  29.326  27.868  1.00  0.00     0.167 HD
ATOM     37  C   UNL A   1      42.948  31.652  29.302  1.00  0.00     0.074 A 
ATOM     38  C   UNL A   1      42.135  32.577  30.071  1.00  0.00     0.031 C 
ATOM     39  C   UNL A   1      44.202  31.923  28.863  1.00  0.00     0.031 A 
BRANCH  26  40
ATOM     40  C   UNL A   1      46.898  27.384  25.591  1.00  0.00    -0.014 A 
ATOM     41  C   UNL A   1      47.946  26.654  26.172  1.00  0.00     0.009 A 
ATOM     42  C   UNL A   1      46.982  27.729  24.233  1.00  0.00     0.009 A 
ATOM     43  C   UNL A   1      49.075  26.319  25.417  1.00  0.00     0.001 A 
ATOM     44  C   UNL A   1      48.100  27.375  23.476  1.00  0.00     0.001 A 
ATOM     45  C   UNL A   1      49.151  26.681  24.072  1.00  0.00     0.000 A 
ENDBRANCH  26  40
BRANCH  27  46
ATOM     46  C   UNL A   1      38.652  30.228  30.672  1.00  0.00    -0.014 A 
ATOM     47  C   UNL A   1      38.495  30.088  32.058  1.00  0.00     0.009 A 
ATOM     48  C   UNL A   1      37.594  30.784  29.931  1.00  0.00     0.009 A 
ATOM     49  C   UNL A   1      37.305  30.482  32.682  1.00  0.00     0.001 A 
ATOM     50  C   UNL A   1      36.421  31.208  30.559  1.00  0.00     0.001 A 
ATOM     51  C   UNL A   1      36.273  31.047  31.933  1.00  0.00     0.000 A 
ENDBRANCH  27  46
BRANCH  39  52
ATOM     52  C   UNL A   1      44.737  33.282  29.190  1.00  0.00    -0.014 A 
ATOM     53  C   UNL A   1      45.449  33.510  30.377  1.00  0.00     0.009 A 
ATOM     54  C   UNL A   1      44.558  34.331  28.277  1.00  0.00     0.009 A 
ATOM     55  C   UNL A   1      45.951  34.780  30.656  1.00  0.00     0.001 A 
ATOM     56  C   UNL A   1      45.082  35.593  28.548  1.00  0.00     0.001 A 
ATOM     57  C   UNL A   1      45.770  35.818  29.740  1.00  0.00     0.000 A 
ENDBRANCH  39  52
ENDBRANCH  13  14
ENDBRANCH   6   8
ENDBRANCH   5   6
ENDBRANCH   4   5
ENDBRANCH   3   4
ENDBRANCH   2   3
ENDBRANCH   1   2
BRANCH   1  58
ATOM     58  C   UNL A   1      36.709  23.665  25.060  1.00  0.00     0.261 C 
BRANCH  58  59
ATOM     59  O   UNL A   1      35.504  24.427  24.899  1.00  0.00    -0.461 OA
BRANCH  59  60
ATOM     60  C   UNL A   1      34.752  24.102  23.804  1.00  0.00     0.336 C 
ATOM     61  O   UNL A   1      35.216  23.716  22.735  1.00  0.00    -0.249 OA
BRANCH  60  62
ATOM     62  C   UNL A   1      33.271  24.513  24.023  1.00  0.00     0.164 C 
ATOM     63  C   UNL A   1      32.390  24.412  22.750  1.00  0.00     0.046 C 
ATOM     64  C   UNL A   1      33.318  25.987  24.487  1.00  0.00    -0.008 A 
ATOM     65  C   UNL A   1      32.773  25.398  21.652  1.00  0.00     0.008 C 
ATOM     66  C   UNL A   1      33.224  27.050  23.567  1.00  0.00    -0.042 A 
ATOM     67  C   UNL A   1      33.631  26.282  25.832  1.00  0.00     0.007 A 
ATOM     68  C   UNL A   1      32.837  26.848  22.125  1.00  0.00     0.036 C 
ATOM     69  C   UNL A   1      33.461  28.366  24.010  1.00  0.00     0.004 A 
ATOM     70  C   UNL A   1      33.855  27.590  26.256  1.00  0.00     0.000 A 
ATOM     71  C   UNL A   1      33.779  28.632  25.342  1.00  0.00     0.000 A 
BRANCH  62  72
ATOM     72  N   UNL A   1      32.627  23.688  25.093  1.00  0.00    -0.336 N 
ATOM     73  C   UNL A   1      32.328  22.357  25.168  1.00  0.00     0.224 C 
ATOM     74  H   UNL A   1      32.372  24.201  25.894  1.00  0.00     0.164 HD
ATOM     75  O   UNL A   1      31.298  22.036  25.765  1.00  0.00    -0.275 OA
BRANCH  73  76
ATOM     76  C   UNL A   1      33.303  21.292  24.668  1.00  0.00     0.082 C 
ATOM     77  C   UNL A   1      33.045  20.918  23.197  1.00  0.00     0.035 C 
ATOM     78  C   UNL A   1      33.344  20.086  25.631  1.00  0.00     0.035 C 
ATOM     79  C   UNL A   1      32.035  19.786  23.018  1.00  0.00     0.120 C 
ATOM     80  C   UNL A   1      32.296  19.042  25.296  1.00  0.00     0.120 C 
ATOM     81  N   UNL A   1      32.415  18.688  23.897  1.00  0.00    -0.342 N 
ATOM     82  C   UNL A   1      33.069  17.596  23.338  1.00  0.00     0.225 C 
ATOM     83  O   UNL A   1      33.036  17.389  22.124  1.00  0.00    -0.275 OA
BRANCH  82  84
ATOM     84  C   UNL A   1      33.952  16.677  24.115  1.00  0.00     0.079 C 
ATOM     85  C   UNL A   1      34.195  16.439  25.579  1.00  0.00     0.014 C 
ATOM     86  C   UNL A   1      33.273  15.527  24.835  1.00  0.00     0.014 C 
ENDBRANCH  82  84
ENDBRANCH  73  76
ENDBRANCH  62  72
ENDBRANCH  60  62
ENDBRANCH  59  60
ENDBRANCH  58  59
ENDBRANCH   1  58
TORSDOF 17
ENDMDL
