MODEL 1
REMARK VINA RESULT:      -9.6      0.000      0.000
REMARK SMILES CCCCOc1ccc(-c2nc(C)c(C(=O)OCCOCCOC(=O)c3ccc(-c4c5nc(c(-c6ccccc6)c6ccc([nH]6)c(-c6ccccc6)c6nc(c(-c7ccccc7)c7ccc4[nH]7)C=C6)C=C5)cc3)s2)cc1
REMARK SMILES IDX 18 1 17 2 15 3 16 4 14 5 10 6 11 7 74 8 12 9 13 10 9 11 6 12
REMARK SMILES IDX 7 13 76 14 8 15 75 16 5 17 4 18 3 19 2 20 1 21 19 22 20 23
REMARK SMILES IDX 21 24 22 25 23 26 24 27 25 28 26 29 27 30 73 31 28 32 72 33
REMARK SMILES IDX 29 34 30 35 31 36 66 37 32 38 71 39 65 40 67 41 33 42 70 43
REMARK SMILES IDX 64 44 63 45 34 47 56 48 41 49 55 50 42 51 45 52 54 53 68 54
REMARK SMILES IDX 43 55 44 56 53 58 69 59 46 60 35 61 36 62 40 63 37 64 39 65
REMARK SMILES IDX 38 66 57 67 58 68 62 69 59 70 61 71 60 72 47 73 48 74 52 75
REMARK SMILES IDX 49 76 51 77 50 78
REMARK H PARENT 67 46 45 57
REMARK Flexibility Score: inf
ROOT
ATOM      1  C   UNL A   1      33.593  34.428  28.417  1.00  0.00     0.261 C 
ENDROOT
BRANCH   1   2
ATOM      2  O   UNL A   1      34.002  33.072  28.674  1.00  0.00    -0.459 OA
BRANCH   2   3
ATOM      3  C   UNL A   1      35.090  32.643  27.972  1.00  0.00     0.350 C 
ATOM      4  O   UNL A   1      36.063  33.339  27.726  1.00  0.00    -0.245 OA
BRANCH   3   5
ATOM      5  C   UNL A   1      34.965  31.233  27.666  1.00  0.00     0.135 A 
ATOM      6  C   UNL A   1      34.026  29.094  26.987  1.00  0.00     0.124 A 
ATOM      7  N   UNL A   1      35.316  28.968  27.204  1.00  0.00    -0.240 NA
ATOM      8  S   UNL A   1      33.390  30.654  27.284  1.00  0.00    -0.106 S 
ATOM      9  C   UNL A   1      35.876  30.191  27.567  1.00  0.00     0.064 A 
ATOM     10  C   UNL A   1      37.343  30.194  27.823  1.00  0.00     0.068 C 
BRANCH   6  11
ATOM     11  C   UNL A   1      33.134  28.018  26.556  1.00  0.00     0.011 A 
ATOM     12  C   UNL A   1      31.412  25.947  25.810  1.00  0.00     0.119 A 
ATOM     13  C   UNL A   1      30.883  27.178  26.190  1.00  0.00     0.047 A 
ATOM     14  C   UNL A   1      32.789  25.762  25.729  1.00  0.00     0.047 A 
ATOM     15  C   UNL A   1      31.745  28.209  26.574  1.00  0.00     0.015 A 
ATOM     16  C   UNL A   1      33.649  26.784  26.127  1.00  0.00     0.015 A 
BRANCH  12  17
ATOM     17  O   UNL A   1      30.618  24.893  25.463  1.00  0.00    -0.494 OA
BRANCH  17  18
ATOM     18  C   UNL A   1      31.358  23.676  25.292  1.00  0.00     0.229 C 
BRANCH  18  19
ATOM     19  C   UNL A   1      31.292  23.176  23.844  1.00  0.00     0.041 C 
BRANCH  19  20
ATOM     20  C   UNL A   1      32.616  23.162  23.069  1.00  0.00     0.000 C 
ATOM     21  C   UNL A   1      33.785  22.578  23.846  1.00  0.00     0.004 C 
ENDBRANCH  19  20
ENDBRANCH  18  19
ENDBRANCH  17  18
ENDBRANCH  12  17
ENDBRANCH   6  11
ENDBRANCH   3   5
ENDBRANCH   2   3
ENDBRANCH   1   2
BRANCH   1  22
ATOM     22  C   UNL A   1      33.277  35.137  29.735  1.00  0.00     0.202 C 
BRANCH  22  23
ATOM     23  O   UNL A   1      34.303  35.035  30.724  1.00  0.00    -0.374 OA
BRANCH  23  24
ATOM     24  C   UNL A   1      33.927  34.470  31.983  1.00  0.00     0.202 C 
BRANCH  24  25
ATOM     25  C   UNL A   1      35.086  34.207  32.951  1.00  0.00     0.261 C 
BRANCH  25  26
ATOM     26  O   UNL A   1      35.342  32.797  33.094  1.00  0.00    -0.460 OA
BRANCH  26  27
ATOM     27  C   UNL A   1      36.483  32.483  33.753  1.00  0.00     0.338 C 
ATOM     28  O   UNL A   1      36.709  32.602  34.944  1.00  0.00    -0.246 OA
BRANCH  27  29
ATOM     29  C   UNL A   1      37.406  31.785  32.838  1.00  0.00     0.060 A 
ATOM     30  C   UNL A   1      38.400  30.980  33.411  1.00  0.00     0.016 A 
ATOM     31  C   UNL A   1      37.339  31.950  31.452  1.00  0.00     0.016 A 
ATOM     32  C   UNL A   1      39.356  30.368  32.602  1.00  0.00     0.010 A 
ATOM     33  C   UNL A   1      38.306  31.343  30.643  1.00  0.00     0.010 A 
ATOM     34  C   UNL A   1      39.333  30.571  31.216  1.00  0.00    -0.014 A 
BRANCH  34  35
ATOM     35  C   UNL A   1      40.449  30.072  30.378  1.00  0.00     0.031 A 
ATOM     36  C   UNL A   1      41.643  30.954  30.142  1.00  0.00     0.074 A 
ATOM     37  C   UNL A   1      40.405  28.841  29.842  1.00  0.00     0.049 A 
ATOM     38  N   UNL A   1      42.703  30.733  29.406  1.00  0.00    -0.248 NA
ATOM     39  C   UNL A   1      41.645  32.255  30.828  1.00  0.00     0.031 C 
ATOM     40  C   UNL A   1      39.327  27.871  30.031  1.00  0.00     0.029 A 
ATOM     41  N   UNL A   1      41.295  28.198  29.018  1.00  0.00    -0.354 N 
ATOM     42  C   UNL A   1      43.494  31.867  29.535  1.00  0.00     0.074 A 
ATOM     43  C   UNL A   1      42.783  32.784  30.400  1.00  0.00     0.031 C 
ATOM     44  C   UNL A   1      39.614  26.760  29.333  1.00  0.00     0.029 A 
ATOM     45  C   UNL A   1      40.876  26.953  28.622  1.00  0.00     0.049 A 
ATOM     46  H   UNL A   1      42.152  28.594  28.737  1.00  0.00     0.167 HD
ATOM     47  C   UNL A   1      44.705  32.124  28.985  1.00  0.00     0.031 A 
ATOM     48  C   UNL A   1      41.435  26.078  27.765  1.00  0.00     0.031 A 
ATOM     49  C   UNL A   1      45.407  31.224  28.110  1.00  0.00     0.049 A 
ATOM     50  C   UNL A   1      42.737  26.424  27.093  1.00  0.00     0.074 A 
ATOM     51  C   UNL A   1      46.646  31.389  27.516  1.00  0.00     0.029 A 
ATOM     52  N   UNL A   1      44.927  29.992  27.696  1.00  0.00    -0.354 N 
ATOM     53  N   UNL A   1      43.484  27.490  27.240  1.00  0.00    -0.248 NA
ATOM     54  C   UNL A   1      43.271  25.442  26.139  1.00  0.00     0.031 C 
ATOM     55  C   UNL A   1      46.892  30.280  26.701  1.00  0.00     0.029 A 
ATOM     56  C   UNL A   1      45.829  29.401  26.828  1.00  0.00     0.049 A 
ATOM     57  H   UNL A   1      44.070  29.595  27.977  1.00  0.00     0.167 HD
ATOM     58  C   UNL A   1      44.584  27.299  26.415  1.00  0.00     0.074 A 
ATOM     59  C   UNL A   1      44.415  26.007  25.782  1.00  0.00     0.031 C 
ATOM     60  C   UNL A   1      45.643  28.118  26.200  1.00  0.00     0.031 A 
BRANCH  47  61
ATOM     61  C   UNL A   1      45.332  33.455  29.287  1.00  0.00    -0.014 A 
ATOM     62  C   UNL A   1      45.075  34.578  28.486  1.00  0.00     0.009 A 
ATOM     63  C   UNL A   1      46.161  33.594  30.410  1.00  0.00     0.009 A 
ATOM     64  C   UNL A   1      45.663  35.809  28.788  1.00  0.00     0.001 A 
ATOM     65  C   UNL A   1      46.729  34.831  30.723  1.00  0.00     0.001 A 
ATOM     66  C   UNL A   1      46.486  35.934  29.907  1.00  0.00     0.000 A 
ENDBRANCH  47  61
BRANCH  48  67
ATOM     67  C   UNL A   1      40.750  24.795  27.459  1.00  0.00    -0.014 A 
ATOM     68  C   UNL A   1      41.234  23.584  27.976  1.00  0.00     0.009 A 
ATOM     69  C   UNL A   1      39.618  24.776  26.628  1.00  0.00     0.009 A 
ATOM     70  C   UNL A   1      40.610  22.378  27.650  1.00  0.00     0.001 A 
ATOM     71  C   UNL A   1      38.982  23.572  26.325  1.00  0.00     0.001 A 
ATOM     72  C   UNL A   1      39.484  22.372  26.828  1.00  0.00     0.000 A 
ENDBRANCH  48  67
BRANCH  60  73
ATOM     73  C   UNL A   1      46.710  27.633  25.261  1.00  0.00    -0.014 A 
ATOM     74  C   UNL A   1      47.696  26.729  25.687  1.00  0.00     0.009 A 
ATOM     75  C   UNL A   1      46.706  28.055  23.923  1.00  0.00     0.009 A 
ATOM     76  C   UNL A   1      48.675  26.282  24.796  1.00  0.00     0.001 A 
ATOM     77  C   UNL A   1      47.670  27.588  23.029  1.00  0.00     0.001 A 
ATOM     78  C   UNL A   1      48.658  26.709  23.469  1.00  0.00     0.000 A 
ENDBRANCH  60  73
ENDBRANCH  34  35
ENDBRANCH  27  29
ENDBRANCH  26  27
ENDBRANCH  25  26
ENDBRANCH  24  25
ENDBRANCH  23  24
ENDBRANCH  22  23
ENDBRANCH   1  22
TORSDOF 19
ENDMDL
MODEL 2
REMARK VINA RESULT:      -9.5      3.675      6.849
REMARK SMILES CCCCOc1ccc(-c2nc(C)c(C(=O)OCCOCCOC(=O)c3ccc(-c4c5nc(c(-c6ccccc6)c6ccc([nH]6)c(-c6ccccc6)c6nc(c(-c7ccccc7)c7ccc4[nH]7)C=C6)C=C5)cc3)s2)cc1
REMARK SMILES IDX 18 1 17 2 15 3 16 4 14 5 10 6 11 7 74 8 12 9 13 10 9 11 6 12
REMARK SMILES IDX 7 13 76 14 8 15 75 16 5 17 4 18 3 19 2 20 1 21 19 22 20 23
REMARK SMILES IDX 21 24 22 25 23 26 24 27 25 28 26 29 27 30 73 31 28 32 72 33
REMARK SMILES IDX 29 34 30 35 31 36 66 37 32 38 71 39 65 40 67 41 33 42 70 43
REMARK SMILES IDX 64 44 63 45 34 47 56 48 41 49 55 50 42 51 45 52 54 53 68 54
REMARK SMILES IDX 43 55 44 56 53 58 69 59 46 60 35 61 36 62 40 63 37 64 39 65
REMARK SMILES IDX 38 66 57 67 58 68 62 69 59 70 61 71 60 72 47 73 48 74 52 75
REMARK SMILES IDX 49 76 51 77 50 78
REMARK H PARENT 67 46 45 57
REMARK Flexibility Score: inf
ROOT
ATOM      1  C   UNL A   1      35.794  32.959  31.657  1.00  0.00     0.261 C 
ENDROOT
BRANCH   1   2
ATOM      2  O   UNL A   1      35.805  32.066  32.786  1.00  0.00    -0.459 OA
BRANCH   2   3
ATOM      3  C   UNL A   1      36.254  32.603  33.956  1.00  0.00     0.350 C 
ATOM      4  O   UNL A   1      35.579  33.309  34.688  1.00  0.00    -0.245 OA
BRANCH   3   5
ATOM      5  C   UNL A   1      37.591  32.127  34.245  1.00  0.00     0.135 A 
ATOM      6  C   UNL A   1      39.612  30.773  34.226  1.00  0.00     0.124 A 
ATOM      7  N   UNL A   1      39.808  31.860  34.940  1.00  0.00    -0.240 NA
ATOM      8  S   UNL A   1      38.036  30.602  33.584  1.00  0.00    -0.106 S 
ATOM      9  C   UNL A   1      38.668  32.661  34.939  1.00  0.00     0.064 A 
ATOM     10  C   UNL A   1      38.760  33.940  35.696  1.00  0.00     0.068 C 
BRANCH   6  11
ATOM     11  C   UNL A   1      40.611  29.732  33.987  1.00  0.00     0.011 A 
ATOM     12  C   UNL A   1      42.557  27.792  33.475  1.00  0.00     0.119 A 
ATOM     13  C   UNL A   1      42.867  28.878  34.290  1.00  0.00     0.047 A 
ATOM     14  C   UNL A   1      41.270  27.627  32.973  1.00  0.00     0.047 A 
ATOM     15  C   UNL A   1      41.896  29.854  34.535  1.00  0.00     0.015 A 
ATOM     16  C   UNL A   1      40.306  28.607  33.204  1.00  0.00     0.015 A 
BRANCH  12  17
ATOM     17  O   UNL A   1      43.476  26.831  33.169  1.00  0.00    -0.494 OA
BRANCH  17  18
ATOM     18  C   UNL A   1      43.930  26.113  34.326  1.00  0.00     0.229 C 
BRANCH  18  19
ATOM     19  C   UNL A   1      43.040  24.901  34.622  1.00  0.00     0.041 C 
BRANCH  19  20
ATOM     20  C   UNL A   1      43.608  23.530  34.234  1.00  0.00     0.000 C 
ATOM     21  C   UNL A   1      44.206  23.478  32.838  1.00  0.00     0.004 C 
ENDBRANCH  19  20
ENDBRANCH  18  19
ENDBRANCH  17  18
ENDBRANCH  12  17
ENDBRANCH   6  11
ENDBRANCH   3   5
ENDBRANCH   2   3
ENDBRANCH   1   2
BRANCH   1  22
ATOM     22  C   UNL A   1      34.444  33.673  31.568  1.00  0.00     0.202 C 
BRANCH  22  23
ATOM     23  O   UNL A   1      33.921  33.788  30.244  1.00  0.00    -0.374 OA
BRANCH  23  24
ATOM     24  C   UNL A   1      34.864  33.724  29.171  1.00  0.00     0.202 C 
BRANCH  24  25
ATOM     25  C   UNL A   1      34.498  32.761  28.036  1.00  0.00     0.261 C 
BRANCH  25  26
ATOM     26  O   UNL A   1      34.084  31.479  28.548  1.00  0.00    -0.460 OA
BRANCH  26  27
ATOM     27  C   UNL A   1      34.561  30.409  27.868  1.00  0.00     0.338 C 
ATOM     28  O   UNL A   1      34.034  29.825  26.937  1.00  0.00    -0.246 OA
BRANCH  27  29
ATOM     29  C   UNL A   1      35.944  30.126  28.298  1.00  0.00     0.060 A 
ATOM     30  C   UNL A   1      36.952  30.205  27.328  1.00  0.00     0.016 A 
ATOM     31  C   UNL A   1      36.246  29.740  29.606  1.00  0.00     0.016 A 
ATOM     32  C   UNL A   1      38.264  29.862  27.654  1.00  0.00     0.010 A 
ATOM     33  C   UNL A   1      37.561  29.386  29.929  1.00  0.00     0.010 A 
ATOM     34  C   UNL A   1      38.570  29.420  28.948  1.00  0.00    -0.014 A 
BRANCH  34  35
ATOM     35  C   UNL A   1      39.919  28.884  29.245  1.00  0.00     0.031 A 
ATOM     36  C   UNL A   1      40.920  29.759  29.946  1.00  0.00     0.074 A 
ATOM     37  C   UNL A   1      40.247  27.626  28.904  1.00  0.00     0.049 A 
ATOM     38  N   UNL A   1      42.166  29.507  30.257  1.00  0.00    -0.248 NA
ATOM     39  C   UNL A   1      40.455  31.094  30.352  1.00  0.00     0.031 C 
ATOM     40  C   UNL A   1      39.354  26.661  28.263  1.00  0.00     0.029 A 
ATOM     41  N   UNL A   1      41.431  26.946  29.047  1.00  0.00    -0.354 N 
ATOM     42  C   UNL A   1      42.637  30.650  30.889  1.00  0.00     0.074 A 
ATOM     43  C   UNL A   1      41.550  31.607  30.897  1.00  0.00     0.031 C 
ATOM     44  C   UNL A   1      40.027  25.516  28.058  1.00  0.00     0.029 A 
ATOM     45  C   UNL A   1      41.404  25.679  28.521  1.00  0.00     0.049 A 
ATOM     46  H   UNL A   1      42.224  27.332  29.485  1.00  0.00     0.167 HD
ATOM     47  C   UNL A   1      43.861  30.884  31.418  1.00  0.00     0.031 A 
ATOM     48  C   UNL A   1      42.384  24.764  28.402  1.00  0.00     0.031 A 
ATOM     49  C   UNL A   1      44.949  29.944  31.396  1.00  0.00     0.049 A 
ATOM     50  C   UNL A   1      43.763  25.082  28.915  1.00  0.00     0.074 A 
ATOM     51  C   UNL A   1      46.222  30.085  31.921  1.00  0.00     0.029 A 
ATOM     52  N   UNL A   1      44.895  28.690  30.812  1.00  0.00    -0.354 N 
ATOM     53  N   UNL A   1      44.187  26.159  29.529  1.00  0.00    -0.248 NA
ATOM     54  C   UNL A   1      44.795  24.055  28.719  1.00  0.00     0.031 C 
ATOM     55  C   UNL A   1      46.954  28.936  31.607  1.00  0.00     0.029 A 
ATOM     56  C   UNL A   1      46.121  28.059  30.933  1.00  0.00     0.049 A 
ATOM     57  H   UNL A   1      44.101  28.303  30.374  1.00  0.00     0.167 HD
ATOM     58  C   UNL A   1      45.528  25.931  29.810  1.00  0.00     0.074 A 
ATOM     59  C   UNL A   1      45.843  24.608  29.314  1.00  0.00     0.031 C 
ATOM     60  C   UNL A   1      46.421  26.745  30.427  1.00  0.00     0.031 A 
BRANCH  47  61
ATOM     61  C   UNL A   1      44.099  32.233  32.035  1.00  0.00    -0.014 A 
ATOM     62  C   UNL A   1      43.749  32.494  33.369  1.00  0.00     0.009 A 
ATOM     63  C   UNL A   1      44.713  33.245  31.281  1.00  0.00     0.009 A 
ATOM     64  C   UNL A   1      43.984  33.754  33.926  1.00  0.00     0.001 A 
ATOM     65  C   UNL A   1      44.968  34.495  31.848  1.00  0.00     0.001 A 
ATOM     66  C   UNL A   1      44.596  34.750  33.166  1.00  0.00     0.000 A 
ENDBRANCH  47  61
BRANCH  48  67
ATOM     67  C   UNL A   1      42.112  23.464  27.738  1.00  0.00    -0.014 A 
ATOM     68  C   UNL A   1      42.373  23.289  26.371  1.00  0.00     0.009 A 
ATOM     69  C   UNL A   1      41.568  22.394  28.468  1.00  0.00     0.009 A 
ATOM     70  C   UNL A   1      42.074  22.077  25.745  1.00  0.00     0.001 A 
ATOM     71  C   UNL A   1      41.295  21.176  27.845  1.00  0.00     0.001 A 
ATOM     72  C   UNL A   1      41.539  21.021  26.481  1.00  0.00     0.000 A 
ENDBRANCH  48  67
BRANCH  60  73
ATOM     73  C   UNL A   1      47.814  26.217  30.619  1.00  0.00    -0.014 A 
ATOM     74  C   UNL A   1      48.220  25.668  31.845  1.00  0.00     0.009 A 
ATOM     75  C   UNL A   1      48.721  26.235  29.547  1.00  0.00     0.009 A 
ATOM     76  C   UNL A   1      49.517  25.174  32.002  1.00  0.00     0.001 A 
ATOM     77  C   UNL A   1      50.008  25.718  29.700  1.00  0.00     0.001 A 
ATOM     78  C   UNL A   1      50.408  25.196  30.929  1.00  0.00     0.000 A 
ENDBRANCH  60  73
ENDBRANCH  34  35
ENDBRANCH  27  29
ENDBRANCH  26  27
ENDBRANCH  25  26
ENDBRANCH  24  25
ENDBRANCH  23  24
ENDBRANCH  22  23
ENDBRANCH   1  22
TORSDOF 19
ENDMDL
MODEL 3
REMARK VINA RESULT:      -9.2      1.445      2.204
REMARK SMILES CCCCOc1ccc(-c2nc(C)c(C(=O)OCCOCCOC(=O)c3ccc(-c4c5nc(c(-c6ccccc6)c6ccc([nH]6)c(-c6ccccc6)c6nc(c(-c7ccccc7)c7ccc4[nH]7)C=C6)C=C5)cc3)s2)cc1
REMARK SMILES IDX 18 1 17 2 15 3 16 4 14 5 10 6 11 7 74 8 12 9 13 10 9 11 6 12
REMARK SMILES IDX 7 13 76 14 8 15 75 16 5 17 4 18 3 19 2 20 1 21 19 22 20 23
REMARK SMILES IDX 21 24 22 25 23 26 24 27 25 28 26 29 27 30 73 31 28 32 72 33
REMARK SMILES IDX 29 34 30 35 31 36 66 37 32 38 71 39 65 40 67 41 33 42 70 43
REMARK SMILES IDX 64 44 63 45 34 47 56 48 41 49 55 50 42 51 45 52 54 53 68 54
REMARK SMILES IDX 43 55 44 56 53 58 69 59 46 60 35 61 36 62 40 63 37 64 39 65
REMARK SMILES IDX 38 66 57 67 58 68 62 69 59 70 61 71 60 72 47 73 48 74 52 75
REMARK SMILES IDX 49 76 51 77 50 78
REMARK H PARENT 67 46 45 57
REMARK Flexibility Score: inf
ROOT
ATOM      1  C   UNL A   1      33.921  34.302  29.707  1.00  0.00     0.261 C 
ENDROOT
BRANCH   1   2
ATOM      2  O   UNL A   1      34.692  33.124  30.003  1.00  0.00    -0.459 OA
BRANCH   2   3
ATOM      3  C   UNL A   1      35.568  32.735  29.032  1.00  0.00     0.350 C 
ATOM      4  O   UNL A   1      36.609  33.319  28.776  1.00  0.00    -0.245 OA
BRANCH   3   5
ATOM      5  C   UNL A   1      35.135  31.487  28.438  1.00  0.00     0.135 A 
ATOM      6  C   UNL A   1      33.895  29.874  27.103  1.00  0.00     0.124 A 
ATOM      7  N   UNL A   1      34.916  29.284  27.685  1.00  0.00    -0.240 NA
ATOM      8  S   UNL A   1      33.707  31.533  27.479  1.00  0.00    -0.106 S 
ATOM      9  C   UNL A   1      35.654  30.199  28.432  1.00  0.00     0.064 A 
ATOM     10  C   UNL A   1      36.855  29.664  29.131  1.00  0.00     0.068 C 
BRANCH   6  11
ATOM     11  C   UNL A   1      32.935  29.218  26.217  1.00  0.00     0.011 A 
ATOM     12  C   UNL A   1      31.139  27.891  24.536  1.00  0.00     0.119 A 
ATOM     13  C   UNL A   1      31.009  27.766  25.917  1.00  0.00     0.047 A 
ATOM     14  C   UNL A   1      32.107  28.726  23.989  1.00  0.00     0.047 A 
ATOM     15  C   UNL A   1      31.915  28.420  26.756  1.00  0.00     0.015 A 
ATOM     16  C   UNL A   1      33.021  29.366  24.823  1.00  0.00     0.015 A 
BRANCH  12  17
ATOM     17  O   UNL A   1      30.307  27.244  23.669  1.00  0.00    -0.494 OA
BRANCH  17  18
ATOM     18  C   UNL A   1      29.588  28.146  22.816  1.00  0.00     0.229 C 
BRANCH  18  19
ATOM     19  C   UNL A   1      28.104  28.217  23.196  1.00  0.00     0.041 C 
BRANCH  19  20
ATOM     20  C   UNL A   1      27.466  29.612  23.185  1.00  0.00     0.000 C 
ATOM     21  C   UNL A   1      28.468  30.752  23.115  1.00  0.00     0.004 C 
ENDBRANCH  19  20
ENDBRANCH  18  19
ENDBRANCH  17  18
ENDBRANCH  12  17
ENDBRANCH   6  11
ENDBRANCH   3   5
ENDBRANCH   2   3
ENDBRANCH   1   2
BRANCH   1  22
ATOM     22  C   UNL A   1      33.637  35.078  30.994  1.00  0.00     0.202 C 
BRANCH  22  23
ATOM     23  O   UNL A   1      34.740  35.150  31.899  1.00  0.00    -0.374 OA
BRANCH  23  24
ATOM     24  C   UNL A   1      34.568  34.526  33.174  1.00  0.00     0.202 C 
BRANCH  24  25
ATOM     25  C   UNL A   1      35.863  34.070  33.857  1.00  0.00     0.261 C 
BRANCH  25  26
ATOM     26  O   UNL A   1      35.988  32.635  33.839  1.00  0.00    -0.460 OA
BRANCH  26  27
ATOM     27  C   UNL A   1      37.119  32.151  34.408  1.00  0.00     0.338 C 
ATOM     28  O   UNL A   1      37.382  32.081  35.595  1.00  0.00    -0.246 OA
BRANCH  27  29
ATOM     29  C   UNL A   1      37.965  31.527  33.371  1.00  0.00     0.060 A 
ATOM     30  C   UNL A   1      38.769  30.447  33.757  1.00  0.00     0.016 A 
ATOM     31  C   UNL A   1      38.014  32.017  32.064  1.00  0.00     0.016 A 
ATOM     32  C   UNL A   1      39.655  29.875  32.845  1.00  0.00     0.010 A 
ATOM     33  C   UNL A   1      38.911  31.449  31.153  1.00  0.00     0.010 A 
ATOM     34  C   UNL A   1      39.754  30.394  31.546  1.00  0.00    -0.014 A 
BRANCH  34  35
ATOM     35  C   UNL A   1      40.819  29.908  30.637  1.00  0.00     0.031 A 
ATOM     36  C   UNL A   1      42.044  30.753  30.422  1.00  0.00     0.074 A 
ATOM     37  C   UNL A   1      40.701  28.722  30.017  1.00  0.00     0.049 A 
ATOM     38  N   UNL A   1      43.067  30.540  29.634  1.00  0.00    -0.248 NA
ATOM     39  C   UNL A   1      42.127  32.000  31.197  1.00  0.00     0.031 C 
ATOM     40  C   UNL A   1      39.587  27.788  30.176  1.00  0.00     0.029 A 
ATOM     41  N   UNL A   1      41.534  28.102  29.119  1.00  0.00    -0.354 N 
ATOM     42  C   UNL A   1      43.914  31.626  29.815  1.00  0.00     0.074 A 
ATOM     43  C   UNL A   1      43.273  32.509  30.767  1.00  0.00     0.031 C 
ATOM     44  C   UNL A   1      39.801  26.718  29.392  1.00  0.00     0.029 A 
ATOM     45  C   UNL A   1      41.047  26.907  28.652  1.00  0.00     0.049 A 
ATOM     46  H   UNL A   1      42.399  28.479  28.837  1.00  0.00     0.167 HD
ATOM     47  C   UNL A   1      45.116  31.869  29.242  1.00  0.00     0.031 A 
ATOM     48  C   UNL A   1      41.537  26.073  27.716  1.00  0.00     0.031 A 
ATOM     49  C   UNL A   1      45.748  31.005  28.282  1.00  0.00     0.049 A 
ATOM     50  C   UNL A   1      42.831  26.410  27.025  1.00  0.00     0.074 A 
ATOM     51  C   UNL A   1      46.974  31.158  27.658  1.00  0.00     0.029 A 
ATOM     52  N   UNL A   1      45.199  29.828  27.800  1.00  0.00    -0.354 N 
ATOM     53  N   UNL A   1      43.630  27.430  27.220  1.00  0.00    -0.248 NA
ATOM     54  C   UNL A   1      43.289  25.477  25.985  1.00  0.00     0.031 C 
ATOM     55  C   UNL A   1      47.143  30.101  26.758  1.00  0.00     0.029 A 
ATOM     56  C   UNL A   1      46.046  29.262  26.861  1.00  0.00     0.049 A 
ATOM     57  H   UNL A   1      44.335  29.450  28.082  1.00  0.00     0.167 HD
ATOM     58  C   UNL A   1      44.694  27.251  26.345  1.00  0.00     0.074 A 
ATOM     59  C   UNL A   1      44.446  26.017  25.629  1.00  0.00     0.031 C 
ATOM     60  C   UNL A   1      45.781  28.038  26.151  1.00  0.00     0.031 A 
BRANCH  47  61
ATOM     61  C   UNL A   1      45.812  33.147  29.615  1.00  0.00    -0.014 A 
ATOM     62  C   UNL A   1      46.824  33.166  30.589  1.00  0.00     0.009 A 
ATOM     63  C   UNL A   1      45.476  34.340  28.958  1.00  0.00     0.009 A 
ATOM     64  C   UNL A   1      47.463  34.364  30.917  1.00  0.00     0.001 A 
ATOM     65  C   UNL A   1      46.133  35.531  29.273  1.00  0.00     0.001 A 
ATOM     66  C   UNL A   1      47.120  35.543  30.256  1.00  0.00     0.000 A 
ENDBRANCH  47  61
BRANCH  48  67
ATOM     67  C   UNL A   1      40.785  24.847  27.345  1.00  0.00    -0.014 A 
ATOM     68  C   UNL A   1      39.630  24.927  26.552  1.00  0.00     0.009 A 
ATOM     69  C   UNL A   1      41.210  23.589  27.801  1.00  0.00     0.009 A 
ATOM     70  C   UNL A   1      38.905  23.774  26.244  1.00  0.00     0.001 A 
ATOM     71  C   UNL A   1      40.498  22.436  27.469  1.00  0.00     0.001 A 
ATOM     72  C   UNL A   1      39.340  22.530  26.699  1.00  0.00     0.000 A 
ENDBRANCH  48  67
BRANCH  60  73
ATOM     73  C   UNL A   1      46.794  27.575  25.143  1.00  0.00    -0.014 A 
ATOM     74  C   UNL A   1      46.781  28.060  23.825  1.00  0.00     0.009 A 
ATOM     75  C   UNL A   1      47.797  26.672  25.526  1.00  0.00     0.009 A 
ATOM     76  C   UNL A   1      47.737  27.625  22.905  1.00  0.00     0.001 A 
ATOM     77  C   UNL A   1      48.765  26.258  24.610  1.00  0.00     0.001 A 
ATOM     78  C   UNL A   1      48.729  26.728  23.299  1.00  0.00     0.000 A 
ENDBRANCH  60  73
ENDBRANCH  34  35
ENDBRANCH  27  29
ENDBRANCH  26  27
ENDBRANCH  25  26
ENDBRANCH  24  25
ENDBRANCH  23  24
ENDBRANCH  22  23
ENDBRANCH   1  22
TORSDOF 19
ENDMDL
