MODEL 1
REMARK VINA RESULT:     -10.5      0.000      0.000
REMARK SMILES Cc1cc(F)cc(N[C@](C)(C(=O)OCCOCCOC(=O)c2ccc(-c3c4nc(c(-c5ccccc5)c5ccc([nH]5)c(-c5ccccc5)c5nc(c(-c6ccccc6)c6ccc3[nH]6)C=C5)C=C4)cc2)c2cccc(F)c2)c1
REMARK SMILES IDX 16 1 15 2 14 3 13 4 11 5 12 6 9 7 10 8 8 9 7 11 1 12 2 13
REMARK SMILES IDX 3 14 77 15 4 16 5 17 6 18 70 19 71 20 76 21 72 22 74 23
REMARK SMILES IDX 73 24 75 25 17 26 18 27 19 28 20 29 21 30 22 31 23 32 69 33
REMARK SMILES IDX 24 34 68 35 25 36 26 37 27 38 62 39 28 40 67 41 61 42 63 43
REMARK SMILES IDX 29 44 66 45 60 46 59 47 30 49 52 50 37 51 51 52 38 53 41 54
REMARK SMILES IDX 50 55 64 56 39 57 40 58 49 60 65 61 42 62 31 63 32 64 36 65
REMARK SMILES IDX 33 66 35 67 34 68 53 69 54 70 58 71 55 72 57 73 56 74 43 75
REMARK SMILES IDX 44 76 48 77 45 78 47 79 46 80
REMARK H PARENT 8 10 63 48 41 59
REMARK Flexibility Score: inf
ROOT
ATOM      1  O   UNL A   1      31.361  27.124  27.189  1.00  0.00    -0.374 OA
ENDROOT
BRANCH   1   2
ATOM      2  C   UNL A   1      31.891  26.036  26.438  1.00  0.00     0.202 C 
BRANCH   2   3
ATOM      3  C   UNL A   1      31.039  24.772  26.257  1.00  0.00     0.261 C 
BRANCH   3   4
ATOM      4  O   UNL A   1      31.638  23.576  26.783  1.00  0.00    -0.461 OA
BRANCH   4   5
ATOM      5  C   UNL A   1      31.438  22.478  25.997  1.00  0.00     0.336 C 
ATOM      6  O   UNL A   1      30.317  21.996  25.855  1.00  0.00    -0.249 OA
BRANCH   5   7
ATOM      7  C   UNL A   1      32.751  21.942  25.280  1.00  0.00     0.159 C 
ATOM      8  C   UNL A   1      32.995  22.654  23.936  1.00  0.00     0.053 C 
BRANCH   7   9
ATOM      9  N   UNL A   1      33.921  22.183  26.195  1.00  0.00    -0.366 N 
ATOM     10  H   UNL A   1      33.709  22.333  27.144  1.00  0.00     0.162 HD
BRANCH   9  11
ATOM     11  C   UNL A   1      35.276  22.217  25.849  1.00  0.00     0.038 A 
ATOM     12  C   UNL A   1      37.911  19.597  24.882  1.00  0.00     0.044 C 
ATOM     13  C   UNL A   1      37.268  20.911  25.208  1.00  0.00    -0.046 A 
ATOM     14  C   UNL A   1      38.052  22.061  25.293  1.00  0.00     0.042 A 
ATOM     15  C   UNL A   1      35.889  21.005  25.471  1.00  0.00     0.029 A 
ATOM     16  C   UNL A   1      37.449  23.271  25.597  1.00  0.00     0.125 A 
ATOM     17  F   UNL A   1      38.201  24.377  25.685  1.00  0.00    -0.207 F 
ATOM     18  C   UNL A   1      36.081  23.357  25.844  1.00  0.00     0.065 A 
ENDBRANCH   9  11
ENDBRANCH   7   9
BRANCH   7  19
ATOM     19  C   UNL A   1      32.659  20.404  24.934  1.00  0.00    -0.009 A 
ATOM     20  C   UNL A   1      32.808  19.376  25.891  1.00  0.00     0.007 A 
ATOM     21  C   UNL A   1      32.475  19.981  23.596  1.00  0.00     0.046 A 
ATOM     22  C   UNL A   1      32.725  18.018  25.542  1.00  0.00     0.003 A 
ATOM     23  C   UNL A   1      32.399  18.629  23.258  1.00  0.00     0.123 A 
ATOM     24  C   UNL A   1      32.515  17.642  24.221  1.00  0.00     0.039 A 
ATOM     25  F   UNL A   1      32.219  18.280  21.976  1.00  0.00    -0.207 F 
ENDBRANCH   7  19
ENDBRANCH   5   7
ENDBRANCH   4   5
ENDBRANCH   3   4
ENDBRANCH   2   3
ENDBRANCH   1   2
BRANCH   1  26
ATOM     26  C   UNL A   1      31.690  28.452  26.784  1.00  0.00     0.202 C 
BRANCH  26  27
ATOM     27  C   UNL A   1      33.126  28.712  26.318  1.00  0.00     0.261 C 
BRANCH  27  28
ATOM     28  O   UNL A   1      34.044  28.720  27.426  1.00  0.00    -0.460 OA
BRANCH  28  29
ATOM     29  C   UNL A   1      34.507  29.942  27.771  1.00  0.00     0.338 C 
ATOM     30  O   UNL A   1      33.862  30.977  27.885  1.00  0.00    -0.246 OA
BRANCH  29  31
ATOM     31  C   UNL A   1      35.907  29.838  28.215  1.00  0.00     0.060 A 
ATOM     32  C   UNL A   1      36.904  30.103  27.266  1.00  0.00     0.016 A 
ATOM     33  C   UNL A   1      36.244  29.430  29.507  1.00  0.00     0.016 A 
ATOM     34  C   UNL A   1      38.242  29.897  27.585  1.00  0.00     0.010 A 
ATOM     35  C   UNL A   1      37.588  29.210  29.821  1.00  0.00     0.010 A 
ATOM     36  C   UNL A   1      38.586  29.399  28.848  1.00  0.00    -0.014 A 
BRANCH  36  37
ATOM     37  C   UNL A   1      39.962  28.901  29.072  1.00  0.00     0.031 A 
ATOM     38  C   UNL A   1      40.939  29.788  29.793  1.00  0.00     0.074 A 
ATOM     39  C   UNL A   1      40.321  27.663  28.695  1.00  0.00     0.049 A 
ATOM     40  N   UNL A   1      42.184  29.556  30.122  1.00  0.00    -0.248 NA
ATOM     41  C   UNL A   1      40.442  31.110  30.203  1.00  0.00     0.031 C 
ATOM     42  C   UNL A   1      39.446  26.687  28.049  1.00  0.00     0.029 A 
ATOM     43  N   UNL A   1      41.523  27.015  28.817  1.00  0.00    -0.354 N 
ATOM     44  C   UNL A   1      42.618  30.701  30.777  1.00  0.00     0.074 A 
ATOM     45  C   UNL A   1      41.516  31.638  30.769  1.00  0.00     0.031 C 
ATOM     46  C   UNL A   1      40.142  25.557  27.837  1.00  0.00     0.029 A 
ATOM     47  C   UNL A   1      41.514  25.744  28.304  1.00  0.00     0.049 A 
ATOM     48  H   UNL A   1      42.317  27.424  29.232  1.00  0.00     0.167 HD
ATOM     49  C   UNL A   1      43.824  30.950  31.341  1.00  0.00     0.031 A 
ATOM     50  C   UNL A   1      42.506  24.837  28.214  1.00  0.00     0.031 A 
ATOM     51  C   UNL A   1      44.929  30.032  31.325  1.00  0.00     0.049 A 
ATOM     52  C   UNL A   1      43.871  25.179  28.747  1.00  0.00     0.074 A 
ATOM     53  C   UNL A   1      46.192  30.189  31.868  1.00  0.00     0.029 A 
ATOM     54  N   UNL A   1      44.906  28.785  30.720  1.00  0.00    -0.354 N 
ATOM     55  N   UNL A   1      44.268  26.259  29.375  1.00  0.00    -0.248 NA
ATOM     56  C   UNL A   1      44.924  24.171  28.557  1.00  0.00     0.031 C 
ATOM     57  C   UNL A   1      46.951  29.058  31.543  1.00  0.00     0.029 A 
ATOM     58  C   UNL A   1      46.141  28.174  30.846  1.00  0.00     0.049 A 
ATOM     59  H   UNL A   1      44.125  28.391  30.266  1.00  0.00     0.167 HD
ATOM     60  C   UNL A   1      45.607  26.051  29.681  1.00  0.00     0.074 A 
ATOM     61  C   UNL A   1      45.951  24.737  29.175  1.00  0.00     0.031 C 
ATOM     62  C   UNL A   1      46.471  26.871  30.329  1.00  0.00     0.031 A 
BRANCH  49  63
ATOM     63  C   UNL A   1      44.009  32.297  31.981  1.00  0.00    -0.014 A 
ATOM     64  C   UNL A   1      44.444  33.407  31.236  1.00  0.00     0.009 A 
ATOM     65  C   UNL A   1      43.757  32.457  33.351  1.00  0.00     0.009 A 
ATOM     66  C   UNL A   1      44.665  34.635  31.863  1.00  0.00     0.001 A 
ATOM     67  C   UNL A   1      43.952  33.694  33.970  1.00  0.00     0.001 A 
ATOM     68  C   UNL A   1      44.417  34.778  33.227  1.00  0.00     0.000 A 
ENDBRANCH  49  63
BRANCH  50  69
ATOM     69  C   UNL A   1      42.245  23.514  27.592  1.00  0.00    -0.014 A 
ATOM     70  C   UNL A   1      41.776  22.444  28.369  1.00  0.00     0.009 A 
ATOM     71  C   UNL A   1      42.463  23.315  26.221  1.00  0.00     0.009 A 
ATOM     72  C   UNL A   1      41.543  21.196  27.785  1.00  0.00     0.001 A 
ATOM     73  C   UNL A   1      42.207  22.072  25.635  1.00  0.00     0.001 A 
ATOM     74  C   UNL A   1      41.753  21.013  26.419  1.00  0.00     0.000 A 
ENDBRANCH  50  69
BRANCH  62  75
ATOM     75  C   UNL A   1      47.866  26.357  30.554  1.00  0.00    -0.014 A 
ATOM     76  C   UNL A   1      48.863  26.500  29.578  1.00  0.00     0.009 A 
ATOM     77  C   UNL A   1      48.194  25.756  31.780  1.00  0.00     0.009 A 
ATOM     78  C   UNL A   1      50.154  26.021  29.813  1.00  0.00     0.001 A 
ATOM     79  C   UNL A   1      49.492  25.303  32.022  1.00  0.00     0.001 A 
ATOM     80  C   UNL A   1      50.468  25.428  31.035  1.00  0.00     0.000 A 
ENDBRANCH  62  75
ENDBRANCH  36  37
ENDBRANCH  29  31
ENDBRANCH  28  29
ENDBRANCH  27  28
ENDBRANCH  26  27
ENDBRANCH   1  26
TORSDOF 17
ENDMDL
MODEL 2
REMARK VINA RESULT:     -10.5      0.324      5.876
REMARK SMILES Cc1cc(F)cc(N[C@](C)(C(=O)OCCOCCOC(=O)c2ccc(-c3c4nc(c(-c5ccccc5)c5ccc([nH]5)c(-c5ccccc5)c5nc(c(-c6ccccc6)c6ccc3[nH]6)C=C5)C=C4)cc2)c2cccc(F)c2)c1
REMARK SMILES IDX 16 1 15 2 14 3 13 4 11 5 12 6 9 7 10 8 8 9 7 11 1 12 2 13
REMARK SMILES IDX 3 14 77 15 4 16 5 17 6 18 70 19 71 20 76 21 72 22 74 23
REMARK SMILES IDX 73 24 75 25 17 26 18 27 19 28 20 29 21 30 22 31 23 32 69 33
REMARK SMILES IDX 24 34 68 35 25 36 26 37 27 38 62 39 28 40 67 41 61 42 63 43
REMARK SMILES IDX 29 44 66 45 60 46 59 47 30 49 52 50 37 51 51 52 38 53 41 54
REMARK SMILES IDX 50 55 64 56 39 57 40 58 49 60 65 61 42 62 31 63 32 64 36 65
REMARK SMILES IDX 33 66 35 67 34 68 53 69 54 70 58 71 55 72 57 73 56 74 43 75
REMARK SMILES IDX 44 76 48 77 45 78 47 79 46 80
REMARK H PARENT 8 10 63 48 41 59
REMARK Flexibility Score: inf
ROOT
ATOM      1  O   UNL A   1      31.391  27.097  27.107  1.00  0.00    -0.374 OA
ENDROOT
BRANCH   1   2
ATOM      2  C   UNL A   1      31.858  25.949  26.407  1.00  0.00     0.202 C 
BRANCH   2   3
ATOM      3  C   UNL A   1      30.934  24.730  26.276  1.00  0.00     0.261 C 
BRANCH   3   4
ATOM      4  O   UNL A   1      31.469  23.521  26.840  1.00  0.00    -0.461 OA
BRANCH   4   5
ATOM      5  C   UNL A   1      31.324  22.432  26.030  1.00  0.00     0.336 C 
ATOM      6  O   UNL A   1      30.231  21.887  25.891  1.00  0.00    -0.249 OA
BRANCH   5   7
ATOM      7  C   UNL A   1      32.655  21.995  25.281  1.00  0.00     0.159 C 
ATOM      8  C   UNL A   1      32.895  22.833  24.011  1.00  0.00     0.053 C 
BRANCH   7   9
ATOM      9  N   UNL A   1      33.811  22.176  26.228  1.00  0.00    -0.366 N 
ATOM     10  H   UNL A   1      33.586  22.245  27.183  1.00  0.00     0.162 HD
BRANCH   9  11
ATOM     11  C   UNL A   1      35.169  22.257  25.903  1.00  0.00     0.038 A 
ATOM     12  C   UNL A   1      37.871  19.749  24.831  1.00  0.00     0.044 C 
ATOM     13  C   UNL A   1      37.196  21.029  25.220  1.00  0.00    -0.046 A 
ATOM     14  C   UNL A   1      37.954  22.189  25.378  1.00  0.00     0.042 A 
ATOM     15  C   UNL A   1      35.812  21.081  25.468  1.00  0.00     0.029 A 
ATOM     16  C   UNL A   1      37.322  23.367  25.739  1.00  0.00     0.125 A 
ATOM     17  F   UNL A   1      38.049  24.482  25.898  1.00  0.00    -0.207 F 
ATOM     18  C   UNL A   1      35.949  23.412  25.972  1.00  0.00     0.065 A 
ENDBRANCH   9  11
ENDBRANCH   7   9
BRANCH   7  19
ATOM     19  C   UNL A   1      32.602  20.493  24.794  1.00  0.00    -0.009 A 
ATOM     20  C   UNL A   1      32.769  19.385  25.653  1.00  0.00     0.007 A 
ATOM     21  C   UNL A   1      32.437  20.192  23.421  1.00  0.00     0.046 A 
ATOM     22  C   UNL A   1      32.721  18.063  25.180  1.00  0.00     0.003 A 
ATOM     23  C   UNL A   1      32.396  18.875  22.959  1.00  0.00     0.123 A 
ATOM     24  C   UNL A   1      32.529  17.807  23.828  1.00  0.00     0.039 A 
ATOM     25  F   UNL A   1      32.234  18.643  21.649  1.00  0.00    -0.207 F 
ENDBRANCH   7  19
ENDBRANCH   5   7
ENDBRANCH   4   5
ENDBRANCH   3   4
ENDBRANCH   2   3
ENDBRANCH   1   2
BRANCH   1  26
ATOM     26  C   UNL A   1      31.823  28.384  26.667  1.00  0.00     0.202 C 
BRANCH  26  27
ATOM     27  C   UNL A   1      33.275  28.517  26.197  1.00  0.00     0.261 C 
BRANCH  27  28
ATOM     28  O   UNL A   1      34.183  28.586  27.312  1.00  0.00    -0.460 OA
BRANCH  28  29
ATOM     29  C   UNL A   1      34.580  29.834  27.644  1.00  0.00     0.338 C 
ATOM     30  O   UNL A   1      33.891  30.846  27.691  1.00  0.00    -0.246 OA
BRANCH  29  31
ATOM     31  C   UNL A   1      35.956  29.798  28.168  1.00  0.00     0.060 A 
ATOM     32  C   UNL A   1      36.996  30.037  27.259  1.00  0.00     0.016 A 
ATOM     33  C   UNL A   1      36.232  29.476  29.498  1.00  0.00     0.016 A 
ATOM     34  C   UNL A   1      38.319  29.890  27.661  1.00  0.00     0.010 A 
ATOM     35  C   UNL A   1      37.562  29.315  29.896  1.00  0.00     0.010 A 
ATOM     36  C   UNL A   1      38.606  29.477  28.968  1.00  0.00    -0.014 A 
BRANCH  36  37
ATOM     37  C   UNL A   1      39.980  29.034  29.295  1.00  0.00     0.031 A 
ATOM     38  C   UNL A   1      40.411  27.655  28.878  1.00  0.00     0.074 A 
ATOM     39  C   UNL A   1      40.849  29.861  29.898  1.00  0.00     0.049 A 
ATOM     40  N   UNL A   1      41.568  27.063  29.034  1.00  0.00    -0.248 NA
ATOM     41  C   UNL A   1      39.403  26.837  28.186  1.00  0.00     0.031 C 
ATOM     42  C   UNL A   1      40.572  31.241  30.292  1.00  0.00     0.029 A 
ATOM     43  N   UNL A   1      42.151  29.655  30.275  1.00  0.00    -0.354 N 
ATOM     44  C   UNL A   1      41.426  25.807  28.460  1.00  0.00     0.074 A 
ATOM     45  C   UNL A   1      40.064  25.708  27.984  1.00  0.00     0.031 C 
ATOM     46  C   UNL A   1      41.679  31.762  30.849  1.00  0.00     0.029 A 
ATOM     47  C   UNL A   1      42.726  30.743  30.879  1.00  0.00     0.049 A 
ATOM     48  H   UNL A   1      42.628  28.806  30.126  1.00  0.00     0.167 HD
ATOM     49  C   UNL A   1      42.348  24.823  28.334  1.00  0.00     0.031 A 
ATOM     50  C   UNL A   1      43.956  30.895  31.405  1.00  0.00     0.031 A 
ATOM     51  C   UNL A   1      43.693  24.908  28.833  1.00  0.00     0.049 A 
ATOM     52  C   UNL A   1      44.929  29.747  31.355  1.00  0.00     0.074 A 
ATOM     53  C   UNL A   1      44.705  23.966  28.756  1.00  0.00     0.029 A 
ATOM     54  N   UNL A   1      44.211  25.997  29.515  1.00  0.00    -0.354 N 
ATOM     55  N   UNL A   1      44.790  28.568  30.800  1.00  0.00    -0.248 NA
ATOM     56  C   UNL A   1      46.230  29.958  32.005  1.00  0.00     0.031 C 
ATOM     57  C   UNL A   1      45.818  24.466  29.441  1.00  0.00     0.029 A 
ATOM     58  C   UNL A   1      45.517  25.741  29.895  1.00  0.00     0.049 A 
ATOM     59  H   UNL A   1      43.722  26.831  29.703  1.00  0.00     0.167 HD
ATOM     60  C   UNL A   1      45.993  27.905  31.008  1.00  0.00     0.074 A 
ATOM     61  C   UNL A   1      46.853  28.819  31.734  1.00  0.00     0.031 C 
ATOM     62  C   UNL A   1      46.356  26.656  30.625  1.00  0.00     0.031 A 
BRANCH  49  63
ATOM     63  C   UNL A   1      41.900  23.553  27.666  1.00  0.00    -0.014 A 
ATOM     64  C   UNL A   1      41.215  22.554  28.379  1.00  0.00     0.009 A 
ATOM     65  C   UNL A   1      42.178  23.347  26.307  1.00  0.00     0.009 A 
ATOM     66  C   UNL A   1      40.859  21.358  27.753  1.00  0.00     0.001 A 
ATOM     67  C   UNL A   1      41.796  22.160  25.677  1.00  0.00     0.001 A 
ATOM     68  C   UNL A   1      41.148  21.163  26.403  1.00  0.00     0.000 A 
ENDBRANCH  49  63
BRANCH  50  69
ATOM     69  C   UNL A   1      44.341  32.187  32.027  1.00  0.00    -0.014 A 
ATOM     70  C   UNL A   1      44.948  33.192  31.259  1.00  0.00     0.009 A 
ATOM     71  C   UNL A   1      44.103  32.422  33.389  1.00  0.00     0.009 A 
ATOM     72  C   UNL A   1      45.322  34.403  31.848  1.00  0.00     0.001 A 
ATOM     73  C   UNL A   1      44.456  33.643  33.970  1.00  0.00     0.001 A 
ATOM     74  C   UNL A   1      45.070  34.629  33.200  1.00  0.00     0.000 A 
ENDBRANCH  50  69
BRANCH  62  75
ATOM     75  C   UNL A   1      47.754  26.216  30.960  1.00  0.00    -0.014 A 
ATOM     76  C   UNL A   1      48.065  25.659  32.209  1.00  0.00     0.009 A 
ATOM     77  C   UNL A   1      48.765  26.324  29.992  1.00  0.00     0.009 A 
ATOM     78  C   UNL A   1      49.370  25.250  32.494  1.00  0.00     0.001 A 
ATOM     79  C   UNL A   1      50.062  25.889  30.270  1.00  0.00     0.001 A 
ATOM     80  C   UNL A   1      50.365  25.361  31.524  1.00  0.00     0.000 A 
ENDBRANCH  62  75
ENDBRANCH  36  37
ENDBRANCH  29  31
ENDBRANCH  28  29
ENDBRANCH  27  28
ENDBRANCH  26  27
ENDBRANCH   1  26
TORSDOF 17
ENDMDL
MODEL 3
REMARK VINA RESULT:     -10.4      2.734      8.004
REMARK SMILES Cc1cc(F)cc(N[C@](C)(C(=O)OCCOCCOC(=O)c2ccc(-c3c4nc(c(-c5ccccc5)c5ccc([nH]5)c(-c5ccccc5)c5nc(c(-c6ccccc6)c6ccc3[nH]6)C=C5)C=C4)cc2)c2cccc(F)c2)c1
REMARK SMILES IDX 16 1 15 2 14 3 13 4 11 5 12 6 9 7 10 8 8 9 7 11 1 12 2 13
REMARK SMILES IDX 3 14 77 15 4 16 5 17 6 18 70 19 71 20 76 21 72 22 74 23
REMARK SMILES IDX 73 24 75 25 17 26 18 27 19 28 20 29 21 30 22 31 23 32 69 33
REMARK SMILES IDX 24 34 68 35 25 36 26 37 27 38 62 39 28 40 67 41 61 42 63 43
REMARK SMILES IDX 29 44 66 45 60 46 59 47 30 49 52 50 37 51 51 52 38 53 41 54
REMARK SMILES IDX 50 55 64 56 39 57 40 58 49 60 65 61 42 62 31 63 32 64 36 65
REMARK SMILES IDX 33 66 35 67 34 68 53 69 54 70 58 71 55 72 57 73 56 74 43 75
REMARK SMILES IDX 44 76 48 77 45 78 47 79 46 80
REMARK H PARENT 8 10 63 48 41 59
REMARK Flexibility Score: inf
ROOT
ATOM      1  O   UNL A   1      36.345  21.085  25.739  1.00  0.00    -0.374 OA
ENDROOT
BRANCH   1   2
ATOM      2  C   UNL A   1      35.754  22.345  26.038  1.00  0.00     0.202 C 
BRANCH   2   3
ATOM      3  C   UNL A   1      34.233  22.425  26.233  1.00  0.00     0.261 C 
BRANCH   3   4
ATOM      4  O   UNL A   1      33.736  23.755  26.458  1.00  0.00    -0.461 OA
BRANCH   4   5
ATOM      5  C   UNL A   1      32.697  24.092  25.640  1.00  0.00     0.336 C 
ATOM      6  O   UNL A   1      31.632  23.480  25.684  1.00  0.00    -0.249 OA
BRANCH   5   7
ATOM      7  C   UNL A   1      32.987  25.337  24.697  1.00  0.00     0.159 C 
ATOM      8  C   UNL A   1      34.410  25.286  24.111  1.00  0.00     0.053 C 
BRANCH   7   9
ATOM      9  N   UNL A   1      31.982  25.326  23.577  1.00  0.00    -0.366 N 
ATOM     10  H   UNL A   1      32.138  24.672  22.857  1.00  0.00     0.162 HD
BRANCH   9  11
ATOM     11  C   UNL A   1      30.851  26.138  23.442  1.00  0.00     0.038 A 
ATOM     12  C   UNL A   1      30.160  29.637  22.020  1.00  0.00     0.044 C 
ATOM     13  C   UNL A   1      29.956  28.304  22.674  1.00  0.00    -0.046 A 
ATOM     14  C   UNL A   1      28.718  27.993  23.234  1.00  0.00     0.042 A 
ATOM     15  C   UNL A   1      31.001  27.368  22.770  1.00  0.00     0.029 A 
ATOM     16  C   UNL A   1      28.538  26.759  23.838  1.00  0.00     0.125 A 
ATOM     17  F   UNL A   1      27.351  26.460  24.384  1.00  0.00    -0.207 F 
ATOM     18  C   UNL A   1      29.575  25.834  23.919  1.00  0.00     0.065 A 
ENDBRANCH   9  11
ENDBRANCH   7   9
BRANCH   7  19
ATOM     19  C   UNL A   1      32.897  26.709  25.473  1.00  0.00    -0.009 A 
ATOM     20  C   UNL A   1      33.762  27.800  25.238  1.00  0.00     0.007 A 
ATOM     21  C   UNL A   1      31.949  26.884  26.510  1.00  0.00     0.046 A 
ATOM     22  C   UNL A   1      33.653  29.004  25.954  1.00  0.00     0.003 A 
ATOM     23  C   UNL A   1      31.851  28.082  27.220  1.00  0.00     0.123 A 
ATOM     24  C   UNL A   1      32.691  29.148  26.946  1.00  0.00     0.039 A 
ATOM     25  F   UNL A   1      30.934  28.199  28.190  1.00  0.00    -0.207 F 
ENDBRANCH   7  19
ENDBRANCH   5   7
ENDBRANCH   4   5
ENDBRANCH   3   4
ENDBRANCH   2   3
ENDBRANCH   1   2
BRANCH   1  26
ATOM     26  C   UNL A   1      37.407  21.043  24.786  1.00  0.00     0.202 C 
BRANCH  26  27
ATOM     27  C   UNL A   1      38.449  19.930  24.940  1.00  0.00     0.261 C 
BRANCH  27  28
ATOM     28  O   UNL A   1      39.139  20.029  26.199  1.00  0.00    -0.460 OA
BRANCH  28  29
ATOM     29  C   UNL A   1      40.476  19.847  26.128  1.00  0.00     0.338 C 
ATOM     30  O   UNL A   1      41.075  18.928  25.583  1.00  0.00    -0.246 OA
BRANCH  29  31
ATOM     31  C   UNL A   1      41.170  21.047  26.626  1.00  0.00     0.060 A 
ATOM     32  C   UNL A   1      41.146  21.276  28.009  1.00  0.00     0.016 A 
ATOM     33  C   UNL A   1      41.774  21.963  25.763  1.00  0.00     0.016 A 
ATOM     34  C   UNL A   1      41.669  22.455  28.529  1.00  0.00     0.010 A 
ATOM     35  C   UNL A   1      42.286  23.154  26.286  1.00  0.00     0.010 A 
ATOM     36  C   UNL A   1      42.194  23.422  27.664  1.00  0.00    -0.014 A 
BRANCH  36  37
ATOM     37  C   UNL A   1      42.465  24.781  28.187  1.00  0.00     0.031 A 
ATOM     38  C   UNL A   1      43.881  25.149  28.534  1.00  0.00     0.074 A 
ATOM     39  C   UNL A   1      41.483  25.689  28.296  1.00  0.00     0.049 A 
ATOM     40  N   UNL A   1      44.358  26.282  28.983  1.00  0.00    -0.248 NA
ATOM     41  C   UNL A   1      44.895  24.100  28.342  1.00  0.00     0.031 C 
ATOM     42  C   UNL A   1      40.084  25.474  27.931  1.00  0.00     0.029 A 
ATOM     43  N   UNL A   1      41.522  26.986  28.741  1.00  0.00    -0.354 N 
ATOM     44  C   UNL A   1      45.725  26.082  29.126  1.00  0.00     0.074 A 
ATOM     45  C   UNL A   1      45.996  24.712  28.749  1.00  0.00     0.031 C 
ATOM     46  C   UNL A   1      39.398  26.607  28.159  1.00  0.00     0.029 A 
ATOM     47  C   UNL A   1      40.303  27.612  28.715  1.00  0.00     0.049 A 
ATOM     48  H   UNL A   1      42.348  27.425  29.050  1.00  0.00     0.167 HD
ATOM     49  C   UNL A   1      46.673  26.961  29.529  1.00  0.00     0.031 A 
ATOM     50  C   UNL A   1      39.955  28.853  29.105  1.00  0.00     0.031 A 
ATOM     51  C   UNL A   1      46.402  28.314  29.931  1.00  0.00     0.049 A 
ATOM     52  C   UNL A   1      41.008  29.776  29.657  1.00  0.00     0.074 A 
ATOM     53  C   UNL A   1      47.293  29.285  30.355  1.00  0.00     0.029 A 
ATOM     54  N   UNL A   1      45.139  28.884  29.971  1.00  0.00    -0.354 N 
ATOM     55  N   UNL A   1      42.299  29.582  29.777  1.00  0.00    -0.248 NA
ATOM     56  C   UNL A   1      40.550  31.092  30.126  1.00  0.00     0.031 C 
ATOM     57  C   UNL A   1      46.560  30.425  30.705  1.00  0.00     0.029 A 
ATOM     58  C   UNL A   1      45.220  30.182  30.443  1.00  0.00     0.049 A 
ATOM     59  H   UNL A   1      44.306  28.431  29.702  1.00  0.00     0.167 HD
ATOM     60  C   UNL A   1      42.812  30.759  30.308  1.00  0.00     0.074 A 
ATOM     61  C   UNL A   1      41.693  31.664  30.479  1.00  0.00     0.031 C 
ATOM     62  C   UNL A   1      44.097  31.066  30.618  1.00  0.00     0.031 A 
BRANCH  49  63
ATOM     63  C   UNL A   1      48.087  26.454  29.594  1.00  0.00    -0.014 A 
ATOM     64  C   UNL A   1      48.947  26.545  28.486  1.00  0.00     0.009 A 
ATOM     65  C   UNL A   1      48.562  25.867  30.775  1.00  0.00     0.009 A 
ATOM     66  C   UNL A   1      50.238  26.016  28.550  1.00  0.00     0.001 A 
ATOM     67  C   UNL A   1      49.863  25.364  30.844  1.00  0.00     0.001 A 
ATOM     68  C   UNL A   1      50.695  25.428  29.728  1.00  0.00     0.000 A 
ENDBRANCH  49  63
BRANCH  50  69
ATOM     69  C   UNL A   1      38.544  29.298  28.989  1.00  0.00    -0.014 A 
ATOM     70  C   UNL A   1      37.675  29.202  30.086  1.00  0.00     0.009 A 
ATOM     71  C   UNL A   1      38.058  29.821  27.781  1.00  0.00     0.009 A 
ATOM     72  C   UNL A   1      36.343  29.609  29.971  1.00  0.00     0.001 A 
ATOM     73  C   UNL A   1      36.732  30.251  27.676  1.00  0.00     0.001 A 
ATOM     74  C   UNL A   1      35.875  30.138  28.770  1.00  0.00     0.000 A 
ENDBRANCH  50  69
BRANCH  62  75
ATOM     75  C   UNL A   1      44.363  32.448  31.146  1.00  0.00    -0.014 A 
ATOM     76  C   UNL A   1      44.688  33.508  30.288  1.00  0.00     0.009 A 
ATOM     77  C   UNL A   1      44.246  32.698  32.523  1.00  0.00     0.009 A 
ATOM     78  C   UNL A   1      44.923  34.785  30.801  1.00  0.00     0.001 A 
ATOM     79  C   UNL A   1      44.455  33.981  33.030  1.00  0.00     0.001 A 
ATOM     80  C   UNL A   1      44.803  35.022  32.170  1.00  0.00     0.000 A 
ENDBRANCH  62  75
ENDBRANCH  36  37
ENDBRANCH  29  31
ENDBRANCH  28  29
ENDBRANCH  27  28
ENDBRANCH  26  27
ENDBRANCH   1  26
TORSDOF 17
ENDMDL
