MODEL 1
REMARK VINA RESULT:     -10.3      0.000      0.000
REMARK SMILES CC[C@@H](NS(=O)(=O)c1cc(C)ccc1C)C(=O)OCCOCCOC(=O)c1ccc(-c2c3nc(c(-c4ccccc4)c4ccc([nH]4)c(-c4ccccc4)c4nc(c(-c5ccccc5)c5ccc2[nH]5)C=C4)C=C3)cc1
REMARK SMILES IDX 20 1 19 2 18 3 16 4 17 5 3 6 2 7 1 8 4 9 5 11 6 12 7 13 8 14
REMARK SMILES IDX 9 15 14 16 10 17 13 18 15 19 11 20 12 21 21 22 22 23 23 24
REMARK SMILES IDX 24 25 25 26 26 27 27 28 28 29 74 30 29 31 73 32 30 33 31 34
REMARK SMILES IDX 32 35 67 36 33 37 72 38 66 39 68 40 34 41 71 42 65 43 64 44
REMARK SMILES IDX 35 46 57 47 42 48 56 49 43 50 46 51 55 52 69 53 44 54 45 55
REMARK SMILES IDX 54 57 70 58 47 59 36 60 37 61 41 62 38 63 40 64 39 65 58 66
REMARK SMILES IDX 59 67 63 68 60 69 62 70 61 71 48 72 49 73 53 74 50 75 52 76
REMARK SMILES IDX 51 77
REMARK H PARENT 4 10 68 45 46 56
REMARK Flexibility Score: inf
ROOT
ATOM      1  C   UNL A   1      36.173  23.778  24.854  1.00  0.00     0.202 C 
ENDROOT
BRANCH   1   2
ATOM      2  C   UNL A   1      34.917  24.507  24.250  1.00  0.00     0.261 C 
BRANCH   2   3
ATOM      3  O   UNL A   1      34.474  25.686  24.901  1.00  0.00    -0.462 OA
BRANCH   3   4
ATOM      4  C   UNL A   1      33.748  26.529  24.140  1.00  0.00     0.324 C 
ATOM      5  O   UNL A   1      33.563  26.422  22.936  1.00  0.00    -0.250 OA
BRANCH   4   6
ATOM      6  C   UNL A   1      32.888  27.332  25.064  1.00  0.00     0.179 C 
BRANCH   6   7
ATOM      7  C   UNL A   1      33.458  28.751  24.836  1.00  0.00     0.028 C 
ATOM      8  C   UNL A   1      33.868  29.388  26.154  1.00  0.00     0.006 C 
ENDBRANCH   6   7
BRANCH   6   9
ATOM      9  N   UNL A   1      31.404  27.269  24.709  1.00  0.00    -0.197 NA
ATOM     10  H   UNL A   1      31.321  27.009  23.727  1.00  0.00     0.142 HD
BRANCH   9  11
ATOM     11  S   UNL A   1      30.510  26.145  25.639  1.00  0.00     0.241 S 
ATOM     12  O   UNL A   1      30.525  26.664  26.982  1.00  0.00    -0.207 OA
ATOM     13  O   UNL A   1      29.273  25.998  24.902  1.00  0.00    -0.207 OA
BRANCH  11  14
ATOM     14  C   UNL A   1      31.293  24.532  25.681  1.00  0.00     0.085 A 
ATOM     15  C   UNL A   1      31.975  24.059  26.811  1.00  0.00     0.025 A 
ATOM     16  C   UNL A   1      31.208  23.704  24.534  1.00  0.00    -0.031 A 
ATOM     17  C   UNL A   1      32.546  22.762  26.803  1.00  0.00    -0.050 A 
ATOM     18  C   UNL A   1      31.799  22.430  24.537  1.00  0.00     0.005 A 
ATOM     19  C   UNL A   1      30.502  24.059  23.264  1.00  0.00     0.046 C 
ATOM     20  C   UNL A   1      33.203  22.184  28.024  1.00  0.00     0.044 C 
ATOM     21  C   UNL A   1      32.465  21.965  25.657  1.00  0.00     0.004 A 
ENDBRANCH  11  14
ENDBRANCH   9  11
ENDBRANCH   6   9
ENDBRANCH   4   6
ENDBRANCH   3   4
ENDBRANCH   2   3
ENDBRANCH   1   2
BRANCH   1  22
ATOM     22  O   UNL A   1      35.857  22.856  25.864  1.00  0.00    -0.374 OA
BRANCH  22  23
ATOM     23  C   UNL A   1      36.614  21.684  25.683  1.00  0.00     0.202 C 
BRANCH  23  24
ATOM     24  C   UNL A   1      38.180  21.783  25.534  1.00  0.00     0.261 C 
BRANCH  24  25
ATOM     25  O   UNL A   1      39.267  22.327  26.546  1.00  0.00    -0.460 OA
BRANCH  25  26
ATOM     26  C   UNL A   1      40.207  22.857  27.372  1.00  0.00     0.338 C 
ATOM     27  O   UNL A   1      40.905  22.091  28.037  1.00  0.00    -0.246 OA
BRANCH  26  28
ATOM     28  C   UNL A   1      40.470  24.346  27.597  1.00  0.00     0.060 A 
ATOM     29  C   UNL A   1      41.481  24.942  28.350  1.00  0.00     0.016 A 
ATOM     30  C   UNL A   1      39.424  25.205  27.600  1.00  0.00     0.016 A 
ATOM     31  C   UNL A   1      41.338  26.338  28.748  1.00  0.00     0.010 A 
ATOM     32  C   UNL A   1      39.569  26.543  27.298  1.00  0.00     0.010 A 
ATOM     33  C   UNL A   1      40.275  27.169  28.251  1.00  0.00    -0.014 A 
BRANCH  33  34
ATOM     34  C   UNL A   1      40.097  28.626  28.493  1.00  0.00     0.031 A 
ATOM     35  C   UNL A   1      41.368  29.277  28.241  1.00  0.00     0.074 A 
ATOM     36  C   UNL A   1      39.023  29.446  28.708  1.00  0.00     0.049 A 
ATOM     37  N   UNL A   1      42.273  29.588  29.102  1.00  0.00    -0.248 NA
ATOM     38  C   UNL A   1      41.790  29.285  26.828  1.00  0.00     0.031 C 
ATOM     39  C   UNL A   1      37.622  29.109  28.497  1.00  0.00     0.029 A 
ATOM     40  N   UNL A   1      38.929  30.757  29.192  1.00  0.00    -0.354 N 
ATOM     41  C   UNL A   1      43.268  30.127  28.316  1.00  0.00     0.074 A 
ATOM     42  C   UNL A   1      43.068  29.631  26.974  1.00  0.00     0.031 C 
ATOM     43  C   UNL A   1      36.813  30.125  28.859  1.00  0.00     0.029 A 
ATOM     44  C   UNL A   1      37.611  31.256  29.291  1.00  0.00     0.049 A 
ATOM     45  H   UNL A   1      39.719  31.288  29.442  1.00  0.00     0.167 HD
ATOM     46  C   UNL A   1      43.810  31.310  28.694  1.00  0.00     0.031 A 
ATOM     47  C   UNL A   1      37.151  32.491  29.663  1.00  0.00     0.031 A 
ATOM     48  C   UNL A   1      43.630  31.586  30.096  1.00  0.00     0.049 A 
ATOM     49  C   UNL A   1      38.256  33.239  30.311  1.00  0.00     0.074 A 
ATOM     50  C   UNL A   1      44.159  31.107  31.271  1.00  0.00     0.029 A 
ATOM     51  N   UNL A   1      42.469  32.243  30.416  1.00  0.00    -0.354 N 
ATOM     52  N   UNL A   1      38.658  33.064  31.535  1.00  0.00    -0.248 NA
ATOM     53  C   UNL A   1      39.157  34.018  29.467  1.00  0.00     0.031 C 
ATOM     54  C   UNL A   1      43.263  31.490  32.310  1.00  0.00     0.029 A 
ATOM     55  C   UNL A   1      42.205  32.218  31.768  1.00  0.00     0.049 A 
ATOM     56  H   UNL A   1      41.888  32.682  29.753  1.00  0.00     0.167 HD
ATOM     57  C   UNL A   1      40.017  33.323  31.497  1.00  0.00     0.074 A 
ATOM     58  C   UNL A   1      40.239  34.038  30.247  1.00  0.00     0.031 C 
ATOM     59  C   UNL A   1      40.902  32.648  32.287  1.00  0.00     0.031 A 
BRANCH  46  60
ATOM     60  C   UNL A   1      43.978  32.402  27.681  1.00  0.00    -0.014 A 
ATOM     61  C   UNL A   1      44.775  32.166  26.562  1.00  0.00     0.009 A 
ATOM     62  C   UNL A   1      43.571  33.736  27.919  1.00  0.00     0.009 A 
ATOM     63  C   UNL A   1      45.141  33.219  25.717  1.00  0.00     0.001 A 
ATOM     64  C   UNL A   1      43.891  34.778  27.056  1.00  0.00     0.001 A 
ATOM     65  C   UNL A   1      44.694  34.519  25.959  1.00  0.00     0.000 A 
ENDBRANCH  46  60
BRANCH  47  66
ATOM     66  C   UNL A   1      35.829  33.159  29.382  1.00  0.00    -0.014 A 
ATOM     67  C   UNL A   1      34.969  33.599  30.412  1.00  0.00     0.009 A 
ATOM     68  C   UNL A   1      35.477  33.564  28.081  1.00  0.00     0.009 A 
ATOM     69  C   UNL A   1      33.858  34.429  30.147  1.00  0.00     0.001 A 
ATOM     70  C   UNL A   1      34.357  34.361  27.808  1.00  0.00     0.001 A 
ATOM     71  C   UNL A   1      33.557  34.815  28.844  1.00  0.00     0.000 A 
ENDBRANCH  47  66
BRANCH  59  72
ATOM     72  C   UNL A   1      40.450  32.156  33.651  1.00  0.00    -0.014 A 
ATOM     73  C   UNL A   1      40.358  32.962  34.799  1.00  0.00     0.009 A 
ATOM     74  C   UNL A   1      40.001  30.829  33.770  1.00  0.00     0.009 A 
ATOM     75  C   UNL A   1      39.763  32.495  35.978  1.00  0.00     0.001 A 
ATOM     76  C   UNL A   1      39.399  30.359  34.943  1.00  0.00     0.001 A 
ATOM     77  C   UNL A   1      39.266  31.199  36.044  1.00  0.00     0.000 A 
ENDBRANCH  59  72
ENDBRANCH  33  34
ENDBRANCH  26  28
ENDBRANCH  25  26
ENDBRANCH  24  25
ENDBRANCH  23  24
ENDBRANCH  22  23
ENDBRANCH   1  22
TORSDOF 18
ENDMDL
MODEL 2
REMARK VINA RESULT:     -10.2      1.387      2.985
REMARK SMILES CC[C@@H](NS(=O)(=O)c1cc(C)ccc1C)C(=O)OCCOCCOC(=O)c1ccc(-c2c3nc(c(-c4ccccc4)c4ccc([nH]4)c(-c4ccccc4)c4nc(c(-c5ccccc5)c5ccc2[nH]5)C=C4)C=C3)cc1
REMARK SMILES IDX 20 1 19 2 18 3 16 4 17 5 3 6 2 7 1 8 4 9 5 11 6 12 7 13 8 14
REMARK SMILES IDX 9 15 14 16 10 17 13 18 15 19 11 20 12 21 21 22 22 23 23 24
REMARK SMILES IDX 24 25 25 26 26 27 27 28 28 29 74 30 29 31 73 32 30 33 31 34
REMARK SMILES IDX 32 35 67 36 33 37 72 38 66 39 68 40 34 41 71 42 65 43 64 44
REMARK SMILES IDX 35 46 57 47 42 48 56 49 43 50 46 51 55 52 69 53 44 54 45 55
REMARK SMILES IDX 54 57 70 58 47 59 36 60 37 61 41 62 38 63 40 64 39 65 58 66
REMARK SMILES IDX 59 67 63 68 60 69 62 70 61 71 48 72 49 73 53 74 50 75 52 76
REMARK SMILES IDX 51 77
REMARK H PARENT 4 10 68 45 46 56
REMARK Flexibility Score: inf
ROOT
ATOM      1  C   UNL A   1      37.674  21.403  24.939  1.00  0.00     0.202 C 
ENDROOT
BRANCH   1   2
ATOM      2  C   UNL A   1      36.253  22.021  25.206  1.00  0.00     0.261 C 
BRANCH   2   3
ATOM      3  O   UNL A   1      35.232  21.140  25.643  1.00  0.00    -0.462 OA
BRANCH   3   4
ATOM      4  C   UNL A   1      34.078  21.729  26.011  1.00  0.00     0.324 C 
ATOM      5  O   UNL A   1      33.716  21.931  27.162  1.00  0.00    -0.250 OA
BRANCH   4   6
ATOM      6  C   UNL A   1      33.546  22.452  24.814  1.00  0.00     0.179 C 
BRANCH   6   7
ATOM      7  C   UNL A   1      32.857  21.296  24.054  1.00  0.00     0.028 C 
ATOM      8  C   UNL A   1      32.491  21.720  22.641  1.00  0.00     0.006 C 
ENDBRANCH   6   7
BRANCH   6   9
ATOM      9  N   UNL A   1      32.548  23.552  25.172  1.00  0.00    -0.197 NA
ATOM     10  H   UNL A   1      32.555  23.673  26.184  1.00  0.00     0.142 HD
BRANCH   9  11
ATOM     11  S   UNL A   1      32.882  25.065  24.447  1.00  0.00     0.241 S 
ATOM     12  O   UNL A   1      34.276  25.015  24.088  1.00  0.00    -0.207 OA
ATOM     13  O   UNL A   1      31.849  25.200  23.442  1.00  0.00    -0.207 OA
BRANCH  11  14
ATOM     14  C   UNL A   1      32.677  26.423  25.600  1.00  0.00     0.085 A 
ATOM     15  C   UNL A   1      33.695  27.351  25.855  1.00  0.00     0.025 A 
ATOM     16  C   UNL A   1      31.434  26.568  26.267  1.00  0.00    -0.031 A 
ATOM     17  C   UNL A   1      33.469  28.426  26.750  1.00  0.00    -0.050 A 
ATOM     18  C   UNL A   1      31.235  27.627  27.167  1.00  0.00     0.005 A 
ATOM     19  C   UNL A   1      30.249  25.673  26.087  1.00  0.00     0.046 C 
ATOM     20  C   UNL A   1      34.502  29.493  26.978  1.00  0.00     0.044 C 
ATOM     21  C   UNL A   1      32.241  28.544  27.410  1.00  0.00     0.004 A 
ENDBRANCH  11  14
ENDBRANCH   9  11
ENDBRANCH   6   9
ENDBRANCH   4   6
ENDBRANCH   3   4
ENDBRANCH   2   3
ENDBRANCH   1   2
BRANCH   1  22
ATOM     22  O   UNL A   1      38.647  21.808  25.866  1.00  0.00    -0.374 OA
BRANCH  22  23
ATOM     23  C   UNL A   1      39.548  20.751  26.093  1.00  0.00     0.202 C 
BRANCH  23  24
ATOM     24  C   UNL A   1      41.046  21.071  26.465  1.00  0.00     0.261 C 
BRANCH  24  25
ATOM     25  O   UNL A   1      41.648  22.214  27.378  1.00  0.00    -0.460 OA
BRANCH  25  26
ATOM     26  C   UNL A   1      42.105  23.239  28.143  1.00  0.00     0.338 C 
ATOM     27  O   UNL A   1      43.160  23.089  28.759  1.00  0.00    -0.246 OA
BRANCH  26  28
ATOM     28  C   UNL A   1      41.409  24.584  28.355  1.00  0.00     0.060 A 
ATOM     29  C   UNL A   1      40.195  25.023  27.827  1.00  0.00     0.016 A 
ATOM     30  C   UNL A   1      42.163  25.688  28.567  1.00  0.00     0.016 A 
ATOM     31  C   UNL A   1      39.894  26.449  27.835  1.00  0.00     0.010 A 
ATOM     32  C   UNL A   1      41.680  26.793  29.237  1.00  0.00     0.010 A 
ATOM     33  C   UNL A   1      40.726  27.402  28.518  1.00  0.00    -0.014 A 
BRANCH  33  34
ATOM     34  C   UNL A   1      40.458  28.855  28.692  1.00  0.00     0.031 A 
ATOM     35  C   UNL A   1      41.665  29.576  28.335  1.00  0.00     0.074 A 
ATOM     36  C   UNL A   1      39.341  29.611  28.924  1.00  0.00     0.049 A 
ATOM     37  N   UNL A   1      42.590  29.995  29.126  1.00  0.00    -0.248 NA
ATOM     38  C   UNL A   1      42.011  29.531  26.902  1.00  0.00     0.031 C 
ATOM     39  C   UNL A   1      37.958  29.169  28.809  1.00  0.00     0.029 A 
ATOM     40  N   UNL A   1      39.180  30.939  29.341  1.00  0.00    -0.354 N 
ATOM     41  C   UNL A   1      43.502  30.555  28.257  1.00  0.00     0.074 A 
ATOM     42  C   UNL A   1      43.267  29.970  26.958  1.00  0.00     0.031 C 
ATOM     43  C   UNL A   1      37.100  30.147  29.162  1.00  0.00     0.029 A 
ATOM     44  C   UNL A   1      37.838  31.353  29.488  1.00  0.00     0.049 A 
ATOM     45  H   UNL A   1      39.943  31.535  29.518  1.00  0.00     0.167 HD
ATOM     46  C   UNL A   1      43.977  31.791  28.541  1.00  0.00     0.031 A 
ATOM     47  C   UNL A   1      37.311  32.573  29.818  1.00  0.00     0.031 A 
ATOM     48  C   UNL A   1      43.853  32.134  29.934  1.00  0.00     0.049 A 
ATOM     49  C   UNL A   1      38.393  33.429  30.362  1.00  0.00     0.074 A 
ATOM     50  C   UNL A   1      44.475  31.759  31.101  1.00  0.00     0.029 A 
ATOM     51  N   UNL A   1      42.666  32.728  30.284  1.00  0.00    -0.354 N 
ATOM     52  N   UNL A   1      38.870  33.352  31.570  1.00  0.00    -0.248 NA
ATOM     53  C   UNL A   1      39.192  34.218  29.429  1.00  0.00     0.031 C 
ATOM     54  C   UNL A   1      43.609  32.139  32.167  1.00  0.00     0.029 A 
ATOM     55  C   UNL A   1      42.475  32.763  31.647  1.00  0.00     0.049 A 
ATOM     56  H   UNL A   1      42.022  33.088  29.632  1.00  0.00     0.167 HD
ATOM     57  C   UNL A   1      40.204  33.700  31.441  1.00  0.00     0.074 A 
ATOM     58  C   UNL A   1      40.309  34.355  30.145  1.00  0.00     0.031 C 
ATOM     59  C   UNL A   1      41.175  33.132  32.216  1.00  0.00     0.031 A 
BRANCH  46  60
ATOM     60  C   UNL A   1      44.015  32.832  27.463  1.00  0.00    -0.014 A 
ATOM     61  C   UNL A   1      43.483  34.094  27.727  1.00  0.00     0.009 A 
ATOM     62  C   UNL A   1      44.339  32.531  26.120  1.00  0.00     0.009 A 
ATOM     63  C   UNL A   1      43.292  35.012  26.690  1.00  0.00     0.001 A 
ATOM     64  C   UNL A   1      44.198  33.459  25.093  1.00  0.00     0.001 A 
ATOM     65  C   UNL A   1      43.656  34.699  25.379  1.00  0.00     0.000 A 
ENDBRANCH  46  60
BRANCH  47  66
ATOM     66  C   UNL A   1      35.933  33.132  29.577  1.00  0.00    -0.014 A 
ATOM     67  C   UNL A   1      35.177  33.749  30.597  1.00  0.00     0.009 A 
ATOM     68  C   UNL A   1      35.412  33.254  28.275  1.00  0.00     0.009 A 
ATOM     69  C   UNL A   1      34.000  34.477  30.313  1.00  0.00     0.001 A 
ATOM     70  C   UNL A   1      34.227  33.947  27.991  1.00  0.00     0.001 A 
ATOM     71  C   UNL A   1      33.531  34.581  29.007  1.00  0.00     0.000 A 
ENDBRANCH  47  66
BRANCH  59  72
ATOM     72  C   UNL A   1      40.830  32.690  33.627  1.00  0.00    -0.014 A 
ATOM     73  C   UNL A   1      40.598  31.358  34.011  1.00  0.00     0.009 A 
ATOM     74  C   UNL A   1      40.827  33.655  34.651  1.00  0.00     0.009 A 
ATOM     75  C   UNL A   1      40.465  30.994  35.357  1.00  0.00     0.001 A 
ATOM     76  C   UNL A   1      40.701  33.296  35.997  1.00  0.00     0.001 A 
ATOM     77  C   UNL A   1      40.535  31.962  36.352  1.00  0.00     0.000 A 
ENDBRANCH  59  72
ENDBRANCH  33  34
ENDBRANCH  26  28
ENDBRANCH  25  26
ENDBRANCH  24  25
ENDBRANCH  23  24
ENDBRANCH  22  23
ENDBRANCH   1  22
TORSDOF 18
ENDMDL
MODEL 3
REMARK VINA RESULT:     -10.1      1.345      2.804
REMARK SMILES CC[C@@H](NS(=O)(=O)c1cc(C)ccc1C)C(=O)OCCOCCOC(=O)c1ccc(-c2c3nc(c(-c4ccccc4)c4ccc([nH]4)c(-c4ccccc4)c4nc(c(-c5ccccc5)c5ccc2[nH]5)C=C4)C=C3)cc1
REMARK SMILES IDX 20 1 19 2 18 3 16 4 17 5 3 6 2 7 1 8 4 9 5 11 6 12 7 13 8 14
REMARK SMILES IDX 9 15 14 16 10 17 13 18 15 19 11 20 12 21 21 22 22 23 23 24
REMARK SMILES IDX 24 25 25 26 26 27 27 28 28 29 74 30 29 31 73 32 30 33 31 34
REMARK SMILES IDX 32 35 67 36 33 37 72 38 66 39 68 40 34 41 71 42 65 43 64 44
REMARK SMILES IDX 35 46 57 47 42 48 56 49 43 50 46 51 55 52 69 53 44 54 45 55
REMARK SMILES IDX 54 57 70 58 47 59 36 60 37 61 41 62 38 63 40 64 39 65 58 66
REMARK SMILES IDX 59 67 63 68 60 69 62 70 61 71 48 72 49 73 53 74 50 75 52 76
REMARK SMILES IDX 51 77
REMARK H PARENT 4 10 68 45 46 56
REMARK Flexibility Score: inf
ROOT
ATOM      1  C   UNL A   1      35.665  21.050  25.224  1.00  0.00     0.202 C 
ENDROOT
BRANCH   1   2
ATOM      2  C   UNL A   1      34.272  20.747  25.888  1.00  0.00     0.261 C 
BRANCH   2   3
ATOM      3  O   UNL A   1      33.368  21.831  26.028  1.00  0.00    -0.462 OA
BRANCH   3   4
ATOM      4  C   UNL A   1      32.247  21.749  25.285  1.00  0.00     0.324 C 
ATOM      5  O   UNL A   1      31.406  20.864  25.360  1.00  0.00    -0.250 OA
BRANCH   4   6
ATOM      6  C   UNL A   1      32.008  23.101  24.691  1.00  0.00     0.179 C 
BRANCH   6   7
ATOM      7  C   UNL A   1      32.046  22.769  23.181  1.00  0.00     0.028 C 
ATOM      8  C   UNL A   1      32.708  23.890  22.398  1.00  0.00     0.006 C 
ENDBRANCH   6   7
BRANCH   6   9
ATOM      9  N   UNL A   1      30.662  23.702  25.091  1.00  0.00    -0.197 NA
ATOM     10  H   UNL A   1      30.185  23.039  25.701  1.00  0.00     0.142 HD
BRANCH   9  11
ATOM     11  S   UNL A   1      30.780  25.198  25.912  1.00  0.00     0.241 S 
ATOM     12  O   UNL A   1      29.429  25.543  26.271  1.00  0.00    -0.207 OA
ATOM     13  O   UNL A   1      31.790  24.958  26.920  1.00  0.00    -0.207 OA
BRANCH  11  14
ATOM     14  C   UNL A   1      31.399  26.503  24.847  1.00  0.00     0.085 A 
ATOM     15  C   UNL A   1      30.552  27.286  24.051  1.00  0.00     0.025 A 
ATOM     16  C   UNL A   1      32.793  26.757  24.822  1.00  0.00    -0.031 A 
ATOM     17  C   UNL A   1      31.089  28.327  23.254  1.00  0.00    -0.050 A 
ATOM     18  C   UNL A   1      33.310  27.778  24.009  1.00  0.00     0.005 A 
ATOM     19  C   UNL A   1      33.819  26.022  25.625  1.00  0.00     0.046 C 
ATOM     20  C   UNL A   1      30.206  29.247  22.460  1.00  0.00     0.044 C 
ATOM     21  C   UNL A   1      32.469  28.553  23.230  1.00  0.00     0.004 A 
ENDBRANCH  11  14
ENDBRANCH   9  11
ENDBRANCH   6   9
ENDBRANCH   4   6
ENDBRANCH   3   4
ENDBRANCH   2   3
ENDBRANCH   1   2
BRANCH   1  22
ATOM     22  O   UNL A   1      36.466  19.910  25.052  1.00  0.00    -0.374 OA
BRANCH  22  23
ATOM     23  C   UNL A   1      37.823  20.274  25.135  1.00  0.00     0.202 C 
BRANCH  23  24
ATOM     24  C   UNL A   1      38.212  21.781  25.383  1.00  0.00     0.261 C 
BRANCH  24  25
ATOM     25  O   UNL A   1      39.323  22.405  26.321  1.00  0.00    -0.460 OA
BRANCH  25  26
ATOM     26  C   UNL A   1      40.248  22.901  27.184  1.00  0.00     0.338 C 
ATOM     27  O   UNL A   1      40.953  22.110  27.809  1.00  0.00    -0.246 OA
BRANCH  26  28
ATOM     28  C   UNL A   1      40.485  24.379  27.495  1.00  0.00     0.060 A 
ATOM     29  C   UNL A   1      41.332  24.937  28.452  1.00  0.00     0.016 A 
ATOM     30  C   UNL A   1      39.475  25.261  27.308  1.00  0.00     0.016 A 
ATOM     31  C   UNL A   1      41.134  26.327  28.849  1.00  0.00     0.010 A 
ATOM     32  C   UNL A   1      39.700  26.602  27.076  1.00  0.00     0.010 A 
ATOM     33  C   UNL A   1      40.209  27.191  28.168  1.00  0.00    -0.014 A 
BRANCH  33  34
ATOM     34  C   UNL A   1      40.009  28.646  28.406  1.00  0.00     0.031 A 
ATOM     35  C   UNL A   1      41.298  29.299  28.275  1.00  0.00     0.074 A 
ATOM     36  C   UNL A   1      38.920  29.465  28.532  1.00  0.00     0.049 A 
ATOM     37  N   UNL A   1      42.123  29.601  29.216  1.00  0.00    -0.248 NA
ATOM     38  C   UNL A   1      41.845  29.318  26.905  1.00  0.00     0.031 C 
ATOM     39  C   UNL A   1      37.544  29.131  28.193  1.00  0.00     0.029 A 
ATOM     40  N   UNL A   1      38.783  30.772  29.017  1.00  0.00    -0.354 N 
ATOM     41  C   UNL A   1      43.184  30.146  28.526  1.00  0.00     0.074 A 
ATOM     42  C   UNL A   1      43.104  29.662  27.168  1.00  0.00     0.031 C 
ATOM     43  C   UNL A   1      36.706  30.144  28.491  1.00  0.00     0.029 A 
ATOM     44  C   UNL A   1      37.462  31.271  29.003  1.00  0.00     0.049 A 
ATOM     45  H   UNL A   1      39.548  31.300  29.341  1.00  0.00     0.167 HD
ATOM     46  C   UNL A   1      43.689  31.325  28.962  1.00  0.00     0.031 A 
ATOM     47  C   UNL A   1      36.970  32.503  29.343  1.00  0.00     0.031 A 
ATOM     48  C   UNL A   1      43.386  31.589  30.344  1.00  0.00     0.049 A 
ATOM     49  C   UNL A   1      38.013  33.244  30.093  1.00  0.00     0.074 A 
ATOM     50  C   UNL A   1      43.808  31.099  31.558  1.00  0.00     0.029 A 
ATOM     51  N   UNL A   1      42.200  32.244  30.566  1.00  0.00    -0.354 N 
ATOM     52  N   UNL A   1      38.304  33.058  31.347  1.00  0.00    -0.248 NA
ATOM     53  C   UNL A   1      38.986  34.030  29.341  1.00  0.00     0.031 C 
ATOM     54  C   UNL A   1      42.821  31.474  32.516  1.00  0.00     0.029 A 
ATOM     55  C   UNL A   1      41.816  32.208  31.888  1.00  0.00     0.049 A 
ATOM     56  H   UNL A   1      41.681  32.690  29.857  1.00  0.00     0.167 HD
ATOM     57  C   UNL A   1      39.662  33.317  31.433  1.00  0.00     0.074 A 
ATOM     58  C   UNL A   1      39.994  34.042  30.214  1.00  0.00     0.031 C 
ATOM     59  C   UNL A   1      40.472  32.634  32.293  1.00  0.00     0.031 A 
BRANCH  46  60
ATOM     60  C   UNL A   1      43.948  32.426  27.977  1.00  0.00    -0.014 A 
ATOM     61  C   UNL A   1      43.359  33.672  28.190  1.00  0.00     0.009 A 
ATOM     62  C   UNL A   1      44.556  32.201  26.720  1.00  0.00     0.009 A 
ATOM     63  C   UNL A   1      43.386  34.648  27.189  1.00  0.00     0.001 A 
ATOM     64  C   UNL A   1      44.630  33.186  25.741  1.00  0.00     0.001 A 
ATOM     65  C   UNL A   1      44.027  34.409  25.973  1.00  0.00     0.000 A 
ENDBRANCH  46  60
BRANCH  47  66
ATOM     66  C   UNL A   1      35.679  33.174  28.951  1.00  0.00    -0.014 A 
ATOM     67  C   UNL A   1      34.790  32.613  28.009  1.00  0.00     0.009 A 
ATOM     68  C   UNL A   1      35.194  34.292  29.655  1.00  0.00     0.009 A 
ATOM     69  C   UNL A   1      33.484  33.120  27.826  1.00  0.00     0.001 A 
ATOM     70  C   UNL A   1      33.911  34.820  29.455  1.00  0.00     0.001 A 
ATOM     71  C   UNL A   1      33.044  34.220  28.556  1.00  0.00     0.000 A 
ENDBRANCH  47  66
BRANCH  59  72
ATOM     72  C   UNL A   1      39.900  32.131  33.607  1.00  0.00    -0.014 A 
ATOM     73  C   UNL A   1      39.868  32.873  34.799  1.00  0.00     0.009 A 
ATOM     74  C   UNL A   1      39.273  30.872  33.626  1.00  0.00     0.009 A 
ATOM     75  C   UNL A   1      39.165  32.425  35.925  1.00  0.00     0.001 A 
ATOM     76  C   UNL A   1      38.564  30.421  34.745  1.00  0.00     0.001 A 
ATOM     77  C   UNL A   1      38.497  31.206  35.892  1.00  0.00     0.000 A 
ENDBRANCH  59  72
ENDBRANCH  33  34
ENDBRANCH  26  28
ENDBRANCH  25  26
ENDBRANCH  24  25
ENDBRANCH  23  24
ENDBRANCH  22  23
ENDBRANCH   1  22
TORSDOF 18
ENDMDL
