MODEL 1
REMARK VINA RESULT:      -9.7      0.000      0.000
REMARK SMILES COc1ccc(-n2c(SCC(=O)OCCOCCOC(=O)c3ccc(-c4c5nc(c(-c6ccccc6)c6ccc([nH]6)c(-c6ccccc6)c6nc(c(-c7ccccc7)c7ccc4[nH]7)C=C6)C=C5)cc3)nc3sc4c(c3c2=O)CC[N@H+](C)C4)cc1
REMARK SMILES IDX 15 1 14 2 13 3 11 4 12 5 10 6 9 7 8 8 7 9 76 10 70 11 75 12
REMARK SMILES IDX 77 13 71 14 74 15 72 16 73 17 78 18 82 19 79 20 80 21 81 22
REMARK SMILES IDX 6 24 3 25 4 26 84 27 5 28 83 29 2 30 1 31 16 32 17 33 18 34
REMARK SMILES IDX 19 35 20 36 21 37 22 38 23 39 69 40 24 41 68 42 25 43 26 44
REMARK SMILES IDX 27 45 62 46 28 47 67 48 61 49 63 50 29 51 66 52 60 53 59 54
REMARK SMILES IDX 30 56 52 57 37 58 51 59 38 60 41 61 50 62 64 63 39 64 40 65
REMARK SMILES IDX 49 67 65 68 42 69 31 70 32 71 36 72 33 73 35 74 34 75 53 76
REMARK SMILES IDX 54 77 58 78 55 79 57 80 56 81 43 82 44 83 48 84 45 85 47 86
REMARK SMILES IDX 46 87
REMARK H PARENT 80 23 63 55 41 66
REMARK Flexibility Score: inf
ROOT
ATOM      1  C   UNL A   1      45.693  32.105  26.297  1.00  0.00     0.202 C 
ENDROOT
BRANCH   1   2
ATOM      2  C   UNL A   1      46.059  30.625  26.356  1.00  0.00     0.261 C 
BRANCH   2   3
ATOM      3  O   UNL A   1      47.473  30.367  26.555  1.00  0.00    -0.463 OA
BRANCH   3   4
ATOM      4  C   UNL A   1      47.690  29.672  27.708  1.00  0.00     0.316 C 
ATOM      5  O   UNL A   1      47.521  30.177  28.821  1.00  0.00    -0.251 OA
BRANCH   4   6
ATOM      6  C   UNL A   1      47.941  28.184  27.607  1.00  0.00     0.200 C 
BRANCH   6   7
ATOM      7  S   UNL A   1      47.031  26.904  28.408  1.00  0.00    -0.076 SA
BRANCH   7   8
ATOM      8  C   UNL A   1      45.952  25.806  27.579  1.00  0.00     0.177 A 
ATOM      9  N   UNL A   1      45.759  25.576  26.189  1.00  0.00    -0.255 N 
ATOM     10  C   UNL A   1      44.771  24.629  25.772  1.00  0.00     0.267 A 
ATOM     11  N   UNL A   1      45.163  25.311  28.493  1.00  0.00    -0.212 NA
ATOM     12  C   UNL A   1      43.911  24.110  26.817  1.00  0.00     0.081 A 
ATOM     13  O   UNL A   1      44.652  24.188  24.631  1.00  0.00    -0.268 OA
ATOM     14  C   UNL A   1      44.144  24.530  28.096  1.00  0.00     0.132 A 
ATOM     15  C   UNL A   1      42.864  23.132  26.763  1.00  0.00    -0.008 A 
ATOM     16  S   UNL A   1      42.978  23.944  29.195  1.00  0.00    -0.114 S 
ATOM     17  C   UNL A   1      42.219  23.022  27.982  1.00  0.00     0.065 A 
ATOM     18  C   UNL A   1      42.421  22.301  25.594  1.00  0.00     0.099 C 
ATOM     19  C   UNL A   1      41.028  22.143  28.256  1.00  0.00     0.310 C 
ATOM     20  C   UNL A   1      41.417  21.206  26.041  1.00  0.00     0.267 C 
ATOM     21  N   UNL A   1      40.391  21.652  27.010  1.00  0.00    -0.333 N 
ATOM     22  C   UNL A   1      39.494  22.650  26.427  1.00  0.00     0.333 C 
ATOM     23  H   UNL A   1      39.815  20.845  27.251  1.00  0.00     0.348 HD
BRANCH   9  24
ATOM     24  C   UNL A   1      46.552  26.120  25.113  1.00  0.00     0.052 A 
ATOM     25  C   UNL A   1      48.281  27.505  23.316  1.00  0.00     0.119 A 
ATOM     26  C   UNL A   1      48.636  26.257  23.826  1.00  0.00     0.048 A 
ATOM     27  C   UNL A   1      47.051  28.033  23.658  1.00  0.00     0.048 A 
ATOM     28  C   UNL A   1      47.779  25.571  24.710  1.00  0.00     0.030 A 
ATOM     29  C   UNL A   1      46.246  27.355  24.571  1.00  0.00     0.030 A 
BRANCH  25  30
ATOM     30  O   UNL A   1      49.189  28.140  22.518  1.00  0.00    -0.497 OA
ATOM     31  C   UNL A   1      49.014  27.912  21.117  1.00  0.00     0.278 C 
ENDBRANCH  25  30
ENDBRANCH   9  24
ENDBRANCH   7   8
ENDBRANCH   6   7
ENDBRANCH   4   6
ENDBRANCH   3   4
ENDBRANCH   2   3
ENDBRANCH   1   2
BRANCH   1  32
ATOM     32  O   UNL A   1      44.940  32.528  25.168  1.00  0.00    -0.374 OA
BRANCH  32  33
ATOM     33  C   UNL A   1      43.802  33.348  25.378  1.00  0.00     0.202 C 
BRANCH  33  34
ATOM     34  C   UNL A   1      43.978  34.871  25.393  1.00  0.00     0.261 C 
BRANCH  34  35
ATOM     35  O   UNL A   1      42.983  35.608  26.082  1.00  0.00    -0.460 OA
BRANCH  35  36
ATOM     36  C   UNL A   1      43.444  36.299  27.142  1.00  0.00     0.338 C 
ATOM     37  O   UNL A   1      44.075  37.335  27.152  1.00  0.00    -0.246 OA
BRANCH  36  38
ATOM     38  C   UNL A   1      43.005  35.572  28.330  1.00  0.00     0.060 A 
ATOM     39  C   UNL A   1      43.952  35.213  29.289  1.00  0.00     0.016 A 
ATOM     40  C   UNL A   1      41.665  35.198  28.443  1.00  0.00     0.016 A 
ATOM     41  C   UNL A   1      43.559  34.412  30.354  1.00  0.00     0.010 A 
ATOM     42  C   UNL A   1      41.283  34.380  29.496  1.00  0.00     0.010 A 
ATOM     43  C   UNL A   1      42.231  33.963  30.443  1.00  0.00    -0.014 A 
BRANCH  43  44
ATOM     44  C   UNL A   1      41.873  33.020  31.521  1.00  0.00     0.031 A 
ATOM     45  C   UNL A   1      40.455  33.064  31.981  1.00  0.00     0.074 A 
ATOM     46  C   UNL A   1      42.538  31.849  31.638  1.00  0.00     0.049 A 
ATOM     47  N   UNL A   1      39.496  32.477  31.324  1.00  0.00    -0.248 NA
ATOM     48  C   UNL A   1      39.989  33.973  33.025  1.00  0.00     0.031 C 
ATOM     49  C   UNL A   1      43.237  31.199  30.517  1.00  0.00     0.029 A 
ATOM     50  N   UNL A   1      42.539  30.901  32.632  1.00  0.00    -0.354 N 
ATOM     51  C   UNL A   1      38.307  33.000  31.787  1.00  0.00     0.074 A 
ATOM     52  C   UNL A   1      38.656  33.892  32.872  1.00  0.00     0.031 C 
ATOM     53  C   UNL A   1      43.422  29.899  30.820  1.00  0.00     0.029 A 
ATOM     54  C   UNL A   1      43.017  29.665  32.200  1.00  0.00     0.049 A 
ATOM     55  H   UNL A   1      42.235  31.076  33.551  1.00  0.00     0.167 HD
ATOM     56  C   UNL A   1      37.104  32.712  31.223  1.00  0.00     0.031 A 
ATOM     57  C   UNL A   1      42.619  28.458  32.686  1.00  0.00     0.031 A 
ATOM     58  C   UNL A   1      37.132  31.830  30.094  1.00  0.00     0.049 A 
ATOM     59  C   UNL A   1      41.197  28.388  32.192  1.00  0.00     0.074 A 
ATOM     60  C   UNL A   1      37.105  31.938  28.720  1.00  0.00     0.029 A 
ATOM     61  N   UNL A   1      37.250  30.483  30.327  1.00  0.00    -0.354 N 
ATOM     62  N   UNL A   1      40.804  28.055  30.994  1.00  0.00    -0.248 NA
ATOM     63  C   UNL A   1      40.171  29.032  33.013  1.00  0.00     0.031 C 
ATOM     64  C   UNL A   1      37.656  30.714  28.226  1.00  0.00     0.029 A 
ATOM     65  C   UNL A   1      38.040  29.963  29.336  1.00  0.00     0.049 A 
ATOM     66  H   UNL A   1      36.841  29.982  31.069  1.00  0.00     0.167 HD
ATOM     67  C   UNL A   1      39.585  28.710  30.806  1.00  0.00     0.074 A 
ATOM     68  C   UNL A   1      39.236  29.260  32.101  1.00  0.00     0.031 C 
ATOM     69  C   UNL A   1      39.030  28.934  29.577  1.00  0.00     0.031 A 
BRANCH  56  70
ATOM     70  C   UNL A   1      35.809  33.170  31.758  1.00  0.00    -0.014 A 
ATOM     71  C   UNL A   1      35.156  34.215  31.084  1.00  0.00     0.009 A 
ATOM     72  C   UNL A   1      35.312  32.732  32.989  1.00  0.00     0.009 A 
ATOM     73  C   UNL A   1      34.048  34.841  31.648  1.00  0.00     0.001 A 
ATOM     74  C   UNL A   1      34.193  33.356  33.548  1.00  0.00     0.001 A 
ATOM     75  C   UNL A   1      33.571  34.416  32.884  1.00  0.00     0.000 A 
ENDBRANCH  56  70
BRANCH  57  76
ATOM     76  C   UNL A   1      42.988  28.177  34.110  1.00  0.00    -0.014 A 
ATOM     77  C   UNL A   1      44.186  28.729  34.612  1.00  0.00     0.009 A 
ATOM     78  C   UNL A   1      42.239  27.374  34.981  1.00  0.00     0.009 A 
ATOM     79  C   UNL A   1      44.561  28.569  35.949  1.00  0.00     0.001 A 
ATOM     80  C   UNL A   1      42.596  27.238  36.328  1.00  0.00     0.001 A 
ATOM     81  C   UNL A   1      43.749  27.845  36.814  1.00  0.00     0.000 A 
ENDBRANCH  57  76
BRANCH  69  82
ATOM     82  C   UNL A   1      39.692  28.254  28.420  1.00  0.00    -0.014 A 
ATOM     83  C   UNL A   1      40.558  28.966  27.580  1.00  0.00     0.009 A 
ATOM     84  C   UNL A   1      39.491  26.885  28.174  1.00  0.00     0.009 A 
ATOM     85  C   UNL A   1      41.222  28.323  26.533  1.00  0.00     0.001 A 
ATOM     86  C   UNL A   1      40.171  26.237  27.141  1.00  0.00     0.001 A 
ATOM     87  C   UNL A   1      41.038  26.958  26.322  1.00  0.00     0.000 A 
ENDBRANCH  69  82
ENDBRANCH  43  44
ENDBRANCH  36  38
ENDBRANCH  35  36
ENDBRANCH  34  35
ENDBRANCH  33  34
ENDBRANCH  32  33
ENDBRANCH   1  32
TORSDOF 18
ENDMDL
MODEL 2
REMARK VINA RESULT:      -9.5      5.905     12.197
REMARK SMILES COc1ccc(-n2c(SCC(=O)OCCOCCOC(=O)c3ccc(-c4c5nc(c(-c6ccccc6)c6ccc([nH]6)c(-c6ccccc6)c6nc(c(-c7ccccc7)c7ccc4[nH]7)C=C6)C=C5)cc3)nc3sc4c(c3c2=O)CC[N@H+](C)C4)cc1
REMARK SMILES IDX 15 1 14 2 13 3 11 4 12 5 10 6 9 7 8 8 7 9 76 10 70 11 75 12
REMARK SMILES IDX 77 13 71 14 74 15 72 16 73 17 78 18 82 19 79 20 80 21 81 22
REMARK SMILES IDX 6 24 3 25 4 26 84 27 5 28 83 29 2 30 1 31 16 32 17 33 18 34
REMARK SMILES IDX 19 35 20 36 21 37 22 38 23 39 69 40 24 41 68 42 25 43 26 44
REMARK SMILES IDX 27 45 62 46 28 47 67 48 61 49 63 50 29 51 66 52 60 53 59 54
REMARK SMILES IDX 30 56 52 57 37 58 51 59 38 60 41 61 50 62 64 63 39 64 40 65
REMARK SMILES IDX 49 67 65 68 42 69 31 70 32 71 36 72 33 73 35 74 34 75 53 76
REMARK SMILES IDX 54 77 58 78 55 79 57 80 56 81 43 82 44 83 48 84 45 85 47 86
REMARK SMILES IDX 46 87
REMARK H PARENT 80 23 63 55 41 66
REMARK Flexibility Score: inf
ROOT
ATOM      1  C   UNL A   1      38.623  22.321  26.126  1.00  0.00     0.202 C 
ENDROOT
BRANCH   1   2
ATOM      2  C   UNL A   1      37.248  22.083  25.509  1.00  0.00     0.261 C 
BRANCH   2   3
ATOM      3  O   UNL A   1      37.150  22.451  24.109  1.00  0.00    -0.463 OA
BRANCH   3   4
ATOM      4  C   UNL A   1      36.025  23.182  23.868  1.00  0.00     0.316 C 
ATOM      5  O   UNL A   1      35.590  23.362  22.728  1.00  0.00    -0.251 OA
BRANCH   4   6
ATOM      6  C   UNL A   1      35.179  23.600  25.051  1.00  0.00     0.200 C 
BRANCH   6   7
ATOM      7  S   UNL A   1      34.484  25.193  25.341  1.00  0.00    -0.076 SA
BRANCH   7   8
ATOM      8  C   UNL A   1      32.902  25.686  24.785  1.00  0.00     0.177 A 
ATOM      9  N   UNL A   1      31.866  24.935  24.165  1.00  0.00    -0.255 N 
ATOM     10  C   UNL A   1      30.663  25.602  23.773  1.00  0.00     0.267 A 
ATOM     11  N   UNL A   1      32.874  26.988  24.873  1.00  0.00    -0.212 NA
ATOM     12  C   UNL A   1      30.677  27.047  23.880  1.00  0.00     0.081 A 
ATOM     13  O   UNL A   1      29.625  25.040  23.428  1.00  0.00    -0.268 OA
ATOM     14  C   UNL A   1      31.804  27.634  24.379  1.00  0.00     0.132 A 
ATOM     15  C   UNL A   1      29.648  28.011  23.620  1.00  0.00    -0.008 A 
ATOM     16  S   UNL A   1      31.728  29.338  24.323  1.00  0.00    -0.114 S 
ATOM     17  C   UNL A   1      30.130  29.302  23.739  1.00  0.00     0.065 A 
ATOM     18  C   UNL A   1      28.217  27.769  23.235  1.00  0.00     0.099 C 
ATOM     19  C   UNL A   1      29.338  30.552  23.463  1.00  0.00     0.310 C 
ATOM     20  C   UNL A   1      27.399  29.087  23.286  1.00  0.00     0.267 C 
ATOM     21  N   UNL A   1      28.083  30.273  22.723  1.00  0.00    -0.333 N 
ATOM     22  C   UNL A   1      28.318  30.131  21.287  1.00  0.00     0.333 C 
ATOM     23  H   UNL A   1      27.466  31.077  22.841  1.00  0.00     0.348 HD
BRANCH   9  24
ATOM     24  C   UNL A   1      31.839  23.503  23.983  1.00  0.00     0.052 A 
ATOM     25  C   UNL A   1      32.264  20.705  23.629  1.00  0.00     0.119 A 
ATOM     26  C   UNL A   1      31.882  21.216  24.868  1.00  0.00     0.048 A 
ATOM     27  C   UNL A   1      32.382  21.576  22.563  1.00  0.00     0.048 A 
ATOM     28  C   UNL A   1      31.667  22.598  25.042  1.00  0.00     0.030 A 
ATOM     29  C   UNL A   1      32.210  22.942  22.774  1.00  0.00     0.030 A 
BRANCH  25  30
ATOM     30  O   UNL A   1      32.519  19.366  23.552  1.00  0.00    -0.497 OA
ATOM     31  C   UNL A   1      32.759  18.732  24.811  1.00  0.00     0.278 C 
ENDBRANCH  25  30
ENDBRANCH   9  24
ENDBRANCH   7   8
ENDBRANCH   6   7
ENDBRANCH   4   6
ENDBRANCH   3   4
ENDBRANCH   2   3
ENDBRANCH   1   2
BRANCH   1  32
ATOM     32  O   UNL A   1      39.635  21.376  25.806  1.00  0.00    -0.374 OA
BRANCH  32  33
ATOM     33  C   UNL A   1      40.723  21.214  26.702  1.00  0.00     0.202 C 
BRANCH  33  34
ATOM     34  C   UNL A   1      42.007  20.548  26.194  1.00  0.00     0.261 C 
BRANCH  34  35
ATOM     35  O   UNL A   1      43.223  21.178  26.561  1.00  0.00    -0.460 OA
BRANCH  35  36
ATOM     36  C   UNL A   1      43.896  21.720  25.529  1.00  0.00     0.338 C 
ATOM     37  O   UNL A   1      44.292  21.180  24.517  1.00  0.00    -0.246 OA
BRANCH  36  38
ATOM     38  C   UNL A   1      44.044  23.141  25.835  1.00  0.00     0.060 A 
ATOM     39  C   UNL A   1      44.706  23.512  27.005  1.00  0.00     0.016 A 
ATOM     40  C   UNL A   1      43.464  24.084  24.987  1.00  0.00     0.016 A 
ATOM     41  C   UNL A   1      44.736  24.855  27.363  1.00  0.00     0.010 A 
ATOM     42  C   UNL A   1      43.478  25.420  25.359  1.00  0.00     0.010 A 
ATOM     43  C   UNL A   1      44.092  25.810  26.560  1.00  0.00    -0.014 A 
BRANCH  43  44
ATOM     44  C   UNL A   1      44.043  27.209  27.026  1.00  0.00     0.031 A 
ATOM     45  C   UNL A   1      43.668  27.407  28.457  1.00  0.00     0.074 A 
ATOM     46  C   UNL A   1      44.836  28.138  26.448  1.00  0.00     0.049 A 
ATOM     47  N   UNL A   1      44.526  27.249  29.425  1.00  0.00    -0.248 NA
ATOM     48  C   UNL A   1      42.283  27.521  28.904  1.00  0.00     0.031 C 
ATOM     49  C   UNL A   1      46.089  27.811  25.748  1.00  0.00     0.029 A 
ATOM     50  N   UNL A   1      44.857  29.507  26.553  1.00  0.00    -0.354 N 
ATOM     51  C   UNL A   1      43.802  27.142  30.594  1.00  0.00     0.074 A 
ATOM     52  C   UNL A   1      42.418  27.362  30.231  1.00  0.00     0.031 C 
ATOM     53  C   UNL A   1      46.841  28.926  25.665  1.00  0.00     0.029 A 
ATOM     54  C   UNL A   1      46.066  30.064  26.143  1.00  0.00     0.049 A 
ATOM     55  H   UNL A   1      44.098  30.039  26.884  1.00  0.00     0.167 HD
ATOM     56  C   UNL A   1      44.372  26.832  31.788  1.00  0.00     0.031 A 
ATOM     57  C   UNL A   1      46.613  31.205  26.641  1.00  0.00     0.031 A 
ATOM     58  C   UNL A   1      45.786  26.603  31.773  1.00  0.00     0.049 A 
ATOM     59  C   UNL A   1      46.970  30.781  28.043  1.00  0.00     0.074 A 
ATOM     60  C   UNL A   1      46.640  25.521  31.735  1.00  0.00     0.029 A 
ATOM     61  N   UNL A   1      46.618  27.695  31.757  1.00  0.00    -0.354 N 
ATOM     62  N   UNL A   1      48.020  30.099  28.406  1.00  0.00    -0.248 NA
ATOM     63  C   UNL A   1      45.919  30.868  29.057  1.00  0.00     0.031 C 
ATOM     64  C   UNL A   1      47.885  26.030  31.247  1.00  0.00     0.029 A 
ATOM     65  C   UNL A   1      47.689  27.381  30.962  1.00  0.00     0.049 A 
ATOM     66  H   UNL A   1      46.472  28.545  32.230  1.00  0.00     0.167 HD
ATOM     67  C   UNL A   1      47.642  29.424  29.569  1.00  0.00     0.074 A 
ATOM     68  C   UNL A   1      46.351  29.974  29.935  1.00  0.00     0.031 C 
ATOM     69  C   UNL A   1      48.300  28.330  30.055  1.00  0.00     0.031 A 
BRANCH  56  70
ATOM     70  C   UNL A   1      43.644  26.814  33.071  1.00  0.00    -0.014 A 
ATOM     71  C   UNL A   1      43.252  28.046  33.617  1.00  0.00     0.009 A 
ATOM     72  C   UNL A   1      43.498  25.649  33.831  1.00  0.00     0.009 A 
ATOM     73  C   UNL A   1      42.759  28.123  34.916  1.00  0.00     0.001 A 
ATOM     74  C   UNL A   1      42.992  25.728  35.132  1.00  0.00     0.001 A 
ATOM     75  C   UNL A   1      42.637  26.964  35.677  1.00  0.00     0.000 A 
ENDBRANCH  56  70
BRANCH  57  76
ATOM     76  C   UNL A   1      45.860  32.467  26.353  1.00  0.00    -0.014 A 
ATOM     77  C   UNL A   1      46.540  33.696  26.476  1.00  0.00     0.009 A 
ATOM     78  C   UNL A   1      44.505  32.518  25.994  1.00  0.00     0.009 A 
ATOM     79  C   UNL A   1      45.925  34.909  26.155  1.00  0.00     0.001 A 
ATOM     80  C   UNL A   1      43.894  33.728  25.644  1.00  0.00     0.001 A 
ATOM     81  C   UNL A   1      44.607  34.921  25.712  1.00  0.00     0.000 A 
ENDBRANCH  57  76
BRANCH  69  82
ATOM     82  C   UNL A   1      49.600  27.993  29.392  1.00  0.00    -0.014 A 
ATOM     83  C   UNL A   1      50.812  28.413  29.955  1.00  0.00     0.009 A 
ATOM     84  C   UNL A   1      49.635  27.221  28.218  1.00  0.00     0.009 A 
ATOM     85  C   UNL A   1      52.029  28.053  29.372  1.00  0.00     0.001 A 
ATOM     86  C   UNL A   1      50.851  26.844  27.647  1.00  0.00     0.001 A 
ATOM     87  C   UNL A   1      52.048  27.260  28.227  1.00  0.00     0.000 A 
ENDBRANCH  69  82
ENDBRANCH  43  44
ENDBRANCH  36  38
ENDBRANCH  35  36
ENDBRANCH  34  35
ENDBRANCH  33  34
ENDBRANCH  32  33
ENDBRANCH   1  32
TORSDOF 18
ENDMDL
MODEL 3
REMARK VINA RESULT:      -9.3      5.760     11.335
REMARK SMILES COc1ccc(-n2c(SCC(=O)OCCOCCOC(=O)c3ccc(-c4c5nc(c(-c6ccccc6)c6ccc([nH]6)c(-c6ccccc6)c6nc(c(-c7ccccc7)c7ccc4[nH]7)C=C6)C=C5)cc3)nc3sc4c(c3c2=O)CC[N@H+](C)C4)cc1
REMARK SMILES IDX 15 1 14 2 13 3 11 4 12 5 10 6 9 7 8 8 7 9 76 10 70 11 75 12
REMARK SMILES IDX 77 13 71 14 74 15 72 16 73 17 78 18 82 19 79 20 80 21 81 22
REMARK SMILES IDX 6 24 3 25 4 26 84 27 5 28 83 29 2 30 1 31 16 32 17 33 18 34
REMARK SMILES IDX 19 35 20 36 21 37 22 38 23 39 69 40 24 41 68 42 25 43 26 44
REMARK SMILES IDX 27 45 62 46 28 47 67 48 61 49 63 50 29 51 66 52 60 53 59 54
REMARK SMILES IDX 30 56 52 57 37 58 51 59 38 60 41 61 50 62 64 63 39 64 40 65
REMARK SMILES IDX 49 67 65 68 42 69 31 70 32 71 36 72 33 73 35 74 34 75 53 76
REMARK SMILES IDX 54 77 58 78 55 79 57 80 56 81 43 82 44 83 48 84 45 85 47 86
REMARK SMILES IDX 46 87
REMARK H PARENT 80 23 63 55 41 66
REMARK Flexibility Score: inf
ROOT
ATOM      1  C   UNL A   1      39.202  21.814  26.112  1.00  0.00     0.202 C 
ENDROOT
BRANCH   1   2
ATOM      2  C   UNL A   1      38.136  22.864  25.813  1.00  0.00     0.261 C 
BRANCH   2   3
ATOM      3  O   UNL A   1      36.786  22.458  26.158  1.00  0.00    -0.463 OA
BRANCH   3   4
ATOM      4  C   UNL A   1      35.972  22.473  25.065  1.00  0.00     0.316 C 
ATOM      5  O   UNL A   1      35.444  21.449  24.625  1.00  0.00    -0.251 OA
BRANCH   4   6
ATOM      6  C   UNL A   1      35.544  23.815  24.512  1.00  0.00     0.200 C 
BRANCH   6   7
ATOM      7  S   UNL A   1      34.570  25.033  25.333  1.00  0.00    -0.076 SA
BRANCH   7   8
ATOM      8  C   UNL A   1      32.992  25.552  24.788  1.00  0.00     0.177 A 
ATOM      9  N   UNL A   1      31.946  24.822  24.158  1.00  0.00    -0.255 N 
ATOM     10  C   UNL A   1      30.750  25.508  23.780  1.00  0.00     0.267 A 
ATOM     11  N   UNL A   1      32.978  26.853  24.898  1.00  0.00    -0.212 NA
ATOM     12  C   UNL A   1      30.780  26.951  23.911  1.00  0.00     0.081 A 
ATOM     13  O   UNL A   1      29.705  24.964  23.429  1.00  0.00    -0.268 OA
ATOM     14  C   UNL A   1      31.915  27.518  24.417  1.00  0.00     0.132 A 
ATOM     15  C   UNL A   1      29.761  27.931  23.669  1.00  0.00    -0.008 A 
ATOM     16  S   UNL A   1      31.858  29.224  24.388  1.00  0.00    -0.114 S 
ATOM     17  C   UNL A   1      30.258  29.214  23.807  1.00  0.00     0.065 A 
ATOM     18  C   UNL A   1      28.327  27.711  23.283  1.00  0.00     0.099 C 
ATOM     19  C   UNL A   1      29.478  30.477  23.554  1.00  0.00     0.310 C 
ATOM     20  C   UNL A   1      27.523  29.036  23.357  1.00  0.00     0.267 C 
ATOM     21  N   UNL A   1      28.219  30.224  22.812  1.00  0.00    -0.333 N 
ATOM     22  C   UNL A   1      28.450  30.102  21.373  1.00  0.00     0.333 C 
ATOM     23  H   UNL A   1      27.611  31.032  22.944  1.00  0.00     0.348 HD
BRANCH   9  24
ATOM     24  C   UNL A   1      31.903  23.394  23.954  1.00  0.00     0.052 A 
ATOM     25  C   UNL A   1      32.296  20.600  23.530  1.00  0.00     0.119 A 
ATOM     26  C   UNL A   1      31.979  21.091  24.796  1.00  0.00     0.048 A 
ATOM     27  C   UNL A   1      32.365  21.490  22.475  1.00  0.00     0.048 A 
ATOM     28  C   UNL A   1      31.780  22.471  25.004  1.00  0.00     0.030 A 
ATOM     29  C   UNL A   1      32.210  22.853  22.718  1.00  0.00     0.030 A 
BRANCH  25  30
ATOM     30  O   UNL A   1      32.540  19.262  23.417  1.00  0.00    -0.497 OA
ATOM     31  C   UNL A   1      32.778  18.593  24.659  1.00  0.00     0.278 C 
ENDBRANCH  25  30
ENDBRANCH   9  24
ENDBRANCH   7   8
ENDBRANCH   6   7
ENDBRANCH   4   6
ENDBRANCH   3   4
ENDBRANCH   2   3
ENDBRANCH   1   2
BRANCH   1  32
ATOM     32  O   UNL A   1      39.955  21.995  27.303  1.00  0.00    -0.374 OA
BRANCH  32  33
ATOM     33  C   UNL A   1      41.161  21.266  27.464  1.00  0.00     0.202 C 
BRANCH  33  34
ATOM     34  C   UNL A   1      42.065  21.049  26.244  1.00  0.00     0.261 C 
BRANCH  34  35
ATOM     35  O   UNL A   1      42.608  22.218  25.656  1.00  0.00    -0.460 OA
BRANCH  35  36
ATOM     36  C   UNL A   1      43.907  22.427  25.943  1.00  0.00     0.338 C 
ATOM     37  O   UNL A   1      44.801  21.612  26.037  1.00  0.00    -0.246 OA
BRANCH  36  38
ATOM     38  C   UNL A   1      44.068  23.871  26.095  1.00  0.00     0.060 A 
ATOM     39  C   UNL A   1      43.518  24.496  27.213  1.00  0.00     0.016 A 
ATOM     40  C   UNL A   1      44.708  24.594  25.088  1.00  0.00     0.016 A 
ATOM     41  C   UNL A   1      43.559  25.883  27.295  1.00  0.00     0.010 A 
ATOM     42  C   UNL A   1      44.726  25.979  25.163  1.00  0.00     0.010 A 
ATOM     43  C   UNL A   1      44.131  26.632  26.254  1.00  0.00    -0.014 A 
BRANCH  43  44
ATOM     44  C   UNL A   1      44.055  28.104  26.317  1.00  0.00     0.031 A 
ATOM     45  C   UNL A   1      42.741  28.672  26.737  1.00  0.00     0.074 A 
ATOM     46  C   UNL A   1      45.168  28.823  26.586  1.00  0.00     0.049 A 
ATOM     47  N   UNL A   1      42.379  28.728  27.987  1.00  0.00    -0.248 NA
ATOM     48  C   UNL A   1      41.662  28.953  25.793  1.00  0.00     0.031 C 
ATOM     49  C   UNL A   1      46.330  28.278  27.306  1.00  0.00     0.029 A 
ATOM     50  N   UNL A   1      45.415  30.173  26.520  1.00  0.00    -0.354 N 
ATOM     51  C   UNL A   1      41.018  28.950  28.006  1.00  0.00     0.074 A 
ATOM     52  C   UNL A   1      40.621  29.128  26.625  1.00  0.00     0.031 C 
ATOM     53  C   UNL A   1      47.062  29.304  27.782  1.00  0.00     0.029 A 
ATOM     54  C   UNL A   1      46.527  30.557  27.266  1.00  0.00     0.049 A 
ATOM     55  H   UNL A   1      44.864  30.802  26.001  1.00  0.00     0.167 HD
ATOM     56  C   UNL A   1      40.282  28.927  29.148  1.00  0.00     0.031 A 
ATOM     57  C   UNL A   1      46.683  31.763  27.875  1.00  0.00     0.031 A 
ATOM     58  C   UNL A   1      41.000  28.644  30.355  1.00  0.00     0.049 A 
ATOM     59  C   UNL A   1      45.639  31.692  28.959  1.00  0.00     0.074 A 
ATOM     60  C   UNL A   1      41.235  27.552  31.165  1.00  0.00     0.029 A 
ATOM     61  N   UNL A   1      41.715  29.660  30.937  1.00  0.00    -0.354 N 
ATOM     62  N   UNL A   1      45.748  31.081  30.105  1.00  0.00    -0.248 NA
ATOM     63  C   UNL A   1      44.273  32.076  28.599  1.00  0.00     0.031 C 
ATOM     64  C   UNL A   1      42.417  27.869  31.905  1.00  0.00     0.029 A 
ATOM     65  C   UNL A   1      42.860  29.111  31.452  1.00  0.00     0.049 A 
ATOM     66  H   UNL A   1      41.453  30.608  30.978  1.00  0.00     0.167 HD
ATOM     67  C   UNL A   1      44.443  30.737  30.469  1.00  0.00     0.074 A 
ATOM     68  C   UNL A   1      43.584  31.415  29.518  1.00  0.00     0.031 C 
ATOM     69  C   UNL A   1      44.146  29.775  31.392  1.00  0.00     0.031 A 
BRANCH  56  70
ATOM     70  C   UNL A   1      38.848  29.264  29.214  1.00  0.00    -0.014 A 
ATOM     71  C   UNL A   1      38.357  30.215  28.306  1.00  0.00     0.009 A 
ATOM     72  C   UNL A   1      38.021  28.812  30.247  1.00  0.00     0.009 A 
ATOM     73  C   UNL A   1      37.075  30.738  28.448  1.00  0.00     0.001 A 
ATOM     74  C   UNL A   1      36.731  29.332  30.382  1.00  0.00     0.001 A 
ATOM     75  C   UNL A   1      36.265  30.303  29.492  1.00  0.00     0.000 A 
ENDBRANCH  56  70
BRANCH  57  76
ATOM     76  C   UNL A   1      46.809  32.941  26.959  1.00  0.00    -0.014 A 
ATOM     77  C   UNL A   1      48.100  33.435  26.677  1.00  0.00     0.009 A 
ATOM     78  C   UNL A   1      45.725  33.615  26.378  1.00  0.00     0.009 A 
ATOM     79  C   UNL A   1      48.302  34.486  25.777  1.00  0.00     0.001 A 
ATOM     80  C   UNL A   1      45.926  34.647  25.453  1.00  0.00     0.001 A 
ATOM     81  C   UNL A   1      47.214  35.074  25.143  1.00  0.00     0.000 A 
ENDBRANCH  57  76
BRANCH  69  82
ATOM     82  C   UNL A   1      45.301  29.228  32.172  1.00  0.00    -0.014 A 
ATOM     83  C   UNL A   1      45.758  29.889  33.319  1.00  0.00     0.009 A 
ATOM     84  C   UNL A   1      45.925  28.026  31.794  1.00  0.00     0.009 A 
ATOM     85  C   UNL A   1      46.798  29.354  34.082  1.00  0.00     0.001 A 
ATOM     86  C   UNL A   1      46.950  27.480  32.568  1.00  0.00     0.001 A 
ATOM     87  C   UNL A   1      47.385  28.144  33.713  1.00  0.00     0.000 A 
ENDBRANCH  69  82
ENDBRANCH  43  44
ENDBRANCH  36  38
ENDBRANCH  35  36
ENDBRANCH  34  35
ENDBRANCH  33  34
ENDBRANCH  32  33
ENDBRANCH   1  32
TORSDOF 18
ENDMDL
