MODEL 1
REMARK VINA RESULT:     -11.2      0.000      0.000
REMARK SMILES O=C(OCCOCCOC(=O)[C@H](NC(=O)c1cccs1)[C@]12C[C@H]3C[C@H](C[C@H](C3)C1)C2)c1ccc(-c2c3nc(c(-c4ccccc4)c4ccc([nH]4)c(-c4ccccc4)c4nc(c(-c5ccccc5)c5ccc2[nH]5)C=C4)C=C3)cc1
REMARK SMILES IDX 6 1 5 2 4 3 3 4 2 5 1 6 31 7 32 8 78 9 33 10 77 11 34 12
REMARK SMILES IDX 35 13 36 14 71 15 37 16 76 17 70 18 72 19 38 20 75 21 69 22
REMARK SMILES IDX 68 23 39 25 61 26 46 27 60 28 47 29 50 30 59 31 73 32 48 33
REMARK SMILES IDX 49 34 58 36 74 37 51 38 40 39 41 40 45 41 42 42 44 43 43 44
REMARK SMILES IDX 62 45 63 46 67 47 64 48 66 49 65 50 52 51 53 52 57 53 54 54
REMARK SMILES IDX 56 55 55 56 7 57 8 58 9 59 10 60 11 61 12 62 13 63 14 64
REMARK SMILES IDX 15 66 16 67 17 68 20 69 18 70 19 71 21 72 22 73 29 74 30 75
REMARK SMILES IDX 23 76 27 77 25 78 24 79 28 80 26 81
REMARK H PARENT 72 24 50 35 13 65
REMARK Flexibility Score: inf
ROOT
ATOM      1  O   UNL A   1      32.072  29.921  27.030  1.00  0.00    -0.374 OA
ENDROOT
BRANCH   1   2
ATOM      2  C   UNL A   1      32.574  31.247  26.840  1.00  0.00     0.202 C 
BRANCH   2   3
ATOM      3  C   UNL A   1      31.557  32.349  27.156  1.00  0.00     0.261 C 
BRANCH   3   4
ATOM      4  O   UNL A   1      32.209  33.628  27.244  1.00  0.00    -0.460 OA
BRANCH   4   5
ATOM      5  C   UNL A   1      32.941  34.137  28.261  1.00  0.00     0.338 C 
ATOM      6  O   UNL A   1      32.547  35.168  28.803  1.00  0.00    -0.246 OA
BRANCH   5   7
ATOM      7  C   UNL A   1      34.220  33.542  28.757  1.00  0.00     0.060 A 
ATOM      8  C   UNL A   1      34.324  32.638  29.814  1.00  0.00     0.016 A 
ATOM      9  C   UNL A   1      35.389  33.836  28.034  1.00  0.00     0.016 A 
ATOM     10  C   UNL A   1      35.501  31.995  30.118  1.00  0.00     0.010 A 
ATOM     11  C   UNL A   1      36.605  33.230  28.361  1.00  0.00     0.010 A 
ATOM     12  C   UNL A   1      36.645  32.300  29.401  1.00  0.00    -0.014 A 
BRANCH  12  13
ATOM     13  C   UNL A   1      37.878  31.748  29.959  1.00  0.00     0.031 A 
ATOM     14  C   UNL A   1      38.364  32.344  31.239  1.00  0.00     0.074 A 
ATOM     15  C   UNL A   1      38.352  30.594  29.465  1.00  0.00     0.049 A 
ATOM     16  N   UNL A   1      39.408  32.029  31.950  1.00  0.00    -0.248 NA
ATOM     17  C   UNL A   1      37.537  33.421  31.815  1.00  0.00     0.031 C 
ATOM     18  C   UNL A   1      37.756  29.839  28.355  1.00  0.00     0.029 A 
ATOM     19  N   UNL A   1      39.401  29.821  29.870  1.00  0.00    -0.354 N 
ATOM     20  C   UNL A   1      39.386  32.894  33.035  1.00  0.00     0.074 A 
ATOM     21  C   UNL A   1      38.221  33.736  32.902  1.00  0.00     0.031 C 
ATOM     22  C   UNL A   1      38.450  28.704  28.178  1.00  0.00     0.029 A 
ATOM     23  C   UNL A   1      39.574  28.694  29.104  1.00  0.00     0.049 A 
ATOM     24  H   UNL A   1      39.977  30.049  30.635  1.00  0.00     0.167 HD
ATOM     25  C   UNL A   1      40.288  32.982  34.035  1.00  0.00     0.031 A 
ATOM     26  C   UNL A   1      40.570  27.794  29.136  1.00  0.00     0.031 A 
ATOM     27  C   UNL A   1      41.444  32.135  34.100  1.00  0.00     0.049 A 
ATOM     28  C   UNL A   1      41.652  28.013  30.158  1.00  0.00     0.074 A 
ATOM     29  C   UNL A   1      42.506  32.175  34.981  1.00  0.00     0.029 A 
ATOM     30  N   UNL A   1      41.682  31.082  33.222  1.00  0.00    -0.354 N 
ATOM     31  N   UNL A   1      41.712  28.911  31.116  1.00  0.00    -0.248 NA
ATOM     32  C   UNL A   1      42.811  27.117  30.094  1.00  0.00     0.031 C 
ATOM     33  C   UNL A   1      43.415  31.183  34.597  1.00  0.00     0.029 A 
ATOM     34  C   UNL A   1      42.887  30.480  33.521  1.00  0.00     0.049 A 
ATOM     35  H   UNL A   1      41.077  30.808  32.495  1.00  0.00     0.167 HD
ATOM     36  C   UNL A   1      42.906  28.682  31.780  1.00  0.00     0.074 A 
ATOM     37  C   UNL A   1      43.526  27.543  31.127  1.00  0.00     0.031 C 
ATOM     38  C   UNL A   1      43.451  29.347  32.830  1.00  0.00     0.031 A 
BRANCH  25  39
ATOM     39  C   UNL A   1      40.104  34.107  35.011  1.00  0.00    -0.014 A 
ATOM     40  C   UNL A   1      40.641  35.385  34.787  1.00  0.00     0.009 A 
ATOM     41  C   UNL A   1      39.451  33.851  36.227  1.00  0.00     0.009 A 
ATOM     42  C   UNL A   1      40.569  36.367  35.781  1.00  0.00     0.001 A 
ATOM     43  C   UNL A   1      39.355  34.841  37.207  1.00  0.00     0.001 A 
ATOM     44  C   UNL A   1      39.926  36.093  36.988  1.00  0.00     0.000 A 
ENDBRANCH  25  39
BRANCH  26  45
ATOM     45  C   UNL A   1      40.638  26.699  28.131  1.00  0.00    -0.014 A 
ATOM     46  C   UNL A   1      40.248  25.391  28.450  1.00  0.00     0.009 A 
ATOM     47  C   UNL A   1      41.117  26.960  26.834  1.00  0.00     0.009 A 
ATOM     48  C   UNL A   1      40.358  24.368  27.505  1.00  0.00     0.001 A 
ATOM     49  C   UNL A   1      41.196  25.942  25.881  1.00  0.00     0.001 A 
ATOM     50  C   UNL A   1      40.827  24.644  26.220  1.00  0.00     0.000 A 
ENDBRANCH  26  45
BRANCH  38  51
ATOM     51  C   UNL A   1      44.759  28.824  33.344  1.00  0.00    -0.014 A 
ATOM     52  C   UNL A   1      45.980  29.322  32.866  1.00  0.00     0.009 A 
ATOM     53  C   UNL A   1      44.758  27.862  34.365  1.00  0.00     0.009 A 
ATOM     54  C   UNL A   1      47.182  28.839  33.383  1.00  0.00     0.001 A 
ATOM     55  C   UNL A   1      45.960  27.408  34.903  1.00  0.00     0.001 A 
ATOM     56  C   UNL A   1      47.170  27.889  34.405  1.00  0.00     0.000 A 
ENDBRANCH  38  51
ENDBRANCH  12  13
ENDBRANCH   5   7
ENDBRANCH   4   5
ENDBRANCH   3   4
ENDBRANCH   2   3
ENDBRANCH   1   2
BRANCH   1  57
ATOM     57  C   UNL A   1      33.050  28.880  27.164  1.00  0.00     0.202 C 
BRANCH  57  58
ATOM     58  C   UNL A   1      33.566  28.551  25.781  1.00  0.00     0.261 C 
BRANCH  58  59
ATOM     59  O   UNL A   1      32.396  28.155  25.067  1.00  0.00    -0.462 OA
BRANCH  59  60
ATOM     60  C   UNL A   1      32.264  28.591  23.789  1.00  0.00     0.329 C 
ATOM     61  O   UNL A   1      33.069  29.283  23.175  1.00  0.00    -0.250 OA
BRANCH  60  62
ATOM     62  C   UNL A   1      30.932  28.067  23.223  1.00  0.00     0.198 C 
BRANCH  62  63
ATOM     63  N   UNL A   1      31.306  27.269  22.037  1.00  0.00    -0.337 N 
ATOM     64  C   UNL A   1      31.906  26.040  21.881  1.00  0.00     0.262 C 
ATOM     65  H   UNL A   1      31.078  27.705  21.185  1.00  0.00     0.164 HD
ATOM     66  O   UNL A   1      32.500  25.887  20.811  1.00  0.00    -0.268 OA
BRANCH  64  67
ATOM     67  C   UNL A   1      31.813  24.982  22.880  1.00  0.00     0.092 A 
ATOM     68  C   UNL A   1      30.732  24.299  23.402  1.00  0.00     0.025 A 
ATOM     69  S   UNL A   1      33.282  24.282  23.461  1.00  0.00    -0.139 S 
ATOM     70  C   UNL A   1      31.096  23.228  24.271  1.00  0.00     0.012 A 
ATOM     71  C   UNL A   1      32.459  23.088  24.364  1.00  0.00     0.065 A 
ENDBRANCH  64  67
ENDBRANCH  62  63
BRANCH  62  72
ATOM     72  C   UNL A   1      29.916  29.248  22.985  1.00  0.00     0.002 C 
ATOM     73  C   UNL A   1      29.932  30.389  24.069  1.00  0.00     0.013 C 
ATOM     74  C   UNL A   1      28.465  28.682  23.034  1.00  0.00     0.013 C 
ATOM     75  C   UNL A   1      30.185  29.931  21.621  1.00  0.00     0.013 C 
ATOM     76  C   UNL A   1      28.906  31.490  23.771  1.00  0.00    -0.010 C 
ATOM     77  C   UNL A   1      27.432  29.768  22.695  1.00  0.00    -0.010 C 
ATOM     78  C   UNL A   1      29.147  31.016  21.325  1.00  0.00    -0.010 C 
ATOM     79  C   UNL A   1      29.226  32.099  22.409  1.00  0.00     0.007 C 
ATOM     80  C   UNL A   1      27.500  30.870  23.758  1.00  0.00     0.007 C 
ATOM     81  C   UNL A   1      27.752  30.373  21.319  1.00  0.00     0.007 C 
ENDBRANCH  62  72
ENDBRANCH  60  62
ENDBRANCH  59  60
ENDBRANCH  58  59
ENDBRANCH  57  58
ENDBRANCH   1  57
TORSDOF 17
ENDMDL
MODEL 2
REMARK VINA RESULT:     -10.8      0.526      5.960
REMARK SMILES O=C(OCCOCCOC(=O)[C@H](NC(=O)c1cccs1)[C@]12C[C@H]3C[C@H](C[C@H](C3)C1)C2)c1ccc(-c2c3nc(c(-c4ccccc4)c4ccc([nH]4)c(-c4ccccc4)c4nc(c(-c5ccccc5)c5ccc2[nH]5)C=C4)C=C3)cc1
REMARK SMILES IDX 6 1 5 2 4 3 3 4 2 5 1 6 31 7 32 8 78 9 33 10 77 11 34 12
REMARK SMILES IDX 35 13 36 14 71 15 37 16 76 17 70 18 72 19 38 20 75 21 69 22
REMARK SMILES IDX 68 23 39 25 61 26 46 27 60 28 47 29 50 30 59 31 73 32 48 33
REMARK SMILES IDX 49 34 58 36 74 37 51 38 40 39 41 40 45 41 42 42 44 43 43 44
REMARK SMILES IDX 62 45 63 46 67 47 64 48 66 49 65 50 52 51 53 52 57 53 54 54
REMARK SMILES IDX 56 55 55 56 7 57 8 58 9 59 10 60 11 61 12 62 13 63 14 64
REMARK SMILES IDX 15 66 16 67 17 68 20 69 18 70 19 71 21 72 22 73 29 74 30 75
REMARK SMILES IDX 23 76 27 77 25 78 24 79 28 80 26 81
REMARK H PARENT 72 24 50 35 13 65
REMARK Flexibility Score: inf
ROOT
ATOM      1  O   UNL A   1      32.396  29.869  27.134  1.00  0.00    -0.374 OA
ENDROOT
BRANCH   1   2
ATOM      2  C   UNL A   1      32.775  31.223  26.873  1.00  0.00     0.202 C 
BRANCH   2   3
ATOM      3  C   UNL A   1      31.705  32.253  27.246  1.00  0.00     0.261 C 
BRANCH   3   4
ATOM      4  O   UNL A   1      32.267  33.576  27.282  1.00  0.00    -0.460 OA
BRANCH   4   5
ATOM      5  C   UNL A   1      32.955  34.176  28.280  1.00  0.00     0.338 C 
ATOM      6  O   UNL A   1      32.555  35.264  28.692  1.00  0.00    -0.246 OA
BRANCH   5   7
ATOM      7  C   UNL A   1      34.193  33.615  28.904  1.00  0.00     0.060 A 
ATOM      8  C   UNL A   1      34.218  32.606  29.865  1.00  0.00     0.016 A 
ATOM      9  C   UNL A   1      35.427  34.067  28.403  1.00  0.00     0.016 A 
ATOM     10  C   UNL A   1      35.387  32.012  30.279  1.00  0.00     0.010 A 
ATOM     11  C   UNL A   1      36.628  33.510  28.848  1.00  0.00     0.010 A 
ATOM     12  C   UNL A   1      36.594  32.473  29.782  1.00  0.00    -0.014 A 
BRANCH  12  13
ATOM     13  C   UNL A   1      37.774  31.945  30.462  1.00  0.00     0.031 A 
ATOM     14  C   UNL A   1      38.524  30.858  29.765  1.00  0.00     0.074 A 
ATOM     15  C   UNL A   1      38.274  32.620  31.509  1.00  0.00     0.049 A 
ATOM     16  N   UNL A   1      39.606  30.235  30.134  1.00  0.00    -0.248 NA
ATOM     17  C   UNL A   1      37.999  30.439  28.451  1.00  0.00     0.031 C 
ATOM     18  C   UNL A   1      37.700  33.845  32.079  1.00  0.00     0.029 A 
ATOM     19  N   UNL A   1      39.407  32.410  32.240  1.00  0.00    -0.354 N 
ATOM     20  C   UNL A   1      39.869  29.325  29.120  1.00  0.00     0.074 A 
ATOM     21  C   UNL A   1      38.848  29.484  28.112  1.00  0.00     0.031 C 
ATOM     22  C   UNL A   1      38.496  34.281  33.067  1.00  0.00     0.029 A 
ATOM     23  C   UNL A   1      39.583  33.328  33.246  1.00  0.00     0.049 A 
ATOM     24  H   UNL A   1      40.036  31.673  32.064  1.00  0.00     0.167 HD
ATOM     25  C   UNL A   1      40.869  28.421  29.065  1.00  0.00     0.031 A 
ATOM     26  C   UNL A   1      40.503  33.345  34.224  1.00  0.00     0.031 A 
ATOM     27  C   UNL A   1      41.841  28.290  30.113  1.00  0.00     0.049 A 
ATOM     28  C   UNL A   1      41.509  32.226  34.232  1.00  0.00     0.074 A 
ATOM     29  C   UNL A   1      42.843  27.352  30.260  1.00  0.00     0.029 A 
ATOM     30  N   UNL A   1      41.917  29.144  31.208  1.00  0.00    -0.354 N 
ATOM     31  N   UNL A   1      41.691  31.276  33.343  1.00  0.00    -0.248 NA
ATOM     32  C   UNL A   1      42.417  32.164  35.381  1.00  0.00     0.031 C 
ATOM     33  C   UNL A   1      43.486  27.604  31.477  1.00  0.00     0.029 A 
ATOM     34  C   UNL A   1      42.931  28.741  32.053  1.00  0.00     0.049 A 
ATOM     35  H   UNL A   1      41.333  29.922  31.358  1.00  0.00     0.167 HD
ATOM     36  C   UNL A   1      42.744  30.509  33.815  1.00  0.00     0.074 A 
ATOM     37  C   UNL A   1      43.174  31.123  35.059  1.00  0.00     0.031 C 
ATOM     38  C   UNL A   1      43.309  29.397  33.281  1.00  0.00     0.031 A 
BRANCH  25  39
ATOM     39  C   UNL A   1      40.841  27.454  27.918  1.00  0.00    -0.014 A 
ATOM     40  C   UNL A   1      40.162  26.228  27.992  1.00  0.00     0.009 A 
ATOM     41  C   UNL A   1      41.592  27.744  26.768  1.00  0.00     0.009 A 
ATOM     42  C   UNL A   1      40.274  25.294  26.956  1.00  0.00     0.001 A 
ATOM     43  C   UNL A   1      41.679  26.822  25.723  1.00  0.00     0.001 A 
ATOM     44  C   UNL A   1      41.031  25.592  25.825  1.00  0.00     0.000 A 
ENDBRANCH  25  39
BRANCH  26  45
ATOM     45  C   UNL A   1      40.450  34.371  35.300  1.00  0.00    -0.014 A 
ATOM     46  C   UNL A   1      39.667  34.183  36.448  1.00  0.00     0.009 A 
ATOM     47  C   UNL A   1      41.179  35.567  35.173  1.00  0.00     0.009 A 
ATOM     48  C   UNL A   1      39.597  35.176  37.430  1.00  0.00     0.001 A 
ATOM     49  C   UNL A   1      41.133  36.544  36.170  1.00  0.00     0.001 A 
ATOM     50  C   UNL A   1      40.333  36.353  37.292  1.00  0.00     0.000 A 
ENDBRANCH  26  45
BRANCH  38  51
ATOM     51  C   UNL A   1      44.469  28.812  34.030  1.00  0.00    -0.014 A 
ATOM     52  C   UNL A   1      44.283  27.804  34.988  1.00  0.00     0.009 A 
ATOM     53  C   UNL A   1      45.769  29.240  33.722  1.00  0.00     0.009 A 
ATOM     54  C   UNL A   1      45.383  27.258  35.649  1.00  0.00     0.001 A 
ATOM     55  C   UNL A   1      46.867  28.667  34.360  1.00  0.00     0.001 A 
ATOM     56  C   UNL A   1      46.672  27.684  35.328  1.00  0.00     0.000 A 
ENDBRANCH  38  51
ENDBRANCH  12  13
ENDBRANCH   5   7
ENDBRANCH   4   5
ENDBRANCH   3   4
ENDBRANCH   2   3
ENDBRANCH   1   2
BRANCH   1  57
ATOM     57  C   UNL A   1      33.460  28.910  27.213  1.00  0.00     0.202 C 
BRANCH  57  58
ATOM     58  C   UNL A   1      33.243  27.889  26.119  1.00  0.00     0.261 C 
BRANCH  58  59
ATOM     59  O   UNL A   1      32.105  28.384  25.413  1.00  0.00    -0.462 OA
BRANCH  59  60
ATOM     60  C   UNL A   1      32.263  28.678  24.098  1.00  0.00     0.329 C 
ATOM     61  O   UNL A   1      33.184  29.322  23.607  1.00  0.00    -0.250 OA
BRANCH  60  62
ATOM     62  C   UNL A   1      31.093  28.062  23.310  1.00  0.00     0.198 C 
BRANCH  62  63
ATOM     63  N   UNL A   1      31.718  27.418  22.137  1.00  0.00    -0.337 N 
ATOM     64  C   UNL A   1      32.382  26.225  21.960  1.00  0.00     0.262 C 
ATOM     65  H   UNL A   1      31.643  27.950  21.312  1.00  0.00     0.164 HD
ATOM     66  O   UNL A   1      33.177  26.211  21.016  1.00  0.00    -0.268 OA
BRANCH  64  67
ATOM     67  C   UNL A   1      32.138  25.053  22.792  1.00  0.00     0.092 A 
ATOM     68  C   UNL A   1      30.973  24.500  23.286  1.00  0.00     0.025 A 
ATOM     69  S   UNL A   1      33.474  24.016  23.146  1.00  0.00    -0.139 S 
ATOM     70  C   UNL A   1      31.169  23.254  23.953  1.00  0.00     0.012 A 
ATOM     71  C   UNL A   1      32.484  22.858  23.920  1.00  0.00     0.065 A 
ENDBRANCH  64  67
ENDBRANCH  62  63
BRANCH  62  72
ATOM     72  C   UNL A   1      29.982  29.139  23.014  1.00  0.00     0.002 C 
ATOM     73  C   UNL A   1      28.513  28.587  22.894  1.00  0.00     0.013 C 
ATOM     74  C   UNL A   1      30.269  29.791  21.628  1.00  0.00     0.013 C 
ATOM     75  C   UNL A   1      29.960  30.217  24.125  1.00  0.00     0.013 C 
ATOM     76  C   UNL A   1      27.497  29.696  22.591  1.00  0.00    -0.010 C 
ATOM     77  C   UNL A   1      29.283  30.932  21.334  1.00  0.00    -0.010 C 
ATOM     78  C   UNL A   1      28.955  31.327  23.807  1.00  0.00    -0.010 C 
ATOM     79  C   UNL A   1      27.547  30.724  23.718  1.00  0.00     0.007 C 
ATOM     80  C   UNL A   1      27.864  30.357  21.253  1.00  0.00     0.007 C 
ATOM     81  C   UNL A   1      29.342  31.970  22.466  1.00  0.00     0.007 C 
ENDBRANCH  62  72
ENDBRANCH  60  62
ENDBRANCH  59  60
ENDBRANCH  58  59
ENDBRANCH  57  58
ENDBRANCH   1  57
TORSDOF 17
ENDMDL
MODEL 3
REMARK VINA RESULT:     -10.8      1.664      3.908
REMARK SMILES O=C(OCCOCCOC(=O)[C@H](NC(=O)c1cccs1)[C@]12C[C@H]3C[C@H](C[C@H](C3)C1)C2)c1ccc(-c2c3nc(c(-c4ccccc4)c4ccc([nH]4)c(-c4ccccc4)c4nc(c(-c5ccccc5)c5ccc2[nH]5)C=C4)C=C3)cc1
REMARK SMILES IDX 6 1 5 2 4 3 3 4 2 5 1 6 31 7 32 8 78 9 33 10 77 11 34 12
REMARK SMILES IDX 35 13 36 14 71 15 37 16 76 17 70 18 72 19 38 20 75 21 69 22
REMARK SMILES IDX 68 23 39 25 61 26 46 27 60 28 47 29 50 30 59 31 73 32 48 33
REMARK SMILES IDX 49 34 58 36 74 37 51 38 40 39 41 40 45 41 42 42 44 43 43 44
REMARK SMILES IDX 62 45 63 46 67 47 64 48 66 49 65 50 52 51 53 52 57 53 54 54
REMARK SMILES IDX 56 55 55 56 7 57 8 58 9 59 10 60 11 61 12 62 13 63 14 64
REMARK SMILES IDX 15 66 16 67 17 68 20 69 18 70 19 71 21 72 22 73 29 74 30 75
REMARK SMILES IDX 23 76 27 77 25 78 24 79 28 80 26 81
REMARK H PARENT 72 24 50 35 13 65
REMARK Flexibility Score: inf
ROOT
ATOM      1  O   UNL A   1      32.666  30.898  27.239  1.00  0.00    -0.374 OA
ENDROOT
BRANCH   1   2
ATOM      2  C   UNL A   1      31.653  31.840  26.876  1.00  0.00     0.202 C 
BRANCH   2   3
ATOM      3  C   UNL A   1      32.164  33.276  26.722  1.00  0.00     0.261 C 
BRANCH   3   4
ATOM      4  O   UNL A   1      32.187  33.943  27.996  1.00  0.00    -0.460 OA
BRANCH   4   5
ATOM      5  C   UNL A   1      33.226  34.546  28.617  1.00  0.00     0.338 C 
ATOM      6  O   UNL A   1      33.202  35.770  28.739  1.00  0.00    -0.246 OA
BRANCH   5   7
ATOM      7  C   UNL A   1      34.422  33.823  29.149  1.00  0.00     0.060 A 
ATOM      8  C   UNL A   1      34.377  32.675  29.940  1.00  0.00     0.016 A 
ATOM      9  C   UNL A   1      35.686  34.275  28.729  1.00  0.00     0.016 A 
ATOM     10  C   UNL A   1      35.506  31.957  30.259  1.00  0.00     0.010 A 
ATOM     11  C   UNL A   1      36.847  33.586  29.085  1.00  0.00     0.010 A 
ATOM     12  C   UNL A   1      36.743  32.419  29.844  1.00  0.00    -0.014 A 
BRANCH  12  13
ATOM     13  C   UNL A   1      37.883  31.723  30.436  1.00  0.00     0.031 A 
ATOM     14  C   UNL A   1      38.120  31.939  31.895  1.00  0.00     0.074 A 
ATOM     15  C   UNL A   1      38.479  30.744  29.738  1.00  0.00     0.049 A 
ATOM     16  N   UNL A   1      39.038  31.430  32.665  1.00  0.00    -0.248 NA
ATOM     17  C   UNL A   1      37.165  32.824  32.589  1.00  0.00     0.031 C 
ATOM     18  C   UNL A   1      38.111  30.330  28.378  1.00  0.00     0.029 A 
ATOM     19  N   UNL A   1      39.472  29.879  30.094  1.00  0.00    -0.354 N 
ATOM     20  C   UNL A   1      38.797  31.964  33.923  1.00  0.00     0.074 A 
ATOM     21  C   UNL A   1      37.641  32.821  33.823  1.00  0.00     0.031 C 
ATOM     22  C   UNL A   1      38.868  29.281  28.022  1.00  0.00     0.029 A 
ATOM     23  C   UNL A   1      39.817  29.005  29.093  1.00  0.00     0.049 A 
ATOM     24  H   UNL A   1      39.900  29.882  30.980  1.00  0.00     0.167 HD
ATOM     25  C   UNL A   1      39.511  31.765  35.051  1.00  0.00     0.031 A 
ATOM     26  C   UNL A   1      40.827  28.121  29.052  1.00  0.00     0.031 A 
ATOM     27  C   UNL A   1      40.672  30.921  35.084  1.00  0.00     0.049 A 
ATOM     28  C   UNL A   1      41.709  28.039  30.268  1.00  0.00     0.074 A 
ATOM     29  C   UNL A   1      41.565  30.707  36.114  1.00  0.00     0.029 A 
ATOM     30  N   UNL A   1      41.096  30.148  34.008  1.00  0.00    -0.354 N 
ATOM     31  N   UNL A   1      41.569  28.639  31.429  1.00  0.00    -0.248 NA
ATOM     32  C   UNL A   1      42.896  27.185  30.166  1.00  0.00     0.031 C 
ATOM     33  C   UNL A   1      42.564  29.849  35.640  1.00  0.00     0.029 A 
ATOM     34  C   UNL A   1      42.255  29.474  34.338  1.00  0.00     0.049 A 
ATOM     35  H   UNL A   1      40.636  30.090  33.139  1.00  0.00     0.167 HD
ATOM     36  C   UNL A   1      42.641  28.224  32.204  1.00  0.00     0.074 A 
ATOM     37  C   UNL A   1      43.407  27.303  31.384  1.00  0.00     0.031 C 
ATOM     38  C   UNL A   1      42.972  28.570  33.473  1.00  0.00     0.031 A 
BRANCH  25  39
ATOM     39  C   UNL A   1      39.119  32.579  36.249  1.00  0.00    -0.014 A 
ATOM     40  C   UNL A   1      39.713  33.819  36.534  1.00  0.00     0.009 A 
ATOM     41  C   UNL A   1      38.196  32.045  37.161  1.00  0.00     0.009 A 
ATOM     42  C   UNL A   1      39.424  34.483  37.731  1.00  0.00     0.001 A 
ATOM     43  C   UNL A   1      37.887  32.723  38.341  1.00  0.00     0.001 A 
ATOM     44  C   UNL A   1      38.512  33.935  38.632  1.00  0.00     0.000 A 
ENDBRANCH  25  39
BRANCH  26  45
ATOM     45  C   UNL A   1      41.109  27.344  27.814  1.00  0.00    -0.014 A 
ATOM     46  C   UNL A   1      41.915  27.867  26.794  1.00  0.00     0.009 A 
ATOM     47  C   UNL A   1      40.549  26.066  27.640  1.00  0.00     0.009 A 
ATOM     48  C   UNL A   1      42.135  27.139  25.621  1.00  0.00     0.001 A 
ATOM     49  C   UNL A   1      40.796  25.327  26.482  1.00  0.00     0.001 A 
ATOM     50  C   UNL A   1      41.579  25.868  25.467  1.00  0.00     0.000 A 
ENDBRANCH  26  45
BRANCH  38  51
ATOM     51  C   UNL A   1      44.192  27.913  34.047  1.00  0.00    -0.014 A 
ATOM     52  C   UNL A   1      45.454  28.521  33.962  1.00  0.00     0.009 A 
ATOM     53  C   UNL A   1      44.057  26.696  34.732  1.00  0.00     0.009 A 
ATOM     54  C   UNL A   1      46.567  27.901  34.529  1.00  0.00     0.001 A 
ATOM     55  C   UNL A   1      45.166  26.099  35.327  1.00  0.00     0.001 A 
ATOM     56  C   UNL A   1      46.420  26.697  35.217  1.00  0.00     0.000 A 
ENDBRANCH  38  51
ENDBRANCH  12  13
ENDBRANCH   5   7
ENDBRANCH   4   5
ENDBRANCH   3   4
ENDBRANCH   2   3
ENDBRANCH   1   2
BRANCH   1  57
ATOM     57  C   UNL A   1      32.962  29.875  26.278  1.00  0.00     0.202 C 
BRANCH  57  58
ATOM     58  C   UNL A   1      31.753  28.972  26.179  1.00  0.00     0.261 C 
BRANCH  58  59
ATOM     59  O   UNL A   1      32.292  27.730  25.730  1.00  0.00    -0.462 OA
BRANCH  59  60
ATOM     60  C   UNL A   1      31.472  26.648  25.747  1.00  0.00     0.329 C 
ATOM     61  O   UNL A   1      30.898  26.192  26.731  1.00  0.00    -0.250 OA
BRANCH  60  62
ATOM     62  C   UNL A   1      31.370  26.082  24.319  1.00  0.00     0.198 C 
BRANCH  62  63
ATOM     63  N   UNL A   1      29.922  25.942  24.065  1.00  0.00    -0.337 N 
ATOM     64  C   UNL A   1      28.923  26.848  23.789  1.00  0.00     0.262 C 
ATOM     65  H   UNL A   1      29.607  25.010  24.098  1.00  0.00     0.164 HD
ATOM     66  O   UNL A   1      27.789  26.480  24.106  1.00  0.00    -0.268 OA
BRANCH  64  67
ATOM     67  C   UNL A   1      29.173  28.126  23.134  1.00  0.00     0.092 A 
ATOM     68  C   UNL A   1      30.319  28.677  22.593  1.00  0.00     0.025 A 
ATOM     69  S   UNL A   1      27.818  29.141  22.787  1.00  0.00    -0.139 S 
ATOM     70  C   UNL A   1      30.096  29.912  21.914  1.00  0.00     0.012 A 
ATOM     71  C   UNL A   1      28.768  30.263  21.917  1.00  0.00     0.065 A 
ENDBRANCH  64  67
ENDBRANCH  62  63
BRANCH  62  72
ATOM     72  C   UNL A   1      32.242  24.779  24.165  1.00  0.00     0.002 C 
ATOM     73  C   UNL A   1      33.542  24.720  25.050  1.00  0.00     0.013 C 
ATOM     74  C   UNL A   1      32.762  24.690  22.698  1.00  0.00     0.013 C 
ATOM     75  C   UNL A   1      31.409  23.522  24.520  1.00  0.00     0.013 C 
ATOM     76  C   UNL A   1      34.339  23.428  24.829  1.00  0.00    -0.010 C 
ATOM     77  C   UNL A   1      33.524  23.379  22.456  1.00  0.00    -0.010 C 
ATOM     78  C   UNL A   1      32.206  22.237  24.282  1.00  0.00    -0.010 C 
ATOM     79  C   UNL A   1      33.448  22.239  25.182  1.00  0.00     0.007 C 
ATOM     80  C   UNL A   1      34.766  23.351  23.355  1.00  0.00     0.007 C 
ATOM     81  C   UNL A   1      32.622  22.184  22.804  1.00  0.00     0.007 C 
ENDBRANCH  62  72
ENDBRANCH  60  62
ENDBRANCH  59  60
ENDBRANCH  58  59
ENDBRANCH  57  58
ENDBRANCH   1  57
TORSDOF 17
ENDMDL
