MODEL 1
REMARK VINA RESULT:     -10.2      0.000      0.000
REMARK SMILES Cn1nc(C(=O)N2C[C@@H](O)C[C@H]2C(=O)OCCOCCOC(=O)c2ccc(-c3c4nc(c(-c5ccccc5)c5ccc([nH]5)c(-c5ccccc5)c5nc(c(-c6ccccc6)c6ccc3[nH]6)C=C5)C=C4)cc2)ccc1=O
REMARK SMILES IDX 18 1 17 2 16 3 15 4 13 5 14 6 12 7 7 8 8 9 9 10 11 11 5 12
REMARK SMILES IDX 6 13 4 14 1 15 2 16 3 17 74 18 73 19 75 20 72 21 10 22 19 24
REMARK SMILES IDX 20 25 21 26 22 27 23 28 24 29 25 30 71 31 26 32 70 33 27 34
REMARK SMILES IDX 28 35 29 36 64 37 30 38 69 39 63 40 65 41 31 42 68 43 62 44
REMARK SMILES IDX 61 45 32 47 54 48 39 49 53 50 40 51 43 52 52 53 66 54 41 55
REMARK SMILES IDX 42 56 51 58 67 59 44 60 33 61 34 62 38 63 35 64 37 65 36 66
REMARK SMILES IDX 55 67 56 68 60 69 57 70 59 71 58 72 45 73 46 74 50 75 47 76
REMARK SMILES IDX 49 77 48 78
REMARK H PARENT 10 23 65 46 43 57
REMARK Flexibility Score: inf
ROOT
ATOM      1  O   UNL A   1      35.448  21.872  26.293  1.00  0.00    -0.374 OA
ENDROOT
BRANCH   1   2
ATOM      2  C   UNL A   1      34.234  22.614  26.364  1.00  0.00     0.202 C 
BRANCH   2   3
ATOM      3  C   UNL A   1      34.321  24.118  26.076  1.00  0.00     0.261 C 
BRANCH   3   4
ATOM      4  O   UNL A   1      33.061  24.810  26.071  1.00  0.00    -0.462 OA
BRANCH   4   5
ATOM      5  C   UNL A   1      32.823  25.560  24.961  1.00  0.00     0.329 C 
ATOM      6  O   UNL A   1      33.546  25.590  23.970  1.00  0.00    -0.250 OA
BRANCH   5   7
ATOM      7  C   UNL A   1      31.605  26.484  25.083  1.00  0.00     0.198 C 
ATOM      8  N   UNL A   1      31.766  27.913  25.374  1.00  0.00    -0.321 N 
ATOM      9  C   UNL A   1      31.056  28.731  24.409  1.00  0.00     0.152 C 
ATOM     10  C   UNL A   1      30.122  27.771  23.680  1.00  0.00     0.136 C 
ATOM     11  C   UNL A   1      30.873  26.449  23.737  1.00  0.00     0.071 C 
BRANCH   8  12
ATOM     12  C   UNL A   1      31.977  28.291  26.687  1.00  0.00     0.275 C 
ATOM     13  O   UNL A   1      31.220  27.987  27.598  1.00  0.00    -0.267 OA
BRANCH  12  14
ATOM     14  C   UNL A   1      33.092  29.298  26.995  1.00  0.00     0.149 A 
ATOM     15  C   UNL A   1      33.474  32.753  27.881  1.00  0.00     0.178 C 
ATOM     16  N   UNL A   1      33.834  31.374  27.614  1.00  0.00    -0.232 N 
ATOM     17  N   UNL A   1      32.792  30.532  27.264  1.00  0.00    -0.165 NA
ATOM     18  C   UNL A   1      35.166  30.982  27.701  1.00  0.00     0.266 A 
ATOM     19  C   UNL A   1      35.442  29.561  27.410  1.00  0.00     0.076 A 
ATOM     20  O   UNL A   1      36.106  31.717  27.995  1.00  0.00    -0.268 OA
ATOM     21  C   UNL A   1      34.459  28.735  27.053  1.00  0.00     0.042 A 
ENDBRANCH  12  14
ENDBRANCH   8  12
BRANCH  10  22
ATOM     22  O   UNL A   1      29.875  28.158  22.338  1.00  0.00    -0.391 OA
ATOM     23  H   UNL A   1      30.713  28.192  21.852  1.00  0.00     0.211 HD
ENDBRANCH  10  22
ENDBRANCH   5   7
ENDBRANCH   4   5
ENDBRANCH   3   4
ENDBRANCH   2   3
ENDBRANCH   1   2
BRANCH   1  24
ATOM     24  C   UNL A   1      35.653  21.065  25.129  1.00  0.00     0.202 C 
BRANCH  24  25
ATOM     25  C   UNL A   1      37.059  20.474  24.971  1.00  0.00     0.261 C 
BRANCH  25  26
ATOM     26  O   UNL A   1      38.050  21.510  25.072  1.00  0.00    -0.460 OA
BRANCH  26  27
ATOM     27  C   UNL A   1      39.059  21.247  25.922  1.00  0.00     0.338 C 
ATOM     28  O   UNL A   1      39.631  20.184  26.099  1.00  0.00    -0.246 OA
BRANCH  27  29
ATOM     29  C   UNL A   1      39.468  22.499  26.572  1.00  0.00     0.060 A 
ATOM     30  C   UNL A   1      38.866  23.697  26.172  1.00  0.00     0.016 A 
ATOM     31  C   UNL A   1      40.552  22.500  27.453  1.00  0.00     0.016 A 
ATOM     32  C   UNL A   1      39.397  24.913  26.601  1.00  0.00     0.010 A 
ATOM     33  C   UNL A   1      41.083  23.720  27.880  1.00  0.00     0.010 A 
ATOM     34  C   UNL A   1      40.539  24.930  27.415  1.00  0.00    -0.014 A 
BRANCH  34  35
ATOM     35  C   UNL A   1      41.274  26.202  27.612  1.00  0.00     0.031 A 
ATOM     36  C   UNL A   1      40.673  27.256  28.503  1.00  0.00     0.074 A 
ATOM     37  C   UNL A   1      42.477  26.407  27.050  1.00  0.00     0.049 A 
ATOM     38  N   UNL A   1      41.153  28.427  28.839  1.00  0.00    -0.248 NA
ATOM     39  C   UNL A   1      39.367  26.944  29.109  1.00  0.00     0.031 C 
ATOM     40  C   UNL A   1      43.195  25.449  26.212  1.00  0.00     0.029 A 
ATOM     41  N   UNL A   1      43.314  27.494  27.117  1.00  0.00    -0.354 N 
ATOM     42  C   UNL A   1      40.217  28.982  29.702  1.00  0.00     0.074 A 
ATOM     43  C   UNL A   1      39.129  28.038  29.820  1.00  0.00     0.031 C 
ATOM     44  C   UNL A   1      44.373  25.988  25.850  1.00  0.00     0.029 A 
ATOM     45  C   UNL A   1      44.479  27.335  26.411  1.00  0.00     0.049 A 
ATOM     46  H   UNL A   1      43.097  28.309  27.624  1.00  0.00     0.167 HD
ATOM     47  C   UNL A   1      40.264  30.170  30.349  1.00  0.00     0.031 A 
ATOM     48  C   UNL A   1      45.513  28.179  26.233  1.00  0.00     0.031 A 
ATOM     49  C   UNL A   1      41.329  31.125  30.225  1.00  0.00     0.049 A 
ATOM     50  C   UNL A   1      45.492  29.539  26.877  1.00  0.00     0.074 A 
ATOM     51  C   UNL A   1      41.452  32.357  30.842  1.00  0.00     0.029 A 
ATOM     52  N   UNL A   1      42.448  30.959  29.428  1.00  0.00    -0.354 N 
ATOM     53  N   UNL A   1      44.599  30.052  27.686  1.00  0.00    -0.248 NA
ATOM     54  C   UNL A   1      46.620  30.435  26.577  1.00  0.00     0.031 C 
ATOM     55  C   UNL A   1      42.630  32.956  30.387  1.00  0.00     0.029 A 
ATOM     56  C   UNL A   1      43.256  32.077  29.518  1.00  0.00     0.049 A 
ATOM     57  H   UNL A   1      42.639  30.164  28.879  1.00  0.00     0.167 HD
ATOM     58  C   UNL A   1      45.063  31.322  28.005  1.00  0.00     0.074 A 
ATOM     59  C   UNL A   1      46.318  31.503  27.307  1.00  0.00     0.031 C 
ATOM     60  C   UNL A   1      44.497  32.250  28.813  1.00  0.00     0.031 A 
BRANCH  47  61
ATOM     61  C   UNL A   1      39.117  30.514  31.250  1.00  0.00    -0.014 A 
ATOM     62  C   UNL A   1      38.018  31.238  30.764  1.00  0.00     0.009 A 
ATOM     63  C   UNL A   1      39.099  30.044  32.572  1.00  0.00     0.009 A 
ATOM     64  C   UNL A   1      36.923  31.493  31.590  1.00  0.00     0.001 A 
ATOM     65  C   UNL A   1      37.996  30.289  33.391  1.00  0.00     0.001 A 
ATOM     66  C   UNL A   1      36.911  31.013  32.899  1.00  0.00     0.000 A 
ENDBRANCH  47  61
BRANCH  48  67
ATOM     67  C   UNL A   1      46.665  27.758  25.400  1.00  0.00    -0.014 A 
ATOM     68  C   UNL A   1      46.668  28.001  24.019  1.00  0.00     0.009 A 
ATOM     69  C   UNL A   1      47.776  27.131  25.986  1.00  0.00     0.009 A 
ATOM     70  C   UNL A   1      47.763  27.621  23.239  1.00  0.00     0.001 A 
ATOM     71  C   UNL A   1      48.874  26.766  25.207  1.00  0.00     0.001 A 
ATOM     72  C   UNL A   1      48.867  27.009  23.834  1.00  0.00     0.000 A 
ENDBRANCH  48  67
BRANCH  60  73
ATOM     73  C   UNL A   1      45.219  33.551  29.005  1.00  0.00    -0.014 A 
ATOM     74  C   UNL A   1      46.208  33.683  29.991  1.00  0.00     0.009 A 
ATOM     75  C   UNL A   1      44.988  34.614  28.118  1.00  0.00     0.009 A 
ATOM     76  C   UNL A   1      46.951  34.861  30.087  1.00  0.00     0.001 A 
ATOM     77  C   UNL A   1      45.745  35.784  28.207  1.00  0.00     0.001 A 
ATOM     78  C   UNL A   1      46.725  35.906  29.190  1.00  0.00     0.000 A 
ENDBRANCH  60  73
ENDBRANCH  34  35
ENDBRANCH  27  29
ENDBRANCH  26  27
ENDBRANCH  25  26
ENDBRANCH  24  25
ENDBRANCH   1  24
TORSDOF 17
ENDMDL
MODEL 2
REMARK VINA RESULT:     -10.1      2.713      6.614
REMARK SMILES Cn1nc(C(=O)N2C[C@@H](O)C[C@H]2C(=O)OCCOCCOC(=O)c2ccc(-c3c4nc(c(-c5ccccc5)c5ccc([nH]5)c(-c5ccccc5)c5nc(c(-c6ccccc6)c6ccc3[nH]6)C=C5)C=C4)cc2)ccc1=O
REMARK SMILES IDX 18 1 17 2 16 3 15 4 13 5 14 6 12 7 7 8 8 9 9 10 11 11 5 12
REMARK SMILES IDX 6 13 4 14 1 15 2 16 3 17 74 18 73 19 75 20 72 21 10 22 19 24
REMARK SMILES IDX 20 25 21 26 22 27 23 28 24 29 25 30 71 31 26 32 70 33 27 34
REMARK SMILES IDX 28 35 29 36 64 37 30 38 69 39 63 40 65 41 31 42 68 43 62 44
REMARK SMILES IDX 61 45 32 47 54 48 39 49 53 50 40 51 43 52 52 53 66 54 41 55
REMARK SMILES IDX 42 56 51 58 67 59 44 60 33 61 34 62 38 63 35 64 37 65 36 66
REMARK SMILES IDX 55 67 56 68 60 69 57 70 59 71 58 72 45 73 46 74 50 75 47 76
REMARK SMILES IDX 49 77 48 78
REMARK H PARENT 10 23 65 46 43 57
REMARK Flexibility Score: inf
ROOT
ATOM      1  O   UNL A   1      38.350  22.315  26.099  1.00  0.00    -0.374 OA
ENDROOT
BRANCH   1   2
ATOM      2  C   UNL A   1      37.881  23.623  25.785  1.00  0.00     0.202 C 
BRANCH   2   3
ATOM      3  C   UNL A   1      36.578  23.718  24.982  1.00  0.00     0.261 C 
BRANCH   3   4
ATOM      4  O   UNL A   1      35.455  24.251  25.705  1.00  0.00    -0.462 OA
BRANCH   4   5
ATOM      5  C   UNL A   1      34.534  23.329  26.094  1.00  0.00     0.329 C 
ATOM      6  O   UNL A   1      34.802  22.213  26.530  1.00  0.00    -0.250 OA
BRANCH   5   7
ATOM      7  C   UNL A   1      33.083  23.751  25.837  1.00  0.00     0.198 C 
ATOM      8  N   UNL A   1      32.285  23.115  24.783  1.00  0.00    -0.321 N 
ATOM      9  C   UNL A   1      31.018  22.633  25.299  1.00  0.00     0.152 C 
ATOM     10  C   UNL A   1      30.859  23.301  26.660  1.00  0.00     0.136 C 
ATOM     11  C   UNL A   1      32.297  23.483  27.125  1.00  0.00     0.071 C 
BRANCH   8  12
ATOM     12  C   UNL A   1      32.467  23.541  23.480  1.00  0.00     0.275 C 
ATOM     13  O   UNL A   1      32.888  22.812  22.593  1.00  0.00    -0.267 OA
BRANCH  12  14
ATOM     14  C   UNL A   1      32.327  25.035  23.166  1.00  0.00     0.149 A 
ATOM     15  C   UNL A   1      29.827  27.607  23.215  1.00  0.00     0.178 C 
ATOM     16  N   UNL A   1      31.131  26.986  23.084  1.00  0.00    -0.232 N 
ATOM     17  N   UNL A   1      31.176  25.620  23.303  1.00  0.00    -0.165 NA
ATOM     18  C   UNL A   1      32.230  27.764  22.737  1.00  0.00     0.266 A 
ATOM     19  C   UNL A   1      33.517  27.048  22.622  1.00  0.00     0.076 A 
ATOM     20  O   UNL A   1      32.207  28.973  22.524  1.00  0.00    -0.268 OA
ATOM     21  C   UNL A   1      33.584  25.730  22.810  1.00  0.00     0.042 A 
ENDBRANCH  12  14
ENDBRANCH   8  12
BRANCH  10  22
ATOM     22  O   UNL A   1      30.124  22.509  27.578  1.00  0.00    -0.391 OA
ATOM     23  H   UNL A   1      30.709  21.843  27.971  1.00  0.00     0.211 HD
ENDBRANCH  10  22
ENDBRANCH   5   7
ENDBRANCH   4   5
ENDBRANCH   3   4
ENDBRANCH   2   3
ENDBRANCH   1   2
BRANCH   1  24
ATOM     24  C   UNL A   1      37.959  21.252  25.225  1.00  0.00     0.202 C 
BRANCH  24  25
ATOM     25  C   UNL A   1      38.829  19.992  25.280  1.00  0.00     0.261 C 
BRANCH  25  26
ATOM     26  O   UNL A   1      39.676  20.021  26.441  1.00  0.00    -0.460 OA
BRANCH  26  27
ATOM     27  C   UNL A   1      40.983  19.822  26.193  1.00  0.00     0.338 C 
ATOM     28  O   UNL A   1      41.501  18.886  25.608  1.00  0.00    -0.246 OA
BRANCH  27  29
ATOM     29  C   UNL A   1      41.737  20.995  26.658  1.00  0.00     0.060 A 
ATOM     30  C   UNL A   1      41.868  21.211  28.035  1.00  0.00     0.016 A 
ATOM     31  C   UNL A   1      42.165  21.954  25.738  1.00  0.00     0.016 A 
ATOM     32  C   UNL A   1      42.370  22.427  28.497  1.00  0.00     0.010 A 
ATOM     33  C   UNL A   1      42.666  23.172  26.204  1.00  0.00     0.010 A 
ATOM     34  C   UNL A   1      42.722  23.432  27.584  1.00  0.00    -0.014 A 
BRANCH  34  35
ATOM     35  C   UNL A   1      42.957  24.811  28.074  1.00  0.00     0.031 A 
ATOM     36  C   UNL A   1      44.371  25.255  28.339  1.00  0.00     0.074 A 
ATOM     37  C   UNL A   1      41.941  25.675  28.238  1.00  0.00     0.049 A 
ATOM     38  N   UNL A   1      44.809  26.421  28.742  1.00  0.00    -0.248 NA
ATOM     39  C   UNL A   1      45.432  24.261  28.105  1.00  0.00     0.031 C 
ATOM     40  C   UNL A   1      40.534  25.391  27.966  1.00  0.00     0.029 A 
ATOM     41  N   UNL A   1      41.948  26.981  28.664  1.00  0.00    -0.354 N 
ATOM     42  C   UNL A   1      46.192  26.304  28.796  1.00  0.00     0.074 A 
ATOM     43  C   UNL A   1      46.522  24.950  28.412  1.00  0.00     0.031 C 
ATOM     44  C   UNL A   1      39.812  26.496  28.221  1.00  0.00     0.029 A 
ATOM     45  C   UNL A   1      40.703  27.554  28.697  1.00  0.00     0.049 A 
ATOM     46  H   UNL A   1      42.770  27.459  28.921  1.00  0.00     0.167 HD
ATOM     47  C   UNL A   1      47.108  27.244  29.124  1.00  0.00     0.031 A 
ATOM     48  C   UNL A   1      40.322  28.790  29.072  1.00  0.00     0.031 A 
ATOM     49  C   UNL A   1      46.792  28.586  29.526  1.00  0.00     0.049 A 
ATOM     50  C   UNL A   1      41.350  29.785  29.537  1.00  0.00     0.074 A 
ATOM     51  C   UNL A   1      47.662  29.602  29.883  1.00  0.00     0.029 A 
ATOM     52  N   UNL A   1      45.510  29.095  29.631  1.00  0.00    -0.354 N 
ATOM     53  N   UNL A   1      42.652  29.659  29.587  1.00  0.00    -0.248 NA
ATOM     54  C   UNL A   1      40.852  31.089  30.002  1.00  0.00     0.031 C 
ATOM     55  C   UNL A   1      46.902  30.718  30.242  1.00  0.00     0.029 A 
ATOM     56  C   UNL A   1      45.563  30.406  30.070  1.00  0.00     0.049 A 
ATOM     57  H   UNL A   1      44.685  28.600  29.424  1.00  0.00     0.167 HD
ATOM     58  C   UNL A   1      43.132  30.869  30.072  1.00  0.00     0.074 A 
ATOM     59  C   UNL A   1      41.983  31.720  30.298  1.00  0.00     0.031 C 
ATOM     60  C   UNL A   1      44.414  31.240  30.301  1.00  0.00     0.031 A 
BRANCH  47  61
ATOM     61  C   UNL A   1      48.553  26.851  29.075  1.00  0.00    -0.014 A 
ATOM     62  C   UNL A   1      49.174  26.268  30.189  1.00  0.00     0.009 A 
ATOM     63  C   UNL A   1      49.277  26.992  27.881  1.00  0.00     0.009 A 
ATOM     64  C   UNL A   1      50.500  25.840  30.112  1.00  0.00     0.001 A 
ATOM     65  C   UNL A   1      50.598  26.549  27.802  1.00  0.00     0.001 A 
ATOM     66  C   UNL A   1      51.208  25.976  28.917  1.00  0.00     0.000 A 
ENDBRANCH  47  61
BRANCH  48  67
ATOM     67  C   UNL A   1      38.885  29.159  29.022  1.00  0.00    -0.014 A 
ATOM     68  C   UNL A   1      38.320  29.647  27.836  1.00  0.00     0.009 A 
ATOM     69  C   UNL A   1      38.071  29.002  30.154  1.00  0.00     0.009 A 
ATOM     70  C   UNL A   1      36.963  29.975  27.786  1.00  0.00     0.001 A 
ATOM     71  C   UNL A   1      36.713  29.316  30.096  1.00  0.00     0.001 A 
ATOM     72  C   UNL A   1      36.160  29.804  28.913  1.00  0.00     0.000 A 
ENDBRANCH  48  67
BRANCH  60  73
ATOM     73  C   UNL A   1      44.666  32.626  30.816  1.00  0.00    -0.014 A 
ATOM     74  C   UNL A   1      44.791  33.708  29.933  1.00  0.00     0.009 A 
ATOM     75  C   UNL A   1      44.662  32.866  32.199  1.00  0.00     0.009 A 
ATOM     76  C   UNL A   1      44.912  35.008  30.427  1.00  0.00     0.001 A 
ATOM     77  C   UNL A   1      44.767  34.169  32.689  1.00  0.00     0.001 A 
ATOM     78  C   UNL A   1      44.891  35.238  31.802  1.00  0.00     0.000 A 
ENDBRANCH  60  73
ENDBRANCH  34  35
ENDBRANCH  27  29
ENDBRANCH  26  27
ENDBRANCH  25  26
ENDBRANCH  24  25
ENDBRANCH   1  24
TORSDOF 17
ENDMDL
MODEL 3
REMARK VINA RESULT:     -10.1      4.323      7.830
REMARK SMILES Cn1nc(C(=O)N2C[C@@H](O)C[C@H]2C(=O)OCCOCCOC(=O)c2ccc(-c3c4nc(c(-c5ccccc5)c5ccc([nH]5)c(-c5ccccc5)c5nc(c(-c6ccccc6)c6ccc3[nH]6)C=C5)C=C4)cc2)ccc1=O
REMARK SMILES IDX 18 1 17 2 16 3 15 4 13 5 14 6 12 7 7 8 8 9 9 10 11 11 5 12
REMARK SMILES IDX 6 13 4 14 1 15 2 16 3 17 74 18 73 19 75 20 72 21 10 22 19 24
REMARK SMILES IDX 20 25 21 26 22 27 23 28 24 29 25 30 71 31 26 32 70 33 27 34
REMARK SMILES IDX 28 35 29 36 64 37 30 38 69 39 63 40 65 41 31 42 68 43 62 44
REMARK SMILES IDX 61 45 32 47 54 48 39 49 53 50 40 51 43 52 52 53 66 54 41 55
REMARK SMILES IDX 42 56 51 58 67 59 44 60 33 61 34 62 38 63 35 64 37 65 36 66
REMARK SMILES IDX 55 67 56 68 60 69 57 70 59 71 58 72 45 73 46 74 50 75 47 76
REMARK SMILES IDX 49 77 48 78
REMARK H PARENT 10 23 65 46 43 57
REMARK Flexibility Score: inf
ROOT
ATOM      1  O   UNL A   1      39.609  21.261  26.132  1.00  0.00    -0.374 OA
ENDROOT
BRANCH   1   2
ATOM      2  C   UNL A   1      38.594  22.222  25.862  1.00  0.00     0.202 C 
BRANCH   2   3
ATOM      3  C   UNL A   1      37.384  21.744  25.049  1.00  0.00     0.261 C 
BRANCH   3   4
ATOM      4  O   UNL A   1      36.511  22.790  24.586  1.00  0.00    -0.462 OA
BRANCH   4   5
ATOM      5  C   UNL A   1      35.214  22.668  24.976  1.00  0.00     0.329 C 
ATOM      6  O   UNL A   1      34.824  22.735  26.139  1.00  0.00    -0.250 OA
BRANCH   5   7
ATOM      7  C   UNL A   1      34.250  22.318  23.837  1.00  0.00     0.198 C 
ATOM      8  N   UNL A   1      32.808  22.192  24.077  1.00  0.00    -0.321 N 
ATOM      9  C   UNL A   1      32.046  23.009  23.151  1.00  0.00     0.152 C 
ATOM     10  C   UNL A   1      33.032  23.397  22.055  1.00  0.00     0.136 C 
ATOM     11  C   UNL A   1      34.367  23.427  22.786  1.00  0.00     0.071 C 
BRANCH   8  12
ATOM     12  C   UNL A   1      32.337  21.010  24.619  1.00  0.00     0.275 C 
ATOM     13  O   UNL A   1      31.602  20.971  25.595  1.00  0.00    -0.267 OA
BRANCH  12  14
ATOM     14  C   UNL A   1      32.911  19.684  24.107  1.00  0.00     0.149 A 
ATOM     15  C   UNL A   1      35.453  17.302  24.966  1.00  0.00     0.178 C 
ATOM     16  N   UNL A   1      34.324  17.889  24.270  1.00  0.00    -0.232 N 
ATOM     17  N   UNL A   1      33.904  19.125  24.730  1.00  0.00    -0.165 NA
ATOM     18  C   UNL A   1      33.751  17.213  23.198  1.00  0.00     0.266 A 
ATOM     19  C   UNL A   1      32.610  17.885  22.546  1.00  0.00     0.076 A 
ATOM     20  O   UNL A   1      34.119  16.124  22.765  1.00  0.00    -0.268 OA
ATOM     21  C   UNL A   1      32.197  19.083  22.958  1.00  0.00     0.042 A 
ENDBRANCH  12  14
ENDBRANCH   8  12
BRANCH  10  22
ATOM     22  O   UNL A   1      32.741  24.660  21.477  1.00  0.00    -0.391 OA
ATOM     23  H   UNL A   1      33.367  24.839  20.759  1.00  0.00     0.211 HD
ENDBRANCH  10  22
ENDBRANCH   5   7
ENDBRANCH   4   5
ENDBRANCH   3   4
ENDBRANCH   2   3
ENDBRANCH   1   2
BRANCH   1  24
ATOM     24  C   UNL A   1      40.667  21.656  27.011  1.00  0.00     0.202 C 
BRANCH  24  25
ATOM     25  C   UNL A   1      41.931  22.192  26.330  1.00  0.00     0.261 C 
BRANCH  25  26
ATOM     26  O   UNL A   1      42.350  23.418  26.952  1.00  0.00    -0.460 OA
BRANCH  26  27
ATOM     27  C   UNL A   1      42.285  24.504  26.161  1.00  0.00     0.338 C 
ATOM     28  O   UNL A   1      42.561  24.586  24.976  1.00  0.00    -0.246 OA
BRANCH  27  29
ATOM     29  C   UNL A   1      41.712  25.617  26.932  1.00  0.00     0.060 A 
ATOM     30  C   UNL A   1      42.303  26.881  26.834  1.00  0.00     0.016 A 
ATOM     31  C   UNL A   1      40.702  25.367  27.863  1.00  0.00     0.016 A 
ATOM     32  C   UNL A   1      41.929  27.888  27.723  1.00  0.00     0.010 A 
ATOM     33  C   UNL A   1      40.331  26.376  28.755  1.00  0.00     0.010 A 
ATOM     34  C   UNL A   1      40.979  27.623  28.721  1.00  0.00    -0.014 A 
BRANCH  34  35
ATOM     35  C   UNL A   1      40.813  28.580  29.841  1.00  0.00     0.031 A 
ATOM     36  C   UNL A   1      39.717  29.609  29.759  1.00  0.00     0.074 A 
ATOM     37  C   UNL A   1      41.588  28.513  30.936  1.00  0.00     0.049 A 
ATOM     38  N   UNL A   1      39.374  30.522  30.632  1.00  0.00    -0.248 NA
ATOM     39  C   UNL A   1      38.889  29.599  28.540  1.00  0.00     0.031 C 
ATOM     40  C   UNL A   1      42.646  27.533  31.166  1.00  0.00     0.029 A 
ATOM     41  N   UNL A   1      41.587  29.286  32.071  1.00  0.00    -0.354 N 
ATOM     42  C   UNL A   1      38.286  31.182  30.075  1.00  0.00     0.074 A 
ATOM     43  C   UNL A   1      38.040  30.588  28.781  1.00  0.00     0.031 C 
ATOM     44  C   UNL A   1      43.189  27.756  32.377  1.00  0.00     0.029 A 
ATOM     45  C   UNL A   1      42.530  28.909  32.993  1.00  0.00     0.049 A 
ATOM     46  H   UNL A   1      40.969  30.039  32.209  1.00  0.00     0.167 HD
ATOM     47  C   UNL A   1      37.548  32.188  30.600  1.00  0.00     0.031 A 
ATOM     48  C   UNL A   1      42.834  29.434  34.195  1.00  0.00     0.031 A 
ATOM     49  C   UNL A   1      37.794  32.800  31.876  1.00  0.00     0.049 A 
ATOM     50  C   UNL A   1      42.069  30.622  34.711  1.00  0.00     0.074 A 
ATOM     51  C   UNL A   1      37.096  33.831  32.481  1.00  0.00     0.029 A 
ATOM     52  N   UNL A   1      38.817  32.444  32.736  1.00  0.00    -0.354 N 
ATOM     53  N   UNL A   1      41.046  31.238  34.172  1.00  0.00    -0.248 NA
ATOM     54  C   UNL A   1      42.505  31.188  35.997  1.00  0.00     0.031 C 
ATOM     55  C   UNL A   1      37.723  34.126  33.694  1.00  0.00     0.029 A 
ATOM     56  C   UNL A   1      38.785  33.252  33.859  1.00  0.00     0.049 A 
ATOM     57  H   UNL A   1      39.469  31.725  32.574  1.00  0.00     0.167 HD
ATOM     58  C   UNL A   1      40.705  32.252  35.059  1.00  0.00     0.074 A 
ATOM     59  C   UNL A   1      41.626  32.169  36.172  1.00  0.00     0.031 C 
ATOM     60  C   UNL A   1      39.711  33.166  34.956  1.00  0.00     0.031 A 
BRANCH  47  61
ATOM     61  C   UNL A   1      36.400  32.704  29.787  1.00  0.00    -0.014 A 
ATOM     62  C   UNL A   1      36.581  33.768  28.890  1.00  0.00     0.009 A 
ATOM     63  C   UNL A   1      35.150  32.071  29.859  1.00  0.00     0.009 A 
ATOM     64  C   UNL A   1      35.524  34.196  28.085  1.00  0.00     0.001 A 
ATOM     65  C   UNL A   1      34.100  32.492  29.041  1.00  0.00     0.001 A 
ATOM     66  C   UNL A   1      34.288  33.554  28.157  1.00  0.00     0.000 A 
ENDBRANCH  47  61
BRANCH  48  67
ATOM     67  C   UNL A   1      43.924  28.833  35.002  1.00  0.00    -0.014 A 
ATOM     68  C   UNL A   1      43.644  27.821  35.930  1.00  0.00     0.009 A 
ATOM     69  C   UNL A   1      45.252  29.253  34.829  1.00  0.00     0.009 A 
ATOM     70  C   UNL A   1      44.675  27.242  36.674  1.00  0.00     0.001 A 
ATOM     71  C   UNL A   1      46.281  28.663  35.562  1.00  0.00     0.001 A 
ATOM     72  C   UNL A   1      45.992  27.659  36.486  1.00  0.00     0.000 A 
ENDBRANCH  48  67
BRANCH  60  73
ATOM     73  C   UNL A   1      39.544  34.154  36.072  1.00  0.00    -0.014 A 
ATOM     74  C   UNL A   1      38.830  33.814  37.231  1.00  0.00     0.009 A 
ATOM     75  C   UNL A   1      40.203  35.392  36.011  1.00  0.00     0.009 A 
ATOM     76  C   UNL A   1      38.777  34.699  38.308  1.00  0.00     0.001 A 
ATOM     77  C   UNL A   1      40.161  36.268  37.098  1.00  0.00     0.001 A 
ATOM     78  C   UNL A   1      39.448  35.920  38.245  1.00  0.00     0.000 A 
ENDBRANCH  60  73
ENDBRANCH  34  35
ENDBRANCH  27  29
ENDBRANCH  26  27
ENDBRANCH  25  26
ENDBRANCH  24  25
ENDBRANCH   1  24
TORSDOF 17
ENDMDL
