MODEL 1
REMARK VINA RESULT:     -11.2      0.000      0.000
REMARK SMILES Cc1nn(-c2ccncn2)c(C)c1[C@@H](C)C(=O)OCCOCCOC(=O)c1ccc(-c2c3nc(c(-c4ccccc4)c4ccc([nH]4)c(-c4ccccc4)c4nc(c(-c5ccccc5)c5ccc2[nH]5)C=C4)C=C3)cc1
REMARK SMILES IDX 21 1 20 2 19 3 18 4 16 5 17 6 14 7 15 8 13 9 1 10 2 11 3 12
REMARK SMILES IDX 4 13 11 14 12 15 5 16 6 17 10 18 7 19 9 20 8 21 22 22 23 23
REMARK SMILES IDX 24 24 25 25 26 26 27 27 28 28 74 29 29 30 73 31 30 32 31 33
REMARK SMILES IDX 32 34 67 35 33 36 72 37 66 38 68 39 34 40 71 41 65 42 64 43
REMARK SMILES IDX 35 45 57 46 42 47 56 48 43 49 46 50 55 51 69 52 44 53 45 54
REMARK SMILES IDX 54 56 70 57 47 58 36 59 37 60 41 61 38 62 40 63 39 64 58 65
REMARK SMILES IDX 59 66 63 67 60 68 62 69 61 70 48 71 49 72 53 73 50 74 52 75
REMARK SMILES IDX 51 76
REMARK H PARENT 68 44 46 55
REMARK Flexibility Score: inf
ROOT
ATOM      1  O   UNL A   1      31.962  29.358  26.992  1.00  0.00    -0.374 OA
ENDROOT
BRANCH   1   2
ATOM      2  C   UNL A   1      32.154  28.390  25.960  1.00  0.00     0.202 C 
BRANCH   2   3
ATOM      3  C   UNL A   1      32.355  26.948  26.418  1.00  0.00     0.261 C 
BRANCH   3   4
ATOM      4  O   UNL A   1      31.772  26.025  25.482  1.00  0.00    -0.463 OA
BRANCH   4   5
ATOM      5  C   UNL A   1      30.420  25.921  25.497  1.00  0.00     0.313 C 
ATOM      6  O   UNL A   1      29.751  25.827  26.524  1.00  0.00    -0.252 OA
BRANCH   5   7
ATOM      7  C   UNL A   1      29.767  25.929  24.120  1.00  0.00     0.130 C 
ATOM      8  C   UNL A   1      30.276  24.721  23.337  1.00  0.00     0.025 C 
BRANCH   7   9
ATOM      9  C   UNL A   1      29.830  27.195  23.289  1.00  0.00     0.010 A 
ATOM     10  C   UNL A   1      32.298  27.025  22.408  1.00  0.00     0.069 C 
ATOM     11  C   UNL A   1      30.956  27.655  22.543  1.00  0.00     0.064 A 
ATOM     12  N   UNL A   1      30.705  28.803  21.911  1.00  0.00    -0.171 NA
ATOM     13  N   UNL A   1      29.502  29.215  22.381  1.00  0.00    -0.219 N 
ATOM     14  C   UNL A   1      28.875  28.191  23.099  1.00  0.00     0.047 A 
ATOM     15  C   UNL A   1      27.427  28.196  23.449  1.00  0.00     0.067 C 
BRANCH  13  16
ATOM     16  C   UNL A   1      29.027  30.539  22.084  1.00  0.00     0.156 A 
ATOM     17  C   UNL A   1      29.070  31.516  23.058  1.00  0.00     0.069 A 
ATOM     18  N   UNL A   1      28.541  30.799  20.845  1.00  0.00    -0.217 NA
ATOM     19  C   UNL A   1      28.458  32.712  22.761  1.00  0.00     0.117 A 
ATOM     20  C   UNL A   1      27.997  32.012  20.657  1.00  0.00     0.224 A 
ATOM     21  N   UNL A   1      27.883  32.976  21.579  1.00  0.00    -0.245 NA
ENDBRANCH  13  16
ENDBRANCH   7   9
ENDBRANCH   5   7
ENDBRANCH   4   5
ENDBRANCH   3   4
ENDBRANCH   2   3
ENDBRANCH   1   2
BRANCH   1  22
ATOM     22  C   UNL A   1      32.060  30.740  26.661  1.00  0.00     0.202 C 
BRANCH  22  23
ATOM     23  C   UNL A   1      33.037  31.578  27.471  1.00  0.00     0.261 C 
BRANCH  23  24
ATOM     24  O   UNL A   1      34.363  31.073  27.408  1.00  0.00    -0.460 OA
BRANCH  24  25
ATOM     25  C   UNL A   1      35.324  31.942  27.808  1.00  0.00     0.338 C 
ATOM     26  O   UNL A   1      35.435  33.113  27.510  1.00  0.00    -0.246 OA
BRANCH  25  27
ATOM     27  C   UNL A   1      36.337  31.181  28.552  1.00  0.00     0.060 A 
ATOM     28  C   UNL A   1      37.339  31.884  29.226  1.00  0.00     0.016 A 
ATOM     29  C   UNL A   1      36.429  29.802  28.345  1.00  0.00     0.016 A 
ATOM     30  C   UNL A   1      38.520  31.228  29.531  1.00  0.00     0.010 A 
ATOM     31  C   UNL A   1      37.609  29.169  28.629  1.00  0.00     0.010 A 
ATOM     32  C   UNL A   1      38.671  29.895  29.138  1.00  0.00    -0.014 A 
BRANCH  32  33
ATOM     33  C   UNL A   1      39.906  29.178  29.379  1.00  0.00     0.031 A 
ATOM     34  C   UNL A   1      40.166  28.986  30.819  1.00  0.00     0.074 A 
ATOM     35  C   UNL A   1      40.644  28.591  28.415  1.00  0.00     0.049 A 
ATOM     36  N   UNL A   1      41.008  29.646  31.537  1.00  0.00    -0.248 NA
ATOM     37  C   UNL A   1      39.264  28.115  31.591  1.00  0.00     0.031 C 
ATOM     38  C   UNL A   1      40.335  28.410  26.994  1.00  0.00     0.029 A 
ATOM     39  N   UNL A   1      41.835  27.946  28.544  1.00  0.00    -0.354 N 
ATOM     40  C   UNL A   1      40.905  29.113  32.813  1.00  0.00     0.074 A 
ATOM     41  C   UNL A   1      39.687  28.344  32.835  1.00  0.00     0.031 C 
ATOM     42  C   UNL A   1      41.211  27.529  26.449  1.00  0.00     0.029 A 
ATOM     43  C   UNL A   1      42.224  27.198  27.438  1.00  0.00     0.049 A 
ATOM     44  H   UNL A   1      42.382  28.004  29.361  1.00  0.00     0.167 HD
ATOM     45  C   UNL A   1      41.978  29.111  33.650  1.00  0.00     0.031 A 
ATOM     46  C   UNL A   1      43.287  26.351  27.370  1.00  0.00     0.031 A 
ATOM     47  C   UNL A   1      43.016  29.994  33.174  1.00  0.00     0.049 A 
ATOM     48  C   UNL A   1      44.210  26.718  28.470  1.00  0.00     0.074 A 
ATOM     49  C   UNL A   1      43.087  31.343  32.891  1.00  0.00     0.029 A 
ATOM     50  N   UNL A   1      44.065  29.408  32.505  1.00  0.00    -0.354 N 
ATOM     51  N   UNL A   1      44.876  27.836  28.501  1.00  0.00    -0.248 NA
ATOM     52  C   UNL A   1      44.029  26.060  29.754  1.00  0.00     0.031 C 
ATOM     53  C   UNL A   1      43.869  31.427  31.701  1.00  0.00     0.029 A 
ATOM     54  C   UNL A   1      44.307  30.143  31.373  1.00  0.00     0.049 A 
ATOM     55  H   UNL A   1      44.557  28.603  32.788  1.00  0.00     0.167 HD
ATOM     56  C   UNL A   1      44.791  28.255  29.820  1.00  0.00     0.074 A 
ATOM     57  C   UNL A   1      44.336  27.080  30.563  1.00  0.00     0.031 C 
ATOM     58  C   UNL A   1      44.813  29.583  30.138  1.00  0.00     0.031 A 
BRANCH  45  59
ATOM     59  C   UNL A   1      42.262  27.991  34.616  1.00  0.00    -0.014 A 
ATOM     60  C   UNL A   1      42.792  26.794  34.109  1.00  0.00     0.009 A 
ATOM     61  C   UNL A   1      41.773  27.961  35.936  1.00  0.00     0.009 A 
ATOM     62  C   UNL A   1      42.763  25.612  34.858  1.00  0.00     0.001 A 
ATOM     63  C   UNL A   1      41.780  26.794  36.702  1.00  0.00     0.001 A 
ATOM     64  C   UNL A   1      42.250  25.612  36.151  1.00  0.00     0.000 A 
ENDBRANCH  45  59
BRANCH  46  65
ATOM     65  C   UNL A   1      43.452  25.076  26.630  1.00  0.00    -0.014 A 
ATOM     66  C   UNL A   1      42.506  24.042  26.758  1.00  0.00     0.009 A 
ATOM     67  C   UNL A   1      44.361  24.994  25.562  1.00  0.00     0.009 A 
ATOM     68  C   UNL A   1      42.443  22.996  25.824  1.00  0.00     0.001 A 
ATOM     69  C   UNL A   1      44.299  23.950  24.630  1.00  0.00     0.001 A 
ATOM     70  C   UNL A   1      43.329  22.961  24.751  1.00  0.00     0.000 A 
ENDBRANCH  46  65
BRANCH  58  71
ATOM     71  C   UNL A   1      45.179  30.569  29.053  1.00  0.00    -0.014 A 
ATOM     72  C   UNL A   1      46.502  30.944  28.752  1.00  0.00     0.009 A 
ATOM     73  C   UNL A   1      44.154  31.018  28.208  1.00  0.00     0.009 A 
ATOM     74  C   UNL A   1      46.780  31.764  27.650  1.00  0.00     0.001 A 
ATOM     75  C   UNL A   1      44.434  31.817  27.098  1.00  0.00     0.001 A 
ATOM     76  C   UNL A   1      45.745  32.194  26.822  1.00  0.00     0.000 A 
ENDBRANCH  58  71
ENDBRANCH  32  33
ENDBRANCH  25  27
ENDBRANCH  24  25
ENDBRANCH  23  24
ENDBRANCH  22  23
ENDBRANCH   1  22
TORSDOF 16
ENDMDL
MODEL 2
REMARK VINA RESULT:     -10.8      4.260      9.015
REMARK SMILES Cc1nn(-c2ccncn2)c(C)c1[C@@H](C)C(=O)OCCOCCOC(=O)c1ccc(-c2c3nc(c(-c4ccccc4)c4ccc([nH]4)c(-c4ccccc4)c4nc(c(-c5ccccc5)c5ccc2[nH]5)C=C4)C=C3)cc1
REMARK SMILES IDX 21 1 20 2 19 3 18 4 16 5 17 6 14 7 15 8 13 9 1 10 2 11 3 12
REMARK SMILES IDX 4 13 11 14 12 15 5 16 6 17 10 18 7 19 9 20 8 21 22 22 23 23
REMARK SMILES IDX 24 24 25 25 26 26 27 27 28 28 74 29 29 30 73 31 30 32 31 33
REMARK SMILES IDX 32 34 67 35 33 36 72 37 66 38 68 39 34 40 71 41 65 42 64 43
REMARK SMILES IDX 35 45 57 46 42 47 56 48 43 49 46 50 55 51 69 52 44 53 45 54
REMARK SMILES IDX 54 56 70 57 47 58 36 59 37 60 41 61 38 62 40 63 39 64 58 65
REMARK SMILES IDX 59 66 63 67 60 68 62 69 61 70 48 71 49 72 53 73 50 74 52 75
REMARK SMILES IDX 51 76
REMARK H PARENT 68 44 46 55
REMARK Flexibility Score: inf
ROOT
ATOM      1  O   UNL A   1      41.115  19.293  26.605  1.00  0.00    -0.374 OA
ENDROOT
BRANCH   1   2
ATOM      2  C   UNL A   1      41.348  20.678  26.865  1.00  0.00     0.202 C 
BRANCH   2   3
ATOM      3  C   UNL A   1      40.543  21.666  26.026  1.00  0.00     0.261 C 
BRANCH   3   4
ATOM      4  O   UNL A   1      39.213  21.175  25.788  1.00  0.00    -0.463 OA
BRANCH   4   5
ATOM      5  C   UNL A   1      38.206  22.079  25.893  1.00  0.00     0.313 C 
ATOM      6  O   UNL A   1      38.381  23.285  26.045  1.00  0.00    -0.252 OA
BRANCH   5   7
ATOM      7  C   UNL A   1      36.807  21.482  25.805  1.00  0.00     0.130 C 
ATOM      8  C   UNL A   1      36.860  20.252  24.903  1.00  0.00     0.025 C 
BRANCH   7   9
ATOM      9  C   UNL A   1      35.648  22.388  25.438  1.00  0.00     0.010 A 
ATOM     10  C   UNL A   1      36.350  23.038  22.992  1.00  0.00     0.069 C 
ATOM     11  C   UNL A   1      35.469  23.060  24.193  1.00  0.00     0.064 A 
ATOM     12  N   UNL A   1      34.349  23.786  24.169  1.00  0.00    -0.171 NA
ATOM     13  N   UNL A   1      33.883  23.766  25.442  1.00  0.00    -0.219 N 
ATOM     14  C   UNL A   1      34.560  22.806  26.201  1.00  0.00     0.047 A 
ATOM     15  C   UNL A   1      34.071  22.298  27.514  1.00  0.00     0.067 C 
BRANCH  13  16
ATOM     16  C   UNL A   1      32.809  24.640  25.830  1.00  0.00     0.156 A 
ATOM     17  C   UNL A   1      31.505  24.193  25.763  1.00  0.00     0.069 A 
ATOM     18  N   UNL A   1      33.103  25.895  26.251  1.00  0.00    -0.217 NA
ATOM     19  C   UNL A   1      30.519  25.123  25.995  1.00  0.00     0.117 A 
ATOM     20  C   UNL A   1      32.062  26.709  26.482  1.00  0.00     0.224 A 
ATOM     21  N   UNL A   1      30.768  26.400  26.324  1.00  0.00    -0.245 NA
ENDBRANCH  13  16
ENDBRANCH   7   9
ENDBRANCH   5   7
ENDBRANCH   4   5
ENDBRANCH   3   4
ENDBRANCH   2   3
ENDBRANCH   1   2
BRANCH   1  22
ATOM     22  C   UNL A   1      42.172  18.512  26.056  1.00  0.00     0.202 C 
BRANCH  22  23
ATOM     23  C   UNL A   1      43.500  19.215  25.820  1.00  0.00     0.261 C 
BRANCH  23  24
ATOM     24  O   UNL A   1      43.599  19.758  24.511  1.00  0.00    -0.460 OA
BRANCH  24  25
ATOM     25  C   UNL A   1      44.835  20.192  24.165  1.00  0.00     0.338 C 
ATOM     26  O   UNL A   1      45.742  19.541  23.687  1.00  0.00    -0.246 OA
BRANCH  25  27
ATOM     27  C   UNL A   1      44.970  21.581  24.624  1.00  0.00     0.060 A 
ATOM     28  C   UNL A   1      45.812  21.847  25.707  1.00  0.00     0.016 A 
ATOM     29  C   UNL A   1      44.065  22.536  24.154  1.00  0.00     0.016 A 
ATOM     30  C   UNL A   1      45.614  23.011  26.432  1.00  0.00     0.010 A 
ATOM     31  C   UNL A   1      43.861  23.671  24.891  1.00  0.00     0.010 A 
ATOM     32  C   UNL A   1      44.570  23.864  26.063  1.00  0.00    -0.014 A 
BRANCH  32  33
ATOM     33  C   UNL A   1      44.280  25.064  26.820  1.00  0.00     0.031 A 
ATOM     34  C   UNL A   1      45.281  26.124  26.588  1.00  0.00     0.074 A 
ATOM     35  C   UNL A   1      43.141  25.269  27.513  1.00  0.00     0.049 A 
ATOM     36  N   UNL A   1      46.231  26.464  27.388  1.00  0.00    -0.248 NA
ATOM     37  C   UNL A   1      45.367  26.735  25.251  1.00  0.00     0.031 C 
ATOM     38  C   UNL A   1      41.924  24.453  27.556  1.00  0.00     0.029 A 
ATOM     39  N   UNL A   1      42.810  26.336  28.288  1.00  0.00    -0.354 N 
ATOM     40  C   UNL A   1      46.901  27.498  26.750  1.00  0.00     0.074 A 
ATOM     41  C   UNL A   1      46.472  27.472  25.375  1.00  0.00     0.031 C 
ATOM     42  C   UNL A   1      40.927  25.159  28.145  1.00  0.00     0.029 A 
ATOM     43  C   UNL A   1      41.469  26.411  28.649  1.00  0.00     0.049 A 
ATOM     44  H   UNL A   1      43.471  27.008  28.573  1.00  0.00     0.167 HD
ATOM     45  C   UNL A   1      47.527  28.465  27.473  1.00  0.00     0.031 A 
ATOM     46  C   UNL A   1      40.861  27.447  29.288  1.00  0.00     0.031 A 
ATOM     47  C   UNL A   1      47.676  28.076  28.854  1.00  0.00     0.049 A 
ATOM     48  C   UNL A   1      41.926  28.240  29.947  1.00  0.00     0.074 A 
ATOM     49  C   UNL A   1      48.291  27.025  29.504  1.00  0.00     0.029 A 
ATOM     50  N   UNL A   1      46.760  28.590  29.743  1.00  0.00    -0.354 N 
ATOM     51  N   UNL A   1      42.628  27.799  30.951  1.00  0.00    -0.248 NA
ATOM     52  C   UNL A   1      42.527  29.327  29.190  1.00  0.00     0.031 C 
ATOM     53  C   UNL A   1      47.392  26.663  30.550  1.00  0.00     0.029 A 
ATOM     54  C   UNL A   1      46.325  27.563  30.542  1.00  0.00     0.049 A 
ATOM     55  H   UNL A   1      46.469  29.528  29.797  1.00  0.00     0.167 HD
ATOM     56  C   UNL A   1      43.923  28.212  30.676  1.00  0.00     0.074 A 
ATOM     57  C   UNL A   1      43.786  29.224  29.628  1.00  0.00     0.031 C 
ATOM     58  C   UNL A   1      44.998  27.490  31.112  1.00  0.00     0.031 A 
BRANCH  45  59
ATOM     59  C   UNL A   1      47.579  29.907  27.040  1.00  0.00    -0.014 A 
ATOM     60  C   UNL A   1      48.780  30.613  27.218  1.00  0.00     0.009 A 
ATOM     61  C   UNL A   1      46.434  30.668  26.735  1.00  0.00     0.009 A 
ATOM     62  C   UNL A   1      48.814  32.010  27.168  1.00  0.00     0.001 A 
ATOM     63  C   UNL A   1      46.473  32.061  26.643  1.00  0.00     0.001 A 
ATOM     64  C   UNL A   1      47.659  32.733  26.889  1.00  0.00     0.000 A 
ENDBRANCH  45  59
BRANCH  46  65
ATOM     65  C   UNL A   1      39.485  27.983  29.153  1.00  0.00    -0.014 A 
ATOM     66  C   UNL A   1      38.651  28.117  30.279  1.00  0.00     0.009 A 
ATOM     67  C   UNL A   1      39.101  28.652  27.979  1.00  0.00     0.009 A 
ATOM     68  C   UNL A   1      37.508  28.931  30.243  1.00  0.00     0.001 A 
ATOM     69  C   UNL A   1      37.961  29.465  27.943  1.00  0.00     0.001 A 
ATOM     70  C   UNL A   1      37.174  29.618  29.079  1.00  0.00     0.000 A 
ENDBRANCH  46  65
BRANCH  58  71
ATOM     71  C   UNL A   1      44.752  26.376  32.103  1.00  0.00    -0.014 A 
ATOM     72  C   UNL A   1      44.532  25.036  31.734  1.00  0.00     0.009 A 
ATOM     73  C   UNL A   1      44.898  26.672  33.466  1.00  0.00     0.009 A 
ATOM     74  C   UNL A   1      44.439  24.032  32.707  1.00  0.00     0.001 A 
ATOM     75  C   UNL A   1      44.827  25.669  34.433  1.00  0.00     0.001 A 
ATOM     76  C   UNL A   1      44.592  24.350  34.055  1.00  0.00     0.000 A 
ENDBRANCH  58  71
ENDBRANCH  32  33
ENDBRANCH  25  27
ENDBRANCH  24  25
ENDBRANCH  23  24
ENDBRANCH  22  23
ENDBRANCH   1  22
TORSDOF 16
ENDMDL
MODEL 3
REMARK VINA RESULT:     -10.7      2.875      7.393
REMARK SMILES Cc1nn(-c2ccncn2)c(C)c1[C@@H](C)C(=O)OCCOCCOC(=O)c1ccc(-c2c3nc(c(-c4ccccc4)c4ccc([nH]4)c(-c4ccccc4)c4nc(c(-c5ccccc5)c5ccc2[nH]5)C=C4)C=C3)cc1
REMARK SMILES IDX 21 1 20 2 19 3 18 4 16 5 17 6 14 7 15 8 13 9 1 10 2 11 3 12
REMARK SMILES IDX 4 13 11 14 12 15 5 16 6 17 10 18 7 19 9 20 8 21 22 22 23 23
REMARK SMILES IDX 24 24 25 25 26 26 27 27 28 28 74 29 29 30 73 31 30 32 31 33
REMARK SMILES IDX 32 34 67 35 33 36 72 37 66 38 68 39 34 40 71 41 65 42 64 43
REMARK SMILES IDX 35 45 57 46 42 47 56 48 43 49 46 50 55 51 69 52 44 53 45 54
REMARK SMILES IDX 54 56 70 57 47 58 36 59 37 60 41 61 38 62 40 63 39 64 58 65
REMARK SMILES IDX 59 66 63 67 60 68 62 69 61 70 48 71 49 72 53 73 50 74 52 75
REMARK SMILES IDX 51 76
REMARK H PARENT 68 44 46 55
REMARK Flexibility Score: inf
ROOT
ATOM      1  O   UNL A   1      36.438  21.182  25.009  1.00  0.00    -0.374 OA
ENDROOT
BRANCH   1   2
ATOM      2  C   UNL A   1      35.388  21.889  24.348  1.00  0.00     0.202 C 
BRANCH   2   3
ATOM      3  C   UNL A   1      34.010  21.810  24.999  1.00  0.00     0.261 C 
BRANCH   3   4
ATOM      4  O   UNL A   1      33.625  23.084  25.545  1.00  0.00    -0.463 OA
BRANCH   4   5
ATOM      5  C   UNL A   1      32.643  23.752  24.890  1.00  0.00     0.313 C 
ATOM      6  O   UNL A   1      31.478  23.368  24.825  1.00  0.00    -0.252 OA
BRANCH   5   7
ATOM      7  C   UNL A   1      33.093  25.045  24.222  1.00  0.00     0.130 C 
ATOM      8  C   UNL A   1      33.972  25.817  25.203  1.00  0.00     0.025 C 
BRANCH   7   9
ATOM      9  C   UNL A   1      32.047  25.944  23.591  1.00  0.00     0.010 A 
ATOM     10  C   UNL A   1      32.725  25.706  21.065  1.00  0.00     0.069 C 
ATOM     11  C   UNL A   1      31.906  26.217  22.198  1.00  0.00     0.064 A 
ATOM     12  N   UNL A   1      30.890  27.046  21.949  1.00  0.00    -0.171 NA
ATOM     13  N   UNL A   1      30.479  27.483  23.165  1.00  0.00    -0.219 N 
ATOM     14  C   UNL A   1      31.055  26.720  24.185  1.00  0.00     0.047 A 
ATOM     15  C   UNL A   1      30.560  26.713  25.591  1.00  0.00     0.067 C 
BRANCH  13  16
ATOM     16  C   UNL A   1      29.544  28.572  23.261  1.00  0.00     0.156 A 
ATOM     17  C   UNL A   1      28.200  28.341  23.050  1.00  0.00     0.069 A 
ATOM     18  N   UNL A   1      30.009  29.812  23.555  1.00  0.00    -0.217 NA
ATOM     19  C   UNL A   1      27.383  29.446  23.001  1.00  0.00     0.117 A 
ATOM     20  C   UNL A   1      29.116  30.813  23.510  1.00  0.00     0.224 A 
ATOM     21  N   UNL A   1      27.819  30.699  23.194  1.00  0.00    -0.245 NA
ENDBRANCH  13  16
ENDBRANCH   7   9
ENDBRANCH   5   7
ENDBRANCH   4   5
ENDBRANCH   3   4
ENDBRANCH   2   3
ENDBRANCH   1   2
BRANCH   1  22
ATOM     22  C   UNL A   1      37.770  21.678  24.902  1.00  0.00     0.202 C 
BRANCH  22  23
ATOM     23  C   UNL A   1      38.706  21.399  26.067  1.00  0.00     0.261 C 
BRANCH  23  24
ATOM     24  O   UNL A   1      39.882  22.196  26.019  1.00  0.00    -0.460 OA
BRANCH  24  25
ATOM     25  C   UNL A   1      40.504  22.368  27.211  1.00  0.00     0.338 C 
ATOM     26  O   UNL A   1      40.683  21.539  28.079  1.00  0.00    -0.246 OA
BRANCH  25  27
ATOM     27  C   UNL A   1      40.794  23.800  27.365  1.00  0.00     0.060 A 
ATOM     28  C   UNL A   1      41.905  24.178  28.125  1.00  0.00     0.016 A 
ATOM     29  C   UNL A   1      39.822  24.728  26.986  1.00  0.00     0.016 A 
ATOM     30  C   UNL A   1      41.941  25.456  28.658  1.00  0.00     0.010 A 
ATOM     31  C   UNL A   1      39.855  25.981  27.537  1.00  0.00     0.010 A 
ATOM     32  C   UNL A   1      40.859  26.310  28.430  1.00  0.00    -0.014 A 
BRANCH  32  33
ATOM     33  C   UNL A   1      40.816  27.636  29.011  1.00  0.00     0.031 A 
ATOM     34  C   UNL A   1      41.768  28.559  28.363  1.00  0.00     0.074 A 
ATOM     35  C   UNL A   1      39.896  28.043  29.909  1.00  0.00     0.049 A 
ATOM     36  N   UNL A   1      42.901  28.944  28.839  1.00  0.00    -0.248 NA
ATOM     37  C   UNL A   1      41.541  28.938  26.958  1.00  0.00     0.031 C 
ATOM     38  C   UNL A   1      38.697  27.347  30.386  1.00  0.00     0.029 A 
ATOM     39  N   UNL A   1      39.812  29.245  30.541  1.00  0.00    -0.354 N 
ATOM     40  C   UNL A   1      43.431  29.803  27.887  1.00  0.00     0.074 A 
ATOM     41  C   UNL A   1      42.670  29.592  26.682  1.00  0.00     0.031 C 
ATOM     42  C   UNL A   1      37.908  28.218  31.063  1.00  0.00     0.029 A 
ATOM     43  C   UNL A   1      38.608  29.486  31.195  1.00  0.00     0.049 A 
ATOM     44  H   UNL A   1      40.549  29.897  30.536  1.00  0.00     0.167 HD
ATOM     45  C   UNL A   1      44.256  30.820  28.257  1.00  0.00     0.031 A 
ATOM     46  C   UNL A   1      38.221  30.658  31.768  1.00  0.00     0.031 A 
ATOM     47  C   UNL A   1      44.731  30.646  29.608  1.00  0.00     0.049 A 
ATOM     48  C   UNL A   1      39.449  31.456  32.002  1.00  0.00     0.074 A 
ATOM     49  C   UNL A   1      45.446  29.666  30.266  1.00  0.00     0.029 A 
ATOM     50  N   UNL A   1      44.088  31.370  30.586  1.00  0.00    -0.354 N 
ATOM     51  N   UNL A   1      40.361  31.126  32.869  1.00  0.00    -0.248 NA
ATOM     52  C   UNL A   1      39.884  32.354  30.944  1.00  0.00     0.031 C 
ATOM     53  C   UNL A   1      44.824  29.552  31.544  1.00  0.00     0.029 A 
ATOM     54  C   UNL A   1      43.826  30.524  31.633  1.00  0.00     0.049 A 
ATOM     55  H   UNL A   1      43.857  32.326  30.543  1.00  0.00     0.167 HD
ATOM     56  C   UNL A   1      41.562  31.381  32.224  1.00  0.00     0.074 A 
ATOM     57  C   UNL A   1      41.207  32.220  31.078  1.00  0.00     0.031 C 
ATOM     58  C   UNL A   1      42.682  30.653  32.509  1.00  0.00     0.031 A 
BRANCH  45  59
ATOM     59  C   UNL A   1      44.255  32.164  27.577  1.00  0.00    -0.014 A 
ATOM     60  C   UNL A   1      43.785  33.274  28.297  1.00  0.00     0.009 A 
ATOM     61  C   UNL A   1      44.425  32.333  26.190  1.00  0.00     0.009 A 
ATOM     62  C   UNL A   1      43.432  34.463  27.650  1.00  0.00     0.001 A 
ATOM     63  C   UNL A   1      44.114  33.531  25.545  1.00  0.00     0.001 A 
ATOM     64  C   UNL A   1      43.590  34.588  26.273  1.00  0.00     0.000 A 
ENDBRANCH  45  59
BRANCH  46  65
ATOM     65  C   UNL A   1      36.878  31.276  31.875  1.00  0.00    -0.014 A 
ATOM     66  C   UNL A   1      36.446  31.855  33.083  1.00  0.00     0.009 A 
ATOM     67  C   UNL A   1      36.147  31.578  30.714  1.00  0.00     0.009 A 
ATOM     68  C   UNL A   1      35.358  32.740  33.116  1.00  0.00     0.001 A 
ATOM     69  C   UNL A   1      35.060  32.462  30.746  1.00  0.00     0.001 A 
ATOM     70  C   UNL A   1      34.677  33.056  31.943  1.00  0.00     0.000 A 
ENDBRANCH  46  65
BRANCH  58  71
ATOM     71  C   UNL A   1      42.648  29.737  33.710  1.00  0.00    -0.014 A 
ATOM     72  C   UNL A   1      42.908  30.162  35.026  1.00  0.00     0.009 A 
ATOM     73  C   UNL A   1      42.187  28.426  33.517  1.00  0.00     0.009 A 
ATOM     74  C   UNL A   1      42.734  29.289  36.109  1.00  0.00     0.001 A 
ATOM     75  C   UNL A   1      41.992  27.564  34.597  1.00  0.00     0.001 A 
ATOM     76  C   UNL A   1      42.271  27.993  35.892  1.00  0.00     0.000 A 
ENDBRANCH  58  71
ENDBRANCH  32  33
ENDBRANCH  25  27
ENDBRANCH  24  25
ENDBRANCH  23  24
ENDBRANCH  22  23
ENDBRANCH   1  22
TORSDOF 16
ENDMDL
