MODEL 1
REMARK VINA RESULT:     -11.6      0.000      0.000
REMARK SMILES NS(=O)(=O)c1ccc(-n2nc(C(=O)OCCOCCOC(=O)c3ccc(-c4c5nc(c(-c6ccccc6)c6ccc([nH]6)c(-c6ccccc6)c6nc(c(-c7ccccc7)c7ccc4[nH]7)C=C6)C=C5)cc3)cc2-c2cc3ccccc3s2)cc1
REMARK SMILES IDX 16 1 15 2 14 3 12 4 13 5 11 6 9 7 10 8 72 9 71 10 8 11 5 12
REMARK SMILES IDX 6 13 83 14 7 15 82 16 2 17 3 18 4 19 1 20 73 23 74 24 81 25
REMARK SMILES IDX 75 26 80 27 76 28 79 29 77 30 78 31 17 32 18 33 19 34 20 35
REMARK SMILES IDX 21 36 22 37 23 38 24 39 70 40 25 41 69 42 26 43 27 44 28 45
REMARK SMILES IDX 63 46 29 47 68 48 62 49 64 50 30 51 67 52 61 53 60 54 31 56
REMARK SMILES IDX 53 57 38 58 52 59 39 60 42 61 51 62 65 63 40 64 41 65 50 67
REMARK SMILES IDX 66 68 43 69 32 70 33 71 37 72 34 73 36 74 35 75 54 76 55 77
REMARK SMILES IDX 59 78 56 79 58 80 57 81 44 82 45 83 49 84 46 85 48 86 47 87
REMARK H PARENT 1 21 1 22 64 55 42 66
REMARK Flexibility Score: inf
ROOT
ATOM      1  C   UNL A   1      34.802  34.124  28.003  1.00  0.00     0.202 C 
ENDROOT
BRANCH   1   2
ATOM      2  C   UNL A   1      34.260  32.895  28.730  1.00  0.00     0.261 C 
BRANCH   2   3
ATOM      3  O   UNL A   1      33.610  32.002  27.821  1.00  0.00    -0.458 OA
BRANCH   3   4
ATOM      4  C   UNL A   1      34.371  30.942  27.411  1.00  0.00     0.358 C 
ATOM      5  O   UNL A   1      35.583  30.857  27.559  1.00  0.00    -0.244 OA
BRANCH   4   6
ATOM      6  C   UNL A   1      33.538  29.889  26.825  1.00  0.00     0.171 A 
ATOM      7  N   UNL A   1      33.059  27.947  26.099  1.00  0.00    -0.231 N 
ATOM      8  N   UNL A   1      33.637  28.588  27.146  1.00  0.00    -0.160 NA
ATOM      9  C   UNL A   1      32.578  28.845  25.172  1.00  0.00     0.085 A 
ATOM     10  C   UNL A   1      32.549  30.060  25.839  1.00  0.00     0.068 A 
BRANCH   7  11
ATOM     11  C   UNL A   1      33.039  26.544  26.087  1.00  0.00     0.065 A 
ATOM     12  C   UNL A   1      33.041  23.779  25.974  1.00  0.00     0.082 A 
ATOM     13  C   UNL A   1      31.905  24.455  26.437  1.00  0.00     0.024 A 
ATOM     14  C   UNL A   1      34.170  24.481  25.540  1.00  0.00     0.024 A 
ATOM     15  C   UNL A   1      31.911  25.848  26.518  1.00  0.00     0.030 A 
ATOM     16  C   UNL A   1      34.160  25.873  25.573  1.00  0.00     0.030 A 
BRANCH  12  17
ATOM     17  S   UNL A   1      33.089  22.015  25.913  1.00  0.00     0.238 S 
ATOM     18  O   UNL A   1      34.423  21.620  25.511  1.00  0.00    -0.207 OA
ATOM     19  O   UNL A   1      31.901  21.539  25.253  1.00  0.00    -0.207 OA
BRANCH  17  20
ATOM     20  N   UNL A   1      32.934  21.534  27.515  1.00  0.00    -0.225 NA
ATOM     21  H   UNL A   1      32.702  22.343  28.092  1.00  0.00     0.137 HD
ATOM     22  H   UNL A   1      33.813  21.128  27.836  1.00  0.00     0.137 HD
ENDBRANCH  17  20
ENDBRANCH  12  17
ENDBRANCH   7  11
BRANCH   9  23
ATOM     23  C   UNL A   1      32.408  28.714  23.746  1.00  0.00     0.054 A 
ATOM     24  C   UNL A   1      32.836  27.656  22.950  1.00  0.00     0.031 A 
ATOM     25  S   UNL A   1      30.773  29.026  23.183  1.00  0.00    -0.134 S 
ATOM     26  C   UNL A   1      31.745  26.686  22.934  1.00  0.00    -0.007 A 
ATOM     27  C   UNL A   1      30.533  27.305  23.273  1.00  0.00     0.035 A 
ATOM     28  C   UNL A   1      31.759  25.280  22.807  1.00  0.00     0.009 A 
ATOM     29  C   UNL A   1      29.394  26.579  23.651  1.00  0.00     0.019 A 
ATOM     30  C   UNL A   1      30.636  24.545  23.206  1.00  0.00     0.001 A 
ATOM     31  C   UNL A   1      29.489  25.187  23.667  1.00  0.00     0.001 A 
ENDBRANCH   9  23
ENDBRANCH   4   6
ENDBRANCH   3   4
ENDBRANCH   2   3
ENDBRANCH   1   2
BRANCH   1  32
ATOM     32  O   UNL A   1      34.378  35.419  28.427  1.00  0.00    -0.374 OA
BRANCH  32  33
ATOM     33  C   UNL A   1      33.062  35.654  28.916  1.00  0.00     0.202 C 
BRANCH  33  34
ATOM     34  C   UNL A   1      32.858  36.031  30.375  1.00  0.00     0.261 C 
BRANCH  34  35
ATOM     35  O   UNL A   1      33.144  34.959  31.255  1.00  0.00    -0.460 OA
BRANCH  35  36
ATOM     36  C   UNL A   1      33.331  35.361  32.534  1.00  0.00     0.338 C 
ATOM     37  O   UNL A   1      32.845  36.335  33.084  1.00  0.00    -0.246 OA
BRANCH  36  38
ATOM     38  C   UNL A   1      34.372  34.526  33.137  1.00  0.00     0.060 A 
ATOM     39  C   UNL A   1      35.499  35.217  33.583  1.00  0.00     0.016 A 
ATOM     40  C   UNL A   1      34.389  33.152  32.857  1.00  0.00     0.016 A 
ATOM     41  C   UNL A   1      36.717  34.605  33.437  1.00  0.00     0.010 A 
ATOM     42  C   UNL A   1      35.607  32.547  32.696  1.00  0.00     0.010 A 
ATOM     43  C   UNL A   1      36.747  33.324  32.878  1.00  0.00    -0.014 A 
BRANCH  43  44
ATOM     44  C   UNL A   1      38.033  32.769  32.546  1.00  0.00     0.031 A 
ATOM     45  C   UNL A   1      38.906  32.671  33.728  1.00  0.00     0.074 A 
ATOM     46  C   UNL A   1      38.322  32.310  31.316  1.00  0.00     0.049 A 
ATOM     47  N   UNL A   1      39.933  33.401  34.000  1.00  0.00    -0.248 NA
ATOM     48  C   UNL A   1      38.449  31.821  34.841  1.00  0.00     0.031 C 
ATOM     49  C   UNL A   1      37.429  32.106  30.173  1.00  0.00     0.029 A 
ATOM     50  N   UNL A   1      39.495  31.802  30.872  1.00  0.00    -0.354 N 
ATOM     51  C   UNL A   1      40.380  32.949  35.233  1.00  0.00     0.074 A 
ATOM     52  C   UNL A   1      39.307  32.173  35.796  1.00  0.00     0.031 C 
ATOM     53  C   UNL A   1      38.032  31.273  29.290  1.00  0.00     0.029 A 
ATOM     54  C   UNL A   1      39.382  30.994  29.753  1.00  0.00     0.049 A 
ATOM     55  H   UNL A   1      40.358  31.992  31.307  1.00  0.00     0.167 HD
ATOM     56  C   UNL A   1      41.701  32.975  35.551  1.00  0.00     0.031 A 
ATOM     57  C   UNL A   1      40.303  30.085  29.336  1.00  0.00     0.031 A 
ATOM     58  C   UNL A   1      42.444  33.846  34.675  1.00  0.00     0.049 A 
ATOM     59  C   UNL A   1      41.595  30.436  29.991  1.00  0.00     0.074 A 
ATOM     60  C   UNL A   1      42.362  35.187  34.353  1.00  0.00     0.029 A 
ATOM     61  N   UNL A   1      43.158  33.256  33.658  1.00  0.00    -0.354 N 
ATOM     62  N   UNL A   1      42.252  31.531  29.724  1.00  0.00    -0.248 NA
ATOM     63  C   UNL A   1      41.874  29.848  31.295  1.00  0.00     0.031 C 
ATOM     64  C   UNL A   1      42.588  35.238  32.946  1.00  0.00     0.029 A 
ATOM     65  C   UNL A   1      42.879  33.946  32.506  1.00  0.00     0.049 A 
ATOM     66  H   UNL A   1      43.759  32.480  33.742  1.00  0.00     0.167 HD
ATOM     67  C   UNL A   1      42.674  32.006  30.960  1.00  0.00     0.074 A 
ATOM     68  C   UNL A   1      42.476  30.888  31.884  1.00  0.00     0.031 C 
ATOM     69  C   UNL A   1      42.848  33.342  31.191  1.00  0.00     0.031 A 
BRANCH  56  70
ATOM     70  C   UNL A   1      42.357  31.870  36.335  1.00  0.00    -0.014 A 
ATOM     71  C   UNL A   1      43.163  32.213  37.431  1.00  0.00     0.009 A 
ATOM     72  C   UNL A   1      42.446  30.539  35.877  1.00  0.00     0.009 A 
ATOM     73  C   UNL A   1      44.062  31.295  37.984  1.00  0.00     0.001 A 
ATOM     74  C   UNL A   1      43.307  29.607  36.453  1.00  0.00     0.001 A 
ATOM     75  C   UNL A   1      44.138  29.995  37.490  1.00  0.00     0.000 A 
ENDBRANCH  56  70
BRANCH  57  76
ATOM     76  C   UNL A   1      40.032  28.747  28.751  1.00  0.00    -0.014 A 
ATOM     77  C   UNL A   1      40.564  28.369  27.509  1.00  0.00     0.009 A 
ATOM     78  C   UNL A   1      39.441  27.735  29.535  1.00  0.00     0.009 A 
ATOM     79  C   UNL A   1      40.524  27.031  27.080  1.00  0.00     0.001 A 
ATOM     80  C   UNL A   1      39.397  26.403  29.108  1.00  0.00     0.001 A 
ATOM     81  C   UNL A   1      39.949  26.048  27.884  1.00  0.00     0.000 A 
ENDBRANCH  57  76
BRANCH  69  82
ATOM     82  C   UNL A   1      42.749  34.297  30.024  1.00  0.00    -0.014 A 
ATOM     83  C   UNL A   1      43.827  34.583  29.166  1.00  0.00     0.009 A 
ATOM     84  C   UNL A   1      41.479  34.773  29.671  1.00  0.00     0.009 A 
ATOM     85  C   UNL A   1      43.638  35.340  28.003  1.00  0.00     0.001 A 
ATOM     86  C   UNL A   1      41.287  35.511  28.501  1.00  0.00     0.001 A 
ATOM     87  C   UNL A   1      42.366  35.799  27.669  1.00  0.00     0.000 A 
ENDBRANCH  69  82
ENDBRANCH  43  44
ENDBRANCH  36  38
ENDBRANCH  35  36
ENDBRANCH  34  35
ENDBRANCH  33  34
ENDBRANCH  32  33
ENDBRANCH   1  32
TORSDOF 18
ENDMDL
MODEL 2
REMARK VINA RESULT:     -11.2      4.515      9.922
REMARK SMILES NS(=O)(=O)c1ccc(-n2nc(C(=O)OCCOCCOC(=O)c3ccc(-c4c5nc(c(-c6ccccc6)c6ccc([nH]6)c(-c6ccccc6)c6nc(c(-c7ccccc7)c7ccc4[nH]7)C=C6)C=C5)cc3)cc2-c2cc3ccccc3s2)cc1
REMARK SMILES IDX 16 1 15 2 14 3 12 4 13 5 11 6 9 7 10 8 72 9 71 10 8 11 5 12
REMARK SMILES IDX 6 13 83 14 7 15 82 16 2 17 3 18 4 19 1 20 73 23 74 24 81 25
REMARK SMILES IDX 75 26 80 27 76 28 79 29 77 30 78 31 17 32 18 33 19 34 20 35
REMARK SMILES IDX 21 36 22 37 23 38 24 39 70 40 25 41 69 42 26 43 27 44 28 45
REMARK SMILES IDX 63 46 29 47 68 48 62 49 64 50 30 51 67 52 61 53 60 54 31 56
REMARK SMILES IDX 53 57 38 58 52 59 39 60 42 61 51 62 65 63 40 64 41 65 50 67
REMARK SMILES IDX 66 68 43 69 32 70 33 71 37 72 34 73 36 74 35 75 54 76 55 77
REMARK SMILES IDX 59 78 56 79 58 80 57 81 44 82 45 83 49 84 46 85 48 86 47 87
REMARK H PARENT 1 21 1 22 64 55 42 66
REMARK Flexibility Score: inf
ROOT
ATOM      1  C   UNL A   1      41.537  19.126  25.910  1.00  0.00     0.202 C 
ENDROOT
BRANCH   1   2
ATOM      2  C   UNL A   1      40.689  20.179  26.621  1.00  0.00     0.261 C 
BRANCH   2   3
ATOM      3  O   UNL A   1      39.611  20.621  25.792  1.00  0.00    -0.458 OA
BRANCH   3   4
ATOM      4  C   UNL A   1      39.082  21.835  26.132  1.00  0.00     0.358 C 
ATOM      5  O   UNL A   1      39.651  22.675  26.818  1.00  0.00    -0.244 OA
BRANCH   4   6
ATOM      6  C   UNL A   1      37.766  22.029  25.518  1.00  0.00     0.171 A 
ATOM      7  N   UNL A   1      35.920  23.005  25.109  1.00  0.00    -0.231 N 
ATOM      8  N   UNL A   1      37.255  23.231  25.204  1.00  0.00    -0.160 NA
ATOM      9  C   UNL A   1      35.626  21.676  25.321  1.00  0.00     0.085 A 
ATOM     10  C   UNL A   1      36.841  21.021  25.193  1.00  0.00     0.068 A 
BRANCH   7  11
ATOM     11  C   UNL A   1      35.065  24.084  24.839  1.00  0.00     0.065 A 
ATOM     12  C   UNL A   1      33.429  26.232  24.229  1.00  0.00     0.082 A 
ATOM     13  C   UNL A   1      33.872  26.048  25.545  1.00  0.00     0.024 A 
ATOM     14  C   UNL A   1      33.823  25.361  23.207  1.00  0.00     0.024 A 
ATOM     15  C   UNL A   1      34.677  24.952  25.860  1.00  0.00     0.030 A 
ATOM     16  C   UNL A   1      34.665  24.294  23.510  1.00  0.00     0.030 A 
BRANCH  12  17
ATOM     17  S   UNL A   1      32.363  27.575  23.806  1.00  0.00     0.238 S 
ATOM     18  O   UNL A   1      31.166  27.462  24.611  1.00  0.00    -0.207 OA
ATOM     19  O   UNL A   1      32.332  27.711  22.373  1.00  0.00    -0.207 OA
BRANCH  17  20
ATOM     20  N   UNL A   1      33.165  28.940  24.368  1.00  0.00    -0.225 NA
ATOM     21  H   UNL A   1      34.146  28.897  24.092  1.00  0.00     0.137 HD
ATOM     22  H   UNL A   1      33.099  28.979  25.386  1.00  0.00     0.137 HD
ENDBRANCH  17  20
ENDBRANCH  12  17
ENDBRANCH   7  11
BRANCH   9  23
ATOM     23  C   UNL A   1      34.438  21.056  25.854  1.00  0.00     0.054 A 
ATOM     24  C   UNL A   1      33.372  21.698  26.477  1.00  0.00     0.031 A 
ATOM     25  S   UNL A   1      33.661  19.925  24.757  1.00  0.00    -0.134 S 
ATOM     26  C   UNL A   1      32.431  22.053  25.419  1.00  0.00    -0.007 A 
ATOM     27  C   UNL A   1      32.641  21.253  24.286  1.00  0.00     0.035 A 
ATOM     28  C   UNL A   1      31.518  23.125  25.314  1.00  0.00     0.009 A 
ATOM     29  C   UNL A   1      32.118  21.577  23.026  1.00  0.00     0.019 A 
ATOM     30  C   UNL A   1      31.011  23.472  24.056  1.00  0.00     0.001 A 
ATOM     31  C   UNL A   1      31.346  22.735  22.923  1.00  0.00     0.001 A 
ENDBRANCH   9  23
ENDBRANCH   4   6
ENDBRANCH   3   4
ENDBRANCH   2   3
ENDBRANCH   1   2
BRANCH   1  32
ATOM     32  O   UNL A   1      42.743  18.679  26.528  1.00  0.00    -0.374 OA
BRANCH  32  33
ATOM     33  C   UNL A   1      43.968  18.599  25.808  1.00  0.00     0.202 C 
BRANCH  33  34
ATOM     34  C   UNL A   1      44.217  19.539  24.639  1.00  0.00     0.261 C 
BRANCH  34  35
ATOM     35  O   UNL A   1      44.910  20.712  25.026  1.00  0.00    -0.460 OA
BRANCH  35  36
ATOM     36  C   UNL A   1      44.087  21.764  25.246  1.00  0.00     0.338 C 
ATOM     37  O   UNL A   1      43.319  22.282  24.454  1.00  0.00    -0.246 OA
BRANCH  36  38
ATOM     38  C   UNL A   1      44.384  22.318  26.569  1.00  0.00     0.060 A 
ATOM     39  C   UNL A   1      43.437  22.032  27.554  1.00  0.00     0.016 A 
ATOM     40  C   UNL A   1      45.284  23.388  26.672  1.00  0.00     0.016 A 
ATOM     41  C   UNL A   1      43.176  23.005  28.484  1.00  0.00     0.010 A 
ATOM     42  C   UNL A   1      45.010  24.367  27.591  1.00  0.00     0.010 A 
ATOM     43  C   UNL A   1      43.890  24.204  28.399  1.00  0.00    -0.014 A 
BRANCH  43  44
ATOM     44  C   UNL A   1      43.475  25.291  29.248  1.00  0.00     0.031 A 
ATOM     45  C   UNL A   1      42.314  26.005  28.690  1.00  0.00     0.074 A 
ATOM     46  C   UNL A   1      44.039  25.523  30.445  1.00  0.00     0.049 A 
ATOM     47  N   UNL A   1      42.304  27.178  28.156  1.00  0.00    -0.248 NA
ATOM     48  C   UNL A   1      41.073  25.235  28.497  1.00  0.00     0.031 C 
ATOM     49  C   UNL A   1      44.991  24.699  31.194  1.00  0.00     0.029 A 
ATOM     50  N   UNL A   1      43.766  26.525  31.313  1.00  0.00    -0.354 N 
ATOM     51  C   UNL A   1      40.993  27.378  27.750  1.00  0.00     0.074 A 
ATOM     52  C   UNL A   1      40.361  26.085  27.758  1.00  0.00     0.031 C 
ATOM     53  C   UNL A   1      44.987  25.094  32.490  1.00  0.00     0.029 A 
ATOM     54  C   UNL A   1      44.133  26.264  32.623  1.00  0.00     0.049 A 
ATOM     55  H   UNL A   1      43.343  27.371  31.037  1.00  0.00     0.167 HD
ATOM     56  C   UNL A   1      40.442  28.621  27.750  1.00  0.00     0.031 A 
ATOM     57  C   UNL A   1      43.655  26.905  33.723  1.00  0.00     0.031 A 
ATOM     58  C   UNL A   1      41.448  29.650  27.821  1.00  0.00     0.049 A 
ATOM     59  C   UNL A   1      43.060  28.189  33.258  1.00  0.00     0.074 A 
ATOM     60  C   UNL A   1      42.535  29.991  27.039  1.00  0.00     0.029 A 
ATOM     61  N   UNL A   1      41.666  30.234  29.048  1.00  0.00    -0.354 N 
ATOM     62  N   UNL A   1      43.770  29.158  32.748  1.00  0.00    -0.248 NA
ATOM     63  C   UNL A   1      41.653  28.184  32.874  1.00  0.00     0.031 C 
ATOM     64  C   UNL A   1      43.561  30.327  27.970  1.00  0.00     0.029 A 
ATOM     65  C   UNL A   1      43.022  30.257  29.256  1.00  0.00     0.049 A 
ATOM     66  H   UNL A   1      40.977  30.571  29.664  1.00  0.00     0.167 HD
ATOM     67  C   UNL A   1      43.034  29.607  31.659  1.00  0.00     0.074 A 
ATOM     68  C   UNL A   1      41.704  29.020  31.831  1.00  0.00     0.031 C 
ATOM     69  C   UNL A   1      43.640  30.149  30.560  1.00  0.00     0.031 A 
BRANCH  56  70
ATOM     70  C   UNL A   1      39.012  28.861  28.154  1.00  0.00    -0.014 A 
ATOM     71  C   UNL A   1      38.201  29.639  27.314  1.00  0.00     0.009 A 
ATOM     72  C   UNL A   1      38.515  28.598  29.448  1.00  0.00     0.009 A 
ATOM     73  C   UNL A   1      36.997  30.184  27.774  1.00  0.00     0.001 A 
ATOM     74  C   UNL A   1      37.294  29.101  29.895  1.00  0.00     0.001 A 
ATOM     75  C   UNL A   1      36.548  29.921  29.065  1.00  0.00     0.000 A 
ENDBRANCH  56  70
BRANCH  57  76
ATOM     76  C   UNL A   1      43.335  26.296  35.039  1.00  0.00    -0.014 A 
ATOM     77  C   UNL A   1      44.271  26.280  36.085  1.00  0.00     0.009 A 
ATOM     78  C   UNL A   1      42.008  25.942  35.355  1.00  0.00     0.009 A 
ATOM     79  C   UNL A   1      43.888  25.944  37.394  1.00  0.00     0.001 A 
ATOM     80  C   UNL A   1      41.626  25.602  36.658  1.00  0.00     0.001 A 
ATOM     81  C   UNL A   1      42.564  25.614  37.681  1.00  0.00     0.000 A 
ENDBRANCH  57  76
BRANCH  69  82
ATOM     82  C   UNL A   1      45.125  30.424  30.615  1.00  0.00    -0.014 A 
ATOM     83  C   UNL A   1      45.669  31.653  31.031  1.00  0.00     0.009 A 
ATOM     84  C   UNL A   1      46.001  29.345  30.422  1.00  0.00     0.009 A 
ATOM     85  C   UNL A   1      47.047  31.799  31.227  1.00  0.00     0.001 A 
ATOM     86  C   UNL A   1      47.373  29.485  30.636  1.00  0.00     0.001 A 
ATOM     87  C   UNL A   1      47.898  30.712  31.034  1.00  0.00     0.000 A 
ENDBRANCH  69  82
ENDBRANCH  43  44
ENDBRANCH  36  38
ENDBRANCH  35  36
ENDBRANCH  34  35
ENDBRANCH  33  34
ENDBRANCH  32  33
ENDBRANCH   1  32
TORSDOF 18
ENDMDL
MODEL 3
REMARK VINA RESULT:     -11.1      4.327      9.877
REMARK SMILES NS(=O)(=O)c1ccc(-n2nc(C(=O)OCCOCCOC(=O)c3ccc(-c4c5nc(c(-c6ccccc6)c6ccc([nH]6)c(-c6ccccc6)c6nc(c(-c7ccccc7)c7ccc4[nH]7)C=C6)C=C5)cc3)cc2-c2cc3ccccc3s2)cc1
REMARK SMILES IDX 16 1 15 2 14 3 12 4 13 5 11 6 9 7 10 8 72 9 71 10 8 11 5 12
REMARK SMILES IDX 6 13 83 14 7 15 82 16 2 17 3 18 4 19 1 20 73 23 74 24 81 25
REMARK SMILES IDX 75 26 80 27 76 28 79 29 77 30 78 31 17 32 18 33 19 34 20 35
REMARK SMILES IDX 21 36 22 37 23 38 24 39 70 40 25 41 69 42 26 43 27 44 28 45
REMARK SMILES IDX 63 46 29 47 68 48 62 49 64 50 30 51 67 52 61 53 60 54 31 56
REMARK SMILES IDX 53 57 38 58 52 59 39 60 42 61 51 62 65 63 40 64 41 65 50 67
REMARK SMILES IDX 66 68 43 69 32 70 33 71 37 72 34 73 36 74 35 75 54 76 55 77
REMARK SMILES IDX 59 78 56 79 58 80 57 81 44 82 45 83 49 84 46 85 48 86 47 87
REMARK H PARENT 1 21 1 22 64 55 42 66
REMARK Flexibility Score: inf
ROOT
ATOM      1  C   UNL A   1      41.759  19.270  25.871  1.00  0.00     0.202 C 
ENDROOT
BRANCH   1   2
ATOM      2  C   UNL A   1      41.144  20.559  26.413  1.00  0.00     0.261 C 
BRANCH   2   3
ATOM      3  O   UNL A   1      39.914  20.863  25.750  1.00  0.00    -0.458 OA
BRANCH   3   4
ATOM      4  C   UNL A   1      39.275  21.984  26.204  1.00  0.00     0.358 C 
ATOM      5  O   UNL A   1      39.760  22.793  26.985  1.00  0.00    -0.244 OA
BRANCH   4   6
ATOM      6  C   UNL A   1      37.954  22.126  25.587  1.00  0.00     0.171 A 
ATOM      7  N   UNL A   1      36.072  23.028  25.176  1.00  0.00    -0.231 N 
ATOM      8  N   UNL A   1      37.396  23.308  25.276  1.00  0.00    -0.160 NA
ATOM      9  C   UNL A   1      35.830  21.688  25.384  1.00  0.00     0.085 A 
ATOM     10  C   UNL A   1      37.071  21.083  25.257  1.00  0.00     0.068 A 
BRANCH   7  11
ATOM     11  C   UNL A   1      35.174  24.073  24.908  1.00  0.00     0.065 A 
ATOM     12  C   UNL A   1      33.457  26.158  24.302  1.00  0.00     0.082 A 
ATOM     13  C   UNL A   1      33.858  25.951  25.628  1.00  0.00     0.024 A 
ATOM     14  C   UNL A   1      33.933  25.342  23.270  1.00  0.00     0.024 A 
ATOM     15  C   UNL A   1      34.705  24.886  25.940  1.00  0.00     0.030 A 
ATOM     16  C   UNL A   1      34.815  24.309  23.571  1.00  0.00     0.030 A 
BRANCH  12  17
ATOM     17  S   UNL A   1      32.342  27.461  23.881  1.00  0.00     0.238 S 
ATOM     18  O   UNL A   1      31.469  26.977  22.833  1.00  0.00    -0.207 OA
ATOM     19  O   UNL A   1      33.083  28.691  23.777  1.00  0.00    -0.207 OA
BRANCH  17  20
ATOM     20  N   UNL A   1      31.370  27.637  25.240  1.00  0.00    -0.225 NA
ATOM     21  H   UNL A   1      30.849  28.512  25.175  1.00  0.00     0.137 HD
ATOM     22  H   UNL A   1      31.953  27.650  26.077  1.00  0.00     0.137 HD
ENDBRANCH  17  20
ENDBRANCH  12  17
ENDBRANCH   7  11
BRANCH   9  23
ATOM     23  C   UNL A   1      34.667  21.020  25.912  1.00  0.00     0.054 A 
ATOM     24  C   UNL A   1      33.569  21.617  26.523  1.00  0.00     0.031 A 
ATOM     25  S   UNL A   1      33.950  19.848  24.818  1.00  0.00    -0.134 S 
ATOM     26  C   UNL A   1      32.621  21.923  25.456  1.00  0.00    -0.007 A 
ATOM     27  C   UNL A   1      32.875  21.126  24.330  1.00  0.00     0.035 A 
ATOM     28  C   UNL A   1      31.662  22.952  25.337  1.00  0.00     0.009 A 
ATOM     29  C   UNL A   1      32.348  21.417  23.064  1.00  0.00     0.019 A 
ATOM     30  C   UNL A   1      31.150  23.268  24.072  1.00  0.00     0.001 A 
ATOM     31  C   UNL A   1      31.527  22.539  22.946  1.00  0.00     0.001 A 
ENDBRANCH   9  23
ENDBRANCH   4   6
ENDBRANCH   3   4
ENDBRANCH   2   3
ENDBRANCH   1   2
BRANCH   1  32
ATOM     32  O   UNL A   1      43.043  18.867  26.345  1.00  0.00    -0.374 OA
BRANCH  32  33
ATOM     33  C   UNL A   1      44.196  18.910  25.511  1.00  0.00     0.202 C 
BRANCH  33  34
ATOM     34  C   UNL A   1      44.317  19.992  24.450  1.00  0.00     0.261 C 
BRANCH  34  35
ATOM     35  O   UNL A   1      45.307  20.953  24.768  1.00  0.00    -0.460 OA
BRANCH  35  36
ATOM     36  C   UNL A   1      44.941  22.216  24.447  1.00  0.00     0.338 C 
ATOM     37  O   UNL A   1      45.327  22.882  23.501  1.00  0.00    -0.246 OA
BRANCH  36  38
ATOM     38  C   UNL A   1      44.113  22.750  25.530  1.00  0.00     0.060 A 
ATOM     39  C   UNL A   1      43.001  23.484  25.114  1.00  0.00     0.016 A 
ATOM     40  C   UNL A   1      44.668  22.876  26.812  1.00  0.00     0.016 A 
ATOM     41  C   UNL A   1      42.645  24.575  25.866  1.00  0.00     0.010 A 
ATOM     42  C   UNL A   1      44.322  23.975  27.552  1.00  0.00     0.010 A 
ATOM     43  C   UNL A   1      43.400  24.863  27.006  1.00  0.00    -0.014 A 
BRANCH  43  44
ATOM     44  C   UNL A   1      43.149  26.112  27.677  1.00  0.00     0.031 A 
ATOM     45  C   UNL A   1      44.155  27.130  27.328  1.00  0.00     0.074 A 
ATOM     46  C   UNL A   1      42.059  26.314  28.437  1.00  0.00     0.049 A 
ATOM     47  N   UNL A   1      45.103  27.578  28.077  1.00  0.00    -0.248 NA
ATOM     48  C   UNL A   1      44.259  27.522  25.911  1.00  0.00     0.031 C 
ATOM     49  C   UNL A   1      40.878  25.463  28.603  1.00  0.00     0.029 A 
ATOM     50  N   UNL A   1      41.730  27.421  29.143  1.00  0.00    -0.354 N 
ATOM     51  C   UNL A   1      45.797  28.477  27.282  1.00  0.00     0.074 A 
ATOM     52  C   UNL A   1      45.395  28.216  25.924  1.00  0.00     0.031 C 
ATOM     53  C   UNL A   1      39.872  26.207  29.123  1.00  0.00     0.029 A 
ATOM     54  C   UNL A   1      40.381  27.535  29.433  1.00  0.00     0.049 A 
ATOM     55  H   UNL A   1      42.395  28.089  29.428  1.00  0.00     0.167 HD
ATOM     56  C   UNL A   1      46.395  29.572  27.821  1.00  0.00     0.031 A 
ATOM     57  C   UNL A   1      39.740  28.681  29.784  1.00  0.00     0.031 A 
ATOM     58  C   UNL A   1      46.549  29.447  29.249  1.00  0.00     0.049 A 
ATOM     59  C   UNL A   1      40.781  29.644  30.240  1.00  0.00     0.074 A 
ATOM     60  C   UNL A   1      47.179  28.535  30.074  1.00  0.00     0.029 A 
ATOM     61  N   UNL A   1      45.638  30.107  30.040  1.00  0.00    -0.354 N 
ATOM     62  N   UNL A   1      41.488  29.466  31.322  1.00  0.00    -0.248 NA
ATOM     63  C   UNL A   1      41.391  30.508  29.236  1.00  0.00     0.031 C 
ATOM     64  C   UNL A   1      46.281  28.352  31.166  1.00  0.00     0.029 A 
ATOM     65  C   UNL A   1      45.202  29.221  30.992  1.00  0.00     0.049 A 
ATOM     66  H   UNL A   1      45.351  31.044  29.942  1.00  0.00     0.167 HD
ATOM     67  C   UNL A   1      42.785  29.814  30.964  1.00  0.00     0.074 A 
ATOM     68  C   UNL A   1      42.650  30.519  29.688  1.00  0.00     0.031 C 
ATOM     69  C   UNL A   1      43.871  29.235  31.560  1.00  0.00     0.031 A 
BRANCH  56  70
ATOM     70  C   UNL A   1      46.401  30.906  27.123  1.00  0.00    -0.014 A 
ATOM     71  C   UNL A   1      47.508  31.749  27.300  1.00  0.00     0.009 A 
ATOM     72  C   UNL A   1      45.254  31.482  26.538  1.00  0.00     0.009 A 
ATOM     73  C   UNL A   1      47.441  33.109  26.978  1.00  0.00     0.001 A 
ATOM     74  C   UNL A   1      45.197  32.826  26.173  1.00  0.00     0.001 A 
ATOM     75  C   UNL A   1      46.283  33.648  26.422  1.00  0.00     0.000 A 
ENDBRANCH  56  70
BRANCH  57  76
ATOM     76  C   UNL A   1      38.377  29.102  29.369  1.00  0.00    -0.014 A 
ATOM     77  C   UNL A   1      37.406  29.471  30.312  1.00  0.00     0.009 A 
ATOM     78  C   UNL A   1      38.100  29.378  28.015  1.00  0.00     0.009 A 
ATOM     79  C   UNL A   1      36.217  30.108  29.916  1.00  0.00     0.001 A 
ATOM     80  C   UNL A   1      36.915  30.009  27.619  1.00  0.00     0.001 A 
ATOM     81  C   UNL A   1      35.978  30.385  28.571  1.00  0.00     0.000 A 
ENDBRANCH  57  76
BRANCH  69  82
ATOM     82  C   UNL A   1      43.647  28.334  32.751  1.00  0.00    -0.014 A 
ATOM     83  C   UNL A   1      43.653  26.929  32.670  1.00  0.00     0.009 A 
ATOM     84  C   UNL A   1      43.619  28.922  34.024  1.00  0.00     0.009 A 
ATOM     85  C   UNL A   1      43.611  26.143  33.827  1.00  0.00     0.001 A 
ATOM     86  C   UNL A   1      43.596  28.138  35.179  1.00  0.00     0.001 A 
ATOM     87  C   UNL A   1      43.588  26.749  35.082  1.00  0.00     0.000 A 
ENDBRANCH  69  82
ENDBRANCH  43  44
ENDBRANCH  36  38
ENDBRANCH  35  36
ENDBRANCH  34  35
ENDBRANCH  33  34
ENDBRANCH  32  33
ENDBRANCH   1  32
TORSDOF 18
ENDMDL
