MODEL 1
REMARK VINA RESULT:     -10.9      0.000      0.000
REMARK SMILES Cc1cccc(OCC(=O)Nc2cc(C(=O)OCCOCCOC(=O)c3ccc(-c4c5nc(c(-c6ccccc6)c6ccc([nH]6)c(-c6ccccc6)c6nc(c(-c7ccccc7)c7ccc4[nH]7)C=C6)C=C5)cc3)c(Cl)cc2Cl)c1
REMARK SMILES IDX 19 1 18 2 17 3 15 4 16 5 14 6 12 7 13 8 77 9 76 10 78 11
REMARK SMILES IDX 74 12 75 13 11 14 9 15 10 16 8 18 7 19 6 20 1 21 2 22 3 23
REMARK SMILES IDX 79 24 4 25 5 26 20 27 21 28 22 29 23 30 24 31 25 32 26 33
REMARK SMILES IDX 27 34 73 35 28 36 72 37 29 38 30 39 31 40 66 41 32 42 71 43
REMARK SMILES IDX 65 44 67 45 33 46 70 47 64 48 63 49 34 51 56 52 41 53 55 54
REMARK SMILES IDX 42 55 45 56 54 57 68 58 43 59 44 60 53 62 69 63 46 64 35 65
REMARK SMILES IDX 36 66 40 67 37 68 39 69 38 70 57 71 58 72 62 73 59 74 61 75
REMARK SMILES IDX 60 76 47 77 48 78 52 79 49 80 51 81 50 82
REMARK H PARENT 11 17 67 50 45 61
REMARK Flexibility Score: inf
ROOT
ATOM      1  C   UNL A   1      31.832  30.105  25.503  1.00  0.00     0.202 C 
ENDROOT
BRANCH   1   2
ATOM      2  C   UNL A   1      30.835  29.745  24.478  1.00  0.00     0.261 C 
BRANCH   2   3
ATOM      3  O   UNL A   1      31.500  29.177  23.358  1.00  0.00    -0.460 OA
BRANCH   3   4
ATOM      4  C   UNL A   1      30.970  28.032  22.833  1.00  0.00     0.339 C 
ATOM      5  O   UNL A   1      30.063  27.933  22.057  1.00  0.00    -0.246 OA
BRANCH   4   6
ATOM      6  C   UNL A   1      31.822  26.956  23.392  1.00  0.00     0.080 A 
ATOM      7  C   UNL A   1      31.992  25.188  25.066  1.00  0.00     0.061 A 
ATOM      8  C   UNL A   1      31.227  26.047  24.303  1.00  0.00     0.045 A 
ATOM      9  C   UNL A   1      33.389  25.225  24.866  1.00  0.00     0.066 A 
ATOM     10  C   UNL A   1      33.982  26.068  23.912  1.00  0.00     0.044 A 
ATOM     11  Cl  UNL A   1      34.447  24.251  25.826  1.00  0.00    -0.082 Cl
ATOM     12  C   UNL A   1      33.197  26.946  23.169  1.00  0.00     0.057 A 
ATOM     13  Cl  UNL A   1      34.016  28.020  22.095  1.00  0.00    -0.083 Cl
BRANCH   7  14
ATOM     14  N   UNL A   1      31.458  24.415  26.119  1.00  0.00    -0.322 N 
ATOM     15  C   UNL A   1      31.098  23.107  26.333  1.00  0.00     0.262 C 
ATOM     16  O   UNL A   1      30.451  22.919  27.370  1.00  0.00    -0.271 OA
ATOM     17  H   UNL A   1      31.299  24.965  26.921  1.00  0.00     0.170 HD
BRANCH  15  18
ATOM     18  C   UNL A   1      31.617  21.898  25.490  1.00  0.00     0.329 C 
BRANCH  18  19
ATOM     19  O   UNL A   1      32.535  20.859  25.822  1.00  0.00    -0.484 OA
BRANCH  19  20
ATOM     20  C   UNL A   1      32.566  19.694  25.119  1.00  0.00     0.120 A 
ATOM     21  C   UNL A   1      33.903  16.186  25.294  1.00  0.00     0.044 C 
ATOM     22  C   UNL A   1      33.081  17.351  24.838  1.00  0.00    -0.047 A 
ATOM     23  C   UNL A   1      32.681  17.388  23.500  1.00  0.00     0.003 A 
ATOM     24  C   UNL A   1      32.928  18.480  25.664  1.00  0.00     0.049 A 
ATOM     25  C   UNL A   1      32.457  18.620  22.927  1.00  0.00     0.004 A 
ATOM     26  C   UNL A   1      32.532  19.763  23.728  1.00  0.00     0.046 A 
ENDBRANCH  19  20
ENDBRANCH  18  19
ENDBRANCH  15  18
ENDBRANCH   7  14
ENDBRANCH   4   6
ENDBRANCH   3   4
ENDBRANCH   2   3
ENDBRANCH   1   2
BRANCH   1  27
ATOM     27  O   UNL A   1      31.600  29.152  26.522  1.00  0.00    -0.374 OA
BRANCH  27  28
ATOM     28  C   UNL A   1      32.711  28.334  26.805  1.00  0.00     0.202 C 
BRANCH  28  29
ATOM     29  C   UNL A   1      34.037  28.933  26.312  1.00  0.00     0.261 C 
BRANCH  29  30
ATOM     30  O   UNL A   1      34.904  29.178  27.446  1.00  0.00    -0.460 OA
BRANCH  30  31
ATOM     31  C   UNL A   1      34.984  30.460  27.910  1.00  0.00     0.338 C 
ATOM     32  O   UNL A   1      34.404  31.424  27.436  1.00  0.00    -0.246 OA
BRANCH  31  33
ATOM     33  C   UNL A   1      36.151  30.577  28.846  1.00  0.00     0.060 A 
ATOM     34  C   UNL A   1      37.268  31.356  28.482  1.00  0.00     0.016 A 
ATOM     35  C   UNL A   1      36.273  29.639  29.867  1.00  0.00     0.016 A 
ATOM     36  C   UNL A   1      38.541  31.056  28.999  1.00  0.00     0.010 A 
ATOM     37  C   UNL A   1      37.537  29.298  30.311  1.00  0.00     0.010 A 
ATOM     38  C   UNL A   1      38.687  29.956  29.835  1.00  0.00    -0.014 A 
BRANCH  38  39
ATOM     39  C   UNL A   1      39.956  29.328  30.231  1.00  0.00     0.031 A 
ATOM     40  C   UNL A   1      40.364  28.122  29.508  1.00  0.00     0.074 A 
ATOM     41  C   UNL A   1      40.862  29.943  31.032  1.00  0.00     0.049 A 
ATOM     42  N   UNL A   1      41.283  27.321  29.914  1.00  0.00    -0.248 NA
ATOM     43  C   UNL A   1      39.734  27.681  28.265  1.00  0.00     0.031 C 
ATOM     44  C   UNL A   1      42.303  29.757  31.213  1.00  0.00     0.029 A 
ATOM     45  N   UNL A   1      40.610  30.917  31.976  1.00  0.00    -0.354 N 
ATOM     46  C   UNL A   1      41.670  26.615  28.806  1.00  0.00     0.074 A 
ATOM     47  C   UNL A   1      40.552  26.694  27.902  1.00  0.00     0.031 C 
ATOM     48  C   UNL A   1      42.684  30.282  32.399  1.00  0.00     0.029 A 
ATOM     49  C   UNL A   1      41.469  30.734  33.052  1.00  0.00     0.049 A 
ATOM     50  H   UNL A   1      39.930  31.625  31.899  1.00  0.00     0.167 HD
ATOM     51  C   UNL A   1      42.980  26.263  28.695  1.00  0.00     0.031 A 
ATOM     52  C   UNL A   1      40.939  30.456  34.269  1.00  0.00     0.031 A 
ATOM     53  C   UNL A   1      43.738  26.623  29.910  1.00  0.00     0.049 A 
ATOM     54  C   UNL A   1      41.551  29.155  34.668  1.00  0.00     0.074 A 
ATOM     55  C   UNL A   1      44.771  27.510  30.175  1.00  0.00     0.029 A 
ATOM     56  N   UNL A   1      43.231  26.251  31.158  1.00  0.00    -0.354 N 
ATOM     57  N   UNL A   1      41.791  28.206  33.798  1.00  0.00    -0.248 NA
ATOM     58  C   UNL A   1      42.191  28.938  35.960  1.00  0.00     0.031 C 
ATOM     59  C   UNL A   1      44.853  27.685  31.591  1.00  0.00     0.029 A 
ATOM     60  C   UNL A   1      43.867  26.910  32.188  1.00  0.00     0.049 A 
ATOM     61  H   UNL A   1      42.507  25.597  31.286  1.00  0.00     0.167 HD
ATOM     62  C   UNL A   1      42.771  27.409  34.312  1.00  0.00     0.074 A 
ATOM     63  C   UNL A   1      42.928  27.846  35.694  1.00  0.00     0.031 C 
ATOM     64  C   UNL A   1      43.556  26.573  33.573  1.00  0.00     0.031 A 
BRANCH  51  65
ATOM     65  C   UNL A   1      43.628  25.831  27.396  1.00  0.00    -0.014 A 
ATOM     66  C   UNL A   1      43.602  24.475  27.028  1.00  0.00     0.009 A 
ATOM     67  C   UNL A   1      44.303  26.683  26.501  1.00  0.00     0.009 A 
ATOM     68  C   UNL A   1      44.217  24.006  25.857  1.00  0.00     0.001 A 
ATOM     69  C   UNL A   1      44.921  26.226  25.329  1.00  0.00     0.001 A 
ATOM     70  C   UNL A   1      44.876  24.882  25.006  1.00  0.00     0.000 A 
ENDBRANCH  51  65
BRANCH  52  71
ATOM     71  C   UNL A   1      39.527  30.970  34.369  1.00  0.00    -0.014 A 
ATOM     72  C   UNL A   1      39.383  32.342  34.712  1.00  0.00     0.009 A 
ATOM     73  C   UNL A   1      38.401  30.345  33.834  1.00  0.00     0.009 A 
ATOM     74  C   UNL A   1      38.221  33.082  34.454  1.00  0.00     0.001 A 
ATOM     75  C   UNL A   1      37.217  31.086  33.601  1.00  0.00     0.001 A 
ATOM     76  C   UNL A   1      37.135  32.452  33.884  1.00  0.00     0.000 A 
ENDBRANCH  52  71
BRANCH  64  77
ATOM     77  C   UNL A   1      44.037  25.253  34.111  1.00  0.00    -0.014 A 
ATOM     78  C   UNL A   1      43.196  24.273  34.648  1.00  0.00     0.009 A 
ATOM     79  C   UNL A   1      45.379  24.883  33.872  1.00  0.00     0.009 A 
ATOM     80  C   UNL A   1      43.671  22.993  34.940  1.00  0.00     0.001 A 
ATOM     81  C   UNL A   1      45.841  23.590  34.104  1.00  0.00     0.001 A 
ATOM     82  C   UNL A   1      44.986  22.647  34.647  1.00  0.00     0.000 A 
ENDBRANCH  64  77
ENDBRANCH  38  39
ENDBRANCH  31  33
ENDBRANCH  30  31
ENDBRANCH  29  30
ENDBRANCH  28  29
ENDBRANCH  27  28
ENDBRANCH   1  27
TORSDOF 18
ENDMDL
MODEL 2
REMARK VINA RESULT:     -10.8      1.985      2.551
REMARK SMILES Cc1cccc(OCC(=O)Nc2cc(C(=O)OCCOCCOC(=O)c3ccc(-c4c5nc(c(-c6ccccc6)c6ccc([nH]6)c(-c6ccccc6)c6nc(c(-c7ccccc7)c7ccc4[nH]7)C=C6)C=C5)cc3)c(Cl)cc2Cl)c1
REMARK SMILES IDX 19 1 18 2 17 3 15 4 16 5 14 6 12 7 13 8 77 9 76 10 78 11
REMARK SMILES IDX 74 12 75 13 11 14 9 15 10 16 8 18 7 19 6 20 1 21 2 22 3 23
REMARK SMILES IDX 79 24 4 25 5 26 20 27 21 28 22 29 23 30 24 31 25 32 26 33
REMARK SMILES IDX 27 34 73 35 28 36 72 37 29 38 30 39 31 40 66 41 32 42 71 43
REMARK SMILES IDX 65 44 67 45 33 46 70 47 64 48 63 49 34 51 56 52 41 53 55 54
REMARK SMILES IDX 42 55 45 56 54 57 68 58 43 59 44 60 53 62 69 63 46 64 35 65
REMARK SMILES IDX 36 66 40 67 37 68 39 69 38 70 57 71 58 72 62 73 59 74 61 75
REMARK SMILES IDX 60 76 47 77 48 78 52 79 49 80 51 81 50 82
REMARK H PARENT 11 17 67 50 45 61
REMARK Flexibility Score: inf
ROOT
ATOM      1  C   UNL A   1      32.589  28.999  27.255  1.00  0.00     0.202 C 
ENDROOT
BRANCH   1   2
ATOM      2  C   UNL A   1      31.939  27.965  26.430  1.00  0.00     0.261 C 
BRANCH   2   3
ATOM      3  O   UNL A   1      32.666  27.808  25.218  1.00  0.00    -0.460 OA
BRANCH   3   4
ATOM      4  C   UNL A   1      31.941  27.613  24.077  1.00  0.00     0.339 C 
ATOM      5  O   UNL A   1      31.442  28.445  23.374  1.00  0.00    -0.246 OA
BRANCH   4   6
ATOM      6  C   UNL A   1      31.978  26.145  23.877  1.00  0.00     0.080 A 
ATOM      7  C   UNL A   1      33.353  24.238  23.221  1.00  0.00     0.061 A 
ATOM      8  C   UNL A   1      33.244  25.537  23.671  1.00  0.00     0.045 A 
ATOM      9  C   UNL A   1      32.151  23.527  23.016  1.00  0.00     0.066 A 
ATOM     10  C   UNL A   1      30.896  24.095  23.288  1.00  0.00     0.044 A 
ATOM     11  Cl  UNL A   1      32.169  21.921  22.376  1.00  0.00    -0.082 Cl
ATOM     12  C   UNL A   1      30.802  25.415  23.719  1.00  0.00     0.057 A 
ATOM     13  Cl  UNL A   1      29.218  26.067  23.929  1.00  0.00    -0.083 Cl
BRANCH   7  14
ATOM     14  N   UNL A   1      34.579  23.667  22.817  1.00  0.00    -0.322 N 
ATOM     15  C   UNL A   1      35.616  22.980  23.399  1.00  0.00     0.262 C 
ATOM     16  O   UNL A   1      36.617  22.863  22.681  1.00  0.00    -0.271 OA
ATOM     17  H   UNL A   1      34.733  23.796  21.853  1.00  0.00     0.170 HD
BRANCH  15  18
ATOM     18  C   UNL A   1      35.517  22.210  24.755  1.00  0.00     0.329 C 
BRANCH  18  19
ATOM     19  O   UNL A   1      35.760  20.840  25.066  1.00  0.00    -0.484 OA
BRANCH  19  20
ATOM     20  C   UNL A   1      34.774  19.908  24.961  1.00  0.00     0.120 A 
ATOM     21  C   UNL A   1      34.043  16.561  23.414  1.00  0.00     0.044 C 
ATOM     22  C   UNL A   1      33.893  17.757  24.302  1.00  0.00    -0.047 A 
ATOM     23  C   UNL A   1      32.605  18.126  24.694  1.00  0.00     0.003 A 
ATOM     24  C   UNL A   1      34.986  18.615  24.529  1.00  0.00     0.049 A 
ATOM     25  C   UNL A   1      32.373  19.451  24.989  1.00  0.00     0.004 A 
ATOM     26  C   UNL A   1      33.451  20.342  24.988  1.00  0.00     0.046 A 
ENDBRANCH  19  20
ENDBRANCH  18  19
ENDBRANCH  15  18
ENDBRANCH   7  14
ENDBRANCH   4   6
ENDBRANCH   3   4
ENDBRANCH   2   3
ENDBRANCH   1   2
BRANCH   1  27
ATOM     27  O   UNL A   1      33.959  28.842  26.942  1.00  0.00    -0.374 OA
BRANCH  27  28
ATOM     28  C   UNL A   1      34.818  29.660  27.699  1.00  0.00     0.202 C 
BRANCH  28  29
ATOM     29  C   UNL A   1      34.601  31.159  27.439  1.00  0.00     0.261 C 
BRANCH  29  30
ATOM     30  O   UNL A   1      34.050  31.778  28.626  1.00  0.00    -0.460 OA
BRANCH  30  31
ATOM     31  C   UNL A   1      34.458  33.047  28.919  1.00  0.00     0.338 C 
ATOM     32  O   UNL A   1      34.022  34.069  28.412  1.00  0.00    -0.246 OA
BRANCH  31  33
ATOM     33  C   UNL A   1      35.751  32.991  29.679  1.00  0.00     0.060 A 
ATOM     34  C   UNL A   1      36.940  33.451  29.076  1.00  0.00     0.016 A 
ATOM     35  C   UNL A   1      35.825  32.161  30.793  1.00  0.00     0.016 A 
ATOM     36  C   UNL A   1      38.184  32.922  29.466  1.00  0.00     0.010 A 
ATOM     37  C   UNL A   1      37.040  31.588  31.118  1.00  0.00     0.010 A 
ATOM     38  C   UNL A   1      38.218  31.911  30.418  1.00  0.00    -0.014 A 
BRANCH  38  39
ATOM     39  C   UNL A   1      39.370  31.052  30.734  1.00  0.00     0.031 A 
ATOM     40  C   UNL A   1      39.499  29.800  29.987  1.00  0.00     0.074 A 
ATOM     41  C   UNL A   1      40.422  31.480  31.476  1.00  0.00     0.049 A 
ATOM     42  N   UNL A   1      40.277  28.838  30.334  1.00  0.00    -0.248 NA
ATOM     43  C   UNL A   1      38.723  29.498  28.787  1.00  0.00     0.031 C 
ATOM     44  C   UNL A   1      41.811  31.026  31.565  1.00  0.00     0.029 A 
ATOM     45  N   UNL A   1      40.415  32.473  32.433  1.00  0.00    -0.354 N 
ATOM     46  C   UNL A   1      40.455  28.084  29.205  1.00  0.00     0.074 A 
ATOM     47  C   UNL A   1      39.318  28.381  28.373  1.00  0.00     0.031 C 
ATOM     48  C   UNL A   1      42.356  31.458  32.725  1.00  0.00     0.029 A 
ATOM     49  C   UNL A   1      41.290  32.121  33.453  1.00  0.00     0.049 A 
ATOM     50  H   UNL A   1      39.876  33.296  32.399  1.00  0.00     0.167 HD
ATOM     51  C   UNL A   1      41.668  27.496  29.012  1.00  0.00     0.031 A 
ATOM     52  C   UNL A   1      40.794  31.934  34.701  1.00  0.00     0.031 A 
ATOM     53  C   UNL A   1      42.553  27.695  30.177  1.00  0.00     0.049 A 
ATOM     54  C   UNL A   1      41.176  30.536  35.061  1.00  0.00     0.074 A 
ATOM     55  C   UNL A   1      43.748  28.371  30.375  1.00  0.00     0.029 A 
ATOM     56  N   UNL A   1      42.064  27.409  31.455  1.00  0.00    -0.354 N 
ATOM     57  N   UNL A   1      41.180  29.570  34.179  1.00  0.00    -0.248 NA
ATOM     58  C   UNL A   1      41.842  30.190  36.311  1.00  0.00     0.031 C 
ATOM     59  C   UNL A   1      43.948  28.512  31.784  1.00  0.00     0.029 A 
ATOM     60  C   UNL A   1      42.874  27.927  32.442  1.00  0.00     0.049 A 
ATOM     61  H   UNL A   1      41.240  26.900  31.628  1.00  0.00     0.167 HD
ATOM     62  C   UNL A   1      42.024  28.598  34.630  1.00  0.00     0.074 A 
ATOM     63  C   UNL A   1      42.345  28.983  36.000  1.00  0.00     0.031 C 
ATOM     64  C   UNL A   1      42.592  27.639  33.844  1.00  0.00     0.031 A 
BRANCH  51  65
ATOM     65  C   UNL A   1      42.142  26.965  27.676  1.00  0.00    -0.014 A 
ATOM     66  C   UNL A   1      42.248  27.840  26.581  1.00  0.00     0.009 A 
ATOM     67  C   UNL A   1      42.475  25.624  27.406  1.00  0.00     0.009 A 
ATOM     68  C   UNL A   1      42.643  27.402  25.308  1.00  0.00     0.001 A 
ATOM     69  C   UNL A   1      42.871  25.174  26.139  1.00  0.00     0.001 A 
ATOM     70  C   UNL A   1      42.958  26.068  25.087  1.00  0.00     0.000 A 
ENDBRANCH  51  65
BRANCH  52  71
ATOM     71  C   UNL A   1      39.512  32.700  34.889  1.00  0.00    -0.014 A 
ATOM     72  C   UNL A   1      39.599  34.111  34.743  1.00  0.00     0.009 A 
ATOM     73  C   UNL A   1      38.230  32.152  34.846  1.00  0.00     0.009 A 
ATOM     74  C   UNL A   1      38.491  34.927  34.475  1.00  0.00     0.001 A 
ATOM     75  C   UNL A   1      37.108  32.981  34.604  1.00  0.00     0.001 A 
ATOM     76  C   UNL A   1      37.239  34.356  34.393  1.00  0.00     0.000 A 
ENDBRANCH  52  71
BRANCH  64  77
ATOM     77  C   UNL A   1      42.851  26.247  34.352  1.00  0.00    -0.014 A 
ATOM     78  C   UNL A   1      41.949  25.518  35.133  1.00  0.00     0.009 A 
ATOM     79  C   UNL A   1      43.966  25.546  33.842  1.00  0.00     0.009 A 
ATOM     80  C   UNL A   1      42.153  24.163  35.400  1.00  0.00     0.001 A 
ATOM     81  C   UNL A   1      44.142  24.181  34.054  1.00  0.00     0.001 A 
ATOM     82  C   UNL A   1      43.236  23.491  34.842  1.00  0.00     0.000 A 
ENDBRANCH  64  77
ENDBRANCH  38  39
ENDBRANCH  31  33
ENDBRANCH  30  31
ENDBRANCH  29  30
ENDBRANCH  28  29
ENDBRANCH  27  28
ENDBRANCH   1  27
TORSDOF 18
ENDMDL
MODEL 3
REMARK VINA RESULT:     -10.7      2.149      3.249
REMARK SMILES Cc1cccc(OCC(=O)Nc2cc(C(=O)OCCOCCOC(=O)c3ccc(-c4c5nc(c(-c6ccccc6)c6ccc([nH]6)c(-c6ccccc6)c6nc(c(-c7ccccc7)c7ccc4[nH]7)C=C6)C=C5)cc3)c(Cl)cc2Cl)c1
REMARK SMILES IDX 19 1 18 2 17 3 15 4 16 5 14 6 12 7 13 8 77 9 76 10 78 11
REMARK SMILES IDX 74 12 75 13 11 14 9 15 10 16 8 18 7 19 6 20 1 21 2 22 3 23
REMARK SMILES IDX 79 24 4 25 5 26 20 27 21 28 22 29 23 30 24 31 25 32 26 33
REMARK SMILES IDX 27 34 73 35 28 36 72 37 29 38 30 39 31 40 66 41 32 42 71 43
REMARK SMILES IDX 65 44 67 45 33 46 70 47 64 48 63 49 34 51 56 52 41 53 55 54
REMARK SMILES IDX 42 55 45 56 54 57 68 58 43 59 44 60 53 62 69 63 46 64 35 65
REMARK SMILES IDX 36 66 40 67 37 68 39 69 38 70 57 71 58 72 62 73 59 74 61 75
REMARK SMILES IDX 60 76 47 77 48 78 52 79 49 80 51 81 50 82
REMARK H PARENT 11 17 67 50 45 61
REMARK Flexibility Score: inf
ROOT
ATOM      1  C   UNL A   1      32.994  31.777  27.516  1.00  0.00     0.202 C 
ENDROOT
BRANCH   1   2
ATOM      2  C   UNL A   1      32.491  30.419  27.240  1.00  0.00     0.261 C 
BRANCH   2   3
ATOM      3  O   UNL A   1      33.091  29.932  26.046  1.00  0.00    -0.460 OA
BRANCH   3   4
ATOM      4  C   UNL A   1      33.636  28.681  26.088  1.00  0.00     0.339 C 
ATOM      5  O   UNL A   1      34.656  28.343  26.617  1.00  0.00    -0.246 OA
BRANCH   4   6
ATOM      6  C   UNL A   1      32.640  27.834  25.391  1.00  0.00     0.080 A 
ATOM      7  C   UNL A   1      31.074  25.974  25.609  1.00  0.00     0.061 A 
ATOM      8  C   UNL A   1      31.833  26.975  26.180  1.00  0.00     0.045 A 
ATOM      9  C   UNL A   1      31.104  25.872  24.201  1.00  0.00     0.066 A 
ATOM     10  C   UNL A   1      31.840  26.765  23.406  1.00  0.00     0.044 A 
ATOM     11  Cl  UNL A   1      30.255  24.604  23.387  1.00  0.00    -0.082 Cl
ATOM     12  C   UNL A   1      32.619  27.753  24.000  1.00  0.00     0.057 A 
ATOM     13  Cl  UNL A   1      33.574  28.740  22.955  1.00  0.00    -0.083 Cl
BRANCH   7  14
ATOM     14  N   UNL A   1      30.419  24.981  26.367  1.00  0.00    -0.322 N 
ATOM     15  C   UNL A   1      30.722  23.755  26.908  1.00  0.00     0.262 C 
ATOM     16  O   UNL A   1      29.742  23.123  27.321  1.00  0.00    -0.271 OA
ATOM     17  H   UNL A   1      29.488  25.237  26.564  1.00  0.00     0.170 HD
BRANCH  15  18
ATOM     18  C   UNL A   1      32.172  23.250  27.195  1.00  0.00     0.329 C 
BRANCH  18  19
ATOM     19  O   UNL A   1      33.111  22.587  26.350  1.00  0.00    -0.484 OA
BRANCH  19  20
ATOM     20  C   UNL A   1      33.037  22.695  24.995  1.00  0.00     0.120 A 
ATOM     21  C   UNL A   1      31.978  20.772  21.945  1.00  0.00     0.044 C 
ATOM     22  C   UNL A   1      32.383  21.933  22.798  1.00  0.00    -0.047 A 
ATOM     23  C   UNL A   1      33.072  22.985  22.190  1.00  0.00     0.003 A 
ATOM     24  C   UNL A   1      32.289  21.852  24.200  1.00  0.00     0.049 A 
ATOM     25  C   UNL A   1      33.926  23.734  22.970  1.00  0.00     0.004 A 
ATOM     26  C   UNL A   1      33.983  23.482  24.344  1.00  0.00     0.046 A 
ENDBRANCH  19  20
ENDBRANCH  18  19
ENDBRANCH  15  18
ENDBRANCH   7  14
ENDBRANCH   4   6
ENDBRANCH   3   4
ENDBRANCH   2   3
ENDBRANCH   1   2
BRANCH   1  27
ATOM     27  O   UNL A   1      34.340  31.551  27.883  1.00  0.00    -0.374 OA
BRANCH  27  28
ATOM     28  C   UNL A   1      35.148  32.702  27.837  1.00  0.00     0.202 C 
BRANCH  28  29
ATOM     29  C   UNL A   1      34.357  33.999  28.064  1.00  0.00     0.261 C 
BRANCH  29  30
ATOM     30  O   UNL A   1      34.917  34.713  29.192  1.00  0.00    -0.460 OA
BRANCH  30  31
ATOM     31  C   UNL A   1      34.730  34.174  30.432  1.00  0.00     0.338 C 
ATOM     32  O   UNL A   1      33.678  34.169  31.053  1.00  0.00    -0.246 OA
BRANCH  31  33
ATOM     33  C   UNL A   1      36.064  33.914  31.068  1.00  0.00     0.060 A 
ATOM     34  C   UNL A   1      37.241  34.374  30.443  1.00  0.00     0.016 A 
ATOM     35  C   UNL A   1      36.148  32.924  32.042  1.00  0.00     0.016 A 
ATOM     36  C   UNL A   1      38.461  33.707  30.650  1.00  0.00     0.010 A 
ATOM     37  C   UNL A   1      37.331  32.225  32.181  1.00  0.00     0.010 A 
ATOM     38  C   UNL A   1      38.480  32.565  31.442  1.00  0.00    -0.014 A 
BRANCH  38  39
ATOM     39  C   UNL A   1      39.577  31.591  31.536  1.00  0.00     0.031 A 
ATOM     40  C   UNL A   1      39.517  30.423  30.656  1.00  0.00     0.074 A 
ATOM     41  C   UNL A   1      40.735  31.850  32.194  1.00  0.00     0.049 A 
ATOM     42  N   UNL A   1      40.237  29.371  30.814  1.00  0.00    -0.248 NA
ATOM     43  C   UNL A   1      38.596  30.317  29.527  1.00  0.00     0.031 C 
ATOM     44  C   UNL A   1      42.080  31.283  32.080  1.00  0.00     0.029 A 
ATOM     45  N   UNL A   1      40.916  32.729  33.242  1.00  0.00    -0.354 N 
ATOM     46  C   UNL A   1      40.229  28.735  29.600  1.00  0.00     0.074 A 
ATOM     47  C   UNL A   1      39.043  29.209  28.937  1.00  0.00     0.031 C 
ATOM     48  C   UNL A   1      42.779  31.540  33.208  1.00  0.00     0.029 A 
ATOM     49  C   UNL A   1      41.858  32.199  34.115  1.00  0.00     0.049 A 
ATOM     50  H   UNL A   1      40.452  33.590  33.353  1.00  0.00     0.167 HD
ATOM     51  C   UNL A   1      41.358  28.080  29.213  1.00  0.00     0.031 A 
ATOM     52  C   UNL A   1      41.480  31.914  35.386  1.00  0.00     0.031 A 
ATOM     53  C   UNL A   1      42.374  28.079  30.285  1.00  0.00     0.049 A 
ATOM     54  C   UNL A   1      41.771  30.460  35.557  1.00  0.00     0.074 A 
ATOM     55  C   UNL A   1      43.638  28.634  30.415  1.00  0.00     0.029 A 
ATOM     56  N   UNL A   1      41.997  27.692  31.574  1.00  0.00    -0.354 N 
ATOM     57  N   UNL A   1      41.597  29.600  34.586  1.00  0.00    -0.248 NA
ATOM     58  C   UNL A   1      42.530  29.927  36.681  1.00  0.00     0.031 C 
ATOM     59  C   UNL A   1      43.996  28.603  31.799  1.00  0.00     0.029 A 
ATOM     60  C   UNL A   1      42.948  28.033  32.511  1.00  0.00     0.049 A 
ATOM     61  H   UNL A   1      41.153  27.233  31.787  1.00  0.00     0.167 HD
ATOM     62  C   UNL A   1      42.394  28.521  34.838  1.00  0.00     0.074 A 
ATOM     63  C   UNL A   1      42.888  28.726  36.194  1.00  0.00     0.031 C 
ATOM     64  C   UNL A   1      42.789  27.614  33.900  1.00  0.00     0.031 A 
BRANCH  51  65
ATOM     65  C   UNL A   1      41.641  27.665  27.785  1.00  0.00    -0.014 A 
ATOM     66  C   UNL A   1      42.106  28.621  26.866  1.00  0.00     0.009 A 
ATOM     67  C   UNL A   1      41.452  26.372  27.261  1.00  0.00     0.009 A 
ATOM     68  C   UNL A   1      42.350  28.308  25.520  1.00  0.00     0.001 A 
ATOM     69  C   UNL A   1      41.692  26.047  25.919  1.00  0.00     0.001 A 
ATOM     70  C   UNL A   1      42.145  27.020  25.046  1.00  0.00     0.000 A 
ENDBRANCH  51  65
BRANCH  52  71
ATOM     71  C   UNL A   1      40.297  32.751  35.795  1.00  0.00    -0.014 A 
ATOM     72  C   UNL A   1      39.045  32.080  35.855  1.00  0.00     0.009 A 
ATOM     73  C   UNL A   1      40.365  33.987  36.437  1.00  0.00     0.009 A 
ATOM     74  C   UNL A   1      37.949  32.558  36.586  1.00  0.00     0.001 A 
ATOM     75  C   UNL A   1      39.249  34.484  37.151  1.00  0.00     0.001 A 
ATOM     76  C   UNL A   1      38.056  33.762  37.249  1.00  0.00     0.000 A 
ENDBRANCH  52  71
BRANCH  64  77
ATOM     77  C   UNL A   1      42.974  26.159  34.230  1.00  0.00    -0.014 A 
ATOM     78  C   UNL A   1      44.104  25.413  33.880  1.00  0.00     0.009 A 
ATOM     79  C   UNL A   1      42.063  25.555  35.125  1.00  0.00     0.009 A 
ATOM     80  C   UNL A   1      44.311  24.130  34.389  1.00  0.00     0.001 A 
ATOM     81  C   UNL A   1      42.296  24.301  35.683  1.00  0.00     0.001 A 
ATOM     82  C   UNL A   1      43.419  23.585  35.306  1.00  0.00     0.000 A 
ENDBRANCH  64  77
ENDBRANCH  38  39
ENDBRANCH  31  33
ENDBRANCH  30  31
ENDBRANCH  29  30
ENDBRANCH  28  29
ENDBRANCH  27  28
ENDBRANCH   1  27
TORSDOF 18
ENDMDL
