MODEL 1
REMARK VINA RESULT:     -11.9      0.000      0.000
REMARK SMILES O=C(OCCOCCOC(=O)c1ccc(-c2c3nc(c(-c4ccccc4)c4ccc([nH]4)c(-c4ccccc4)c4nc(c(-c5ccccc5)c5ccc2[nH]5)C=C4)C=C3)cc1)C1=Cc2cc(C(F)(F)F)ccc2O[C@@H]1C(F)(F)F
REMARK SMILES IDX 7 1 6 2 5 3 4 4 3 5 2 6 1 7 60 8 61 9 73 10 62 11 72 12
REMARK SMILES IDX 63 13 71 14 64 15 70 16 69 17 74 18 75 19 76 20 77 21 65 22
REMARK SMILES IDX 66 23 67 24 68 25 8 26 9 27 10 28 11 29 12 30 13 31 59 32
REMARK SMILES IDX 14 33 58 34 15 35 16 36 17 37 52 38 18 39 57 40 51 41 53 42
REMARK SMILES IDX 19 43 56 44 50 45 49 46 20 48 42 49 27 50 41 51 28 52 31 53
REMARK SMILES IDX 40 54 54 55 29 56 30 57 39 59 55 60 32 61 21 62 22 63 26 64
REMARK SMILES IDX 23 65 25 66 24 67 43 68 44 69 48 70 45 71 47 72 46 73 33 74
REMARK SMILES IDX 34 75 38 76 35 77 37 78 36 79
REMARK H PARENT 53 47 31 58
REMARK Flexibility Score: inf
ROOT
ATOM      1  C   UNL A   1      42.236  20.642  26.570  1.00  0.00     0.202 C 
ENDROOT
BRANCH   1   2
ATOM      2  O   UNL A   1      40.858  20.525  26.164  1.00  0.00    -0.374 OA
BRANCH   2   3
ATOM      3  C   UNL A   1      39.600  21.554  26.212  1.00  0.00     0.202 C 
BRANCH   3   4
ATOM      4  C   UNL A   1      37.733  21.582  25.104  1.00  0.00     0.261 C 
BRANCH   4   5
ATOM      5  O   UNL A   1      36.405  22.204  25.560  1.00  0.00    -0.460 OA
BRANCH   5   6
ATOM      6  C   UNL A   1      35.851  22.973  24.619  1.00  0.00     0.338 C 
ATOM      7  O   UNL A   1      36.378  23.643  23.769  1.00  0.00    -0.246 OA
BRANCH   6   8
ATOM      8  C   UNL A   1      34.529  23.003  25.204  1.00  0.00     0.087 C 
ATOM      9  C   UNL A   1      34.219  24.329  25.776  1.00  0.00     0.027 C 
ATOM     10  C   UNL A   1      33.615  22.213  23.692  1.00  0.00     0.316 C 
ATOM     11  C   UNL A   1      33.106  25.518  24.998  1.00  0.00     0.018 A 
ATOM     12  O   UNL A   1      32.466  23.491  22.804  1.00  0.00    -0.475 OA
ATOM     13  C   UNL A   1      33.017  26.779  25.517  1.00  0.00     0.025 A 
ATOM     14  C   UNL A   1      32.304  25.174  23.500  1.00  0.00     0.128 A 
ATOM     15  C   UNL A   1      32.297  27.716  24.739  1.00  0.00     0.056 A 
ATOM     16  C   UNL A   1      31.738  26.155  22.745  1.00  0.00     0.048 A 
ATOM     17  C   UNL A   1      31.740  27.419  23.409  1.00  0.00     0.017 A 
BRANCH  10  18
ATOM     18  C   UNL A   1      33.308  20.802  24.372  1.00  0.00     0.430 C 
ATOM     19  F   UNL A   1      32.429  20.823  25.390  1.00  0.00    -0.167 F 
ATOM     20  F   UNL A   1      32.714  20.020  23.420  1.00  0.00    -0.167 F 
ATOM     21  F   UNL A   1      34.399  20.101  24.753  1.00  0.00    -0.167 F 
ENDBRANCH  10  18
BRANCH  15  22
ATOM     22  C   UNL A   1      32.134  29.101  25.360  1.00  0.00     0.416 C 
ATOM     23  F   UNL A   1      31.062  29.767  24.842  1.00  0.00    -0.166 F 
ATOM     24  F   UNL A   1      31.914  29.041  26.703  1.00  0.00    -0.166 F 
ATOM     25  F   UNL A   1      33.204  29.919  25.182  1.00  0.00    -0.166 F 
ENDBRANCH  15  22
ENDBRANCH   6   8
ENDBRANCH   5   6
ENDBRANCH   4   5
ENDBRANCH   3   4
ENDBRANCH   2   3
ENDBRANCH   1   2
BRANCH   1  26
ATOM     26  C   UNL A   1      43.190  21.296  25.577  1.00  0.00     0.261 C 
BRANCH  26  27
ATOM     27  O   UNL A   1      42.660  22.485  25.013  1.00  0.00    -0.460 OA
BRANCH  27  28
ATOM     28  C   UNL A   1      43.530  23.519  24.996  1.00  0.00     0.338 C 
ATOM     29  O   UNL A   1      44.509  23.669  24.287  1.00  0.00    -0.246 OA
BRANCH  28  30
ATOM     30  C   UNL A   1      43.086  24.490  26.007  1.00  0.00     0.060 A 
ATOM     31  C   UNL A   1      42.047  24.118  26.864  1.00  0.00     0.016 A 
ATOM     32  C   UNL A   1      43.726  25.729  26.147  1.00  0.00     0.016 A 
ATOM     33  C   UNL A   1      41.697  24.955  27.919  1.00  0.00     0.010 A 
ATOM     34  C   UNL A   1      43.358  26.576  27.182  1.00  0.00     0.010 A 
ATOM     35  C   UNL A   1      42.355  26.181  28.078  1.00  0.00    -0.014 A 
BRANCH  35  36
ATOM     36  C   UNL A   1      41.901  27.134  29.102  1.00  0.00     0.031 A 
ATOM     37  C   UNL A   1      42.619  27.142  30.413  1.00  0.00     0.074 A 
ATOM     38  C   UNL A   1      40.847  27.936  28.869  1.00  0.00     0.049 A 
ATOM     39  N   UNL A   1      42.358  27.831  31.489  1.00  0.00    -0.248 NA
ATOM     40  C   UNL A   1      43.786  26.247  30.528  1.00  0.00     0.031 C 
ATOM     41  C   UNL A   1      40.101  28.018  27.612  1.00  0.00     0.029 A 
ATOM     42  N   UNL A   1      40.210  28.823  29.698  1.00  0.00    -0.354 N 
ATOM     43  C   UNL A   1      43.324  27.454  32.410  1.00  0.00     0.074 A 
ATOM     44  C   UNL A   1      44.166  26.465  31.777  1.00  0.00     0.031 C 
ATOM     45  C   UNL A   1      39.094  28.898  27.761  1.00  0.00     0.029 A 
ATOM     46  C   UNL A   1      39.101  29.404  29.132  1.00  0.00     0.049 A 
ATOM     47  H   UNL A   1      40.518  29.025  30.610  1.00  0.00     0.167 HD
ATOM     48  C   UNL A   1      43.482  27.893  33.678  1.00  0.00     0.031 A 
ATOM     49  C   UNL A   1      38.180  30.220  29.681  1.00  0.00     0.031 A 
ATOM     50  C   UNL A   1      42.613  28.848  34.305  1.00  0.00     0.049 A 
ATOM     51  C   UNL A   1      38.335  30.616  31.130  1.00  0.00     0.074 A 
ATOM     52  C   UNL A   1      42.699  29.377  35.579  1.00  0.00     0.029 A 
ATOM     53  N   UNL A   1      41.486  29.396  33.715  1.00  0.00    -0.354 N 
ATOM     54  N   UNL A   1      39.294  30.314  31.973  1.00  0.00    -0.248 NA
ATOM     55  C   UNL A   1      37.279  31.463  31.704  1.00  0.00     0.031 C 
ATOM     56  C   UNL A   1      41.578  30.180  35.790  1.00  0.00     0.029 A 
ATOM     57  C   UNL A   1      40.837  30.216  34.619  1.00  0.00     0.049 A 
ATOM     58  H   UNL A   1      41.190  29.225  32.791  1.00  0.00     0.167 HD
ATOM     59  C   UNL A   1      38.971  30.956  33.163  1.00  0.00     0.074 A 
ATOM     60  C   UNL A   1      37.745  31.687  32.924  1.00  0.00     0.031 C 
ATOM     61  C   UNL A   1      39.619  30.937  34.352  1.00  0.00     0.031 A 
BRANCH  48  62
ATOM     62  C   UNL A   1      44.600  27.307  34.487  1.00  0.00    -0.014 A 
ATOM     63  C   UNL A   1      44.476  26.055  35.108  1.00  0.00     0.009 A 
ATOM     64  C   UNL A   1      45.822  27.991  34.567  1.00  0.00     0.009 A 
ATOM     65  C   UNL A   1      45.553  25.506  35.805  1.00  0.00     0.001 A 
ATOM     66  C   UNL A   1      46.906  27.427  35.239  1.00  0.00     0.001 A 
ATOM     67  C   UNL A   1      46.770  26.187  35.860  1.00  0.00     0.000 A 
ENDBRANCH  48  62
BRANCH  49  68
ATOM     68  C   UNL A   1      36.994  30.674  28.902  1.00  0.00    -0.014 A 
ATOM     69  C   UNL A   1      36.834  32.023  28.548  1.00  0.00     0.009 A 
ATOM     70  C   UNL A   1      35.968  29.769  28.579  1.00  0.00     0.009 A 
ATOM     71  C   UNL A   1      35.655  32.464  27.941  1.00  0.00     0.001 A 
ATOM     72  C   UNL A   1      34.808  30.205  27.935  1.00  0.00     0.001 A 
ATOM     73  C   UNL A   1      34.644  31.555  27.634  1.00  0.00     0.000 A 
ENDBRANCH  49  68
BRANCH  61  74
ATOM     74  C   UNL A   1      39.037  31.750  35.476  1.00  0.00    -0.014 A 
ATOM     75  C   UNL A   1      38.170  31.176  36.418  1.00  0.00     0.009 A 
ATOM     76  C   UNL A   1      39.418  33.093  35.632  1.00  0.00     0.009 A 
ATOM     77  C   UNL A   1      37.671  31.939  37.475  1.00  0.00     0.001 A 
ATOM     78  C   UNL A   1      38.950  33.842  36.711  1.00  0.00     0.001 A 
ATOM     79  C   UNL A   1      38.069  33.267  37.626  1.00  0.00     0.000 A 
ENDBRANCH  61  74
ENDBRANCH  35  36
ENDBRANCH  28  30
ENDBRANCH  27  28
ENDBRANCH  26  27
ENDBRANCH   1  26
TORSDOF 16
ENDMDL
MODEL 2
REMARK VINA RESULT:     -11.5      4.431      9.423
REMARK SMILES O=C(OCCOCCOC(=O)c1ccc(-c2c3nc(c(-c4ccccc4)c4ccc([nH]4)c(-c4ccccc4)c4nc(c(-c5ccccc5)c5ccc2[nH]5)C=C4)C=C3)cc1)C1=Cc2cc(C(F)(F)F)ccc2O[C@@H]1C(F)(F)F
REMARK SMILES IDX 7 1 6 2 5 3 4 4 3 5 2 6 1 7 60 8 61 9 73 10 62 11 72 12
REMARK SMILES IDX 63 13 71 14 64 15 70 16 69 17 74 18 75 19 76 20 77 21 65 22
REMARK SMILES IDX 66 23 67 24 68 25 8 26 9 27 10 28 11 29 12 30 13 31 59 32
REMARK SMILES IDX 14 33 58 34 15 35 16 36 17 37 52 38 18 39 57 40 51 41 53 42
REMARK SMILES IDX 19 43 56 44 50 45 49 46 20 48 42 49 27 50 41 51 28 52 31 53
REMARK SMILES IDX 40 54 54 55 29 56 30 57 39 59 55 60 32 61 21 62 22 63 26 64
REMARK SMILES IDX 23 65 25 66 24 67 43 68 44 69 48 70 45 71 47 72 46 73 33 74
REMARK SMILES IDX 34 75 38 76 35 77 37 78 36 79
REMARK H PARENT 53 47 31 58
REMARK Flexibility Score: inf
ROOT
ATOM      1  C   UNL A   1      33.654  34.500  28.951  1.00  0.00     0.202 C 
ENDROOT
BRANCH   1   2
ATOM      2  O   UNL A   1      33.501  33.401  28.031  1.00  0.00    -0.374 OA
BRANCH   2   3
ATOM      3  C   UNL A   1      32.212  32.766  27.270  1.00  0.00     0.202 C 
BRANCH   3   4
ATOM      4  C   UNL A   1      31.836  30.761  26.526  1.00  0.00     0.261 C 
BRANCH   4   5
ATOM      5  O   UNL A   1      32.636  29.493  26.860  1.00  0.00    -0.460 OA
BRANCH   5   6
ATOM      6  C   UNL A   1      31.876  28.396  26.862  1.00  0.00     0.338 C 
ATOM      7  O   UNL A   1      31.210  27.925  27.748  1.00  0.00    -0.246 OA
BRANCH   6   8
ATOM      8  C   UNL A   1      32.418  27.832  25.645  1.00  0.00     0.087 C 
ATOM      9  C   UNL A   1      33.377  26.746  25.932  1.00  0.00     0.027 C 
ATOM     10  C   UNL A   1      30.718  27.594  24.751  1.00  0.00     0.316 C 
ATOM     11  C   UNL A   1      33.000  24.995  25.711  1.00  0.00     0.018 A 
ATOM     12  O   UNL A   1      30.265  25.724  24.563  1.00  0.00    -0.475 OA
ATOM     13  C   UNL A   1      33.892  24.063  26.162  1.00  0.00     0.025 A 
ATOM     14  C   UNL A   1      31.457  24.459  25.128  1.00  0.00     0.128 A 
ATOM     15  C   UNL A   1      33.441  22.722  26.151  1.00  0.00     0.056 A 
ATOM     16  C   UNL A   1      31.045  23.169  25.266  1.00  0.00     0.048 A 
ATOM     17  C   UNL A   1      32.076  22.321  25.770  1.00  0.00     0.017 A 
BRANCH  10  18
ATOM     18  C   UNL A   1      30.909  28.756  23.672  1.00  0.00     0.430 C 
ATOM     19  F   UNL A   1      30.474  28.476  22.431  1.00  0.00    -0.167 F 
ATOM     20  F   UNL A   1      30.137  29.809  24.079  1.00  0.00    -0.167 F 
ATOM     21  F   UNL A   1      32.158  29.263  23.592  1.00  0.00    -0.167 F 
ENDBRANCH  10  18
BRANCH  15  22
ATOM     22  C   UNL A   1      34.468  21.678  26.583  1.00  0.00     0.416 C 
ATOM     23  F   UNL A   1      34.355  20.526  25.861  1.00  0.00    -0.166 F 
ATOM     24  F   UNL A   1      35.748  22.105  26.393  1.00  0.00    -0.166 F 
ATOM     25  F   UNL A   1      34.375  21.313  27.888  1.00  0.00    -0.166 F 
ENDBRANCH  15  22
ENDBRANCH   6   8
ENDBRANCH   5   6
ENDBRANCH   4   5
ENDBRANCH   3   4
ENDBRANCH   2   3
ENDBRANCH   1   2
BRANCH   1  26
ATOM     26  C   UNL A   1      34.112  34.154  30.363  1.00  0.00     0.261 C 
BRANCH  26  27
ATOM     27  O   UNL A   1      34.374  32.770  30.528  1.00  0.00    -0.460 OA
BRANCH  27  28
ATOM     28  C   UNL A   1      35.104  32.477  31.627  1.00  0.00     0.338 C 
ATOM     29  O   UNL A   1      34.821  32.677  32.795  1.00  0.00    -0.246 OA
BRANCH  28  30
ATOM     30  C   UNL A   1      36.348  31.837  31.177  1.00  0.00     0.060 A 
ATOM     31  C   UNL A   1      36.666  31.902  29.817  1.00  0.00     0.016 A 
ATOM     32  C   UNL A   1      37.221  31.234  32.093  1.00  0.00     0.016 A 
ATOM     33  C   UNL A   1      37.901  31.432  29.381  1.00  0.00     0.010 A 
ATOM     34  C   UNL A   1      38.440  30.740  31.652  1.00  0.00     0.010 A 
ATOM     35  C   UNL A   1      38.787  30.854  30.298  1.00  0.00    -0.014 A 
BRANCH  35  36
ATOM     36  C   UNL A   1      40.031  30.228  29.828  1.00  0.00     0.031 A 
ATOM     37  C   UNL A   1      41.267  31.068  29.806  1.00  0.00     0.074 A 
ATOM     38  C   UNL A   1      40.035  28.955  29.395  1.00  0.00     0.049 A 
ATOM     39  N   UNL A   1      42.459  30.767  29.366  1.00  0.00    -0.248 NA
ATOM     40  C   UNL A   1      41.144  32.433  30.349  1.00  0.00     0.031 C 
ATOM     41  C   UNL A   1      38.885  28.050  29.403  1.00  0.00     0.029 A 
ATOM     42  N   UNL A   1      41.044  28.211  28.841  1.00  0.00    -0.354 N 
ATOM     43  C   UNL A   1      43.225  31.904  29.575  1.00  0.00     0.074 A 
ATOM     44  C   UNL A   1      42.367  32.905  30.164  1.00  0.00     0.031 C 
ATOM     45  C   UNL A   1      39.252  26.874  28.863  1.00  0.00     0.029 A 
ATOM     46  C   UNL A   1      40.646  26.961  28.433  1.00  0.00     0.049 A 
ATOM     47  H   UNL A   1      41.967  28.541  28.748  1.00  0.00     0.167 HD
ATOM     48  C   UNL A   1      44.532  32.091  29.289  1.00  0.00     0.031 A 
ATOM     49  C   UNL A   1      41.327  26.019  27.753  1.00  0.00     0.031 A 
ATOM     50  C   UNL A   1      45.362  31.098  28.668  1.00  0.00     0.049 A 
ATOM     51  C   UNL A   1      42.759  26.299  27.363  1.00  0.00     0.074 A 
ATOM     52  C   UNL A   1      46.706  31.179  28.355  1.00  0.00     0.029 A 
ATOM     53  N   UNL A   1      44.922  29.855  28.242  1.00  0.00    -0.354 N 
ATOM     54  N   UNL A   1      43.500  27.348  27.632  1.00  0.00    -0.248 NA
ATOM     55  C   UNL A   1      43.448  25.265  26.576  1.00  0.00     0.031 C 
ATOM     56  C   UNL A   1      47.059  30.019  27.664  1.00  0.00     0.029 A 
ATOM     57  C   UNL A   1      45.956  29.181  27.620  1.00  0.00     0.049 A 
ATOM     58  H   UNL A   1      44.009  29.505  28.364  1.00  0.00     0.167 HD
ATOM     59  C   UNL A   1      44.746  27.088  27.072  1.00  0.00     0.074 A 
ATOM     60  C   UNL A   1      44.669  25.770  26.476  1.00  0.00     0.031 C 
ATOM     61  C   UNL A   1      45.853  27.867  27.040  1.00  0.00     0.031 A 
BRANCH  48  62
ATOM     62  C   UNL A   1      45.130  33.432  29.592  1.00  0.00    -0.014 A 
ATOM     63  C   UNL A   1      45.724  33.705  30.834  1.00  0.00     0.009 A 
ATOM     64  C   UNL A   1      45.159  34.413  28.590  1.00  0.00     0.009 A 
ATOM     65  C   UNL A   1      46.326  34.942  31.068  1.00  0.00     0.001 A 
ATOM     66  C   UNL A   1      45.787  35.638  28.817  1.00  0.00     0.001 A 
ATOM     67  C   UNL A   1      46.367  35.902  30.056  1.00  0.00     0.000 A 
ENDBRANCH  48  62
BRANCH  49  68
ATOM     68  C   UNL A   1      40.669  24.750  27.331  1.00  0.00    -0.014 A 
ATOM     69  C   UNL A   1      39.563  24.761  26.468  1.00  0.00     0.009 A 
ATOM     70  C   UNL A   1      41.096  23.520  27.860  1.00  0.00     0.009 A 
ATOM     71  C   UNL A   1      38.866  23.581  26.189  1.00  0.00     0.001 A 
ATOM     72  C   UNL A   1      40.424  22.336  27.547  1.00  0.00     0.001 A 
ATOM     73  C   UNL A   1      39.298  22.371  26.728  1.00  0.00     0.000 A 
ENDBRANCH  49  68
BRANCH  61  74
ATOM     74  C   UNL A   1      47.078  27.310  26.368  1.00  0.00    -0.014 A 
ATOM     75  C   UNL A   1      47.341  27.558  25.011  1.00  0.00     0.009 A 
ATOM     76  C   UNL A   1      48.016  26.586  27.121  1.00  0.00     0.009 A 
ATOM     77  C   UNL A   1      48.503  27.063  24.416  1.00  0.00     0.001 A 
ATOM     78  C   UNL A   1      49.195  26.128  26.534  1.00  0.00     0.001 A 
ATOM     79  C   UNL A   1      49.432  26.358  25.180  1.00  0.00     0.000 A 
ENDBRANCH  61  74
ENDBRANCH  35  36
ENDBRANCH  28  30
ENDBRANCH  27  28
ENDBRANCH  26  27
ENDBRANCH   1  26
TORSDOF 16
ENDMDL
MODEL 3
REMARK VINA RESULT:     -11.5      5.332     12.803
REMARK SMILES O=C(OCCOCCOC(=O)c1ccc(-c2c3nc(c(-c4ccccc4)c4ccc([nH]4)c(-c4ccccc4)c4nc(c(-c5ccccc5)c5ccc2[nH]5)C=C4)C=C3)cc1)C1=Cc2cc(C(F)(F)F)ccc2O[C@@H]1C(F)(F)F
REMARK SMILES IDX 7 1 6 2 5 3 4 4 3 5 2 6 1 7 60 8 61 9 73 10 62 11 72 12
REMARK SMILES IDX 63 13 71 14 64 15 70 16 69 17 74 18 75 19 76 20 77 21 65 22
REMARK SMILES IDX 66 23 67 24 68 25 8 26 9 27 10 28 11 29 12 30 13 31 59 32
REMARK SMILES IDX 14 33 58 34 15 35 16 36 17 37 52 38 18 39 57 40 51 41 53 42
REMARK SMILES IDX 19 43 56 44 50 45 49 46 20 48 42 49 27 50 41 51 28 52 31 53
REMARK SMILES IDX 40 54 54 55 29 56 30 57 39 59 55 60 32 61 21 62 22 63 26 64
REMARK SMILES IDX 23 65 25 66 24 67 43 68 44 69 48 70 45 71 47 72 46 73 33 74
REMARK SMILES IDX 34 75 38 76 35 77 37 78 36 79
REMARK H PARENT 53 47 31 58
REMARK Flexibility Score: inf
ROOT
ATOM      1  C   UNL A   1      33.554  36.531  32.837  1.00  0.00     0.202 C 
ENDROOT
BRANCH   1   2
ATOM      2  O   UNL A   1      34.234  35.577  33.677  1.00  0.00    -0.374 OA
BRANCH   2   3
ATOM      3  C   UNL A   1      35.736  34.955  33.652  1.00  0.00     0.202 C 
BRANCH   3   4
ATOM      4  C   UNL A   1      36.573  33.201  34.619  1.00  0.00     0.261 C 
BRANCH   4   5
ATOM      5  O   UNL A   1      37.032  31.906  33.932  1.00  0.00    -0.460 OA
BRANCH   5   6
ATOM      6  C   UNL A   1      38.351  31.876  33.726  1.00  0.00     0.338 C 
ATOM      7  O   UNL A   1      39.245  32.284  34.422  1.00  0.00    -0.246 OA
BRANCH   6   8
ATOM      8  C   UNL A   1      38.279  31.562  32.316  1.00  0.00     0.087 C 
ATOM      9  C   UNL A   1      38.658  32.721  31.482  1.00  0.00     0.027 C 
ATOM     10  C   UNL A   1      39.276  29.907  32.422  1.00  0.00     0.316 C 
ATOM     11  C   UNL A   1      40.239  32.861  30.624  1.00  0.00     0.018 A 
ATOM     12  O   UNL A   1      41.003  30.056  31.564  1.00  0.00    -0.475 OA
ATOM     13  C   UNL A   1      40.562  34.043  30.018  1.00  0.00     0.025 A 
ATOM     14  C   UNL A   1      41.442  31.615  30.717  1.00  0.00     0.128 A 
ATOM     15  C   UNL A   1      41.893  34.153  29.553  1.00  0.00     0.056 A 
ATOM     16  C   UNL A   1      42.738  31.839  30.363  1.00  0.00     0.048 A 
ATOM     17  C   UNL A   1      42.923  33.122  29.766  1.00  0.00     0.017 A 
BRANCH  10  18
ATOM     18  C   UNL A   1      38.042  28.927  32.163  1.00  0.00     0.430 C 
ATOM     19  F   UNL A   1      36.981  29.475  31.545  1.00  0.00    -0.167 F 
ATOM     20  F   UNL A   1      38.477  27.955  31.304  1.00  0.00    -0.167 F 
ATOM     21  F   UNL A   1      37.611  28.250  33.250  1.00  0.00    -0.167 F 
ENDBRANCH  10  18
BRANCH  15  22
ATOM     22  C   UNL A   1      42.226  35.444  28.808  1.00  0.00     0.416 C 
ATOM     23  F   UNL A   1      42.808  36.366  29.627  1.00  0.00    -0.166 F 
ATOM     24  F   UNL A   1      43.114  35.239  27.796  1.00  0.00    -0.166 F 
ATOM     25  F   UNL A   1      41.149  36.060  28.255  1.00  0.00    -0.166 F 
ENDBRANCH  15  22
ENDBRANCH   6   8
ENDBRANCH   5   6
ENDBRANCH   4   5
ENDBRANCH   3   4
ENDBRANCH   2   3
ENDBRANCH   1   2
BRANCH   1  26
ATOM     26  C   UNL A   1      32.672  35.964  31.730  1.00  0.00     0.261 C 
BRANCH  26  27
ATOM     27  O   UNL A   1      33.245  34.828  31.104  1.00  0.00    -0.460 OA
BRANCH  27  28
ATOM     28  C   UNL A   1      33.872  35.102  29.938  1.00  0.00     0.338 C 
ATOM     29  O   UNL A   1      34.023  36.184  29.400  1.00  0.00    -0.246 OA
BRANCH  28  30
ATOM     30  C   UNL A   1      34.379  33.833  29.397  1.00  0.00     0.060 A 
ATOM     31  C   UNL A   1      34.799  32.853  30.302  1.00  0.00     0.016 A 
ATOM     32  C   UNL A   1      34.385  33.588  28.017  1.00  0.00     0.016 A 
ATOM     33  C   UNL A   1      35.151  31.593  29.831  1.00  0.00     0.010 A 
ATOM     34  C   UNL A   1      34.763  32.339  27.546  1.00  0.00     0.010 A 
ATOM     35  C   UNL A   1      35.131  31.336  28.454  1.00  0.00    -0.014 A 
BRANCH  35  36
ATOM     36  C   UNL A   1      35.634  30.056  27.934  1.00  0.00     0.031 A 
ATOM     37  C   UNL A   1      34.653  29.138  27.279  1.00  0.00     0.074 A 
ATOM     38  C   UNL A   1      36.925  29.716  28.089  1.00  0.00     0.049 A 
ATOM     39  N   UNL A   1      34.838  27.933  26.814  1.00  0.00    -0.248 NA
ATOM     40  C   UNL A   1      33.276  29.645  27.130  1.00  0.00     0.031 C 
ATOM     41  C   UNL A   1      37.961  30.557  28.692  1.00  0.00     0.029 A 
ATOM     42  N   UNL A   1      37.580  28.556  27.766  1.00  0.00    -0.354 N 
ATOM     43  C   UNL A   1      33.604  27.535  26.322  1.00  0.00     0.074 A 
ATOM     44  C   UNL A   1      32.674  28.615  26.556  1.00  0.00     0.031 C 
ATOM     45  C   UNL A   1      39.120  29.874  28.709  1.00  0.00     0.029 A 
ATOM     46  C   UNL A   1      38.896  28.539  28.161  1.00  0.00     0.049 A 
ATOM     47  H   UNL A   1      37.148  27.807  27.295  1.00  0.00     0.167 HD
ATOM     48  C   UNL A   1      33.281  26.363  25.733  1.00  0.00     0.031 A 
ATOM     49  C   UNL A   1      39.796  27.538  28.116  1.00  0.00     0.031 A 
ATOM     50  C   UNL A   1      34.209  25.285  25.543  1.00  0.00     0.049 A 
ATOM     51  C   UNL A   1      39.373  26.208  27.539  1.00  0.00     0.074 A 
ATOM     52  C   UNL A   1      33.988  24.062  24.936  1.00  0.00     0.029 A 
ATOM     53  N   UNL A   1      35.524  25.289  25.977  1.00  0.00    -0.354 N 
ATOM     54  N   UNL A   1      38.225  25.864  27.006  1.00  0.00    -0.248 NA
ATOM     55  C   UNL A   1      40.371  25.128  27.558  1.00  0.00     0.031 C 
ATOM     56  C   UNL A   1      35.145  23.294  25.079  1.00  0.00     0.029 A 
ATOM     57  C   UNL A   1      36.112  24.068  25.700  1.00  0.00     0.049 A 
ATOM     58  H   UNL A   1      35.973  26.047  26.418  1.00  0.00     0.167 HD
ATOM     59  C   UNL A   1      38.373  24.541  26.603  1.00  0.00     0.074 A 
ATOM     60  C   UNL A   1      39.730  24.156  26.926  1.00  0.00     0.031 C 
ATOM     61  C   UNL A   1      37.469  23.712  26.029  1.00  0.00     0.031 A 
BRANCH  48  62
ATOM     62  C   UNL A   1      31.858  26.164  25.305  1.00  0.00    -0.014 A 
ATOM     63  C   UNL A   1      30.919  25.548  26.147  1.00  0.00     0.009 A 
ATOM     64  C   UNL A   1      31.438  26.666  24.065  1.00  0.00     0.009 A 
ATOM     65  C   UNL A   1      29.588  25.430  25.746  1.00  0.00     0.001 A 
ATOM     66  C   UNL A   1      30.101  26.573  23.679  1.00  0.00     0.001 A 
ATOM     67  C   UNL A   1      29.178  25.953  24.519  1.00  0.00     0.000 A 
ENDBRANCH  48  62
BRANCH  49  68
ATOM     68  C   UNL A   1      41.164  27.709  28.683  1.00  0.00    -0.014 A 
ATOM     69  C   UNL A   1      41.483  27.223  29.960  1.00  0.00     0.009 A 
ATOM     70  C   UNL A   1      42.137  28.438  27.978  1.00  0.00     0.009 A 
ATOM     71  C   UNL A   1      42.723  27.510  30.541  1.00  0.00     0.001 A 
ATOM     72  C   UNL A   1      43.390  28.687  28.544  1.00  0.00     0.001 A 
ATOM     73  C   UNL A   1      43.674  28.240  29.832  1.00  0.00     0.000 A 
ENDBRANCH  49  68
BRANCH  61  74
ATOM     74  C   UNL A   1      37.920  22.320  25.684  1.00  0.00    -0.014 A 
ATOM     75  C   UNL A   1      39.161  21.828  26.120  1.00  0.00     0.009 A 
ATOM     76  C   UNL A   1      37.062  21.466  24.973  1.00  0.00     0.009 A 
ATOM     77  C   UNL A   1      39.544  20.519  25.821  1.00  0.00     0.001 A 
ATOM     78  C   UNL A   1      37.431  20.147  24.711  1.00  0.00     0.001 A 
ATOM     79  C   UNL A   1      38.675  19.678  25.126  1.00  0.00     0.000 A 
ENDBRANCH  61  74
ENDBRANCH  35  36
ENDBRANCH  28  30
ENDBRANCH  27  28
ENDBRANCH  26  27
ENDBRANCH   1  26
TORSDOF 16
ENDMDL
