MODEL 1
REMARK VINA RESULT:     -10.0      0.000      0.000
REMARK SMILES C#CCNC(=O)[C@H](C)S(=O)(=O)c1ccc(C(=O)OCCOCCOC(=O)c2ccc(-c3c4nc(c(-c5ccccc5)c5ccc([nH]5)c(-c5ccccc5)c5nc(c(-c6ccccc6)c6ccc3[nH]6)C=C5)C=C4)cc2)cc1F
REMARK SMILES IDX 19 1 18 2 16 3 17 4 15 5 12 6 13 7 76 8 14 9 75 10 77 11
REMARK SMILES IDX 9 12 10 13 11 14 7 15 8 16 5 17 4 18 6 20 3 21 2 22 1 23
REMARK SMILES IDX 20 24 21 25 22 26 23 27 24 28 25 29 26 30 27 31 28 32 74 33
REMARK SMILES IDX 29 34 73 35 30 36 31 37 32 38 67 39 33 40 72 41 66 42 68 43
REMARK SMILES IDX 34 44 71 45 65 46 64 47 35 49 57 50 42 51 56 52 43 53 46 54
REMARK SMILES IDX 55 55 69 56 44 57 45 58 54 60 70 61 47 62 36 63 37 64 41 65
REMARK SMILES IDX 38 66 40 67 39 68 58 69 59 70 63 71 60 72 62 73 61 74 48 75
REMARK SMILES IDX 49 76 53 77 50 78 52 79 51 80
REMARK H PARENT 4 19 68 48 46 59
REMARK Flexibility Score: inf
ROOT
ATOM      1  C   UNL A   1      34.360  32.018  27.687  1.00  0.00     0.261 C 
ENDROOT
BRANCH   1   2
ATOM      2  O   UNL A   1      34.005  30.630  27.813  1.00  0.00    -0.460 OA
BRANCH   2   3
ATOM      3  C   UNL A   1      32.831  30.310  27.227  1.00  0.00     0.338 C 
ATOM      4  O   UNL A   1      32.009  31.096  26.774  1.00  0.00    -0.246 OA
BRANCH   3   5
ATOM      5  C   UNL A   1      32.706  28.840  27.051  1.00  0.00     0.063 A 
ATOM      6  C   UNL A   1      32.479  26.322  25.885  1.00  0.00     0.103 A 
ATOM      7  C   UNL A   1      33.749  26.901  26.042  1.00  0.00     0.024 A 
ATOM      8  C   UNL A   1      31.387  26.874  26.561  1.00  0.00     0.142 A 
ATOM      9  C   UNL A   1      33.857  28.163  26.621  1.00  0.00     0.017 A 
ATOM     10  C   UNL A   1      31.488  28.153  27.136  1.00  0.00     0.056 A 
ATOM     11  F   UNL A   1      30.174  26.320  26.484  1.00  0.00    -0.206 F 
BRANCH   6  12
ATOM     12  S   UNL A   1      32.263  25.258  24.448  1.00  0.00     0.192 S 
ATOM     13  O   UNL A   1      31.039  25.731  23.829  1.00  0.00    -0.223 OA
ATOM     14  O   UNL A   1      32.307  23.902  24.973  1.00  0.00    -0.223 OA
BRANCH  12  15
ATOM     15  C   UNL A   1      33.557  25.339  23.249  1.00  0.00     0.199 C 
ATOM     16  C   UNL A   1      34.357  24.080  22.990  1.00  0.00     0.036 C 
BRANCH  15  17
ATOM     17  C   UNL A   1      33.358  26.129  21.967  1.00  0.00     0.239 C 
ATOM     18  N   UNL A   1      33.099  27.456  21.888  1.00  0.00    -0.344 N 
ATOM     19  H   UNL A   1      32.750  27.758  21.018  1.00  0.00     0.164 HD
ATOM     20  O   UNL A   1      33.223  25.515  20.898  1.00  0.00    -0.274 OA
BRANCH  18  21
ATOM     21  C   UNL A   1      33.250  28.491  22.867  1.00  0.00     0.206 C 
BRANCH  21  22
ATOM     22  C   UNL A   1      31.869  28.925  23.330  1.00  0.00    -0.085 C 
ATOM     23  C   UNL A   1      30.685  29.297  23.728  1.00  0.00     0.006 C 
ENDBRANCH  21  22
ENDBRANCH  18  21
ENDBRANCH  15  17
ENDBRANCH  12  15
ENDBRANCH   6  12
ENDBRANCH   3   5
ENDBRANCH   2   3
ENDBRANCH   1   2
BRANCH   1  24
ATOM     24  C   UNL A   1      34.473  32.663  29.069  1.00  0.00     0.202 C 
BRANCH  24  25
ATOM     25  O   UNL A   1      35.034  33.969  29.181  1.00  0.00    -0.374 OA
BRANCH  25  26
ATOM     26  C   UNL A   1      34.226  35.112  28.934  1.00  0.00     0.202 C 
BRANCH  26  27
ATOM     27  C   UNL A   1      32.937  35.338  29.745  1.00  0.00     0.261 C 
BRANCH  27  28
ATOM     28  O   UNL A   1      33.068  36.194  30.888  1.00  0.00    -0.460 OA
BRANCH  28  29
ATOM     29  C   UNL A   1      32.737  35.592  32.057  1.00  0.00     0.338 C 
ATOM     30  O   UNL A   1      31.620  35.498  32.553  1.00  0.00    -0.246 OA
BRANCH  29  31
ATOM     31  C   UNL A   1      33.901  34.891  32.620  1.00  0.00     0.060 A 
ATOM     32  C   UNL A   1      35.141  35.541  32.566  1.00  0.00     0.016 A 
ATOM     33  C   UNL A   1      33.801  33.585  33.103  1.00  0.00     0.016 A 
ATOM     34  C   UNL A   1      36.295  34.877  32.971  1.00  0.00     0.010 A 
ATOM     35  C   UNL A   1      34.964  32.915  33.496  1.00  0.00     0.010 A 
ATOM     36  C   UNL A   1      36.219  33.548  33.406  1.00  0.00    -0.014 A 
BRANCH  36  37
ATOM     37  C   UNL A   1      37.465  32.784  33.647  1.00  0.00     0.031 A 
ATOM     38  C   UNL A   1      38.236  33.014  34.917  1.00  0.00     0.074 A 
ATOM     39  C   UNL A   1      37.889  31.871  32.754  1.00  0.00     0.049 A 
ATOM     40  N   UNL A   1      39.369  32.485  35.305  1.00  0.00    -0.248 NA
ATOM     41  C   UNL A   1      37.655  33.968  35.876  1.00  0.00     0.031 C 
ATOM     42  C   UNL A   1      37.202  31.518  31.512  1.00  0.00     0.029 A 
ATOM     43  N   UNL A   1      39.007  31.077  32.758  1.00  0.00    -0.354 N 
ATOM     44  C   UNL A   1      39.640  33.048  36.546  1.00  0.00     0.074 A 
ATOM     45  C   UNL A   1      38.571  33.980  36.833  1.00  0.00     0.031 C 
ATOM     46  C   UNL A   1      37.919  30.581  30.870  1.00  0.00     0.029 A 
ATOM     47  C   UNL A   1      39.131  30.298  31.634  1.00  0.00     0.049 A 
ATOM     48  H   UNL A   1      39.659  31.066  33.496  1.00  0.00     0.167 HD
ATOM     49  C   UNL A   1      40.684  32.806  37.374  1.00  0.00     0.031 A 
ATOM     50  C   UNL A   1      40.125  29.472  31.253  1.00  0.00     0.031 A 
ATOM     51  C   UNL A   1      41.754  31.888  37.083  1.00  0.00     0.049 A 
ATOM     52  C   UNL A   1      41.319  29.290  32.150  1.00  0.00     0.074 A 
ATOM     53  C   UNL A   1      42.849  31.564  37.865  1.00  0.00     0.029 A 
ATOM     54  N   UNL A   1      41.866  31.155  35.912  1.00  0.00    -0.354 N 
ATOM     55  N   UNL A   1      41.553  29.810  33.332  1.00  0.00    -0.248 NA
ATOM     56  C   UNL A   1      42.385  28.403  31.662  1.00  0.00     0.031 C 
ATOM     57  C   UNL A   1      43.657  30.683  37.141  1.00  0.00     0.029 A 
ATOM     58  C   UNL A   1      43.031  30.405  35.937  1.00  0.00     0.049 A 
ATOM     59  H   UNL A   1      41.217  31.165  35.174  1.00  0.00     0.167 HD
ATOM     60  C   UNL A   1      42.776  29.289  33.740  1.00  0.00     0.074 A 
ATOM     61  C   UNL A   1      43.225  28.401  32.688  1.00  0.00     0.031 C 
ATOM     62  C   UNL A   1      43.465  29.524  34.883  1.00  0.00     0.031 A 
BRANCH  49  63
ATOM     63  C   UNL A   1      40.741  33.575  38.665  1.00  0.00    -0.014 A 
ATOM     64  C   UNL A   1      40.216  33.048  39.855  1.00  0.00     0.009 A 
ATOM     65  C   UNL A   1      41.375  34.828  38.700  1.00  0.00     0.009 A 
ATOM     66  C   UNL A   1      40.297  33.773  41.047  1.00  0.00     0.001 A 
ATOM     67  C   UNL A   1      41.481  35.537  39.897  1.00  0.00     0.001 A 
ATOM     68  C   UNL A   1      40.935  35.012  41.068  1.00  0.00     0.000 A 
ENDBRANCH  49  63
BRANCH  50  69
ATOM     69  C   UNL A   1      40.053  28.770  29.943  1.00  0.00    -0.014 A 
ATOM     70  C   UNL A   1      40.448  29.414  28.761  1.00  0.00     0.009 A 
ATOM     71  C   UNL A   1      39.557  27.459  29.866  1.00  0.00     0.009 A 
ATOM     72  C   UNL A   1      40.319  28.771  27.527  1.00  0.00     0.001 A 
ATOM     73  C   UNL A   1      39.461  26.806  28.636  1.00  0.00     0.001 A 
ATOM     74  C   UNL A   1      39.830  27.467  27.467  1.00  0.00     0.000 A 
ENDBRANCH  50  69
BRANCH  62  75
ATOM     75  C   UNL A   1      44.758  28.781  35.076  1.00  0.00    -0.014 A 
ATOM     76  C   UNL A   1      44.791  27.509  35.671  1.00  0.00     0.009 A 
ATOM     77  C   UNL A   1      45.958  29.346  34.615  1.00  0.00     0.009 A 
ATOM     78  C   UNL A   1      46.004  26.836  35.832  1.00  0.00     0.001 A 
ATOM     79  C   UNL A   1      47.164  28.656  34.747  1.00  0.00     0.001 A 
ATOM     80  C   UNL A   1      47.188  27.408  35.365  1.00  0.00     0.000 A 
ENDBRANCH  62  75
ENDBRANCH  36  37
ENDBRANCH  29  31
ENDBRANCH  28  29
ENDBRANCH  27  28
ENDBRANCH  26  27
ENDBRANCH  25  26
ENDBRANCH  24  25
ENDBRANCH   1  24
TORSDOF 19
ENDMDL
MODEL 2
REMARK VINA RESULT:      -9.4      3.976      9.009
REMARK SMILES C#CCNC(=O)[C@H](C)S(=O)(=O)c1ccc(C(=O)OCCOCCOC(=O)c2ccc(-c3c4nc(c(-c5ccccc5)c5ccc([nH]5)c(-c5ccccc5)c5nc(c(-c6ccccc6)c6ccc3[nH]6)C=C5)C=C4)cc2)cc1F
REMARK SMILES IDX 19 1 18 2 16 3 17 4 15 5 12 6 13 7 76 8 14 9 75 10 77 11
REMARK SMILES IDX 9 12 10 13 11 14 7 15 8 16 5 17 4 18 6 20 3 21 2 22 1 23
REMARK SMILES IDX 20 24 21 25 22 26 23 27 24 28 25 29 26 30 27 31 28 32 74 33
REMARK SMILES IDX 29 34 73 35 30 36 31 37 32 38 67 39 33 40 72 41 66 42 68 43
REMARK SMILES IDX 34 44 71 45 65 46 64 47 35 49 57 50 42 51 56 52 43 53 46 54
REMARK SMILES IDX 55 55 69 56 44 57 45 58 54 60 70 61 47 62 36 63 37 64 41 65
REMARK SMILES IDX 38 66 40 67 39 68 58 69 59 70 63 71 60 72 62 73 61 74 48 75
REMARK SMILES IDX 49 76 53 77 50 78 52 79 51 80
REMARK H PARENT 4 19 68 48 46 59
REMARK Flexibility Score: inf
ROOT
ATOM      1  C   UNL A   1      40.636  21.377  26.576  1.00  0.00     0.261 C 
ENDROOT
BRANCH   1   2
ATOM      2  O   UNL A   1      39.273  21.146  26.179  1.00  0.00    -0.460 OA
BRANCH   2   3
ATOM      3  C   UNL A   1      38.548  22.274  26.031  1.00  0.00     0.338 C 
ATOM      4  O   UNL A   1      38.846  23.388  26.443  1.00  0.00    -0.246 OA
BRANCH   3   5
ATOM      5  C   UNL A   1      37.372  22.041  25.152  1.00  0.00     0.063 A 
ATOM      6  C   UNL A   1      34.797  22.125  24.095  1.00  0.00     0.103 A 
ATOM      7  C   UNL A   1      35.704  23.154  23.793  1.00  0.00     0.024 A 
ATOM      8  C   UNL A   1      35.270  20.945  24.677  1.00  0.00     0.142 A 
ATOM      9  C   UNL A   1      36.989  23.110  24.328  1.00  0.00     0.017 A 
ATOM     10  C   UNL A   1      36.562  20.901  25.230  1.00  0.00     0.056 A 
ATOM     11  F   UNL A   1      34.451  19.921  24.929  1.00  0.00    -0.206 F 
BRANCH   6  12
ATOM     12  S   UNL A   1      33.063  22.598  24.193  1.00  0.00     0.192 S 
ATOM     13  O   UNL A   1      32.766  22.594  25.613  1.00  0.00    -0.223 OA
ATOM     14  O   UNL A   1      32.366  21.660  23.326  1.00  0.00    -0.223 OA
BRANCH  12  15
ATOM     15  C   UNL A   1      32.680  24.200  23.553  1.00  0.00     0.199 C 
ATOM     16  C   UNL A   1      32.837  24.418  22.063  1.00  0.00     0.036 C 
BRANCH  15  17
ATOM     17  C   UNL A   1      31.489  24.970  24.094  1.00  0.00     0.239 C 
ATOM     18  N   UNL A   1      31.452  25.653  25.263  1.00  0.00    -0.344 N 
ATOM     19  H   UNL A   1      30.549  25.877  25.583  1.00  0.00     0.164 HD
ATOM     20  O   UNL A   1      30.385  24.829  23.547  1.00  0.00    -0.274 OA
BRANCH  18  21
ATOM     21  C   UNL A   1      32.517  26.100  26.109  1.00  0.00     0.206 C 
BRANCH  21  22
ATOM     22  C   UNL A   1      32.048  27.328  26.871  1.00  0.00    -0.085 C 
ATOM     23  C   UNL A   1      31.645  28.382  27.525  1.00  0.00     0.006 C 
ENDBRANCH  21  22
ENDBRANCH  18  21
ENDBRANCH  15  17
ENDBRANCH  12  15
ENDBRANCH   6  12
ENDBRANCH   3   5
ENDBRANCH   2   3
ENDBRANCH   1   2
BRANCH   1  24
ATOM     24  C   UNL A   1      41.462  20.101  26.406  1.00  0.00     0.202 C 
BRANCH  24  25
ATOM     25  O   UNL A   1      42.452  20.047  25.382  1.00  0.00    -0.374 OA
BRANCH  25  26
ATOM     26  C   UNL A   1      43.736  20.613  25.607  1.00  0.00     0.202 C 
BRANCH  26  27
ATOM     27  C   UNL A   1      44.289  21.682  24.648  1.00  0.00     0.261 C 
BRANCH  27  28
ATOM     28  O   UNL A   1      43.861  23.026  24.908  1.00  0.00    -0.460 OA
BRANCH  28  29
ATOM     29  C   UNL A   1      44.664  23.693  25.774  1.00  0.00     0.338 C 
ATOM     30  O   UNL A   1      45.889  23.689  25.803  1.00  0.00    -0.246 OA
BRANCH  29  31
ATOM     31  C   UNL A   1      43.867  24.593  26.622  1.00  0.00     0.060 A 
ATOM     32  C   UNL A   1      44.187  25.957  26.604  1.00  0.00     0.016 A 
ATOM     33  C   UNL A   1      42.891  24.101  27.489  1.00  0.00     0.016 A 
ATOM     34  C   UNL A   1      43.549  26.835  27.476  1.00  0.00     0.010 A 
ATOM     35  C   UNL A   1      42.261  24.982  28.374  1.00  0.00     0.010 A 
ATOM     36  C   UNL A   1      42.607  26.348  28.390  1.00  0.00    -0.014 A 
BRANCH  36  37
ATOM     37  C   UNL A   1      42.078  27.245  29.445  1.00  0.00     0.031 A 
ATOM     38  C   UNL A   1      42.806  27.349  30.756  1.00  0.00     0.074 A 
ATOM     39  C   UNL A   1      40.975  27.982  29.223  1.00  0.00     0.049 A 
ATOM     40  N   UNL A   1      42.493  28.037  31.824  1.00  0.00    -0.248 NA
ATOM     41  C   UNL A   1      44.051  26.573  30.881  1.00  0.00     0.031 C 
ATOM     42  C   UNL A   1      40.211  28.010  27.976  1.00  0.00     0.029 A 
ATOM     43  N   UNL A   1      40.304  28.848  30.049  1.00  0.00    -0.354 N 
ATOM     44  C   UNL A   1      43.495  27.770  32.750  1.00  0.00     0.074 A 
ATOM     45  C   UNL A   1      44.409  26.836  32.130  1.00  0.00     0.031 C 
ATOM     46  C   UNL A   1      39.171  28.847  28.122  1.00  0.00     0.029 A 
ATOM     47  C   UNL A   1      39.174  29.381  29.482  1.00  0.00     0.049 A 
ATOM     48  H   UNL A   1      40.605  29.065  30.960  1.00  0.00     0.167 HD
ATOM     49  C   UNL A   1      43.642  28.265  34.002  1.00  0.00     0.031 A 
ATOM     50  C   UNL A   1      38.232  30.188  30.010  1.00  0.00     0.031 A 
ATOM     51  C   UNL A   1      42.727  29.185  34.623  1.00  0.00     0.049 A 
ATOM     52  C   UNL A   1      38.372  30.649  31.436  1.00  0.00     0.074 A 
ATOM     53  C   UNL A   1      42.798  29.754  35.883  1.00  0.00     0.029 A 
ATOM     54  N   UNL A   1      41.569  29.664  34.031  1.00  0.00    -0.354 N 
ATOM     55  N   UNL A   1      39.335  30.409  32.293  1.00  0.00    -0.248 NA
ATOM     56  C   UNL A   1      37.295  31.499  31.965  1.00  0.00     0.031 C 
ATOM     57  C   UNL A   1      41.650  30.527  36.078  1.00  0.00     0.029 A 
ATOM     58  C   UNL A   1      40.898  30.495  34.915  1.00  0.00     0.049 A 
ATOM     59  H   UNL A   1      41.266  29.446  33.121  1.00  0.00     0.167 HD
ATOM     60  C   UNL A   1      38.995  31.102  33.450  1.00  0.00     0.074 A 
ATOM     61  C   UNL A   1      37.747  31.784  33.178  1.00  0.00     0.031 C 
ATOM     62  C   UNL A   1      39.657  31.168  34.630  1.00  0.00     0.031 A 
BRANCH  49  63
ATOM     63  C   UNL A   1      44.823  27.790  34.803  1.00  0.00    -0.014 A 
ATOM     64  C   UNL A   1      44.752  26.635  35.598  1.00  0.00     0.009 A 
ATOM     65  C   UNL A   1      46.042  28.482  34.722  1.00  0.00     0.009 A 
ATOM     66  C   UNL A   1      45.867  26.201  36.318  1.00  0.00     0.001 A 
ATOM     67  C   UNL A   1      47.163  28.031  35.420  1.00  0.00     0.001 A 
ATOM     68  C   UNL A   1      47.073  26.895  36.224  1.00  0.00     0.000 A 
ENDBRANCH  49  63
BRANCH  50  69
ATOM     69  C   UNL A   1      37.053  30.591  29.199  1.00  0.00    -0.014 A 
ATOM     70  C   UNL A   1      36.053  29.662  28.873  1.00  0.00     0.009 A 
ATOM     71  C   UNL A   1      36.937  31.906  28.720  1.00  0.00     0.009 A 
ATOM     72  C   UNL A   1      34.980  30.033  28.059  1.00  0.00     0.001 A 
ATOM     73  C   UNL A   1      35.845  32.283  27.935  1.00  0.00     0.001 A 
ATOM     74  C   UNL A   1      34.875  31.343  27.595  1.00  0.00     0.000 A 
ENDBRANCH  50  69
BRANCH  62  75
ATOM     75  C   UNL A   1      39.067  32.038  35.706  1.00  0.00    -0.014 A 
ATOM     76  C   UNL A   1      39.358  33.410  35.781  1.00  0.00     0.009 A 
ATOM     77  C   UNL A   1      38.170  31.482  36.633  1.00  0.00     0.009 A 
ATOM     78  C   UNL A   1      38.791  34.198  36.785  1.00  0.00     0.001 A 
ATOM     79  C   UNL A   1      37.579  32.279  37.615  1.00  0.00     0.001 A 
ATOM     80  C   UNL A   1      37.898  33.633  37.697  1.00  0.00     0.000 A 
ENDBRANCH  62  75
ENDBRANCH  36  37
ENDBRANCH  29  31
ENDBRANCH  28  29
ENDBRANCH  27  28
ENDBRANCH  26  27
ENDBRANCH  25  26
ENDBRANCH  24  25
ENDBRANCH   1  24
TORSDOF 19
ENDMDL
MODEL 3
REMARK VINA RESULT:      -9.4      0.542      5.848
REMARK SMILES C#CCNC(=O)[C@H](C)S(=O)(=O)c1ccc(C(=O)OCCOCCOC(=O)c2ccc(-c3c4nc(c(-c5ccccc5)c5ccc([nH]5)c(-c5ccccc5)c5nc(c(-c6ccccc6)c6ccc3[nH]6)C=C5)C=C4)cc2)cc1F
REMARK SMILES IDX 19 1 18 2 16 3 17 4 15 5 12 6 13 7 76 8 14 9 75 10 77 11
REMARK SMILES IDX 9 12 10 13 11 14 7 15 8 16 5 17 4 18 6 20 3 21 2 22 1 23
REMARK SMILES IDX 20 24 21 25 22 26 23 27 24 28 25 29 26 30 27 31 28 32 74 33
REMARK SMILES IDX 29 34 73 35 30 36 31 37 32 38 67 39 33 40 72 41 66 42 68 43
REMARK SMILES IDX 34 44 71 45 65 46 64 47 35 49 57 50 42 51 56 52 43 53 46 54
REMARK SMILES IDX 55 55 69 56 44 57 45 58 54 60 70 61 47 62 36 63 37 64 41 65
REMARK SMILES IDX 38 66 40 67 39 68 58 69 59 70 63 71 60 72 62 73 61 74 48 75
REMARK SMILES IDX 49 76 53 77 50 78 52 79 51 80
REMARK H PARENT 4 19 68 48 46 59
REMARK Flexibility Score: inf
ROOT
ATOM      1  C   UNL A   1      34.152  31.372  27.495  1.00  0.00     0.261 C 
ENDROOT
BRANCH   1   2
ATOM      2  O   UNL A   1      33.684  30.021  27.646  1.00  0.00    -0.460 OA
BRANCH   2   3
ATOM      3  C   UNL A   1      32.578  29.741  26.925  1.00  0.00     0.338 C 
ATOM      4  O   UNL A   1      31.841  30.555  26.381  1.00  0.00    -0.246 OA
BRANCH   3   5
ATOM      5  C   UNL A   1      32.425  28.276  26.728  1.00  0.00     0.063 A 
ATOM      6  C   UNL A   1      32.180  25.776  25.527  1.00  0.00     0.103 A 
ATOM      7  C   UNL A   1      33.457  26.325  25.731  1.00  0.00     0.024 A 
ATOM      8  C   UNL A   1      31.079  26.346  26.173  1.00  0.00     0.142 A 
ATOM      9  C   UNL A   1      33.574  27.578  26.328  1.00  0.00     0.017 A 
ATOM     10  C   UNL A   1      31.190  27.616  26.765  1.00  0.00     0.056 A 
ATOM     11  F   UNL A   1      29.857  25.821  26.050  1.00  0.00    -0.206 F 
BRANCH   6  12
ATOM     12  S   UNL A   1      31.988  24.734  24.071  1.00  0.00     0.192 S 
ATOM     13  O   UNL A   1      30.783  25.227  23.429  1.00  0.00    -0.223 OA
ATOM     14  O   UNL A   1      32.006  23.370  24.579  1.00  0.00    -0.223 OA
BRANCH  12  15
ATOM     15  C   UNL A   1      33.310  24.817  22.903  1.00  0.00     0.199 C 
ATOM     16  C   UNL A   1      34.050  23.535  22.585  1.00  0.00     0.036 C 
BRANCH  15  17
ATOM     17  C   UNL A   1      33.180  25.691  21.668  1.00  0.00     0.239 C 
ATOM     18  N   UNL A   1      32.972  27.029  21.663  1.00  0.00    -0.344 N 
ATOM     19  H   UNL A   1      32.662  27.397  20.805  1.00  0.00     0.164 HD
ATOM     20  O   UNL A   1      33.056  25.149  20.560  1.00  0.00    -0.274 OA
BRANCH  18  21
ATOM     21  C   UNL A   1      33.131  27.996  22.709  1.00  0.00     0.206 C 
BRANCH  21  22
ATOM     22  C   UNL A   1      31.768  28.581  23.039  1.00  0.00    -0.085 C 
ATOM     23  C   UNL A   1      30.599  29.083  23.321  1.00  0.00     0.006 C 
ENDBRANCH  21  22
ENDBRANCH  18  21
ENDBRANCH  15  17
ENDBRANCH  12  15
ENDBRANCH   6  12
ENDBRANCH   3   5
ENDBRANCH   2   3
ENDBRANCH   1   2
BRANCH   1  24
ATOM     24  C   UNL A   1      34.332  32.028  28.865  1.00  0.00     0.202 C 
BRANCH  24  25
ATOM     25  O   UNL A   1      35.222  33.134  28.993  1.00  0.00    -0.374 OA
BRANCH  25  26
ATOM     26  C   UNL A   1      34.718  34.461  28.933  1.00  0.00     0.202 C 
BRANCH  26  27
ATOM     27  C   UNL A   1      33.356  34.801  29.567  1.00  0.00     0.261 C 
BRANCH  27  28
ATOM     28  O   UNL A   1      33.387  35.791  30.603  1.00  0.00    -0.460 OA
BRANCH  28  29
ATOM     29  C   UNL A   1      33.059  35.306  31.827  1.00  0.00     0.338 C 
ATOM     30  O   UNL A   1      31.943  35.257  32.331  1.00  0.00    -0.246 OA
BRANCH  29  31
ATOM     31  C   UNL A   1      34.226  34.669  32.455  1.00  0.00     0.060 A 
ATOM     32  C   UNL A   1      35.403  35.423  32.555  1.00  0.00     0.016 A 
ATOM     33  C   UNL A   1      34.201  33.331  32.851  1.00  0.00     0.016 A 
ATOM     34  C   UNL A   1      36.572  34.832  33.027  1.00  0.00     0.010 A 
ATOM     35  C   UNL A   1      35.379  32.736  33.312  1.00  0.00     0.010 A 
ATOM     36  C   UNL A   1      36.576  33.476  33.376  1.00  0.00    -0.014 A 
BRANCH  36  37
ATOM     37  C   UNL A   1      37.860  32.804  33.688  1.00  0.00     0.031 A 
ATOM     38  C   UNL A   1      38.426  31.811  32.713  1.00  0.00     0.074 A 
ATOM     39  C   UNL A   1      38.527  33.100  34.818  1.00  0.00     0.049 A 
ATOM     40  N   UNL A   1      39.509  31.081  32.810  1.00  0.00    -0.248 NA
ATOM     41  C   UNL A   1      37.673  31.611  31.464  1.00  0.00     0.031 C 
ATOM     42  C   UNL A   1      38.109  34.084  35.816  1.00  0.00     0.029 A 
ATOM     43  N   UNL A   1      39.701  32.594  35.315  1.00  0.00    -0.354 N 
ATOM     44  C   UNL A   1      39.561  30.331  31.641  1.00  0.00     0.074 A 
ATOM     45  C   UNL A   1      38.388  30.670  30.865  1.00  0.00     0.031 C 
ATOM     46  C   UNL A   1      39.013  34.104  36.811  1.00  0.00     0.029 A 
ATOM     47  C   UNL A   1      40.047  33.109  36.539  1.00  0.00     0.049 A 
ATOM     48  H   UNL A   1      40.244  31.924  34.839  1.00  0.00     0.167 HD
ATOM     49  C   UNL A   1      40.505  29.442  31.248  1.00  0.00     0.031 A 
ATOM     50  C   UNL A   1      41.068  32.794  37.360  1.00  0.00     0.031 A 
ATOM     51  C   UNL A   1      41.665  29.095  32.026  1.00  0.00     0.049 A 
ATOM     52  C   UNL A   1      42.052  31.735  36.940  1.00  0.00     0.074 A 
ATOM     53  C   UNL A   1      42.686  28.216  31.707  1.00  0.00     0.029 A 
ATOM     54  N   UNL A   1      41.953  29.605  33.282  1.00  0.00    -0.354 N 
ATOM     55  N   UNL A   1      42.104  31.050  35.823  1.00  0.00    -0.248 NA
ATOM     56  C   UNL A   1      43.123  31.411  37.895  1.00  0.00     0.031 C 
ATOM     57  C   UNL A   1      43.557  28.146  32.798  1.00  0.00     0.029 A 
ATOM     58  C   UNL A   1      43.118  29.033  33.767  1.00  0.00     0.049 A 
ATOM     59  H   UNL A   1      41.411  30.273  33.760  1.00  0.00     0.167 HD
ATOM     60  C   UNL A   1      43.228  30.238  35.929  1.00  0.00     0.074 A 
ATOM     61  C   UNL A   1      43.836  30.529  37.210  1.00  0.00     0.031 C 
ATOM     62  C   UNL A   1      43.713  29.333  35.044  1.00  0.00     0.031 A 
BRANCH  49  63
ATOM     63  C   UNL A   1      40.303  28.750  29.928  1.00  0.00    -0.014 A 
ATOM     64  C   UNL A   1      39.613  27.532  29.838  1.00  0.00     0.009 A 
ATOM     65  C   UNL A   1      40.770  29.354  28.749  1.00  0.00     0.009 A 
ATOM     66  C   UNL A   1      39.420  26.917  28.598  1.00  0.00     0.001 A 
ATOM     67  C   UNL A   1      40.551  28.752  27.509  1.00  0.00     0.001 A 
ATOM     68  C   UNL A   1      39.884  27.530  27.436  1.00  0.00     0.000 A 
ENDBRANCH  49  63
BRANCH  50  69
ATOM     69  C   UNL A   1      41.200  33.465  38.681  1.00  0.00    -0.014 A 
ATOM     70  C   UNL A   1      41.974  34.627  38.822  1.00  0.00     0.009 A 
ATOM     71  C   UNL A   1      40.574  32.926  39.816  1.00  0.00     0.009 A 
ATOM     72  C   UNL A   1      42.144  35.216  40.077  1.00  0.00     0.001 A 
ATOM     73  C   UNL A   1      40.717  33.537  41.064  1.00  0.00     0.001 A 
ATOM     74  C   UNL A   1      41.512  34.673  41.195  1.00  0.00     0.000 A 
ENDBRANCH  50  69
BRANCH  62  75
ATOM     75  C   UNL A   1      44.985  28.620  35.412  1.00  0.00    -0.014 A 
ATOM     76  C   UNL A   1      46.242  29.136  35.061  1.00  0.00     0.009 A 
ATOM     77  C   UNL A   1      44.923  27.433  36.160  1.00  0.00     0.009 A 
ATOM     78  C   UNL A   1      47.410  28.459  35.421  1.00  0.00     0.001 A 
ATOM     79  C   UNL A   1      46.092  26.776  36.546  1.00  0.00     0.001 A 
ATOM     80  C   UNL A   1      47.333  27.283  36.168  1.00  0.00     0.000 A 
ENDBRANCH  62  75
ENDBRANCH  36  37
ENDBRANCH  29  31
ENDBRANCH  28  29
ENDBRANCH  27  28
ENDBRANCH  26  27
ENDBRANCH  25  26
ENDBRANCH  24  25
ENDBRANCH   1  24
TORSDOF 19
ENDMDL
