MODEL 1
REMARK VINA RESULT:      -8.5      0.000      0.000
REMARK SMILES CC/C=C/C/C=C/C/C=C/C/C=C/CCSCCCC(=O)OCCOCCOC(=O)c1ccc(-c2c3nc(c(-c4ccccc4)c4ccc([nH]4)c(-c4ccccc4)c4nc(c(-c5ccccc5)c5ccc2[nH]5)C=C4)C=C3)cc1
REMARK SMILES IDX 18 1 17 2 16 3 15 4 14 5 13 6 12 7 11 8 10 9 9 10 8 11 7 12
REMARK SMILES IDX 6 13 5 14 4 15 3 16 2 17 1 18 19 19 20 20 21 21 22 22 23 23
REMARK SMILES IDX 24 24 25 25 26 26 27 27 28 28 29 29 30 30 31 31 32 32 78 33
REMARK SMILES IDX 33 34 77 35 34 36 35 37 36 38 71 39 37 40 76 41 70 42 72 43
REMARK SMILES IDX 38 44 75 45 69 46 68 47 39 49 61 50 46 51 60 52 47 53 50 54
REMARK SMILES IDX 59 55 73 56 48 57 49 58 58 60 74 61 51 62 40 63 41 64 45 65
REMARK SMILES IDX 42 66 44 67 43 68 62 69 63 70 67 71 64 72 66 73 65 74 52 75
REMARK SMILES IDX 53 76 57 77 54 78 56 79 55 80
REMARK H PARENT 72 48 50 59
REMARK Flexibility Score: inf
ROOT
ATOM      1  C   UNL A   1      34.256  25.047  24.447  1.00  0.00     0.023 C 
ENDROOT
BRANCH   1   2
ATOM      2  C   UNL A   1      35.079  23.777  24.717  1.00  0.00     0.070 C 
BRANCH   2   3
ATOM      3  S   UNL A   1      34.347  22.105  24.617  1.00  0.00    -0.162 SA
BRANCH   3   4
ATOM      4  C   UNL A   1      34.393  21.398  26.306  1.00  0.00     0.073 C 
BRANCH   4   5
ATOM      5  C   UNL A   1      34.043  22.320  27.491  1.00  0.00     0.038 C 
BRANCH   5   6
ATOM      6  C   UNL A   1      32.758  23.109  27.389  1.00  0.00    -0.030 C 
ATOM      7  C   UNL A   1      31.686  22.769  26.639  1.00  0.00    -0.027 C 
BRANCH   7   8
ATOM      8  C   UNL A   1      30.365  23.521  26.507  1.00  0.00     0.054 C 
BRANCH   8   9
ATOM      9  C   UNL A   1      30.504  24.827  25.753  1.00  0.00    -0.027 C 
ATOM     10  C   UNL A   1      30.403  25.001  24.420  1.00  0.00    -0.027 C 
BRANCH  10  11
ATOM     11  C   UNL A   1      30.486  26.335  23.715  1.00  0.00     0.054 C 
BRANCH  11  12
ATOM     12  C   UNL A   1      29.119  26.941  23.613  1.00  0.00    -0.027 C 
ATOM     13  C   UNL A   1      28.848  28.136  23.064  1.00  0.00    -0.027 C 
BRANCH  13  14
ATOM     14  C   UNL A   1      27.522  28.818  23.237  1.00  0.00     0.054 C 
BRANCH  14  15
ATOM     15  C   UNL A   1      27.655  30.269  22.868  1.00  0.00    -0.027 C 
ATOM     16  C   UNL A   1      28.313  30.713  21.787  1.00  0.00    -0.031 C 
BRANCH  16  17
ATOM     17  C   UNL A   1      28.515  32.166  21.474  1.00  0.00     0.023 C 
ATOM     18  C   UNL A   1      28.509  32.992  22.751  1.00  0.00     0.008 C 
ENDBRANCH  16  17
ENDBRANCH  14  15
ENDBRANCH  13  14
ENDBRANCH  11  12
ENDBRANCH  10  11
ENDBRANCH   8   9
ENDBRANCH   7   8
ENDBRANCH   5   6
ENDBRANCH   4   5
ENDBRANCH   3   4
ENDBRANCH   2   3
ENDBRANCH   1   2
BRANCH   1  19
ATOM     19  C   UNL A   1      33.924  25.976  25.605  1.00  0.00     0.123 C 
BRANCH  19  20
ATOM     20  C   UNL A   1      33.658  27.406  25.236  1.00  0.00     0.305 C 
ATOM     21  O   UNL A   1      34.007  27.861  24.157  1.00  0.00    -0.252 OA
BRANCH  20  22
ATOM     22  O   UNL A   1      33.081  28.106  26.237  1.00  0.00    -0.463 OA
BRANCH  22  23
ATOM     23  C   UNL A   1      31.731  28.548  26.078  1.00  0.00     0.261 C 
BRANCH  23  24
ATOM     24  C   UNL A   1      31.430  29.951  25.537  1.00  0.00     0.202 C 
BRANCH  24  25
ATOM     25  O   UNL A   1      31.972  31.130  26.094  1.00  0.00    -0.374 OA
BRANCH  25  26
ATOM     26  C   UNL A   1      32.668  31.066  27.320  1.00  0.00     0.202 C 
BRANCH  26  27
ATOM     27  C   UNL A   1      33.729  32.138  27.629  1.00  0.00     0.261 C 
BRANCH  27  28
ATOM     28  O   UNL A   1      33.299  33.513  27.561  1.00  0.00    -0.460 OA
BRANCH  28  29
ATOM     29  C   UNL A   1      33.375  34.207  28.719  1.00  0.00     0.338 C 
ATOM     30  O   UNL A   1      32.529  34.963  29.180  1.00  0.00    -0.246 OA
BRANCH  29  31
ATOM     31  C   UNL A   1      34.592  33.836  29.471  1.00  0.00     0.060 A 
ATOM     32  C   UNL A   1      35.844  34.171  28.930  1.00  0.00     0.016 A 
ATOM     33  C   UNL A   1      34.517  33.075  30.640  1.00  0.00     0.016 A 
ATOM     34  C   UNL A   1      37.018  33.705  29.522  1.00  0.00     0.010 A 
ATOM     35  C   UNL A   1      35.695  32.585  31.217  1.00  0.00     0.010 A 
ATOM     36  C   UNL A   1      36.947  32.859  30.634  1.00  0.00    -0.014 A 
BRANCH  36  37
ATOM     37  C   UNL A   1      38.142  32.077  31.039  1.00  0.00     0.031 A 
ATOM     38  C   UNL A   1      38.978  32.594  32.180  1.00  0.00     0.074 A 
ATOM     39  C   UNL A   1      38.471  30.922  30.435  1.00  0.00     0.049 A 
ATOM     40  N   UNL A   1      40.106  32.137  32.663  1.00  0.00    -0.248 NA
ATOM     41  C   UNL A   1      38.471  33.794  32.868  1.00  0.00     0.031 C 
ATOM     42  C   UNL A   1      37.710  30.276  29.368  1.00  0.00     0.029 A 
ATOM     43  N   UNL A   1      39.548  30.092  30.633  1.00  0.00    -0.354 N 
ATOM     44  C   UNL A   1      40.449  33.001  33.697  1.00  0.00     0.074 A 
ATOM     45  C   UNL A   1      39.428  34.022  33.754  1.00  0.00     0.031 C 
ATOM     46  C   UNL A   1      38.354  29.157  28.992  1.00  0.00     0.029 A 
ATOM     47  C   UNL A   1      39.590  29.031  29.762  1.00  0.00     0.049 A 
ATOM     48  H   UNL A   1      40.223  30.243  31.333  1.00  0.00     0.167 HD
ATOM     49  C   UNL A   1      41.520  32.950  34.526  1.00  0.00     0.031 A 
ATOM     50  C   UNL A   1      40.536  28.087  29.585  1.00  0.00     0.031 A 
ATOM     51  C   UNL A   1      42.546  31.945  34.454  1.00  0.00     0.049 A 
ATOM     52  C   UNL A   1      41.769  28.104  30.454  1.00  0.00     0.074 A 
ATOM     53  C   UNL A   1      43.672  31.803  35.245  1.00  0.00     0.029 A 
ATOM     54  N   UNL A   1      42.573  30.912  33.529  1.00  0.00    -0.354 N 
ATOM     55  N   UNL A   1      42.083  28.922  31.430  1.00  0.00    -0.248 NA
ATOM     56  C   UNL A   1      42.774  27.062  30.199  1.00  0.00     0.031 C 
ATOM     57  C   UNL A   1      44.414  30.722  34.758  1.00  0.00     0.029 A 
ATOM     58  C   UNL A   1      43.712  30.146  33.710  1.00  0.00     0.049 A 
ATOM     59  H   UNL A   1      41.884  30.748  32.845  1.00  0.00     0.167 HD
ATOM     60  C   UNL A   1      43.304  28.476  31.923  1.00  0.00     0.074 A 
ATOM     61  C   UNL A   1      43.665  27.307  31.149  1.00  0.00     0.031 C 
ATOM     62  C   UNL A   1      44.057  28.986  32.930  1.00  0.00     0.031 A 
BRANCH  49  63
ATOM     63  C   UNL A   1      41.653  34.045  35.549  1.00  0.00    -0.014 A 
ATOM     64  C   UNL A   1      42.337  35.238  35.265  1.00  0.00     0.009 A 
ATOM     65  C   UNL A   1      41.070  33.885  36.817  1.00  0.00     0.009 A 
ATOM     66  C   UNL A   1      42.469  36.229  36.241  1.00  0.00     0.001 A 
ATOM     67  C   UNL A   1      41.176  34.890  37.779  1.00  0.00     0.001 A 
ATOM     68  C   UNL A   1      41.884  36.056  37.495  1.00  0.00     0.000 A 
ENDBRANCH  49  63
BRANCH  50  69
ATOM     69  C   UNL A   1      40.378  27.062  28.517  1.00  0.00    -0.014 A 
ATOM     70  C   UNL A   1      40.963  27.240  27.255  1.00  0.00     0.009 A 
ATOM     71  C   UNL A   1      39.621  25.902  28.754  1.00  0.00     0.009 A 
ATOM     72  C   UNL A   1      40.773  26.291  26.246  1.00  0.00     0.001 A 
ATOM     73  C   UNL A   1      39.460  24.941  27.754  1.00  0.00     0.001 A 
ATOM     74  C   UNL A   1      40.028  25.140  26.498  1.00  0.00     0.000 A 
ENDBRANCH  50  69
BRANCH  62  75
ATOM     75  C   UNL A   1      45.326  28.257  33.282  1.00  0.00    -0.014 A 
ATOM     76  C   UNL A   1      45.334  27.200  34.206  1.00  0.00     0.009 A 
ATOM     77  C   UNL A   1      46.524  28.607  32.640  1.00  0.00     0.009 A 
ATOM     78  C   UNL A   1      46.525  26.533  34.505  1.00  0.00     0.001 A 
ATOM     79  C   UNL A   1      47.706  27.917  32.916  1.00  0.00     0.001 A 
ATOM     80  C   UNL A   1      47.707  26.888  33.856  1.00  0.00     0.000 A 
ENDBRANCH  62  75
ENDBRANCH  36  37
ENDBRANCH  29  31
ENDBRANCH  28  29
ENDBRANCH  27  28
ENDBRANCH  26  27
ENDBRANCH  25  26
ENDBRANCH  24  25
ENDBRANCH  23  24
ENDBRANCH  22  23
ENDBRANCH  20  22
ENDBRANCH  19  20
ENDBRANCH   1  19
TORSDOF 27
ENDMDL
MODEL 2
REMARK VINA RESULT:      -7.4      2.071      8.284
REMARK SMILES CC/C=C/C/C=C/C/C=C/C/C=C/CCSCCCC(=O)OCCOCCOC(=O)c1ccc(-c2c3nc(c(-c4ccccc4)c4ccc([nH]4)c(-c4ccccc4)c4nc(c(-c5ccccc5)c5ccc2[nH]5)C=C4)C=C3)cc1
REMARK SMILES IDX 18 1 17 2 16 3 15 4 14 5 13 6 12 7 11 8 10 9 9 10 8 11 7 12
REMARK SMILES IDX 6 13 5 14 4 15 3 16 2 17 1 18 19 19 20 20 21 21 22 22 23 23
REMARK SMILES IDX 24 24 25 25 26 26 27 27 28 28 29 29 30 30 31 31 32 32 78 33
REMARK SMILES IDX 33 34 77 35 34 36 35 37 36 38 71 39 37 40 76 41 70 42 72 43
REMARK SMILES IDX 38 44 75 45 69 46 68 47 39 49 61 50 46 51 60 52 47 53 50 54
REMARK SMILES IDX 59 55 73 56 48 57 49 58 58 60 74 61 51 62 40 63 41 64 45 65
REMARK SMILES IDX 42 66 44 67 43 68 62 69 63 70 67 71 64 72 66 73 65 74 52 75
REMARK SMILES IDX 53 76 57 77 54 78 56 79 55 80
REMARK H PARENT 72 48 50 59
REMARK Flexibility Score: inf
ROOT
ATOM      1  C   UNL A   1      31.361  25.317  23.345  1.00  0.00     0.023 C 
ENDROOT
BRANCH   1   2
ATOM      2  C   UNL A   1      32.486  24.473  23.964  1.00  0.00     0.070 C 
BRANCH   2   3
ATOM      3  S   UNL A   1      32.278  22.693  24.326  1.00  0.00    -0.162 SA
BRANCH   3   4
ATOM      4  C   UNL A   1      32.478  22.488  26.136  1.00  0.00     0.073 C 
BRANCH   4   5
ATOM      5  C   UNL A   1      33.821  22.901  26.771  1.00  0.00     0.038 C 
BRANCH   5   6
ATOM      6  C   UNL A   1      35.043  22.112  26.363  1.00  0.00    -0.030 C 
ATOM      7  C   UNL A   1      36.046  22.567  25.579  1.00  0.00    -0.027 C 
BRANCH   7   8
ATOM      8  C   UNL A   1      37.302  21.818  25.145  1.00  0.00     0.054 C 
BRANCH   8   9
ATOM      9  C   UNL A   1      38.548  22.295  25.860  1.00  0.00    -0.027 C 
ATOM     10  C   UNL A   1      39.615  21.545  26.205  1.00  0.00    -0.027 C 
BRANCH  10  11
ATOM     11  C   UNL A   1      40.867  22.077  26.864  1.00  0.00     0.054 C 
BRANCH  11  12
ATOM     12  C   UNL A   1      42.033  21.923  25.936  1.00  0.00    -0.027 C 
ATOM     13  C   UNL A   1      42.804  22.930  25.497  1.00  0.00    -0.027 C 
BRANCH  13  14
ATOM     14  C   UNL A   1      43.772  22.767  24.361  1.00  0.00     0.054 C 
BRANCH  14  15
ATOM     15  C   UNL A   1      45.154  23.129  24.825  1.00  0.00    -0.027 C 
ATOM     16  C   UNL A   1      45.538  24.373  25.148  1.00  0.00    -0.031 C 
BRANCH  16  17
ATOM     17  C   UNL A   1      46.942  24.740  25.527  1.00  0.00     0.023 C 
ATOM     18  C   UNL A   1      47.415  25.941  24.722  1.00  0.00     0.008 C 
ENDBRANCH  16  17
ENDBRANCH  14  15
ENDBRANCH  13  14
ENDBRANCH  11  12
ENDBRANCH  10  11
ENDBRANCH   8   9
ENDBRANCH   7   8
ENDBRANCH   5   6
ENDBRANCH   4   5
ENDBRANCH   3   4
ENDBRANCH   2   3
ENDBRANCH   1   2
BRANCH   1  19
ATOM     19  C   UNL A   1      30.573  26.270  24.231  1.00  0.00     0.123 C 
BRANCH  19  20
ATOM     20  C   UNL A   1      31.381  27.053  25.224  1.00  0.00     0.305 C 
ATOM     21  O   UNL A   1      31.453  26.712  26.396  1.00  0.00    -0.252 OA
BRANCH  20  22
ATOM     22  O   UNL A   1      31.923  28.170  24.694  1.00  0.00    -0.463 OA
BRANCH  22  23
ATOM     23  C   UNL A   1      31.105  29.334  24.560  1.00  0.00     0.261 C 
BRANCH  23  24
ATOM     24  C   UNL A   1      31.015  30.358  25.698  1.00  0.00     0.202 C 
BRANCH  24  25
ATOM     25  O   UNL A   1      32.030  31.301  25.975  1.00  0.00    -0.374 OA
BRANCH  25  26
ATOM     26  C   UNL A   1      31.697  32.518  26.607  1.00  0.00     0.202 C 
BRANCH  26  27
ATOM     27  C   UNL A   1      32.788  33.272  27.389  1.00  0.00     0.261 C 
BRANCH  27  28
ATOM     28  O   UNL A   1      32.339  34.242  28.357  1.00  0.00    -0.460 OA
BRANCH  28  29
ATOM     29  C   UNL A   1      33.315  34.874  29.047  1.00  0.00     0.338 C 
ATOM     30  O   UNL A   1      33.268  36.003  29.521  1.00  0.00    -0.246 OA
BRANCH  29  31
ATOM     31  C   UNL A   1      34.452  33.963  29.297  1.00  0.00     0.060 A 
ATOM     32  C   UNL A   1      34.314  32.971  30.280  1.00  0.00     0.016 A 
ATOM     33  C   UNL A   1      35.679  34.145  28.655  1.00  0.00     0.016 A 
ATOM     34  C   UNL A   1      35.408  32.193  30.660  1.00  0.00     0.010 A 
ATOM     35  C   UNL A   1      36.784  33.383  29.057  1.00  0.00     0.010 A 
ATOM     36  C   UNL A   1      36.663  32.437  30.093  1.00  0.00    -0.014 A 
BRANCH  36  37
ATOM     37  C   UNL A   1      37.881  31.883  30.738  1.00  0.00     0.031 A 
ATOM     38  C   UNL A   1      38.633  30.794  30.021  1.00  0.00     0.074 A 
ATOM     39  C   UNL A   1      38.331  32.347  31.917  1.00  0.00     0.049 A 
ATOM     40  N   UNL A   1      39.671  30.099  30.413  1.00  0.00    -0.248 NA
ATOM     41  C   UNL A   1      38.144  30.440  28.677  1.00  0.00     0.031 C 
ATOM     42  C   UNL A   1      37.738  33.444  32.679  1.00  0.00     0.029 A 
ATOM     43  N   UNL A   1      39.395  31.938  32.684  1.00  0.00    -0.354 N 
ATOM     44  C   UNL A   1      39.947  29.217  29.373  1.00  0.00     0.074 A 
ATOM     45  C   UNL A   1      38.954  29.446  28.348  1.00  0.00     0.031 C 
ATOM     46  C   UNL A   1      38.437  33.609  33.816  1.00  0.00     0.029 A 
ATOM     47  C   UNL A   1      39.498  32.605  33.879  1.00  0.00     0.049 A 
ATOM     48  H   UNL A   1      40.023  31.234  32.402  1.00  0.00     0.167 HD
ATOM     49  C   UNL A   1      40.938  28.298  29.280  1.00  0.00     0.031 A 
ATOM     50  C   UNL A   1      40.333  32.405  34.919  1.00  0.00     0.031 A 
ATOM     51  C   UNL A   1      41.912  28.057  30.310  1.00  0.00     0.049 A 
ATOM     52  C   UNL A   1      41.368  31.311  34.835  1.00  0.00     0.074 A 
ATOM     53  C   UNL A   1      42.956  27.150  30.316  1.00  0.00     0.029 A 
ATOM     54  N   UNL A   1      41.956  28.727  31.524  1.00  0.00    -0.354 N 
ATOM     55  N   UNL A   1      41.623  30.486  33.848  1.00  0.00    -0.248 NA
ATOM     56  C   UNL A   1      42.234  31.128  36.009  1.00  0.00     0.031 C 
ATOM     57  C   UNL A   1      43.593  27.225  31.560  1.00  0.00     0.029 A 
ATOM     58  C   UNL A   1      42.990  28.231  32.300  1.00  0.00     0.049 A 
ATOM     59  H   UNL A   1      41.342  29.447  31.794  1.00  0.00     0.167 HD
ATOM     60  C   UNL A   1      42.696  29.708  34.270  1.00  0.00     0.074 A 
ATOM     61  C   UNL A   1      43.052  30.171  35.594  1.00  0.00     0.031 C 
ATOM     62  C   UNL A   1      43.331  28.703  33.617  1.00  0.00     0.031 A 
BRANCH  49  63
ATOM     63  C   UNL A   1      40.981  27.453  28.036  1.00  0.00    -0.014 A 
ATOM     64  C   UNL A   1      41.869  27.735  26.986  1.00  0.00     0.009 A 
ATOM     65  C   UNL A   1      40.126  26.344  27.920  1.00  0.00     0.009 A 
ATOM     66  C   UNL A   1      41.871  26.950  25.830  1.00  0.00     0.001 A 
ATOM     67  C   UNL A   1      40.153  25.543  26.778  1.00  0.00     0.001 A 
ATOM     68  C   UNL A   1      41.017  25.852  25.729  1.00  0.00     0.000 A 
ENDBRANCH  49  63
BRANCH  50  69
ATOM     69  C   UNL A   1      40.206  33.234  36.149  1.00  0.00    -0.014 A 
ATOM     70  C   UNL A   1      40.843  34.480  36.246  1.00  0.00     0.009 A 
ATOM     71  C   UNL A   1      39.458  32.770  37.243  1.00  0.00     0.009 A 
ATOM     72  C   UNL A   1      40.752  35.232  37.421  1.00  0.00     0.001 A 
ATOM     73  C   UNL A   1      39.343  33.538  38.404  1.00  0.00     0.001 A 
ATOM     74  C   UNL A   1      39.998  34.764  38.496  1.00  0.00     0.000 A 
ENDBRANCH  50  69
BRANCH  62  75
ATOM     75  C   UNL A   1      44.507  28.064  34.307  1.00  0.00    -0.014 A 
ATOM     76  C   UNL A   1      45.826  28.436  34.006  1.00  0.00     0.009 A 
ATOM     77  C   UNL A   1      44.282  27.107  35.310  1.00  0.00     0.009 A 
ATOM     78  C   UNL A   1      46.898  27.834  34.671  1.00  0.00     0.001 A 
ATOM     79  C   UNL A   1      45.353  26.533  35.996  1.00  0.00     0.001 A 
ATOM     80  C   UNL A   1      46.660  26.888  35.668  1.00  0.00     0.000 A 
ENDBRANCH  62  75
ENDBRANCH  36  37
ENDBRANCH  29  31
ENDBRANCH  28  29
ENDBRANCH  27  28
ENDBRANCH  26  27
ENDBRANCH  25  26
ENDBRANCH  24  25
ENDBRANCH  23  24
ENDBRANCH  22  23
ENDBRANCH  20  22
ENDBRANCH  19  20
ENDBRANCH   1  19
TORSDOF 27
ENDMDL
MODEL 3
REMARK VINA RESULT:      -7.1      3.749      8.189
REMARK SMILES CC/C=C/C/C=C/C/C=C/C/C=C/CCSCCCC(=O)OCCOCCOC(=O)c1ccc(-c2c3nc(c(-c4ccccc4)c4ccc([nH]4)c(-c4ccccc4)c4nc(c(-c5ccccc5)c5ccc2[nH]5)C=C4)C=C3)cc1
REMARK SMILES IDX 18 1 17 2 16 3 15 4 14 5 13 6 12 7 11 8 10 9 9 10 8 11 7 12
REMARK SMILES IDX 6 13 5 14 4 15 3 16 2 17 1 18 19 19 20 20 21 21 22 22 23 23
REMARK SMILES IDX 24 24 25 25 26 26 27 27 28 28 29 29 30 30 31 31 32 32 78 33
REMARK SMILES IDX 33 34 77 35 34 36 35 37 36 38 71 39 37 40 76 41 70 42 72 43
REMARK SMILES IDX 38 44 75 45 69 46 68 47 39 49 61 50 46 51 60 52 47 53 50 54
REMARK SMILES IDX 59 55 73 56 48 57 49 58 58 60 74 61 51 62 40 63 41 64 45 65
REMARK SMILES IDX 42 66 44 67 43 68 62 69 63 70 67 71 64 72 66 73 65 74 52 75
REMARK SMILES IDX 53 76 57 77 54 78 56 79 55 80
REMARK H PARENT 72 48 50 59
REMARK Flexibility Score: inf
ROOT
ATOM      1  C   UNL A   1      33.377  25.683  23.515  1.00  0.00     0.023 C 
ENDROOT
BRANCH   1   2
ATOM      2  C   UNL A   1      32.396  26.155  22.431  1.00  0.00     0.070 C 
BRANCH   2   3
ATOM      3  S   UNL A   1      30.978  27.245  22.812  1.00  0.00    -0.162 SA
BRANCH   3   4
ATOM      4  C   UNL A   1      31.649  28.931  23.057  1.00  0.00     0.073 C 
BRANCH   4   5
ATOM      5  C   UNL A   1      32.990  29.080  23.803  1.00  0.00     0.038 C 
BRANCH   5   6
ATOM      6  C   UNL A   1      32.932  29.138  25.312  1.00  0.00    -0.030 C 
ATOM      7  C   UNL A   1      33.750  29.869  26.102  1.00  0.00    -0.027 C 
BRANCH   7   8
ATOM      8  C   UNL A   1      33.729  29.970  27.624  1.00  0.00     0.054 C 
BRANCH   8   9
ATOM      9  C   UNL A   1      34.344  31.254  28.138  1.00  0.00    -0.027 C 
ATOM     10  C   UNL A   1      35.450  31.863  27.662  1.00  0.00    -0.027 C 
BRANCH  10  11
ATOM     11  C   UNL A   1      35.994  33.180  28.167  1.00  0.00     0.054 C 
BRANCH  11  12
ATOM     12  C   UNL A   1      35.148  33.678  29.299  1.00  0.00    -0.027 C 
ATOM     13  C   UNL A   1      34.158  34.575  29.181  1.00  0.00    -0.027 C 
BRANCH  13  14
ATOM     14  C   UNL A   1      33.535  35.248  30.370  1.00  0.00     0.054 C 
BRANCH  14  15
ATOM     15  C   UNL A   1      34.115  34.672  31.631  1.00  0.00    -0.027 C 
ATOM     16  C   UNL A   1      34.554  35.409  32.662  1.00  0.00    -0.031 C 
BRANCH  16  17
ATOM     17  C   UNL A   1      35.211  34.829  33.879  1.00  0.00     0.023 C 
ATOM     18  C   UNL A   1      36.625  34.370  33.555  1.00  0.00     0.008 C 
ENDBRANCH  16  17
ENDBRANCH  14  15
ENDBRANCH  13  14
ENDBRANCH  11  12
ENDBRANCH  10  11
ENDBRANCH   8   9
ENDBRANCH   7   8
ENDBRANCH   5   6
ENDBRANCH   4   5
ENDBRANCH   3   4
ENDBRANCH   2   3
ENDBRANCH   1   2
BRANCH   1  19
ATOM     19  C   UNL A   1      33.904  24.257  23.469  1.00  0.00     0.123 C 
BRANCH  19  20
ATOM     20  C   UNL A   1      33.072  23.280  22.692  1.00  0.00     0.305 C 
ATOM     21  O   UNL A   1      33.363  22.966  21.546  1.00  0.00    -0.252 OA
BRANCH  20  22
ATOM     22  O   UNL A   1      31.972  22.877  23.364  1.00  0.00    -0.463 OA
BRANCH  22  23
ATOM     23  C   UNL A   1      31.963  22.976  24.789  1.00  0.00     0.261 C 
BRANCH  23  24
ATOM     24  C   UNL A   1      32.515  21.835  25.652  1.00  0.00     0.202 C 
BRANCH  24  25
ATOM     25  O   UNL A   1      33.812  21.298  25.492  1.00  0.00    -0.374 OA
BRANCH  25  26
ATOM     26  C   UNL A   1      34.800  21.562  26.465  1.00  0.00     0.202 C 
BRANCH  26  27
ATOM     27  C   UNL A   1      35.605  22.871  26.370  1.00  0.00     0.261 C 
BRANCH  27  28
ATOM     28  O   UNL A   1      36.704  22.889  25.437  1.00  0.00    -0.460 OA
BRANCH  28  29
ATOM     29  C   UNL A   1      37.773  22.135  25.779  1.00  0.00     0.338 C 
ATOM     30  O   UNL A   1      37.868  20.916  25.703  1.00  0.00    -0.246 OA
BRANCH  29  31
ATOM     31  C   UNL A   1      38.921  22.992  26.146  1.00  0.00     0.060 A 
ATOM     32  C   UNL A   1      39.874  22.487  27.045  1.00  0.00     0.016 A 
ATOM     33  C   UNL A   1      39.009  24.313  25.702  1.00  0.00     0.016 A 
ATOM     34  C   UNL A   1      40.885  23.312  27.541  1.00  0.00     0.010 A 
ATOM     35  C   UNL A   1      40.007  25.147  26.223  1.00  0.00     0.010 A 
ATOM     36  C   UNL A   1      40.920  24.662  27.179  1.00  0.00    -0.014 A 
BRANCH  36  37
ATOM     37  C   UNL A   1      41.744  25.613  27.968  1.00  0.00     0.031 A 
ATOM     38  C   UNL A   1      41.034  26.624  28.830  1.00  0.00     0.074 A 
ATOM     39  C   UNL A   1      43.087  25.571  27.948  1.00  0.00     0.049 A 
ATOM     40  N   UNL A   1      41.527  27.605  29.542  1.00  0.00    -0.248 NA
ATOM     41  C   UNL A   1      39.567  26.512  28.892  1.00  0.00     0.031 C 
ATOM     42  C   UNL A   1      43.895  24.600  27.214  1.00  0.00     0.029 A 
ATOM     43  N   UNL A   1      44.009  26.383  28.562  1.00  0.00    -0.354 N 
ATOM     44  C   UNL A   1      40.431  28.234  30.123  1.00  0.00     0.074 A 
ATOM     45  C   UNL A   1      39.250  27.543  29.659  1.00  0.00     0.031 C 
ATOM     46  C   UNL A   1      45.196  24.884  27.406  1.00  0.00     0.029 A 
ATOM     47  C   UNL A   1      45.309  26.078  28.242  1.00  0.00     0.049 A 
ATOM     48  H   UNL A   1      43.761  27.113  29.175  1.00  0.00     0.167 HD
ATOM     49  C   UNL A   1      40.409  29.294  30.966  1.00  0.00     0.031 A 
ATOM     50  C   UNL A   1      46.456  26.712  28.559  1.00  0.00     0.031 A 
ATOM     51  C   UNL A   1      41.585  29.994  31.411  1.00  0.00     0.049 A 
ATOM     52  C   UNL A   1      46.403  27.948  29.421  1.00  0.00     0.074 A 
ATOM     53  C   UNL A   1      41.673  31.079  32.263  1.00  0.00     0.029 A 
ATOM     54  N   UNL A   1      42.880  29.679  31.028  1.00  0.00    -0.354 N 
ATOM     55  N   UNL A   1      45.364  28.533  29.968  1.00  0.00    -0.248 NA
ATOM     56  C   UNL A   1      47.685  28.606  29.715  1.00  0.00     0.031 C 
ATOM     57  C   UNL A   1      43.016  31.461  32.347  1.00  0.00     0.029 A 
ATOM     58  C   UNL A   1      43.772  30.567  31.604  1.00  0.00     0.049 A 
ATOM     59  H   UNL A   1      43.128  28.933  30.435  1.00  0.00     0.167 HD
ATOM     60  C   UNL A   1      45.868  29.608  30.692  1.00  0.00     0.074 A 
ATOM     61  C   UNL A   1      47.307  29.583  30.528  1.00  0.00     0.031 C 
ATOM     62  C   UNL A   1      45.201  30.530  31.430  1.00  0.00     0.031 A 
BRANCH  49  63
ATOM     63  C   UNL A   1      39.063  29.786  31.422  1.00  0.00    -0.014 A 
ATOM     64  C   UNL A   1      38.463  30.922  30.853  1.00  0.00     0.009 A 
ATOM     65  C   UNL A   1      38.374  29.091  32.429  1.00  0.00     0.009 A 
ATOM     66  C   UNL A   1      37.223  31.373  31.312  1.00  0.00     0.001 A 
ATOM     67  C   UNL A   1      37.120  29.525  32.863  1.00  0.00     0.001 A 
ATOM     68  C   UNL A   1      36.551  30.672  32.312  1.00  0.00     0.000 A 
ENDBRANCH  49  63
BRANCH  50  69
ATOM     69  C   UNL A   1      47.756  26.213  28.032  1.00  0.00    -0.014 A 
ATOM     70  C   UNL A   1      48.174  26.528  26.731  1.00  0.00     0.009 A 
ATOM     71  C   UNL A   1      48.579  25.399  28.828  1.00  0.00     0.009 A 
ATOM     72  C   UNL A   1      49.377  26.020  26.230  1.00  0.00     0.001 A 
ATOM     73  C   UNL A   1      49.794  24.919  28.336  1.00  0.00     0.001 A 
ATOM     74  C   UNL A   1      50.188  25.222  27.035  1.00  0.00     0.000 A 
ENDBRANCH  50  69
BRANCH  62  75
ATOM     75  C   UNL A   1      46.022  31.563  32.153  1.00  0.00    -0.014 A 
ATOM     76  C   UNL A   1      46.553  31.318  33.429  1.00  0.00     0.009 A 
ATOM     77  C   UNL A   1      46.307  32.784  31.522  1.00  0.00     0.009 A 
ATOM     78  C   UNL A   1      47.322  32.291  34.072  1.00  0.00     0.001 A 
ATOM     79  C   UNL A   1      47.103  33.741  32.152  1.00  0.00     0.001 A 
ATOM     80  C   UNL A   1      47.601  33.499  33.431  1.00  0.00     0.000 A 
ENDBRANCH  62  75
ENDBRANCH  36  37
ENDBRANCH  29  31
ENDBRANCH  28  29
ENDBRANCH  27  28
ENDBRANCH  26  27
ENDBRANCH  25  26
ENDBRANCH  24  25
ENDBRANCH  23  24
ENDBRANCH  22  23
ENDBRANCH  20  22
ENDBRANCH  19  20
ENDBRANCH   1  19
TORSDOF 27
ENDMDL
