MODEL 1
REMARK VINA RESULT:      -9.1      0.000      0.000
REMARK SMILES C[C@H](CSc1ccc(C(=O)N(C)C)cn1)C(=O)OCCOCCOC(=O)c1ccc(-c2c3nc(c(-c4ccccc4)c4ccc([nH]4)c(-c4ccccc4)c4nc(c(-c5ccccc5)c5ccc2[nH]5)C=C4)C=C3)cc1
REMARK SMILES IDX 20 1 19 2 18 3 16 4 17 5 2 6 1 7 3 8 4 9 5 10 6 11 15 12
REMARK SMILES IDX 7 13 14 14 8 15 9 16 10 17 11 18 12 19 13 20 21 21 22 22
REMARK SMILES IDX 23 23 24 24 25 25 26 26 27 27 28 28 74 29 29 30 73 31 30 32
REMARK SMILES IDX 31 33 32 34 67 35 33 36 72 37 66 38 68 39 34 40 71 41 65 42
REMARK SMILES IDX 64 43 35 45 57 46 42 47 56 48 43 49 46 50 55 51 69 52 44 53
REMARK SMILES IDX 45 54 54 56 70 57 47 58 36 59 37 60 41 61 38 62 40 63 39 64
REMARK SMILES IDX 58 65 59 66 63 67 60 68 62 69 61 70 48 71 49 72 53 73 50 74
REMARK SMILES IDX 52 75 51 76
REMARK H PARENT 68 44 46 55
REMARK Flexibility Score: inf
ROOT
ATOM      1  C   UNL A   1      38.134  22.317  26.030  1.00  0.00     0.202 C 
ENDROOT
BRANCH   1   2
ATOM      2  C   UNL A   1      37.457  23.650  25.705  1.00  0.00     0.261 C 
BRANCH   2   3
ATOM      3  O   UNL A   1      36.041  23.459  25.553  1.00  0.00    -0.463 OA
BRANCH   3   4
ATOM      4  C   UNL A   1      35.539  23.691  24.314  1.00  0.00     0.309 C 
ATOM      5  O   UNL A   1      35.902  23.095  23.307  1.00  0.00    -0.252 OA
BRANCH   4   6
ATOM      6  C   UNL A   1      34.350  24.651  24.339  1.00  0.00     0.106 C 
ATOM      7  C   UNL A   1      33.982  25.037  25.777  1.00  0.00     0.021 C 
BRANCH   6   8
ATOM      8  C   UNL A   1      33.170  24.289  23.412  1.00  0.00     0.091 C 
BRANCH   8   9
ATOM      9  S   UNL A   1      31.703  23.466  24.115  1.00  0.00    -0.106 SA
BRANCH   9  10
ATOM     10  C   UNL A   1      32.318  21.814  24.297  1.00  0.00     0.096 A 
ATOM     11  C   UNL A   1      32.184  20.909  23.251  1.00  0.00     0.036 A 
ATOM     12  N   UNL A   1      32.998  21.534  25.429  1.00  0.00    -0.249 NA
ATOM     13  C   UNL A   1      32.780  19.654  23.362  1.00  0.00     0.018 A 
ATOM     14  C   UNL A   1      33.586  20.312  25.505  1.00  0.00     0.126 A 
ATOM     15  C   UNL A   1      33.485  19.335  24.520  1.00  0.00     0.058 A 
BRANCH  15  16
ATOM     16  C   UNL A   1      34.244  18.077  24.686  1.00  0.00     0.254 C 
ATOM     17  O   UNL A   1      35.437  18.115  24.390  1.00  0.00    -0.269 OA
ATOM     18  N   UNL A   1      33.620  16.916  25.142  1.00  0.00    -0.345 N 
ATOM     19  C   UNL A   1      32.286  16.824  25.716  1.00  0.00     0.146 C 
ATOM     20  C   UNL A   1      34.382  15.677  25.125  1.00  0.00     0.146 C 
ENDBRANCH  15  16
ENDBRANCH   9  10
ENDBRANCH   8   9
ENDBRANCH   6   8
ENDBRANCH   4   6
ENDBRANCH   3   4
ENDBRANCH   2   3
ENDBRANCH   1   2
BRANCH   1  21
ATOM     21  O   UNL A   1      38.468  21.496  24.910  1.00  0.00    -0.374 OA
BRANCH  21  22
ATOM     22  C   UNL A   1      38.236  20.092  25.019  1.00  0.00     0.202 C 
BRANCH  22  23
ATOM     23  C   UNL A   1      39.221  19.291  25.881  1.00  0.00     0.261 C 
BRANCH  23  24
ATOM     24  O   UNL A   1      40.541  19.237  25.311  1.00  0.00    -0.460 OA
BRANCH  24  25
ATOM     25  C   UNL A   1      41.544  19.423  26.201  1.00  0.00     0.338 C 
ATOM     26  O   UNL A   1      42.434  18.630  26.485  1.00  0.00    -0.246 OA
BRANCH  25  27
ATOM     27  C   UNL A   1      41.562  20.810  26.697  1.00  0.00     0.060 A 
ATOM     28  C   UNL A   1      41.921  21.808  25.781  1.00  0.00     0.016 A 
ATOM     29  C   UNL A   1      41.350  21.126  28.039  1.00  0.00     0.016 A 
ATOM     30  C   UNL A   1      42.131  23.114  26.217  1.00  0.00     0.010 A 
ATOM     31  C   UNL A   1      41.570  22.439  28.478  1.00  0.00     0.010 A 
ATOM     32  C   UNL A   1      42.002  23.429  27.576  1.00  0.00    -0.014 A 
BRANCH  32  33
ATOM     33  C   UNL A   1      42.457  24.760  28.050  1.00  0.00     0.031 A 
ATOM     34  C   UNL A   1      41.453  25.864  28.232  1.00  0.00     0.074 A 
ATOM     35  C   UNL A   1      43.741  24.969  28.389  1.00  0.00     0.049 A 
ATOM     36  N   UNL A   1      41.635  27.083  28.676  1.00  0.00    -0.248 NA
ATOM     37  C   UNL A   1      40.059  25.553  27.879  1.00  0.00     0.031 C 
ATOM     38  C   UNL A   1      44.807  23.975  28.303  1.00  0.00     0.029 A 
ATOM     39  N   UNL A   1      44.363  26.093  28.873  1.00  0.00    -0.354 N 
ATOM     40  C   UNL A   1      40.380  27.678  28.668  1.00  0.00     0.074 A 
ATOM     41  C   UNL A   1      39.452  26.702  28.139  1.00  0.00     0.031 C 
ATOM     42  C   UNL A   1      45.957  24.539  28.706  1.00  0.00     0.029 A 
ATOM     43  C   UNL A   1      45.714  25.934  29.057  1.00  0.00     0.049 A 
ATOM     44  H   UNL A   1      43.886  26.931  29.070  1.00  0.00     0.167 HD
ATOM     45  C   UNL A   1      40.027  28.920  29.079  1.00  0.00     0.031 A 
ATOM     46  C   UNL A   1      46.655  26.815  29.445  1.00  0.00     0.031 A 
ATOM     47  C   UNL A   1      40.945  29.907  29.581  1.00  0.00     0.049 A 
ATOM     48  C   UNL A   1      46.253  28.221  29.798  1.00  0.00     0.074 A 
ATOM     49  C   UNL A   1      40.674  31.193  30.018  1.00  0.00     0.029 A 
ATOM     50  N   UNL A   1      42.312  29.723  29.703  1.00  0.00    -0.354 N 
ATOM     51  N   UNL A   1      45.059  28.760  29.814  1.00  0.00    -0.248 NA
ATOM     52  C   UNL A   1      47.332  29.134  30.202  1.00  0.00     0.031 C 
ATOM     53  C   UNL A   1      41.887  31.803  30.363  1.00  0.00     0.029 A 
ATOM     54  C   UNL A   1      42.903  30.879  30.189  1.00  0.00     0.049 A 
ATOM     55  H   UNL A   1      42.793  28.894  29.479  1.00  0.00     0.167 HD
ATOM     56  C   UNL A   1      45.240  30.064  30.257  1.00  0.00     0.074 A 
ATOM     57  C   UNL A   1      46.655  30.230  30.512  1.00  0.00     0.031 C 
ATOM     58  C   UNL A   1      44.311  31.035  30.440  1.00  0.00     0.031 A 
BRANCH  45  59
ATOM     59  C   UNL A   1      38.573  29.284  28.981  1.00  0.00    -0.014 A 
ATOM     60  C   UNL A   1      37.717  29.140  30.084  1.00  0.00     0.009 A 
ATOM     61  C   UNL A   1      38.060  29.804  27.783  1.00  0.00     0.009 A 
ATOM     62  C   UNL A   1      36.367  29.482  29.980  1.00  0.00     0.001 A 
ATOM     63  C   UNL A   1      36.716  30.168  27.690  1.00  0.00     0.001 A 
ATOM     64  C   UNL A   1      35.869  29.999  28.784  1.00  0.00     0.000 A 
ENDBRANCH  45  59
BRANCH  46  65
ATOM     65  C   UNL A   1      48.083  26.406  29.502  1.00  0.00    -0.014 A 
ATOM     66  C   UNL A   1      48.910  26.521  28.375  1.00  0.00     0.009 A 
ATOM     67  C   UNL A   1      48.614  25.862  30.681  1.00  0.00     0.009 A 
ATOM     68  C   UNL A   1      50.232  26.070  28.420  1.00  0.00     0.001 A 
ATOM     69  C   UNL A   1      49.941  25.432  30.729  1.00  0.00     0.001 A 
ATOM     70  C   UNL A   1      50.747  25.528  29.596  1.00  0.00     0.000 A 
ENDBRANCH  46  65
BRANCH  58  71
ATOM     71  C   UNL A   1      44.796  32.351  30.980  1.00  0.00    -0.014 A 
ATOM     72  C   UNL A   1      44.869  32.592  32.361  1.00  0.00     0.009 A 
ATOM     73  C   UNL A   1      45.203  33.359  30.091  1.00  0.00     0.009 A 
ATOM     74  C   UNL A   1      45.305  33.830  32.838  1.00  0.00     0.001 A 
ATOM     75  C   UNL A   1      45.665  34.584  30.572  1.00  0.00     0.001 A 
ATOM     76  C   UNL A   1      45.705  34.823  31.945  1.00  0.00     0.000 A 
ENDBRANCH  58  71
ENDBRANCH  32  33
ENDBRANCH  25  27
ENDBRANCH  24  25
ENDBRANCH  23  24
ENDBRANCH  22  23
ENDBRANCH  21  22
ENDBRANCH   1  21
TORSDOF 18
ENDMDL
MODEL 2
REMARK VINA RESULT:      -8.6      2.193      3.515
REMARK SMILES C[C@H](CSc1ccc(C(=O)N(C)C)cn1)C(=O)OCCOCCOC(=O)c1ccc(-c2c3nc(c(-c4ccccc4)c4ccc([nH]4)c(-c4ccccc4)c4nc(c(-c5ccccc5)c5ccc2[nH]5)C=C4)C=C3)cc1
REMARK SMILES IDX 20 1 19 2 18 3 16 4 17 5 2 6 1 7 3 8 4 9 5 10 6 11 15 12
REMARK SMILES IDX 7 13 14 14 8 15 9 16 10 17 11 18 12 19 13 20 21 21 22 22
REMARK SMILES IDX 23 23 24 24 25 25 26 26 27 27 28 28 74 29 29 30 73 31 30 32
REMARK SMILES IDX 31 33 32 34 67 35 33 36 72 37 66 38 68 39 34 40 71 41 65 42
REMARK SMILES IDX 64 43 35 45 57 46 42 47 56 48 43 49 46 50 55 51 69 52 44 53
REMARK SMILES IDX 45 54 54 56 70 57 47 58 36 59 37 60 41 61 38 62 40 63 39 64
REMARK SMILES IDX 58 65 59 66 63 67 60 68 62 69 61 70 48 71 49 72 53 73 50 74
REMARK SMILES IDX 52 75 51 76
REMARK H PARENT 68 44 46 55
REMARK Flexibility Score: inf
ROOT
ATOM      1  C   UNL A   1      35.795  22.974  23.195  1.00  0.00     0.202 C 
ENDROOT
BRANCH   1   2
ATOM      2  C   UNL A   1      34.793  24.098  23.468  1.00  0.00     0.261 C 
BRANCH   2   3
ATOM      3  O   UNL A   1      33.863  24.203  22.377  1.00  0.00    -0.463 OA
BRANCH   3   4
ATOM      4  C   UNL A   1      33.242  25.401  22.239  1.00  0.00     0.309 C 
ATOM      5  O   UNL A   1      33.651  26.303  21.516  1.00  0.00    -0.252 OA
BRANCH   4   6
ATOM      6  C   UNL A   1      31.886  25.439  22.944  1.00  0.00     0.106 C 
ATOM      7  C   UNL A   1      31.895  26.448  24.100  1.00  0.00     0.021 C 
BRANCH   6   8
ATOM      8  C   UNL A   1      31.242  24.069  23.245  1.00  0.00     0.091 C 
BRANCH   8   9
ATOM      9  S   UNL A   1      31.121  23.500  24.972  1.00  0.00    -0.106 SA
BRANCH   9  10
ATOM     10  C   UNL A   1      32.201  22.096  24.924  1.00  0.00     0.096 A 
ATOM     11  C   UNL A   1      32.792  21.640  26.096  1.00  0.00     0.036 A 
ATOM     12  N   UNL A   1      32.320  21.454  23.743  1.00  0.00    -0.249 NA
ATOM     13  C   UNL A   1      33.540  20.464  26.064  1.00  0.00     0.018 A 
ATOM     14  C   UNL A   1      33.038  20.300  23.741  1.00  0.00     0.126 A 
ATOM     15  C   UNL A   1      33.683  19.782  24.858  1.00  0.00     0.058 A 
BRANCH  15  16
ATOM     16  C   UNL A   1      34.360  18.472  24.744  1.00  0.00     0.254 C 
ATOM     17  O   UNL A   1      35.545  18.496  24.413  1.00  0.00    -0.269 OA
ATOM     18  N   UNL A   1      33.673  17.283  24.988  1.00  0.00    -0.345 N 
ATOM     19  C   UNL A   1      32.352  17.160  25.587  1.00  0.00     0.146 C 
ATOM     20  C   UNL A   1      34.350  16.029  24.698  1.00  0.00     0.146 C 
ENDBRANCH  15  16
ENDBRANCH   9  10
ENDBRANCH   8   9
ENDBRANCH   6   8
ENDBRANCH   4   6
ENDBRANCH   3   4
ENDBRANCH   2   3
ENDBRANCH   1   2
BRANCH   1  21
ATOM     21  O   UNL A   1      36.847  22.829  24.151  1.00  0.00    -0.374 OA
BRANCH  21  22
ATOM     22  C   UNL A   1      37.106  21.522  24.663  1.00  0.00     0.202 C 
BRANCH  22  23
ATOM     23  C   UNL A   1      38.447  21.311  25.378  1.00  0.00     0.261 C 
BRANCH  23  24
ATOM     24  O   UNL A   1      38.668  22.260  26.437  1.00  0.00    -0.460 OA
BRANCH  24  25
ATOM     25  C   UNL A   1      39.918  22.779  26.473  1.00  0.00     0.338 C 
ATOM     26  O   UNL A   1      40.937  22.283  26.007  1.00  0.00    -0.246 OA
BRANCH  25  27
ATOM     27  C   UNL A   1      39.906  24.153  27.006  1.00  0.00     0.060 A 
ATOM     28  C   UNL A   1      40.639  25.116  26.301  1.00  0.00     0.016 A 
ATOM     29  C   UNL A   1      39.297  24.477  28.220  1.00  0.00     0.016 A 
ATOM     30  C   UNL A   1      40.819  26.389  26.836  1.00  0.00     0.010 A 
ATOM     31  C   UNL A   1      39.487  25.756  28.762  1.00  0.00     0.010 A 
ATOM     32  C   UNL A   1      40.284  26.704  28.092  1.00  0.00    -0.014 A 
BRANCH  32  33
ATOM     33  C   UNL A   1      40.684  27.975  28.744  1.00  0.00     0.031 A 
ATOM     34  C   UNL A   1      39.687  29.095  28.857  1.00  0.00     0.074 A 
ATOM     35  C   UNL A   1      41.900  28.111  29.299  1.00  0.00     0.049 A 
ATOM     36  N   UNL A   1      39.821  30.267  29.428  1.00  0.00    -0.248 NA
ATOM     37  C   UNL A   1      38.362  28.862  28.261  1.00  0.00     0.031 C 
ATOM     38  C   UNL A   1      42.944  27.092  29.300  1.00  0.00     0.029 A 
ATOM     39  N   UNL A   1      42.459  29.170  29.971  1.00  0.00    -0.354 N 
ATOM     40  C   UNL A   1      38.596  30.903  29.271  1.00  0.00     0.074 A 
ATOM     41  C   UNL A   1      37.745  30.006  28.519  1.00  0.00     0.031 C 
ATOM     42  C   UNL A   1      44.027  27.581  29.928  1.00  0.00     0.029 A 
ATOM     43  C   UNL A   1      43.759  28.951  30.353  1.00  0.00     0.049 A 
ATOM     44  H   UNL A   1      41.974  30.006  30.160  1.00  0.00     0.167 HD
ATOM     45  C   UNL A   1      38.207  32.119  29.725  1.00  0.00     0.031 A 
ATOM     46  C   UNL A   1      44.643  29.764  30.960  1.00  0.00     0.031 A 
ATOM     47  C   UNL A   1      39.052  33.030  30.449  1.00  0.00     0.049 A 
ATOM     48  C   UNL A   1      44.219  31.150  31.363  1.00  0.00     0.074 A 
ATOM     49  C   UNL A   1      38.742  34.285  30.946  1.00  0.00     0.029 A 
ATOM     50  N   UNL A   1      40.378  32.790  30.771  1.00  0.00    -0.354 N 
ATOM     51  N   UNL A   1      43.050  31.727  31.235  1.00  0.00    -0.248 NA
ATOM     52  C   UNL A   1      45.238  31.990  32.010  1.00  0.00     0.031 C 
ATOM     53  C   UNL A   1      39.896  34.823  31.530  1.00  0.00     0.029 A 
ATOM     54  C   UNL A   1      40.906  33.881  31.442  1.00  0.00     0.049 A 
ATOM     55  H   UNL A   1      40.871  31.966  30.556  1.00  0.00     0.167 HD
ATOM     56  C   UNL A   1      43.184  32.984  31.811  1.00  0.00     0.074 A 
ATOM     57  C   UNL A   1      44.543  33.080  32.301  1.00  0.00     0.031 C 
ATOM     58  C   UNL A   1      42.259  33.968  31.926  1.00  0.00     0.031 A 
BRANCH  45  59
ATOM     59  C   UNL A   1      36.796  32.540  29.428  1.00  0.00    -0.014 A 
ATOM     60  C   UNL A   1      35.763  32.304  30.350  1.00  0.00     0.009 A 
ATOM     61  C   UNL A   1      36.501  33.206  28.229  1.00  0.00     0.009 A 
ATOM     62  C   UNL A   1      34.456  32.700  30.062  1.00  0.00     0.001 A 
ATOM     63  C   UNL A   1      35.198  33.622  27.955  1.00  0.00     0.001 A 
ATOM     64  C   UNL A   1      34.175  33.363  28.867  1.00  0.00     0.000 A 
ENDBRANCH  45  59
BRANCH  46  65
ATOM     65  C   UNL A   1      46.034  29.303  31.208  1.00  0.00    -0.014 A 
ATOM     66  C   UNL A   1      46.383  28.688  32.420  1.00  0.00     0.009 A 
ATOM     67  C   UNL A   1      47.030  29.513  30.242  1.00  0.00     0.009 A 
ATOM     68  C   UNL A   1      47.708  28.321  32.669  1.00  0.00     0.001 A 
ATOM     69  C   UNL A   1      48.348  29.126  30.486  1.00  0.00     0.001 A 
ATOM     70  C   UNL A   1      48.689  28.538  31.703  1.00  0.00     0.000 A 
ENDBRANCH  46  65
BRANCH  58  71
ATOM     71  C   UNL A   1      42.678  35.219  32.647  1.00  0.00    -0.014 A 
ATOM     72  C   UNL A   1      42.349  35.430  33.995  1.00  0.00     0.009 A 
ATOM     73  C   UNL A   1      43.430  36.192  31.969  1.00  0.00     0.009 A 
ATOM     74  C   UNL A   1      42.734  36.608  34.638  1.00  0.00     0.001 A 
ATOM     75  C   UNL A   1      43.836  37.356  32.622  1.00  0.00     0.001 A 
ATOM     76  C   UNL A   1      43.478  37.568  33.953  1.00  0.00     0.000 A 
ENDBRANCH  58  71
ENDBRANCH  32  33
ENDBRANCH  25  27
ENDBRANCH  24  25
ENDBRANCH  23  24
ENDBRANCH  22  23
ENDBRANCH  21  22
ENDBRANCH   1  21
TORSDOF 18
ENDMDL
MODEL 3
REMARK VINA RESULT:      -8.5      2.066      7.087
REMARK SMILES C[C@H](CSc1ccc(C(=O)N(C)C)cn1)C(=O)OCCOCCOC(=O)c1ccc(-c2c3nc(c(-c4ccccc4)c4ccc([nH]4)c(-c4ccccc4)c4nc(c(-c5ccccc5)c5ccc2[nH]5)C=C4)C=C3)cc1
REMARK SMILES IDX 20 1 19 2 18 3 16 4 17 5 2 6 1 7 3 8 4 9 5 10 6 11 15 12
REMARK SMILES IDX 7 13 14 14 8 15 9 16 10 17 11 18 12 19 13 20 21 21 22 22
REMARK SMILES IDX 23 23 24 24 25 25 26 26 27 27 28 28 74 29 29 30 73 31 30 32
REMARK SMILES IDX 31 33 32 34 67 35 33 36 72 37 66 38 68 39 34 40 71 41 65 42
REMARK SMILES IDX 64 43 35 45 57 46 42 47 56 48 43 49 46 50 55 51 69 52 44 53
REMARK SMILES IDX 45 54 54 56 70 57 47 58 36 59 37 60 41 61 38 62 40 63 39 64
REMARK SMILES IDX 58 65 59 66 63 67 60 68 62 69 61 70 48 71 49 72 53 73 50 74
REMARK SMILES IDX 52 75 51 76
REMARK H PARENT 68 44 46 55
REMARK Flexibility Score: inf
ROOT
ATOM      1  C   UNL A   1      39.428  22.031  26.121  1.00  0.00     0.202 C 
ENDROOT
BRANCH   1   2
ATOM      2  C   UNL A   1      38.024  22.547  25.798  1.00  0.00     0.261 C 
BRANCH   2   3
ATOM      3  O   UNL A   1      37.435  21.751  24.756  1.00  0.00    -0.463 OA
BRANCH   3   4
ATOM      4  C   UNL A   1      36.535  22.383  23.962  1.00  0.00     0.309 C 
ATOM      5  O   UNL A   1      36.834  22.989  22.939  1.00  0.00    -0.252 OA
BRANCH   4   6
ATOM      6  C   UNL A   1      35.092  22.108  24.383  1.00  0.00     0.106 C 
ATOM      7  C   UNL A   1      34.957  20.715  25.011  1.00  0.00     0.021 C 
BRANCH   6   8
ATOM      8  C   UNL A   1      34.003  22.499  23.361  1.00  0.00     0.091 C 
BRANCH   8   9
ATOM      9  S   UNL A   1      32.330  22.913  23.954  1.00  0.00    -0.106 SA
BRANCH   9  10
ATOM     10  C   UNL A   1      32.638  24.485  24.714  1.00  0.00     0.096 A 
ATOM     11  C   UNL A   1      33.542  25.366  24.133  1.00  0.00     0.036 A 
ATOM     12  N   UNL A   1      31.886  24.806  25.788  1.00  0.00    -0.249 NA
ATOM     13  C   UNL A   1      33.683  26.644  24.671  1.00  0.00     0.018 A 
ATOM     14  C   UNL A   1      32.027  26.063  26.283  1.00  0.00     0.126 A 
ATOM     15  C   UNL A   1      32.923  27.002  25.782  1.00  0.00     0.058 A 
BRANCH  15  16
ATOM     16  C   UNL A   1      32.918  28.365  26.355  1.00  0.00     0.254 C 
ATOM     17  O   UNL A   1      33.691  28.567  27.291  1.00  0.00    -0.269 OA
ATOM     18  N   UNL A   1      32.066  29.352  25.859  1.00  0.00    -0.345 N 
ATOM     19  C   UNL A   1      31.284  29.277  24.634  1.00  0.00     0.146 C 
ATOM     20  C   UNL A   1      31.994  30.617  26.573  1.00  0.00     0.146 C 
ENDBRANCH  15  16
ENDBRANCH   9  10
ENDBRANCH   8   9
ENDBRANCH   6   8
ENDBRANCH   4   6
ENDBRANCH   3   4
ENDBRANCH   2   3
ENDBRANCH   1   2
BRANCH   1  21
ATOM     21  O   UNL A   1      39.752  20.739  25.604  1.00  0.00    -0.374 OA
BRANCH  21  22
ATOM     22  C   UNL A   1      40.239  19.758  26.520  1.00  0.00     0.202 C 
BRANCH  22  23
ATOM     23  C   UNL A   1      41.584  19.103  26.184  1.00  0.00     0.261 C 
BRANCH  23  24
ATOM     24  O   UNL A   1      42.292  19.792  25.138  1.00  0.00    -0.460 OA
BRANCH  24  25
ATOM     25  C   UNL A   1      43.432  20.403  25.540  1.00  0.00     0.338 C 
ATOM     26  O   UNL A   1      44.581  20.036  25.326  1.00  0.00    -0.246 OA
BRANCH  25  27
ATOM     27  C   UNL A   1      43.143  21.715  26.147  1.00  0.00     0.060 A 
ATOM     28  C   UNL A   1      43.089  22.817  25.284  1.00  0.00     0.016 A 
ATOM     29  C   UNL A   1      43.042  21.893  27.527  1.00  0.00     0.016 A 
ATOM     30  C   UNL A   1      42.997  24.107  25.801  1.00  0.00     0.010 A 
ATOM     31  C   UNL A   1      42.959  23.192  28.047  1.00  0.00     0.010 A 
ATOM     32  C   UNL A   1      42.978  24.307  27.187  1.00  0.00    -0.014 A 
BRANCH  32  33
ATOM     33  C   UNL A   1      43.118  25.686  27.715  1.00  0.00     0.031 A 
ATOM     34  C   UNL A   1      44.489  26.281  27.879  1.00  0.00     0.074 A 
ATOM     35  C   UNL A   1      42.034  26.437  27.977  1.00  0.00     0.049 A 
ATOM     36  N   UNL A   1      44.828  27.481  28.281  1.00  0.00    -0.248 NA
ATOM     37  C   UNL A   1      45.629  25.416  27.536  1.00  0.00     0.031 C 
ATOM     38  C   UNL A   1      40.650  26.001  27.820  1.00  0.00     0.029 A 
ATOM     39  N   UNL A   1      41.934  27.728  28.433  1.00  0.00    -0.354 N 
ATOM     40  C   UNL A   1      46.215  27.519  28.226  1.00  0.00     0.074 A 
ATOM     41  C   UNL A   1      46.658  26.211  27.791  1.00  0.00     0.031 C 
ATOM     42  C   UNL A   1      39.836  27.004  28.191  1.00  0.00     0.029 A 
ATOM     43  C   UNL A   1      40.639  28.140  28.629  1.00  0.00     0.049 A 
ATOM     44  H   UNL A   1      42.715  28.303  28.603  1.00  0.00     0.167 HD
ATOM     45  C   UNL A   1      47.048  28.552  28.498  1.00  0.00     0.031 A 
ATOM     46  C   UNL A   1      40.152  29.294  29.123  1.00  0.00     0.031 A 
ATOM     47  C   UNL A   1      46.621  29.847  28.956  1.00  0.00     0.049 A 
ATOM     48  C   UNL A   1      41.102  30.391  29.515  1.00  0.00     0.074 A 
ATOM     49  C   UNL A   1      47.397  30.954  29.259  1.00  0.00     0.029 A 
ATOM     50  N   UNL A   1      45.304  30.206  29.190  1.00  0.00    -0.354 N 
ATOM     51  N   UNL A   1      42.409  30.423  29.429  1.00  0.00    -0.248 NA
ATOM     52  C   UNL A   1      40.503  31.620  30.059  1.00  0.00     0.031 C 
ATOM     53  C   UNL A   1      46.550  31.970  29.719  1.00  0.00     0.029 A 
ATOM     54  C   UNL A   1      45.246  31.512  29.653  1.00  0.00     0.049 A 
ATOM     55  H   UNL A   1      44.525  29.622  29.048  1.00  0.00     0.167 HD
ATOM     56  C   UNL A   1      42.786  31.682  29.880  1.00  0.00     0.074 A 
ATOM     57  C   UNL A   1      41.570  32.388  30.224  1.00  0.00     0.031 C 
ATOM     58  C   UNL A   1      44.031  32.206  29.993  1.00  0.00     0.031 A 
BRANCH  45  59
ATOM     59  C   UNL A   1      48.519  28.310  28.319  1.00  0.00    -0.014 A 
ATOM     60  C   UNL A   1      49.131  28.468  27.065  1.00  0.00     0.009 A 
ATOM     61  C   UNL A   1      49.309  27.949  29.421  1.00  0.00     0.009 A 
ATOM     62  C   UNL A   1      50.500  28.239  26.912  1.00  0.00     0.001 A 
ATOM     63  C   UNL A   1      50.681  27.745  29.271  1.00  0.00     0.001 A 
ATOM     64  C   UNL A   1      51.274  27.882  28.016  1.00  0.00     0.000 A 
ENDBRANCH  45  59
BRANCH  46  65
ATOM     65  C   UNL A   1      38.687  29.470  29.299  1.00  0.00    -0.014 A 
ATOM     66  C   UNL A   1      37.900  30.020  28.276  1.00  0.00     0.009 A 
ATOM     67  C   UNL A   1      38.076  29.123  30.513  1.00  0.00     0.009 A 
ATOM     68  C   UNL A   1      36.535  30.245  28.478  1.00  0.00     0.001 A 
ATOM     69  C   UNL A   1      36.709  29.329  30.705  1.00  0.00     0.001 A 
ATOM     70  C   UNL A   1      35.941  29.899  29.691  1.00  0.00     0.000 A 
ENDBRANCH  46  65
BRANCH  58  71
ATOM     71  C   UNL A   1      44.135  33.627  30.470  1.00  0.00    -0.014 A 
ATOM     72  C   UNL A   1      44.102  34.705  29.572  1.00  0.00     0.009 A 
ATOM     73  C   UNL A   1      44.248  33.890  31.845  1.00  0.00     0.009 A 
ATOM     74  C   UNL A   1      44.218  36.016  30.039  1.00  0.00     0.001 A 
ATOM     75  C   UNL A   1      44.336  35.203  32.311  1.00  0.00     0.001 A 
ATOM     76  C   UNL A   1      44.333  36.264  31.406  1.00  0.00     0.000 A 
ENDBRANCH  58  71
ENDBRANCH  32  33
ENDBRANCH  25  27
ENDBRANCH  24  25
ENDBRANCH  23  24
ENDBRANCH  22  23
ENDBRANCH  21  22
ENDBRANCH   1  21
TORSDOF 18
ENDMDL
