MODEL 1
REMARK VINA RESULT:     -12.0      0.000      0.000
REMARK SMILES CC1=C(CC(=O)OCCOCCOC(=O)c2ccc(-c3c4nc(c(-c5ccccc5)c5ccc([nH]5)c(-c5ccccc5)c5nc(c(-c6ccccc6)c6ccc3[nH]6)C=C5)C=C4)cc2)c2cc(F)ccc2/C1=C\c1cccc(OCc2ccccc2)c1
REMARK SMILES IDX 8 1 7 2 5 3 6 4 4 5 3 6 1 7 2 8 71 9 64 10 70 11 72 12 65 13
REMARK SMILES IDX 69 14 66 15 68 16 67 17 73 18 74 19 86 20 75 21 77 22 76 23
REMARK SMILES IDX 78 24 79 25 80 26 81 27 85 28 82 29 84 30 83 31 9 32 10 33
REMARK SMILES IDX 11 34 12 35 13 36 14 37 15 38 16 39 17 40 63 41 18 42 62 43
REMARK SMILES IDX 19 44 20 45 21 46 56 47 22 48 61 49 55 50 57 51 23 52 60 53
REMARK SMILES IDX 54 54 53 55 24 57 46 58 31 59 45 60 32 61 35 62 44 63 58 64
REMARK SMILES IDX 33 65 34 66 43 68 59 69 36 70 25 71 26 72 30 73 27 74 29 75
REMARK SMILES IDX 28 76 47 77 48 78 52 79 49 80 51 81 50 82 37 83 38 84 42 85
REMARK SMILES IDX 39 86 41 87 40 88
REMARK H PARENT 57 56 35 67
REMARK Flexibility Score: inf
ROOT
ATOM      1  C   UNL A   1      41.809  19.697  26.132  1.00  0.00     0.261 C 
ENDROOT
BRANCH   1   2
ATOM      2  O   UNL A   1      41.714  21.041  26.648  1.00  0.00    -0.463 OA
BRANCH   2   3
ATOM      3  C   UNL A   1      40.448  21.519  26.795  1.00  0.00     0.310 C 
ATOM      4  O   UNL A   1      40.022  22.046  27.819  1.00  0.00    -0.252 OA
BRANCH   3   5
ATOM      5  C   UNL A   1      39.551  21.369  25.569  1.00  0.00     0.159 C 
BRANCH   5   6
ATOM      6  C   UNL A   1      38.144  21.870  25.624  1.00  0.00    -0.025 C 
ATOM      7  C   UNL A   1      38.618  24.310  26.085  1.00  0.00     0.045 C 
ATOM      8  C   UNL A   1      37.723  23.139  25.839  1.00  0.00    -0.039 C 
ATOM      9  C   UNL A   1      36.257  23.196  25.740  1.00  0.00    -0.014 C 
ATOM     10  C   UNL A   1      36.958  21.058  25.292  1.00  0.00    -0.011 A 
ATOM     11  C   UNL A   1      35.793  21.833  25.431  1.00  0.00    -0.010 A 
ATOM     12  C   UNL A   1      35.512  24.306  25.854  1.00  0.00     0.017 C 
ATOM     13  C   UNL A   1      36.868  19.734  24.883  1.00  0.00     0.048 A 
ATOM     14  C   UNL A   1      34.532  21.272  25.266  1.00  0.00     0.012 A 
ATOM     15  C   UNL A   1      35.599  19.182  24.703  1.00  0.00     0.123 A 
ATOM     16  C   UNL A   1      34.437  19.927  24.913  1.00  0.00     0.040 A 
ATOM     17  F   UNL A   1      35.488  17.886  24.382  1.00  0.00    -0.207 F 
BRANCH  12  18
ATOM     18  C   UNL A   1      34.063  24.402  25.665  1.00  0.00    -0.021 A 
ATOM     19  C   UNL A   1      33.182  24.037  26.682  1.00  0.00     0.008 A 
ATOM     20  C   UNL A   1      33.563  24.892  24.452  1.00  0.00     0.054 A 
ATOM     21  C   UNL A   1      31.808  24.164  26.482  1.00  0.00     0.004 A 
ATOM     22  C   UNL A   1      32.205  25.154  24.302  1.00  0.00     0.120 A 
ATOM     23  C   UNL A   1      31.325  24.736  25.301  1.00  0.00     0.046 A 
BRANCH  22  24
ATOM     24  O   UNL A   1      31.636  25.829  23.257  1.00  0.00    -0.489 OA
BRANCH  24  25
ATOM     25  C   UNL A   1      31.798  27.253  23.185  1.00  0.00     0.265 C 
BRANCH  25  26
ATOM     26  C   UNL A   1      30.516  28.036  22.951  1.00  0.00    -0.011 A 
ATOM     27  C   UNL A   1      29.279  27.512  23.350  1.00  0.00     0.007 A 
ATOM     28  C   UNL A   1      30.521  29.283  22.306  1.00  0.00     0.007 A 
ATOM     29  C   UNL A   1      28.093  28.213  23.107  1.00  0.00     0.000 A 
ATOM     30  C   UNL A   1      29.342  29.998  22.090  1.00  0.00     0.000 A 
ATOM     31  C   UNL A   1      28.125  29.459  22.485  1.00  0.00     0.000 A 
ENDBRANCH  25  26
ENDBRANCH  24  25
ENDBRANCH  22  24
ENDBRANCH  12  18
ENDBRANCH   5   6
ENDBRANCH   3   5
ENDBRANCH   2   3
ENDBRANCH   1   2
BRANCH   1  32
ATOM     32  C   UNL A   1      43.209  19.310  25.635  1.00  0.00     0.202 C 
BRANCH  32  33
ATOM     33  O   UNL A   1      43.739  20.009  24.511  1.00  0.00    -0.374 OA
BRANCH  33  34
ATOM     34  C   UNL A   1      44.710  21.021  24.752  1.00  0.00     0.202 C 
BRANCH  34  35
ATOM     35  C   UNL A   1      44.609  22.320  23.944  1.00  0.00     0.261 C 
BRANCH  35  36
ATOM     36  O   UNL A   1      43.846  23.347  24.580  1.00  0.00    -0.460 OA
BRANCH  36  37
ATOM     37  C   UNL A   1      44.578  24.408  24.986  1.00  0.00     0.338 C 
ATOM     38  O   UNL A   1      45.646  24.800  24.535  1.00  0.00    -0.246 OA
BRANCH  37  39
ATOM     39  C   UNL A   1      43.822  25.157  25.997  1.00  0.00     0.060 A 
ATOM     40  C   UNL A   1      42.840  24.535  26.769  1.00  0.00     0.016 A 
ATOM     41  C   UNL A   1      44.157  26.501  26.197  1.00  0.00     0.016 A 
ATOM     42  C   UNL A   1      42.208  25.265  27.774  1.00  0.00     0.010 A 
ATOM     43  C   UNL A   1      43.535  27.223  27.209  1.00  0.00     0.010 A 
ATOM     44  C   UNL A   1      42.571  26.603  28.018  1.00  0.00    -0.014 A 
BRANCH  44  45
ATOM     45  C   UNL A   1      42.026  27.314  29.196  1.00  0.00     0.031 A 
ATOM     46  C   UNL A   1      42.724  27.270  30.519  1.00  0.00     0.074 A 
ATOM     47  C   UNL A   1      40.869  27.989  29.050  1.00  0.00     0.049 A 
ATOM     48  N   UNL A   1      42.419  27.902  31.623  1.00  0.00    -0.248 NA
ATOM     49  C   UNL A   1      43.910  26.405  30.627  1.00  0.00     0.031 C 
ATOM     50  C   UNL A   1      40.088  28.052  27.813  1.00  0.00     0.029 A 
ATOM     51  N   UNL A   1      40.157  28.759  29.934  1.00  0.00    -0.354 N 
ATOM     52  C   UNL A   1      43.378  27.524  32.552  1.00  0.00     0.074 A 
ATOM     53  C   UNL A   1      44.249  26.571  31.900  1.00  0.00     0.031 C 
ATOM     54  C   UNL A   1      39.029  28.853  28.003  1.00  0.00     0.029 A 
ATOM     55  C   UNL A   1      39.033  29.328  29.383  1.00  0.00     0.049 A 
ATOM     56  H   UNL A   1      40.425  28.891  30.871  1.00  0.00     0.167 HD
ATOM     57  C   UNL A   1      43.521  27.955  33.827  1.00  0.00     0.031 A 
ATOM     58  C   UNL A   1      38.112  30.149  29.924  1.00  0.00     0.031 A 
ATOM     59  C   UNL A   1      42.636  28.896  34.461  1.00  0.00     0.049 A 
ATOM     60  C   UNL A   1      38.296  30.605  31.345  1.00  0.00     0.074 A 
ATOM     61  C   UNL A   1      42.720  29.421  35.739  1.00  0.00     0.029 A 
ATOM     62  N   UNL A   1      41.506  29.447  33.874  1.00  0.00    -0.354 N 
ATOM     63  N   UNL A   1      39.257  30.306  32.187  1.00  0.00    -0.248 NA
ATOM     64  C   UNL A   1      37.290  31.529  31.886  1.00  0.00     0.031 C 
ATOM     65  C   UNL A   1      41.604  30.230  35.951  1.00  0.00     0.029 A 
ATOM     66  C   UNL A   1      40.874  30.287  34.774  1.00  0.00     0.049 A 
ATOM     67  H   UNL A   1      41.201  29.268  32.956  1.00  0.00     0.167 HD
ATOM     68  C   UNL A   1      38.992  31.032  33.340  1.00  0.00     0.074 A 
ATOM     69  C   UNL A   1      37.791  31.798  33.085  1.00  0.00     0.031 C 
ATOM     70  C   UNL A   1      39.687  31.059  34.504  1.00  0.00     0.031 A 
BRANCH  57  71
ATOM     71  C   UNL A   1      44.681  27.438  34.635  1.00  0.00    -0.014 A 
ATOM     72  C   UNL A   1      44.492  26.365  35.522  1.00  0.00     0.009 A 
ATOM     73  C   UNL A   1      45.917  28.103  34.629  1.00  0.00     0.009 A 
ATOM     74  C   UNL A   1      45.503  25.990  36.408  1.00  0.00     0.001 A 
ATOM     75  C   UNL A   1      46.937  27.705  35.497  1.00  0.00     0.001 A 
ATOM     76  C   UNL A   1      46.725  26.661  36.395  1.00  0.00     0.000 A 
ENDBRANCH  57  71
BRANCH  58  77
ATOM     77  C   UNL A   1      36.972  30.621  29.092  1.00  0.00    -0.014 A 
ATOM     78  C   UNL A   1      36.902  31.960  28.671  1.00  0.00     0.009 A 
ATOM     79  C   UNL A   1      35.921  29.755  28.754  1.00  0.00     0.009 A 
ATOM     80  C   UNL A   1      35.799  32.427  27.954  1.00  0.00     0.001 A 
ATOM     81  C   UNL A   1      34.836  30.215  28.002  1.00  0.00     0.001 A 
ATOM     82  C   UNL A   1      34.770  31.552  27.613  1.00  0.00     0.000 A 
ENDBRANCH  58  77
BRANCH  70  83
ATOM     83  C   UNL A   1      39.205  31.976  35.597  1.00  0.00    -0.014 A 
ATOM     84  C   UNL A   1      38.255  31.508  36.521  1.00  0.00     0.009 A 
ATOM     85  C   UNL A   1      39.588  33.324  35.645  1.00  0.00     0.009 A 
ATOM     86  C   UNL A   1      37.681  32.373  37.453  1.00  0.00     0.001 A 
ATOM     87  C   UNL A   1      39.042  34.179  36.605  1.00  0.00     0.001 A 
ATOM     88  C   UNL A   1      38.080  33.707  37.497  1.00  0.00     0.000 A 
ENDBRANCH  70  83
ENDBRANCH  44  45
ENDBRANCH  37  39
ENDBRANCH  36  37
ENDBRANCH  35  36
ENDBRANCH  34  35
ENDBRANCH  33  34
ENDBRANCH  32  33
ENDBRANCH   1  32
TORSDOF 19
ENDMDL
MODEL 2
REMARK VINA RESULT:     -11.5      3.888      5.822
REMARK SMILES CC1=C(CC(=O)OCCOCCOC(=O)c2ccc(-c3c4nc(c(-c5ccccc5)c5ccc([nH]5)c(-c5ccccc5)c5nc(c(-c6ccccc6)c6ccc3[nH]6)C=C5)C=C4)cc2)c2cc(F)ccc2/C1=C\c1cccc(OCc2ccccc2)c1
REMARK SMILES IDX 8 1 7 2 5 3 6 4 4 5 3 6 1 7 2 8 71 9 64 10 70 11 72 12 65 13
REMARK SMILES IDX 69 14 66 15 68 16 67 17 73 18 74 19 86 20 75 21 77 22 76 23
REMARK SMILES IDX 78 24 79 25 80 26 81 27 85 28 82 29 84 30 83 31 9 32 10 33
REMARK SMILES IDX 11 34 12 35 13 36 14 37 15 38 16 39 17 40 63 41 18 42 62 43
REMARK SMILES IDX 19 44 20 45 21 46 56 47 22 48 61 49 55 50 57 51 23 52 60 53
REMARK SMILES IDX 54 54 53 55 24 57 46 58 31 59 45 60 32 61 35 62 44 63 58 64
REMARK SMILES IDX 33 65 34 66 43 68 59 69 36 70 25 71 26 72 30 73 27 74 29 75
REMARK SMILES IDX 28 76 47 77 48 78 52 79 49 80 51 81 50 82 37 83 38 84 42 85
REMARK SMILES IDX 39 86 41 87 40 88
REMARK H PARENT 57 56 35 67
REMARK Flexibility Score: inf
ROOT
ATOM      1  C   UNL A   1      43.949  20.958  25.507  1.00  0.00     0.261 C 
ENDROOT
BRANCH   1   2
ATOM      2  O   UNL A   1      43.404  19.758  26.094  1.00  0.00    -0.463 OA
BRANCH   2   3
ATOM      3  C   UNL A   1      42.050  19.745  26.237  1.00  0.00     0.310 C 
ATOM      4  O   UNL A   1      41.270  19.302  25.399  1.00  0.00    -0.252 OA
BRANCH   3   5
ATOM      5  C   UNL A   1      41.531  20.325  27.550  1.00  0.00     0.159 C 
BRANCH   5   6
ATOM      6  C   UNL A   1      41.199  21.779  27.630  1.00  0.00    -0.025 C 
ATOM      7  C   UNL A   1      43.282  22.590  28.811  1.00  0.00     0.045 C 
ATOM      8  C   UNL A   1      41.947  22.773  28.165  1.00  0.00    -0.039 C 
ATOM      9  C   UNL A   1      41.268  24.062  27.967  1.00  0.00    -0.014 C 
ATOM     10  C   UNL A   1      40.029  22.402  26.982  1.00  0.00    -0.011 A 
ATOM     11  C   UNL A   1      40.018  23.784  27.241  1.00  0.00    -0.010 A 
ATOM     12  C   UNL A   1      41.752  25.260  28.332  1.00  0.00     0.017 C 
ATOM     13  C   UNL A   1      39.030  21.832  26.204  1.00  0.00     0.048 A 
ATOM     14  C   UNL A   1      38.964  24.587  26.818  1.00  0.00     0.012 A 
ATOM     15  C   UNL A   1      37.984  22.648  25.769  1.00  0.00     0.123 A 
ATOM     16  C   UNL A   1      37.930  24.006  26.087  1.00  0.00     0.040 A 
ATOM     17  F   UNL A   1      36.972  22.102  25.081  1.00  0.00    -0.207 F 
BRANCH  12  18
ATOM     18  C   UNL A   1      41.139  26.562  28.060  1.00  0.00    -0.021 A 
ATOM     19  C   UNL A   1      41.290  27.181  26.819  1.00  0.00     0.008 A 
ATOM     20  C   UNL A   1      40.369  27.176  29.056  1.00  0.00     0.054 A 
ATOM     21  C   UNL A   1      40.672  28.407  26.581  1.00  0.00     0.004 A 
ATOM     22  C   UNL A   1      39.637  28.325  28.775  1.00  0.00     0.120 A 
ATOM     23  C   UNL A   1      39.836  28.968  27.552  1.00  0.00     0.046 A 
BRANCH  22  24
ATOM     24  O   UNL A   1      38.691  28.885  29.589  1.00  0.00    -0.489 OA
BRANCH  24  25
ATOM     25  C   UNL A   1      39.084  29.938  30.481  1.00  0.00     0.265 C 
BRANCH  25  26
ATOM     26  C   UNL A   1      38.530  31.311  30.138  1.00  0.00    -0.011 A 
ATOM     27  C   UNL A   1      38.798  32.413  30.962  1.00  0.00     0.007 A 
ATOM     28  C   UNL A   1      37.713  31.518  29.014  1.00  0.00     0.007 A 
ATOM     29  C   UNL A   1      38.263  33.673  30.668  1.00  0.00     0.000 A 
ATOM     30  C   UNL A   1      37.205  32.779  28.702  1.00  0.00     0.000 A 
ATOM     31  C   UNL A   1      37.474  33.857  29.535  1.00  0.00     0.000 A 
ENDBRANCH  25  26
ENDBRANCH  24  25
ENDBRANCH  22  24
ENDBRANCH  12  18
ENDBRANCH   5   6
ENDBRANCH   3   5
ENDBRANCH   2   3
ENDBRANCH   1   2
BRANCH   1  32
ATOM     32  C   UNL A   1      45.474  20.937  25.332  1.00  0.00     0.202 C 
BRANCH  32  33
ATOM     33  O   UNL A   1      46.186  22.163  25.486  1.00  0.00    -0.374 OA
BRANCH  33  34
ATOM     34  C   UNL A   1      45.855  23.241  24.617  1.00  0.00     0.202 C 
BRANCH  34  35
ATOM     35  C   UNL A   1      46.997  24.123  24.101  1.00  0.00     0.261 C 
BRANCH  35  36
ATOM     36  O   UNL A   1      46.953  25.472  24.571  1.00  0.00    -0.460 OA
BRANCH  36  37
ATOM     37  C   UNL A   1      47.574  25.664  25.756  1.00  0.00     0.338 C 
ATOM     38  O   UNL A   1      48.682  25.272  26.096  1.00  0.00    -0.246 OA
BRANCH  37  39
ATOM     39  C   UNL A   1      46.767  26.571  26.581  1.00  0.00     0.060 A 
ATOM     40  C   UNL A   1      45.374  26.573  26.498  1.00  0.00     0.016 A 
ATOM     41  C   UNL A   1      47.439  27.396  27.490  1.00  0.00     0.016 A 
ATOM     42  C   UNL A   1      44.647  27.392  27.361  1.00  0.00     0.010 A 
ATOM     43  C   UNL A   1      46.711  28.200  28.360  1.00  0.00     0.010 A 
ATOM     44  C   UNL A   1      45.310  28.188  28.314  1.00  0.00    -0.014 A 
BRANCH  44  45
ATOM     45  C   UNL A   1      44.529  28.915  29.340  1.00  0.00     0.031 A 
ATOM     46  C   UNL A   1      44.082  28.237  30.598  1.00  0.00     0.074 A 
ATOM     47  C   UNL A   1      44.215  30.203  29.103  1.00  0.00     0.049 A 
ATOM     48  N   UNL A   1      43.463  28.756  31.627  1.00  0.00    -0.248 NA
ATOM     49  C   UNL A   1      44.354  26.796  30.721  1.00  0.00     0.031 C 
ATOM     50  C   UNL A   1      44.564  30.938  27.885  1.00  0.00     0.029 A 
ATOM     51  N   UNL A   1      43.550  31.125  29.870  1.00  0.00    -0.354 N 
ATOM     52  C   UNL A   1      43.282  27.712  32.524  1.00  0.00     0.074 A 
ATOM     53  C   UNL A   1      43.813  26.519  31.901  1.00  0.00     0.031 C 
ATOM     54  C   UNL A   1      44.148  32.208  28.006  1.00  0.00     0.029 A 
ATOM     55  C   UNL A   1      43.469  32.367  29.288  1.00  0.00     0.049 A 
ATOM     56  H   UNL A   1      43.166  30.916  30.752  1.00  0.00     0.167 HD
ATOM     57  C   UNL A   1      42.737  27.760  33.762  1.00  0.00     0.031 A 
ATOM     58  C   UNL A   1      42.920  33.512  29.738  1.00  0.00     0.031 A 
ATOM     59  C   UNL A   1      42.203  28.956  34.359  1.00  0.00     0.049 A 
ATOM     60  C   UNL A   1      42.317  33.531  31.116  1.00  0.00     0.074 A 
ATOM     61  C   UNL A   1      41.663  29.112  35.623  1.00  0.00     0.029 A 
ATOM     62  N   UNL A   1      42.135  30.194  33.738  1.00  0.00    -0.354 N 
ATOM     63  N   UNL A   1      42.229  32.556  31.989  1.00  0.00    -0.248 NA
ATOM     64  C   UNL A   1      41.762  34.808  31.585  1.00  0.00     0.031 C 
ATOM     65  C   UNL A   1      41.201  30.422  35.741  1.00  0.00     0.029 A 
ATOM     66  C   UNL A   1      41.540  31.111  34.586  1.00  0.00     0.049 A 
ATOM     67  H   UNL A   1      42.462  30.391  32.830  1.00  0.00     0.167 HD
ATOM     68  C   UNL A   1      41.645  33.109  33.120  1.00  0.00     0.074 A 
ATOM     69  C   UNL A   1      41.414  34.508  32.830  1.00  0.00     0.031 C 
ATOM     70  C   UNL A   1      41.330  32.507  34.293  1.00  0.00     0.031 A 
BRANCH  57  71
ATOM     71  C   UNL A   1      42.696  26.497  34.578  1.00  0.00    -0.014 A 
ATOM     72  C   UNL A   1      43.859  25.724  34.729  1.00  0.00     0.009 A 
ATOM     73  C   UNL A   1      41.481  25.996  35.071  1.00  0.00     0.009 A 
ATOM     74  C   UNL A   1      43.801  24.463  35.326  1.00  0.00     0.001 A 
ATOM     75  C   UNL A   1      41.432  24.747  35.695  1.00  0.00     0.001 A 
ATOM     76  C   UNL A   1      42.587  23.976  35.808  1.00  0.00     0.000 A 
ENDBRANCH  57  71
BRANCH  58  77
ATOM     77  C   UNL A   1      42.970  34.733  28.888  1.00  0.00    -0.014 A 
ATOM     78  C   UNL A   1      44.098  35.570  28.907  1.00  0.00     0.009 A 
ATOM     79  C   UNL A   1      41.874  35.100  28.092  1.00  0.00     0.009 A 
ATOM     80  C   UNL A   1      44.120  36.756  28.170  1.00  0.00     0.001 A 
ATOM     81  C   UNL A   1      41.914  36.267  27.324  1.00  0.00     0.001 A 
ATOM     82  C   UNL A   1      43.031  37.099  27.372  1.00  0.00     0.000 A 
ENDBRANCH  58  77
BRANCH  70  83
ATOM     83  C   UNL A   1      40.737  33.353  35.389  1.00  0.00    -0.014 A 
ATOM     84  C   UNL A   1      39.343  33.521  35.451  1.00  0.00     0.009 A 
ATOM     85  C   UNL A   1      41.547  34.077  36.276  1.00  0.00     0.009 A 
ATOM     86  C   UNL A   1      38.773  34.413  36.361  1.00  0.00     0.001 A 
ATOM     87  C   UNL A   1      40.972  34.939  37.213  1.00  0.00     0.001 A 
ATOM     88  C   UNL A   1      39.588  35.117  37.245  1.00  0.00     0.000 A 
ENDBRANCH  70  83
ENDBRANCH  44  45
ENDBRANCH  37  39
ENDBRANCH  36  37
ENDBRANCH  35  36
ENDBRANCH  34  35
ENDBRANCH  33  34
ENDBRANCH  32  33
ENDBRANCH   1  32
TORSDOF 19
ENDMDL
MODEL 3
REMARK VINA RESULT:     -11.5      3.969      7.190
REMARK SMILES CC1=C(CC(=O)OCCOCCOC(=O)c2ccc(-c3c4nc(c(-c5ccccc5)c5ccc([nH]5)c(-c5ccccc5)c5nc(c(-c6ccccc6)c6ccc3[nH]6)C=C5)C=C4)cc2)c2cc(F)ccc2/C1=C\c1cccc(OCc2ccccc2)c1
REMARK SMILES IDX 8 1 7 2 5 3 6 4 4 5 3 6 1 7 2 8 71 9 64 10 70 11 72 12 65 13
REMARK SMILES IDX 69 14 66 15 68 16 67 17 73 18 74 19 86 20 75 21 77 22 76 23
REMARK SMILES IDX 78 24 79 25 80 26 81 27 85 28 82 29 84 30 83 31 9 32 10 33
REMARK SMILES IDX 11 34 12 35 13 36 14 37 15 38 16 39 17 40 63 41 18 42 62 43
REMARK SMILES IDX 19 44 20 45 21 46 56 47 22 48 61 49 55 50 57 51 23 52 60 53
REMARK SMILES IDX 54 54 53 55 24 57 46 58 31 59 45 60 32 61 35 62 44 63 58 64
REMARK SMILES IDX 33 65 34 66 43 68 59 69 36 70 25 71 26 72 30 73 27 74 29 75
REMARK SMILES IDX 28 76 47 77 48 78 52 79 49 80 51 81 50 82 37 83 38 84 42 85
REMARK SMILES IDX 39 86 41 87 40 88
REMARK H PARENT 57 56 35 67
REMARK Flexibility Score: inf
ROOT
ATOM      1  C   UNL A   1      43.993  20.853  25.349  1.00  0.00     0.261 C 
ENDROOT
BRANCH   1   2
ATOM      2  O   UNL A   1      43.419  19.794  26.142  1.00  0.00    -0.463 OA
BRANCH   2   3
ATOM      3  C   UNL A   1      42.061  19.803  26.228  1.00  0.00     0.310 C 
ATOM      4  O   UNL A   1      41.309  19.410  25.340  1.00  0.00    -0.252 OA
BRANCH   3   5
ATOM      5  C   UNL A   1      41.497  20.340  27.541  1.00  0.00     0.159 C 
BRANCH   5   6
ATOM      6  C   UNL A   1      41.168  21.793  27.658  1.00  0.00    -0.025 C 
ATOM      7  C   UNL A   1      43.239  22.562  28.886  1.00  0.00     0.045 C 
ATOM      8  C   UNL A   1      41.912  22.768  28.231  1.00  0.00    -0.039 C 
ATOM      9  C   UNL A   1      41.240  24.065  28.061  1.00  0.00    -0.014 C 
ATOM     10  C   UNL A   1      40.008  22.437  27.015  1.00  0.00    -0.011 A 
ATOM     11  C   UNL A   1      39.997  23.812  27.313  1.00  0.00    -0.010 A 
ATOM     12  C   UNL A   1      41.722  25.250  28.467  1.00  0.00     0.017 C 
ATOM     13  C   UNL A   1      39.016  21.893  26.209  1.00  0.00     0.048 A 
ATOM     14  C   UNL A   1      38.951  24.630  26.902  1.00  0.00     0.012 A 
ATOM     15  C   UNL A   1      37.978  22.725  25.785  1.00  0.00     0.123 A 
ATOM     16  C   UNL A   1      37.924  24.073  26.141  1.00  0.00     0.040 A 
ATOM     17  F   UNL A   1      36.973  22.203  25.070  1.00  0.00    -0.207 F 
BRANCH  12  18
ATOM     18  C   UNL A   1      41.117  26.561  28.225  1.00  0.00    -0.021 A 
ATOM     19  C   UNL A   1      41.108  27.123  26.948  1.00  0.00     0.008 A 
ATOM     20  C   UNL A   1      40.516  27.243  29.291  1.00  0.00     0.054 A 
ATOM     21  C   UNL A   1      40.500  28.361  26.744  1.00  0.00     0.004 A 
ATOM     22  C   UNL A   1      39.786  28.406  29.064  1.00  0.00     0.120 A 
ATOM     23  C   UNL A   1      39.828  28.990  27.797  1.00  0.00     0.046 A 
BRANCH  22  24
ATOM     24  O   UNL A   1      38.984  29.032  29.977  1.00  0.00    -0.489 OA
BRANCH  24  25
ATOM     25  C   UNL A   1      39.399  30.300  30.507  1.00  0.00     0.265 C 
BRANCH  25  26
ATOM     26  C   UNL A   1      38.283  31.145  31.100  1.00  0.00    -0.011 A 
ATOM     27  C   UNL A   1      38.173  32.505  30.780  1.00  0.00     0.007 A 
ATOM     28  C   UNL A   1      37.352  30.608  32.004  1.00  0.00     0.007 A 
ATOM     29  C   UNL A   1      37.168  33.295  31.349  1.00  0.00     0.000 A 
ATOM     30  C   UNL A   1      36.330  31.386  32.549  1.00  0.00     0.000 A 
ATOM     31  C   UNL A   1      36.242  32.734  32.226  1.00  0.00     0.000 A 
ENDBRANCH  25  26
ENDBRANCH  24  25
ENDBRANCH  22  24
ENDBRANCH  12  18
ENDBRANCH   5   6
ENDBRANCH   3   5
ENDBRANCH   2   3
ENDBRANCH   1   2
BRANCH   1  32
ATOM     32  C   UNL A   1      45.520  20.780  25.210  1.00  0.00     0.202 C 
BRANCH  32  33
ATOM     33  O   UNL A   1      46.260  21.996  25.281  1.00  0.00    -0.374 OA
BRANCH  33  34
ATOM     34  C   UNL A   1      45.919  23.039  24.374  1.00  0.00     0.202 C 
BRANCH  34  35
ATOM     35  C   UNL A   1      46.975  24.110  24.081  1.00  0.00     0.261 C 
BRANCH  35  36
ATOM     36  O   UNL A   1      46.790  25.329  24.804  1.00  0.00    -0.460 OA
BRANCH  36  37
ATOM     37  C   UNL A   1      47.273  25.301  26.066  1.00  0.00     0.338 C 
ATOM     38  O   UNL A   1      48.238  24.677  26.487  1.00  0.00    -0.246 OA
BRANCH  37  39
ATOM     39  C   UNL A   1      46.543  26.277  26.883  1.00  0.00     0.060 A 
ATOM     40  C   UNL A   1      45.159  26.417  26.773  1.00  0.00     0.016 A 
ATOM     41  C   UNL A   1      47.275  27.025  27.813  1.00  0.00     0.016 A 
ATOM     42  C   UNL A   1      44.499  27.296  27.630  1.00  0.00     0.010 A 
ATOM     43  C   UNL A   1      46.612  27.891  28.675  1.00  0.00     0.010 A 
ATOM     44  C   UNL A   1      45.217  28.017  28.602  1.00  0.00    -0.014 A 
BRANCH  44  45
ATOM     45  C   UNL A   1      44.491  28.809  29.620  1.00  0.00     0.031 A 
ATOM     46  C   UNL A   1      44.141  30.245  29.380  1.00  0.00     0.074 A 
ATOM     47  C   UNL A   1      44.168  28.207  30.781  1.00  0.00     0.049 A 
ATOM     48  N   UNL A   1      43.439  31.050  30.135  1.00  0.00    -0.248 NA
ATOM     49  C   UNL A   1      44.644  30.863  28.142  1.00  0.00     0.031 C 
ATOM     50  C   UNL A   1      44.507  26.825  31.129  1.00  0.00     0.029 A 
ATOM     51  N   UNL A   1      43.474  28.665  31.872  1.00  0.00    -0.354 N 
ATOM     52  C   UNL A   1      43.404  32.264  29.462  1.00  0.00     0.074 A 
ATOM     53  C   UNL A   1      44.194  32.107  28.261  1.00  0.00     0.031 C 
ATOM     54  C   UNL A   1      43.985  26.535  32.330  1.00  0.00     0.029 A 
ATOM     55  C   UNL A   1      43.309  27.717  32.854  1.00  0.00     0.049 A 
ATOM     56  H   UNL A   1      43.129  29.584  31.945  1.00  0.00     0.167 HD
ATOM     57  C   UNL A   1      42.752  33.396  29.816  1.00  0.00     0.031 A 
ATOM     58  C   UNL A   1      42.676  27.787  34.041  1.00  0.00     0.031 A 
ATOM     59  C   UNL A   1      41.980  33.534  31.023  1.00  0.00     0.049 A 
ATOM     60  C   UNL A   1      41.966  29.061  34.408  1.00  0.00     0.074 A 
ATOM     61  C   UNL A   1      41.253  34.631  31.451  1.00  0.00     0.029 A 
ATOM     62  N   UNL A   1      41.840  32.555  31.996  1.00  0.00    -0.354 N 
ATOM     63  N   UNL A   1      41.869  30.175  33.722  1.00  0.00    -0.248 NA
ATOM     64  C   UNL A   1      41.256  29.084  35.694  1.00  0.00     0.031 C 
ATOM     65  C   UNL A   1      40.735  34.344  32.713  1.00  0.00     0.029 A 
ATOM     66  C   UNL A   1      41.056  33.034  33.032  1.00  0.00     0.049 A 
ATOM     67  H   UNL A   1      42.236  31.655  31.954  1.00  0.00     0.167 HD
ATOM     68  C   UNL A   1      41.060  31.016  34.474  1.00  0.00     0.074 A 
ATOM     69  C   UNL A   1      40.679  30.279  35.660  1.00  0.00     0.031 C 
ATOM     70  C   UNL A   1      40.669  32.285  34.201  1.00  0.00     0.031 A 
BRANCH  57  71
ATOM     71  C   UNL A   1      42.818  34.581  28.892  1.00  0.00    -0.014 A 
ATOM     72  C   UNL A   1      41.632  35.133  28.379  1.00  0.00     0.009 A 
ATOM     73  C   UNL A   1      44.049  35.056  28.414  1.00  0.00     0.009 A 
ATOM     74  C   UNL A   1      41.678  36.112  27.384  1.00  0.00     0.001 A 
ATOM     75  C   UNL A   1      44.091  36.057  27.441  1.00  0.00     0.001 A 
ATOM     76  C   UNL A   1      42.907  36.572  26.915  1.00  0.00     0.000 A 
ENDBRANCH  57  71
BRANCH  58  77
ATOM     77  C   UNL A   1      42.652  26.594  34.931  1.00  0.00    -0.014 A 
ATOM     78  C   UNL A   1      41.521  25.762  34.978  1.00  0.00     0.009 A 
ATOM     79  C   UNL A   1      43.735  26.305  35.775  1.00  0.00     0.009 A 
ATOM     80  C   UNL A   1      41.463  24.685  35.865  1.00  0.00     0.001 A 
ATOM     81  C   UNL A   1      43.690  25.202  36.634  1.00  0.00     0.001 A 
ATOM     82  C   UNL A   1      42.552  24.401  36.686  1.00  0.00     0.000 A 
ENDBRANCH  58  77
BRANCH  70  83
ATOM     83  C   UNL A   1      39.743  32.967  35.172  1.00  0.00    -0.014 A 
ATOM     84  C   UNL A   1      40.285  33.690  36.249  1.00  0.00     0.009 A 
ATOM     85  C   UNL A   1      38.352  32.799  35.102  1.00  0.00     0.009 A 
ATOM     86  C   UNL A   1      39.458  34.209  37.247  1.00  0.00     0.001 A 
ATOM     87  C   UNL A   1      37.524  33.354  36.080  1.00  0.00     0.001 A 
ATOM     88  C   UNL A   1      38.078  34.045  37.158  1.00  0.00     0.000 A 
ENDBRANCH  70  83
ENDBRANCH  44  45
ENDBRANCH  37  39
ENDBRANCH  36  37
ENDBRANCH  35  36
ENDBRANCH  34  35
ENDBRANCH  33  34
ENDBRANCH  32  33
ENDBRANCH   1  32
TORSDOF 19
ENDMDL
