MODEL 1
REMARK VINA RESULT:     -11.5      0.000      0.000
REMARK SMILES Cc1ccc([C@H](C)NC(=O)[C@H]2[C@@H]3CC[C@@H](C3)[C@@H]2C(=O)OCCOCCOC(=O)c2ccc(-c3c4nc(c(-c5ccccc5)c5ccc([nH]5)c(-c5ccccc5)c5nc(c(-c6ccccc6)c6ccc3[nH]6)C=C5)C=C4)cc2)cc1
REMARK SMILES IDX 22 1 21 2 20 3 18 4 19 5 17 6 11 7 12 8 13 9 16 10 15 11
REMARK SMILES IDX 14 12 9 13 8 14 10 16 6 17 7 18 5 19 1 20 2 21 3 22 78 23
REMARK SMILES IDX 4 24 77 25 23 26 24 27 25 28 26 29 27 30 28 31 29 32 30 33
REMARK SMILES IDX 76 34 31 35 75 36 32 37 33 38 34 39 69 40 35 41 74 42 68 43
REMARK SMILES IDX 70 44 36 45 73 46 67 47 66 48 37 50 59 51 44 52 58 53 45 54
REMARK SMILES IDX 48 55 57 56 71 57 46 58 47 59 56 61 72 62 49 63 38 64 39 65
REMARK SMILES IDX 43 66 40 67 42 68 41 69 60 70 61 71 65 72 62 73 64 74 63 75
REMARK SMILES IDX 50 76 51 77 55 78 52 79 54 80 53 81
REMARK H PARENT 8 15 70 49 48 60
REMARK Flexibility Score: inf
ROOT
ATOM      1  C   UNL A   1      34.357  30.968  27.382  1.00  0.00     0.202 C 
ENDROOT
BRANCH   1   2
ATOM      2  C   UNL A   1      33.285  29.962  27.232  1.00  0.00     0.261 C 
BRANCH   2   3
ATOM      3  O   UNL A   1      33.194  29.461  25.894  1.00  0.00    -0.463 OA
BRANCH   3   4
ATOM      4  C   UNL A   1      33.054  28.130  25.643  1.00  0.00     0.310 C 
ATOM      5  O   UNL A   1      33.936  27.302  25.611  1.00  0.00    -0.252 OA
BRANCH   4   6
ATOM      6  C   UNL A   1      31.607  27.824  25.306  1.00  0.00     0.115 C 
ATOM      7  C   UNL A   1      31.363  26.404  24.752  1.00  0.00     0.096 C 
ATOM      8  C   UNL A   1      30.860  26.680  23.323  1.00  0.00     0.002 C 
ATOM      9  C   UNL A   1      32.042  27.271  22.506  1.00  0.00     0.005 C 
ATOM     10  C   UNL A   1      29.979  27.905  23.519  1.00  0.00     0.009 C 
ATOM     11  C   UNL A   1      31.100  28.733  24.152  1.00  0.00     0.004 C 
ATOM     12  C   UNL A   1      32.109  28.730  22.989  1.00  0.00     0.005 C 
BRANCH   7  13
ATOM     13  C   UNL A   1      30.534  25.410  25.555  1.00  0.00     0.224 C 
ATOM     14  N   UNL A   1      30.669  24.073  25.592  1.00  0.00    -0.349 N 
ATOM     15  H   UNL A   1      30.135  23.672  26.315  1.00  0.00     0.164 HD
ATOM     16  O   UNL A   1      29.664  25.863  26.316  1.00  0.00    -0.275 OA
BRANCH  14  17
ATOM     17  C   UNL A   1      31.404  23.064  24.837  1.00  0.00     0.109 C 
ATOM     18  C   UNL A   1      31.078  23.162  23.348  1.00  0.00     0.036 C 
BRANCH  17  19
ATOM     19  C   UNL A   1      32.901  23.238  25.029  1.00  0.00    -0.026 A 
ATOM     20  C   UNL A   1      37.134  23.908  25.652  1.00  0.00     0.044 C 
ATOM     21  C   UNL A   1      35.662  23.720  25.414  1.00  0.00    -0.051 A 
ATOM     22  C   UNL A   1      35.074  23.862  24.147  1.00  0.00     0.004 A 
ATOM     23  C   UNL A   1      34.860  23.320  26.479  1.00  0.00     0.004 A 
ATOM     24  C   UNL A   1      33.713  23.602  23.950  1.00  0.00     0.006 A 
ATOM     25  C   UNL A   1      33.496  23.108  26.296  1.00  0.00     0.006 A 
ENDBRANCH  17  19
ENDBRANCH  14  17
ENDBRANCH   7  13
ENDBRANCH   4   6
ENDBRANCH   3   4
ENDBRANCH   2   3
ENDBRANCH   1   2
BRANCH   1  26
ATOM     26  O   UNL A   1      33.719  31.947  28.184  1.00  0.00    -0.374 OA
BRANCH  26  27
ATOM     27  C   UNL A   1      34.510  33.055  28.516  1.00  0.00     0.202 C 
BRANCH  27  28
ATOM     28  C   UNL A   1      33.657  34.256  28.933  1.00  0.00     0.261 C 
BRANCH  28  29
ATOM     29  O   UNL A   1      34.276  34.944  30.046  1.00  0.00    -0.460 OA
BRANCH  29  30
ATOM     30  C   UNL A   1      33.922  34.536  31.303  1.00  0.00     0.338 C 
ATOM     31  O   UNL A   1      32.865  34.800  31.855  1.00  0.00    -0.246 OA
BRANCH  30  32
ATOM     32  C   UNL A   1      35.127  34.012  32.023  1.00  0.00     0.060 A 
ATOM     33  C   UNL A   1      36.291  34.799  32.154  1.00  0.00     0.016 A 
ATOM     34  C   UNL A   1      35.215  32.638  32.175  1.00  0.00     0.016 A 
ATOM     35  C   UNL A   1      37.557  34.187  32.261  1.00  0.00     0.010 A 
ATOM     36  C   UNL A   1      36.461  32.058  32.112  1.00  0.00     0.010 A 
ATOM     37  C   UNL A   1      37.649  32.796  32.154  1.00  0.00    -0.014 A 
BRANCH  37  38
ATOM     38  C   UNL A   1      38.884  32.001  31.987  1.00  0.00     0.031 A 
ATOM     39  C   UNL A   1      38.793  30.914  30.992  1.00  0.00     0.074 A 
ATOM     40  C   UNL A   1      40.047  32.292  32.613  1.00  0.00     0.049 A 
ATOM     41  N   UNL A   1      38.700  29.651  31.271  1.00  0.00    -0.248 NA
ATOM     42  C   UNL A   1      38.603  31.211  29.564  1.00  0.00     0.031 C 
ATOM     43  C   UNL A   1      41.388  31.747  32.442  1.00  0.00     0.029 A 
ATOM     44  N   UNL A   1      40.241  33.251  33.605  1.00  0.00    -0.354 N 
ATOM     45  C   UNL A   1      38.811  29.026  30.041  1.00  0.00     0.074 A 
ATOM     46  C   UNL A   1      38.368  29.997  29.070  1.00  0.00     0.031 C 
ATOM     47  C   UNL A   1      42.165  32.156  33.469  1.00  0.00     0.029 A 
ATOM     48  C   UNL A   1      41.362  32.971  34.367  1.00  0.00     0.049 A 
ATOM     49  H   UNL A   1      39.655  34.028  33.747  1.00  0.00     0.167 HD
ATOM     50  C   UNL A   1      39.801  28.114  29.800  1.00  0.00     0.031 A 
ATOM     51  C   UNL A   1      41.243  32.889  35.713  1.00  0.00     0.031 A 
ATOM     52  C   UNL A   1      40.794  28.135  30.883  1.00  0.00     0.049 A 
ATOM     53  C   UNL A   1      41.319  31.415  35.973  1.00  0.00     0.074 A 
ATOM     54  C   UNL A   1      42.115  28.526  30.828  1.00  0.00     0.029 A 
ATOM     55  N   UNL A   1      40.459  28.077  32.254  1.00  0.00    -0.354 N 
ATOM     56  N   UNL A   1      40.819  30.498  35.171  1.00  0.00    -0.248 NA
ATOM     57  C   UNL A   1      42.301  30.914  36.924  1.00  0.00     0.031 C 
ATOM     58  C   UNL A   1      42.578  28.610  32.142  1.00  0.00     0.029 A 
ATOM     59  C   UNL A   1      41.543  28.431  33.044  1.00  0.00     0.049 A 
ATOM     60  H   UNL A   1      39.575  27.818  32.603  1.00  0.00     0.167 HD
ATOM     61  C   UNL A   1      41.572  29.361  35.331  1.00  0.00     0.074 A 
ATOM     62  C   UNL A   1      42.466  29.673  36.451  1.00  0.00     0.031 C 
ATOM     63  C   UNL A   1      41.630  28.275  34.498  1.00  0.00     0.031 A 
BRANCH  50  64
ATOM     64  C   UNL A   1      40.142  27.642  28.372  1.00  0.00    -0.014 A 
ATOM     65  C   UNL A   1      39.818  26.340  27.941  1.00  0.00     0.009 A 
ATOM     66  C   UNL A   1      40.784  28.442  27.405  1.00  0.00     0.009 A 
ATOM     67  C   UNL A   1      40.243  25.818  26.710  1.00  0.00     0.001 A 
ATOM     68  C   UNL A   1      41.227  27.926  26.172  1.00  0.00     0.001 A 
ATOM     69  C   UNL A   1      40.972  26.604  25.833  1.00  0.00     0.000 A 
ENDBRANCH  50  64
BRANCH  51  70
ATOM     70  C   UNL A   1      40.443  33.987  36.348  1.00  0.00    -0.014 A 
ATOM     71  C   UNL A   1      39.462  33.588  37.297  1.00  0.00     0.009 A 
ATOM     72  C   UNL A   1      40.817  35.338  36.353  1.00  0.00     0.009 A 
ATOM     73  C   UNL A   1      38.969  34.468  38.277  1.00  0.00     0.001 A 
ATOM     74  C   UNL A   1      40.320  36.222  37.339  1.00  0.00     0.001 A 
ATOM     75  C   UNL A   1      39.422  35.782  38.316  1.00  0.00     0.000 A 
ENDBRANCH  51  70
BRANCH  63  76
ATOM     76  C   UNL A   1      42.144  26.952  35.007  1.00  0.00    -0.014 A 
ATOM     77  C   UNL A   1      41.306  25.975  35.561  1.00  0.00     0.009 A 
ATOM     78  C   UNL A   1      43.492  26.598  34.802  1.00  0.00     0.009 A 
ATOM     79  C   UNL A   1      41.805  24.746  35.985  1.00  0.00     0.001 A 
ATOM     80  C   UNL A   1      43.983  25.348  35.167  1.00  0.00     0.001 A 
ATOM     81  C   UNL A   1      43.141  24.430  35.778  1.00  0.00     0.000 A 
ENDBRANCH  63  76
ENDBRANCH  37  38
ENDBRANCH  30  32
ENDBRANCH  29  30
ENDBRANCH  28  29
ENDBRANCH  27  28
ENDBRANCH  26  27
ENDBRANCH   1  26
TORSDOF 17
ENDMDL
MODEL 2
REMARK VINA RESULT:     -11.3      4.269      6.191
REMARK SMILES Cc1ccc([C@H](C)NC(=O)[C@H]2[C@@H]3CC[C@@H](C3)[C@@H]2C(=O)OCCOCCOC(=O)c2ccc(-c3c4nc(c(-c5ccccc5)c5ccc([nH]5)c(-c5ccccc5)c5nc(c(-c6ccccc6)c6ccc3[nH]6)C=C5)C=C4)cc2)cc1
REMARK SMILES IDX 22 1 21 2 20 3 18 4 19 5 17 6 11 7 12 8 13 9 16 10 15 11
REMARK SMILES IDX 14 12 9 13 8 14 10 16 6 17 7 18 5 19 1 20 2 21 3 22 78 23
REMARK SMILES IDX 4 24 77 25 23 26 24 27 25 28 26 29 27 30 28 31 29 32 30 33
REMARK SMILES IDX 76 34 31 35 75 36 32 37 33 38 34 39 69 40 35 41 74 42 68 43
REMARK SMILES IDX 70 44 36 45 73 46 67 47 66 48 37 50 59 51 44 52 58 53 45 54
REMARK SMILES IDX 48 55 57 56 71 57 46 58 47 59 56 61 72 62 49 63 38 64 39 65
REMARK SMILES IDX 43 66 40 67 42 68 41 69 60 70 61 71 65 72 62 73 64 74 63 75
REMARK SMILES IDX 50 76 51 77 55 78 52 79 54 80 53 81
REMARK H PARENT 8 15 70 49 48 60
REMARK Flexibility Score: inf
ROOT
ATOM      1  C   UNL A   1      34.349  29.046  26.526  1.00  0.00     0.202 C 
ENDROOT
BRANCH   1   2
ATOM      2  C   UNL A   1      33.370  28.082  27.066  1.00  0.00     0.261 C 
BRANCH   2   3
ATOM      3  O   UNL A   1      33.053  27.047  26.129  1.00  0.00    -0.463 OA
BRANCH   3   4
ATOM      4  C   UNL A   1      31.778  26.592  25.979  1.00  0.00     0.310 C 
ATOM      5  O   UNL A   1      31.003  26.307  26.863  1.00  0.00    -0.252 OA
BRANCH   4   6
ATOM      6  C   UNL A   1      31.477  26.394  24.505  1.00  0.00     0.115 C 
ATOM      7  C   UNL A   1      32.647  26.733  23.559  1.00  0.00     0.096 C 
ATOM      8  C   UNL A   1      32.094  27.920  22.748  1.00  0.00     0.002 C 
ATOM      9  C   UNL A   1      31.947  29.129  23.713  1.00  0.00     0.005 C 
ATOM     10  C   UNL A   1      30.642  27.519  22.534  1.00  0.00     0.009 C 
ATOM     11  C   UNL A   1      30.360  27.365  24.031  1.00  0.00     0.004 C 
ATOM     12  C   UNL A   1      30.667  28.799  24.498  1.00  0.00     0.005 C 
BRANCH   7  13
ATOM     13  C   UNL A   1      33.300  25.630  22.737  1.00  0.00     0.224 C 
ATOM     14  N   UNL A   1      33.503  24.350  23.098  1.00  0.00    -0.349 N 
ATOM     15  H   UNL A   1      33.780  23.795  22.335  1.00  0.00     0.164 HD
ATOM     16  O   UNL A   1      33.643  25.898  21.575  1.00  0.00    -0.275 OA
BRANCH  14  17
ATOM     17  C   UNL A   1      33.415  23.573  24.330  1.00  0.00     0.109 C 
ATOM     18  C   UNL A   1      32.480  22.379  24.147  1.00  0.00     0.036 C 
BRANCH  17  19
ATOM     19  C   UNL A   1      34.787  23.070  24.744  1.00  0.00    -0.026 A 
ATOM     20  C   UNL A   1      38.766  21.688  25.751  1.00  0.00     0.044 C 
ATOM     21  C   UNL A   1      37.388  22.142  25.359  1.00  0.00    -0.051 A 
ATOM     22  C   UNL A   1      36.372  21.248  24.986  1.00  0.00     0.004 A 
ATOM     23  C   UNL A   1      37.086  23.498  25.436  1.00  0.00     0.004 A 
ATOM     24  C   UNL A   1      35.079  21.702  24.703  1.00  0.00     0.006 A 
ATOM     25  C   UNL A   1      35.813  23.959  25.108  1.00  0.00     0.006 A 
ENDBRANCH  17  19
ENDBRANCH  14  17
ENDBRANCH   7  13
ENDBRANCH   4   6
ENDBRANCH   3   4
ENDBRANCH   2   3
ENDBRANCH   1   2
BRANCH   1  26
ATOM     26  O   UNL A   1      34.664  29.809  27.678  1.00  0.00    -0.374 OA
BRANCH  26  27
ATOM     27  C   UNL A   1      34.239  31.145  27.645  1.00  0.00     0.202 C 
BRANCH  27  28
ATOM     28  C   UNL A   1      35.325  32.097  28.153  1.00  0.00     0.261 C 
BRANCH  28  29
ATOM     29  O   UNL A   1      36.636  31.553  27.870  1.00  0.00    -0.460 OA
BRANCH  29  30
ATOM     30  C   UNL A   1      37.452  31.308  28.941  1.00  0.00     0.338 C 
ATOM     31  O   UNL A   1      37.810  32.144  29.757  1.00  0.00    -0.246 OA
BRANCH  30  32
ATOM     32  C   UNL A   1      38.103  29.967  28.786  1.00  0.00     0.060 A 
ATOM     33  C   UNL A   1      38.812  29.379  29.856  1.00  0.00     0.016 A 
ATOM     34  C   UNL A   1      38.344  29.536  27.492  1.00  0.00     0.016 A 
ATOM     35  C   UNL A   1      39.878  28.492  29.602  1.00  0.00     0.010 A 
ATOM     36  C   UNL A   1      39.485  28.805  27.255  1.00  0.00     0.010 A 
ATOM     37  C   UNL A   1      40.273  28.268  28.280  1.00  0.00    -0.014 A 
BRANCH  37  38
ATOM     38  C   UNL A   1      41.505  27.587  27.827  1.00  0.00     0.031 A 
ATOM     39  C   UNL A   1      41.468  26.114  27.919  1.00  0.00     0.074 A 
ATOM     40  C   UNL A   1      42.554  28.236  27.275  1.00  0.00     0.049 A 
ATOM     41  N   UNL A   1      42.090  25.404  28.810  1.00  0.00    -0.248 NA
ATOM     42  C   UNL A   1      40.541  25.327  27.092  1.00  0.00     0.031 C 
ATOM     43  C   UNL A   1      43.754  27.731  26.617  1.00  0.00     0.029 A 
ATOM     44  N   UNL A   1      42.726  29.616  27.185  1.00  0.00    -0.354 N 
ATOM     45  C   UNL A   1      41.896  24.098  28.394  1.00  0.00     0.074 A 
ATOM     46  C   UNL A   1      40.678  24.113  27.619  1.00  0.00     0.031 C 
ATOM     47  C   UNL A   1      44.636  28.744  26.471  1.00  0.00     0.029 A 
ATOM     48  C   UNL A   1      44.061  29.952  27.042  1.00  0.00     0.049 A 
ATOM     49  H   UNL A   1      41.991  30.269  27.220  1.00  0.00     0.167 HD
ATOM     50  C   UNL A   1      42.957  23.281  28.119  1.00  0.00     0.031 A 
ATOM     51  C   UNL A   1      44.617  30.833  27.905  1.00  0.00     0.031 A 
ATOM     52  C   UNL A   1      44.204  24.056  28.073  1.00  0.00     0.049 A 
ATOM     53  C   UNL A   1      45.454  29.961  28.791  1.00  0.00     0.074 A 
ATOM     54  C   UNL A   1      45.021  24.302  26.990  1.00  0.00     0.029 A 
ATOM     55  N   UNL A   1      44.595  24.971  29.076  1.00  0.00    -0.354 N 
ATOM     56  N   UNL A   1      45.114  28.743  29.159  1.00  0.00    -0.248 NA
ATOM     57  C   UNL A   1      46.866  30.270  28.959  1.00  0.00     0.031 C 
ATOM     58  C   UNL A   1      45.938  25.281  27.377  1.00  0.00     0.029 A 
ATOM     59  C   UNL A   1      45.630  25.780  28.630  1.00  0.00     0.049 A 
ATOM     60  H   UNL A   1      44.188  25.026  29.971  1.00  0.00     0.167 HD
ATOM     61  C   UNL A   1      46.276  28.044  29.377  1.00  0.00     0.074 A 
ATOM     62  C   UNL A   1      47.334  29.052  29.258  1.00  0.00     0.031 C 
ATOM     63  C   UNL A   1      46.428  26.685  29.462  1.00  0.00     0.031 A 
BRANCH  50  64
ATOM     64  C   UNL A   1      42.781  21.947  27.366  1.00  0.00    -0.014 A 
ATOM     65  C   UNL A   1      43.481  21.690  26.170  1.00  0.00     0.009 A 
ATOM     66  C   UNL A   1      41.933  20.903  27.790  1.00  0.00     0.009 A 
ATOM     67  C   UNL A   1      43.239  20.560  25.373  1.00  0.00     0.001 A 
ATOM     68  C   UNL A   1      41.672  19.772  26.993  1.00  0.00     0.001 A 
ATOM     69  C   UNL A   1      42.312  19.611  25.772  1.00  0.00     0.000 A 
ENDBRANCH  50  64
BRANCH  51  70
ATOM     70  C   UNL A   1      43.798  32.060  28.177  1.00  0.00    -0.014 A 
ATOM     71  C   UNL A   1      43.177  32.136  29.453  1.00  0.00     0.009 A 
ATOM     72  C   UNL A   1      43.891  33.252  27.446  1.00  0.00     0.009 A 
ATOM     73  C   UNL A   1      42.776  33.359  30.019  1.00  0.00     0.001 A 
ATOM     74  C   UNL A   1      43.487  34.482  28.015  1.00  0.00     0.001 A 
ATOM     75  C   UNL A   1      42.959  34.540  29.308  1.00  0.00     0.000 A 
ENDBRANCH  51  70
BRANCH  63  76
ATOM     76  C   UNL A   1      47.647  26.096  30.126  1.00  0.00    -0.014 A 
ATOM     77  C   UNL A   1      48.794  25.722  29.412  1.00  0.00     0.009 A 
ATOM     78  C   UNL A   1      47.722  26.037  31.531  1.00  0.00     0.009 A 
ATOM     79  C   UNL A   1      49.920  25.218  30.058  1.00  0.00     0.001 A 
ATOM     80  C   UNL A   1      48.867  25.593  32.185  1.00  0.00     0.001 A 
ATOM     81  C   UNL A   1      49.959  25.165  31.445  1.00  0.00     0.000 A 
ENDBRANCH  63  76
ENDBRANCH  37  38
ENDBRANCH  30  32
ENDBRANCH  29  30
ENDBRANCH  28  29
ENDBRANCH  27  28
ENDBRANCH  26  27
ENDBRANCH   1  26
TORSDOF 17
ENDMDL
MODEL 3
REMARK VINA RESULT:     -11.2      5.236     10.286
REMARK SMILES Cc1ccc([C@H](C)NC(=O)[C@H]2[C@@H]3CC[C@@H](C3)[C@@H]2C(=O)OCCOCCOC(=O)c2ccc(-c3c4nc(c(-c5ccccc5)c5ccc([nH]5)c(-c5ccccc5)c5nc(c(-c6ccccc6)c6ccc3[nH]6)C=C5)C=C4)cc2)cc1
REMARK SMILES IDX 22 1 21 2 20 3 18 4 19 5 17 6 11 7 12 8 13 9 16 10 15 11
REMARK SMILES IDX 14 12 9 13 8 14 10 16 6 17 7 18 5 19 1 20 2 21 3 22 78 23
REMARK SMILES IDX 4 24 77 25 23 26 24 27 25 28 26 29 27 30 28 31 29 32 30 33
REMARK SMILES IDX 76 34 31 35 75 36 32 37 33 38 34 39 69 40 35 41 74 42 68 43
REMARK SMILES IDX 70 44 36 45 73 46 67 47 66 48 37 50 59 51 44 52 58 53 45 54
REMARK SMILES IDX 48 55 57 56 71 57 46 58 47 59 56 61 72 62 49 63 38 64 39 65
REMARK SMILES IDX 43 66 40 67 42 68 41 69 60 70 61 71 65 72 62 73 64 74 63 75
REMARK SMILES IDX 50 76 51 77 55 78 52 79 54 80 53 81
REMARK H PARENT 8 15 70 49 48 60
REMARK Flexibility Score: inf
ROOT
ATOM      1  C   UNL A   1      38.761  20.610  25.707  1.00  0.00     0.202 C 
ENDROOT
BRANCH   1   2
ATOM      2  C   UNL A   1      38.054  21.892  25.507  1.00  0.00     0.261 C 
BRANCH   2   3
ATOM      3  O   UNL A   1      36.633  21.729  25.476  1.00  0.00    -0.463 OA
BRANCH   3   4
ATOM      4  C   UNL A   1      35.810  22.745  25.095  1.00  0.00     0.310 C 
ATOM      5  O   UNL A   1      35.848  23.891  25.482  1.00  0.00    -0.252 OA
BRANCH   4   6
ATOM      6  C   UNL A   1      34.742  22.214  24.158  1.00  0.00     0.115 C 
ATOM      7  C   UNL A   1      33.566  23.183  23.909  1.00  0.00     0.096 C 
ATOM      8  C   UNL A   1      32.368  22.421  24.505  1.00  0.00     0.002 C 
ATOM      9  C   UNL A   1      32.563  22.355  26.045  1.00  0.00     0.005 C 
ATOM     10  C   UNL A   1      32.661  20.985  24.096  1.00  0.00     0.009 C 
ATOM     11  C   UNL A   1      34.038  20.969  24.765  1.00  0.00     0.004 C 
ATOM     12  C   UNL A   1      33.619  21.251  26.220  1.00  0.00     0.005 C 
BRANCH   7  13
ATOM     13  C   UNL A   1      33.345  23.763  22.518  1.00  0.00     0.224 C 
ATOM     14  N   UNL A   1      32.679  24.886  22.196  1.00  0.00    -0.349 N 
ATOM     15  H   UNL A   1      32.824  25.140  21.257  1.00  0.00     0.164 HD
ATOM     16  O   UNL A   1      33.877  23.185  21.558  1.00  0.00    -0.275 OA
BRANCH  14  17
ATOM     17  C   UNL A   1      31.797  25.825  22.882  1.00  0.00     0.109 C 
ATOM     18  C   UNL A   1      30.620  25.089  23.521  1.00  0.00     0.036 C 
BRANCH  17  19
ATOM     19  C   UNL A   1      32.554  26.580  23.961  1.00  0.00    -0.026 A 
ATOM     20  C   UNL A   1      34.544  28.798  27.103  1.00  0.00     0.044 C 
ATOM     21  C   UNL A   1      33.829  28.070  26.000  1.00  0.00    -0.051 A 
ATOM     22  C   UNL A   1      33.809  28.531  24.674  1.00  0.00     0.004 A 
ATOM     23  C   UNL A   1      33.221  26.852  26.291  1.00  0.00     0.004 A 
ATOM     24  C   UNL A   1      33.198  27.784  23.660  1.00  0.00     0.006 A 
ATOM     25  C   UNL A   1      32.571  26.130  25.292  1.00  0.00     0.006 A 
ENDBRANCH  17  19
ENDBRANCH  14  17
ENDBRANCH   7  13
ENDBRANCH   4   6
ENDBRANCH   3   4
ENDBRANCH   2   3
ENDBRANCH   1   2
BRANCH   1  26
ATOM     26  O   UNL A   1      40.088  21.050  25.945  1.00  0.00    -0.374 OA
BRANCH  26  27
ATOM     27  C   UNL A   1      40.897  20.151  26.653  1.00  0.00     0.202 C 
BRANCH  27  28
ATOM     28  C   UNL A   1      42.258  19.963  25.978  1.00  0.00     0.261 C 
BRANCH  28  29
ATOM     29  O   UNL A   1      42.644  21.177  25.289  1.00  0.00    -0.460 OA
BRANCH  29  30
ATOM     30  C   UNL A   1      43.934  21.251  24.838  1.00  0.00     0.338 C 
ATOM     31  O   UNL A   1      44.554  20.331  24.325  1.00  0.00    -0.246 OA
BRANCH  30  32
ATOM     32  C   UNL A   1      44.580  22.500  25.357  1.00  0.00     0.060 A 
ATOM     33  C   UNL A   1      45.242  22.507  26.604  1.00  0.00     0.016 A 
ATOM     34  C   UNL A   1      44.160  23.698  24.804  1.00  0.00     0.016 A 
ATOM     35  C   UNL A   1      45.317  23.693  27.364  1.00  0.00     0.010 A 
ATOM     36  C   UNL A   1      44.093  24.801  25.623  1.00  0.00     0.010 A 
ATOM     37  C   UNL A   1      44.659  24.837  26.902  1.00  0.00    -0.014 A 
BRANCH  37  38
ATOM     38  C   UNL A   1      44.409  26.081  27.660  1.00  0.00     0.031 A 
ATOM     39  C   UNL A   1      42.985  26.421  27.842  1.00  0.00     0.074 A 
ATOM     40  C   UNL A   1      45.391  26.811  28.237  1.00  0.00     0.049 A 
ATOM     41  N   UNL A   1      42.353  27.360  27.207  1.00  0.00    -0.248 NA
ATOM     42  C   UNL A   1      42.100  25.566  28.648  1.00  0.00     0.031 C 
ATOM     43  C   UNL A   1      45.329  27.941  29.156  1.00  0.00     0.029 A 
ATOM     44  N   UNL A   1      46.764  26.622  28.092  1.00  0.00    -0.354 N 
ATOM     45  C   UNL A   1      41.115  27.409  27.825  1.00  0.00     0.074 A 
ATOM     46  C   UNL A   1      40.907  26.095  28.385  1.00  0.00     0.031 C 
ATOM     47  C   UNL A   1      46.554  28.505  29.245  1.00  0.00     0.029 A 
ATOM     48  C   UNL A   1      47.467  27.780  28.376  1.00  0.00     0.049 A 
ATOM     49  H   UNL A   1      47.180  25.773  27.821  1.00  0.00     0.167 HD
ATOM     50  C   UNL A   1      40.665  28.559  28.410  1.00  0.00     0.031 A 
ATOM     51  C   UNL A   1      48.336  28.267  27.459  1.00  0.00     0.031 A 
ATOM     52  C   UNL A   1      41.748  29.548  28.503  1.00  0.00     0.049 A 
ATOM     53  C   UNL A   1      47.608  29.448  26.893  1.00  0.00     0.074 A 
ATOM     54  C   UNL A   1      42.356  30.049  29.634  1.00  0.00     0.029 A 
ATOM     55  N   UNL A   1      42.585  29.897  27.419  1.00  0.00    -0.354 N 
ATOM     56  N   UNL A   1      46.305  29.494  26.712  1.00  0.00    -0.248 NA
ATOM     57  C   UNL A   1      48.263  30.748  26.892  1.00  0.00     0.031 C 
ATOM     58  C   UNL A   1      43.484  30.759  29.218  1.00  0.00     0.029 A 
ATOM     59  C   UNL A   1      43.699  30.596  27.861  1.00  0.00     0.049 A 
ATOM     60  H   UNL A   1      42.401  29.675  26.478  1.00  0.00     0.167 HD
ATOM     61  C   UNL A   1      45.925  30.810  26.812  1.00  0.00     0.074 A 
ATOM     62  C   UNL A   1      47.189  31.547  26.903  1.00  0.00     0.031 C 
ATOM     63  C   UNL A   1      44.660  31.300  27.008  1.00  0.00     0.031 A 
BRANCH  50  64
ATOM     64  C   UNL A   1      39.452  28.566  29.363  1.00  0.00    -0.014 A 
ATOM     65  C   UNL A   1      38.211  29.093  28.956  1.00  0.00     0.009 A 
ATOM     66  C   UNL A   1      39.477  28.064  30.681  1.00  0.00     0.009 A 
ATOM     67  C   UNL A   1      37.128  29.259  29.834  1.00  0.00     0.001 A 
ATOM     68  C   UNL A   1      38.404  28.237  31.575  1.00  0.00     0.001 A 
ATOM     69  C   UNL A   1      37.233  28.855  31.155  1.00  0.00     0.000 A 
ENDBRANCH  50  64
BRANCH  51  70
ATOM     70  C   UNL A   1      49.243  27.246  26.838  1.00  0.00    -0.014 A 
ATOM     71  C   UNL A   1      49.242  27.180  25.418  1.00  0.00     0.009 A 
ATOM     72  C   UNL A   1      50.314  26.631  27.501  1.00  0.00     0.009 A 
ATOM     73  C   UNL A   1      50.315  26.631  24.694  1.00  0.00     0.001 A 
ATOM     74  C   UNL A   1      51.393  26.079  26.772  1.00  0.00     0.001 A 
ATOM     75  C   UNL A   1      51.409  26.105  25.374  1.00  0.00     0.000 A 
ENDBRANCH  51  70
BRANCH  63  76
ATOM     76  C   UNL A   1      44.338  32.732  26.664  1.00  0.00    -0.014 A 
ATOM     77  C   UNL A   1      43.966  33.138  25.376  1.00  0.00     0.009 A 
ATOM     78  C   UNL A   1      44.260  33.698  27.686  1.00  0.00     0.009 A 
ATOM     79  C   UNL A   1      43.634  34.462  25.098  1.00  0.00     0.001 A 
ATOM     80  C   UNL A   1      43.869  35.008  27.426  1.00  0.00     0.001 A 
ATOM     81  C   UNL A   1      43.576  35.394  26.127  1.00  0.00     0.000 A 
ENDBRANCH  63  76
ENDBRANCH  37  38
ENDBRANCH  30  32
ENDBRANCH  29  30
ENDBRANCH  28  29
ENDBRANCH  27  28
ENDBRANCH  26  27
ENDBRANCH   1  26
TORSDOF 17
ENDMDL
