MODEL 1
REMARK VINA RESULT:     -11.6      0.000      0.000
REMARK SMILES CS(=O)(=O)c1ccc(C2=NN(c3ccc(C(=O)OCCOCCOC(=O)c4ccc(-c5c6nc(c(-c7ccccc7)c7ccc([nH]7)c(-c7ccccc7)c7nc(c(-c8ccccc8)c8ccc5[nH]8)C=C7)C=C6)cc4)cc3)[C@H](c3ccc(Cl)cc3)C2)cc1
REMARK SMILES IDX 20 1 19 2 18 3 16 4 17 5 15 6 12 7 13 8 76 9 14 10 75 11
REMARK SMILES IDX 11 12 9 13 10 14 85 15 77 16 8 17 5 18 6 19 87 20 7 21 86 22
REMARK SMILES IDX 2 23 1 24 3 25 4 26 78 27 79 28 84 29 80 30 83 31 81 32
REMARK SMILES IDX 82 33 21 34 22 35 23 36 24 37 25 38 26 39 27 40 28 41 74 42
REMARK SMILES IDX 29 43 73 44 30 45 31 46 32 47 67 48 33 49 72 50 66 51 68 52
REMARK SMILES IDX 34 53 71 54 65 55 64 56 35 58 57 59 42 60 56 61 43 62 46 63
REMARK SMILES IDX 55 64 69 65 44 66 45 67 54 69 70 70 47 71 36 72 37 73 41 74
REMARK SMILES IDX 38 75 40 76 39 77 58 78 59 79 63 80 60 81 62 82 61 83 48 84
REMARK SMILES IDX 49 85 53 86 50 87 52 88 51 89
REMARK H PARENT 68 57 46 68
REMARK Flexibility Score: inf
ROOT
ATOM      1  C   UNL A   1      42.281  20.924  26.650  1.00  0.00     0.202 C 
ENDROOT
BRANCH   1   2
ATOM      2  C   UNL A   1      40.765  20.875  26.862  1.00  0.00     0.261 C 
BRANCH   2   3
ATOM      3  O   UNL A   1      40.090  21.715  25.911  1.00  0.00    -0.460 OA
BRANCH   3   4
ATOM      4  C   UNL A   1      39.576  22.862  26.415  1.00  0.00     0.338 C 
ATOM      5  O   UNL A   1      40.192  23.743  26.995  1.00  0.00    -0.246 OA
BRANCH   4   6
ATOM      6  C   UNL A   1      38.135  22.981  26.075  1.00  0.00     0.060 A 
ATOM      7  C   UNL A   1      35.472  23.186  25.202  1.00  0.00     0.060 A 
ATOM      8  C   UNL A   1      36.248  22.078  24.848  1.00  0.00     0.029 A 
ATOM      9  C   UNL A   1      36.011  24.131  26.089  1.00  0.00     0.029 A 
ATOM     10  C   UNL A   1      37.574  21.979  25.271  1.00  0.00     0.018 A 
ATOM     11  C   UNL A   1      37.338  24.038  26.521  1.00  0.00     0.018 A 
BRANCH   7  12
ATOM     12  N   UNL A   1      34.245  23.445  24.572  1.00  0.00    -0.257 N 
ATOM     13  C   UNL A   1      32.669  24.869  24.316  1.00  0.00     0.071 C 
ATOM     14  N   UNL A   1      33.952  24.722  24.188  1.00  0.00    -0.176 NA
ATOM     15  C   UNL A   1      31.928  23.715  24.928  1.00  0.00     0.091 C 
ATOM     16  C   UNL A   1      33.075  22.715  25.102  1.00  0.00     0.144 C 
BRANCH  13  17
ATOM     17  C   UNL A   1      31.948  26.071  23.865  1.00  0.00    -0.002 A 
ATOM     18  C   UNL A   1      30.465  28.319  23.164  1.00  0.00     0.067 A 
ATOM     19  C   UNL A   1      29.862  27.059  23.130  1.00  0.00     0.021 A 
ATOM     20  C   UNL A   1      31.810  28.461  23.529  1.00  0.00     0.021 A 
ATOM     21  C   UNL A   1      30.614  25.930  23.464  1.00  0.00     0.011 A 
ATOM     22  C   UNL A   1      32.551  27.332  23.892  1.00  0.00     0.011 A 
BRANCH  18  23
ATOM     23  S   UNL A   1      29.499  29.767  22.795  1.00  0.00     0.175 S 
ATOM     24  C   UNL A   1      27.810  29.235  22.870  1.00  0.00     0.163 C 
ATOM     25  O   UNL A   1      29.774  30.132  21.418  1.00  0.00    -0.224 OA
ATOM     26  O   UNL A   1      29.734  30.702  23.878  1.00  0.00    -0.224 OA
ENDBRANCH  18  23
ENDBRANCH  13  17
BRANCH  16  27
ATOM     27  C   UNL A   1      32.944  21.356  24.429  1.00  0.00    -0.023 A 
ATOM     28  C   UNL A   1      33.227  20.142  25.071  1.00  0.00     0.007 A 
ATOM     29  C   UNL A   1      32.425  21.304  23.118  1.00  0.00     0.007 A 
ATOM     30  C   UNL A   1      32.997  18.921  24.426  1.00  0.00     0.021 A 
ATOM     31  C   UNL A   1      32.159  20.087  22.488  1.00  0.00     0.021 A 
ATOM     32  C   UNL A   1      32.450  18.898  23.146  1.00  0.00     0.041 A 
ATOM     33  Cl  UNL A   1      32.111  17.395  22.382  1.00  0.00    -0.084 Cl
ENDBRANCH  16  27
ENDBRANCH   7  12
ENDBRANCH   4   6
ENDBRANCH   3   4
ENDBRANCH   2   3
ENDBRANCH   1   2
BRANCH   1  34
ATOM     34  O   UNL A   1      42.722  21.418  25.385  1.00  0.00    -0.374 OA
BRANCH  34  35
ATOM     35  C   UNL A   1      44.131  21.512  25.176  1.00  0.00     0.202 C 
BRANCH  35  36
ATOM     36  C   UNL A   1      44.597  22.532  24.131  1.00  0.00     0.261 C 
BRANCH  36  37
ATOM     37  O   UNL A   1      44.214  23.876  24.475  1.00  0.00    -0.460 OA
BRANCH  37  38
ATOM     38  C   UNL A   1      44.962  24.447  25.447  1.00  0.00     0.338 C 
ATOM     39  O   UNL A   1      46.182  24.475  25.527  1.00  0.00    -0.246 OA
BRANCH  38  40
ATOM     40  C   UNL A   1      44.099  25.211  26.365  1.00  0.00     0.060 A 
ATOM     41  C   UNL A   1      44.139  26.609  26.277  1.00  0.00     0.016 A 
ATOM     42  C   UNL A   1      43.324  24.585  27.343  1.00  0.00     0.016 A 
ATOM     43  C   UNL A   1      43.443  27.387  27.198  1.00  0.00     0.010 A 
ATOM     44  C   UNL A   1      42.631  25.368  28.273  1.00  0.00     0.010 A 
ATOM     45  C   UNL A   1      42.716  26.771  28.226  1.00  0.00    -0.014 A 
BRANCH  45  46
ATOM     46  C   UNL A   1      42.161  27.597  29.326  1.00  0.00     0.031 A 
ATOM     47  C   UNL A   1      42.876  27.630  30.649  1.00  0.00     0.074 A 
ATOM     48  C   UNL A   1      41.050  28.333  29.141  1.00  0.00     0.049 A 
ATOM     49  N   UNL A   1      42.555  28.263  31.749  1.00  0.00    -0.248 NA
ATOM     50  C   UNL A   1      44.119  26.846  30.745  1.00  0.00     0.031 C 
ATOM     51  C   UNL A   1      40.292  28.423  27.895  1.00  0.00     0.029 A 
ATOM     52  N   UNL A   1      40.369  29.146  30.011  1.00  0.00    -0.354 N 
ATOM     53  C   UNL A   1      43.549  27.951  32.667  1.00  0.00     0.074 A 
ATOM     54  C   UNL A   1      44.470  27.051  32.006  1.00  0.00     0.031 C 
ATOM     55  C   UNL A   1      39.242  29.242  28.084  1.00  0.00     0.029 A 
ATOM     56  C   UNL A   1      39.239  29.706  29.470  1.00  0.00     0.049 A 
ATOM     57  H   UNL A   1      40.663  29.312  30.937  1.00  0.00     0.167 HD
ATOM     58  C   UNL A   1      43.689  28.380  33.944  1.00  0.00     0.031 A 
ATOM     59  C   UNL A   1      38.299  30.488  30.034  1.00  0.00     0.031 A 
ATOM     60  C   UNL A   1      42.770  29.265  34.609  1.00  0.00     0.049 A 
ATOM     61  C   UNL A   1      38.434  30.884  31.480  1.00  0.00     0.074 A 
ATOM     62  C   UNL A   1      42.834  29.764  35.898  1.00  0.00     0.029 A 
ATOM     63  N   UNL A   1      41.617  29.777  34.037  1.00  0.00    -0.354 N 
ATOM     64  N   UNL A   1      39.392  30.603  32.329  1.00  0.00    -0.248 NA
ATOM     65  C   UNL A   1      37.358  31.714  32.042  1.00  0.00     0.031 C 
ATOM     66  C   UNL A   1      41.691  30.537  36.124  1.00  0.00     0.029 A 
ATOM     67  C   UNL A   1      40.946  30.565  34.956  1.00  0.00     0.049 A 
ATOM     68  H   UNL A   1      41.319  29.606  33.114  1.00  0.00     0.167 HD
ATOM     69  C   UNL A   1      39.049  31.243  33.514  1.00  0.00     0.074 A 
ATOM     70  C   UNL A   1      37.804  31.939  33.270  1.00  0.00     0.031 C 
ATOM     71  C   UNL A   1      39.709  31.254  34.699  1.00  0.00     0.031 A 
BRANCH  58  72
ATOM     72  C   UNL A   1      44.871  27.872  34.720  1.00  0.00    -0.014 A 
ATOM     73  C   UNL A   1      44.798  26.684  35.464  1.00  0.00     0.009 A 
ATOM     74  C   UNL A   1      46.088  28.570  34.671  1.00  0.00     0.009 A 
ATOM     75  C   UNL A   1      45.914  26.220  36.166  1.00  0.00     0.001 A 
ATOM     76  C   UNL A   1      47.207  28.090  35.352  1.00  0.00     0.001 A 
ATOM     77  C   UNL A   1      47.118  26.920  36.105  1.00  0.00     0.000 A 
ENDBRANCH  58  72
BRANCH  59  78
ATOM     78  C   UNL A   1      37.122  30.932  29.241  1.00  0.00    -0.014 A 
ATOM     79  C   UNL A   1      36.095  30.033  28.915  1.00  0.00     0.009 A 
ATOM     80  C   UNL A   1      37.038  32.254  28.777  1.00  0.00     0.009 A 
ATOM     81  C   UNL A   1      35.024  30.442  28.116  1.00  0.00     0.001 A 
ATOM     82  C   UNL A   1      35.952  32.668  28.003  1.00  0.00     0.001 A 
ATOM     83  C   UNL A   1      34.952  31.758  27.665  1.00  0.00     0.000 A 
ENDBRANCH  59  78
BRANCH  71  84
ATOM     84  C   UNL A   1      39.116  32.075  35.809  1.00  0.00    -0.014 A 
ATOM     85  C   UNL A   1      38.178  31.530  36.700  1.00  0.00     0.009 A 
ATOM     86  C   UNL A   1      39.536  33.402  35.991  1.00  0.00     0.009 A 
ATOM     87  C   UNL A   1      37.649  32.310  37.730  1.00  0.00     0.001 A 
ATOM     88  C   UNL A   1      39.026  34.170  37.040  1.00  0.00     0.001 A 
ATOM     89  C   UNL A   1      38.076  33.626  37.902  1.00  0.00     0.000 A 
ENDBRANCH  71  84
ENDBRANCH  45  46
ENDBRANCH  38  40
ENDBRANCH  37  38
ENDBRANCH  36  37
ENDBRANCH  35  36
ENDBRANCH  34  35
ENDBRANCH   1  34
TORSDOF 18
ENDMDL
MODEL 2
REMARK VINA RESULT:     -11.3      4.497     10.276
REMARK SMILES CS(=O)(=O)c1ccc(C2=NN(c3ccc(C(=O)OCCOCCOC(=O)c4ccc(-c5c6nc(c(-c7ccccc7)c7ccc([nH]7)c(-c7ccccc7)c7nc(c(-c8ccccc8)c8ccc5[nH]8)C=C7)C=C6)cc4)cc3)[C@H](c3ccc(Cl)cc3)C2)cc1
REMARK SMILES IDX 20 1 19 2 18 3 16 4 17 5 15 6 12 7 13 8 76 9 14 10 75 11
REMARK SMILES IDX 11 12 9 13 10 14 85 15 77 16 8 17 5 18 6 19 87 20 7 21 86 22
REMARK SMILES IDX 2 23 1 24 3 25 4 26 78 27 79 28 84 29 80 30 83 31 81 32
REMARK SMILES IDX 82 33 21 34 22 35 23 36 24 37 25 38 26 39 27 40 28 41 74 42
REMARK SMILES IDX 29 43 73 44 30 45 31 46 32 47 67 48 33 49 72 50 66 51 68 52
REMARK SMILES IDX 34 53 71 54 65 55 64 56 35 58 57 59 42 60 56 61 43 62 46 63
REMARK SMILES IDX 55 64 69 65 44 66 45 67 54 69 70 70 47 71 36 72 37 73 41 74
REMARK SMILES IDX 38 75 40 76 39 77 58 78 59 79 63 80 60 81 62 82 61 83 48 84
REMARK SMILES IDX 49 85 53 86 50 87 52 88 51 89
REMARK H PARENT 68 57 46 68
REMARK Flexibility Score: inf
ROOT
ATOM      1  C   UNL A   1      35.715  32.258  29.787  1.00  0.00     0.202 C 
ENDROOT
BRANCH   1   2
ATOM      2  C   UNL A   1      35.770  30.917  29.048  1.00  0.00     0.261 C 
BRANCH   2   3
ATOM      3  O   UNL A   1      35.327  31.066  27.690  1.00  0.00    -0.460 OA
BRANCH   3   4
ATOM      4  C   UNL A   1      33.986  31.008  27.509  1.00  0.00     0.338 C 
ATOM      5  O   UNL A   1      33.205  31.947  27.548  1.00  0.00    -0.246 OA
BRANCH   4   6
ATOM      6  C   UNL A   1      33.569  29.633  27.137  1.00  0.00     0.060 A 
ATOM      7  C   UNL A   1      32.826  27.087  26.206  1.00  0.00     0.060 A 
ATOM      8  C   UNL A   1      34.100  27.595  25.932  1.00  0.00     0.029 A 
ATOM      9  C   UNL A   1      31.973  27.821  27.044  1.00  0.00     0.029 A 
ATOM     10  C   UNL A   1      34.467  28.864  26.384  1.00  0.00     0.018 A 
ATOM     11  C   UNL A   1      32.334  29.092  27.504  1.00  0.00     0.018 A 
BRANCH   7  12
ATOM     12  N   UNL A   1      32.338  25.952  25.539  1.00  0.00    -0.257 N 
ATOM     13  C   UNL A   1      32.807  23.980  24.857  1.00  0.00     0.071 C 
ATOM     14  N   UNL A   1      32.773  24.717  25.924  1.00  0.00    -0.176 NA
ATOM     15  C   UNL A   1      32.501  24.675  23.562  1.00  0.00     0.091 C 
ATOM     16  C   UNL A   1      32.172  26.080  24.077  1.00  0.00     0.144 C 
BRANCH  13  17
ATOM     17  C   UNL A   1      33.092  22.535  24.886  1.00  0.00    -0.002 A 
ATOM     18  C   UNL A   1      33.571  19.797  24.754  1.00  0.00     0.067 A 
ATOM     19  C   UNL A   1      32.264  20.275  24.620  1.00  0.00     0.021 A 
ATOM     20  C   UNL A   1      34.637  20.679  24.971  1.00  0.00     0.021 A 
ATOM     21  C   UNL A   1      32.024  21.648  24.705  1.00  0.00     0.011 A 
ATOM     22  C   UNL A   1      34.397  22.055  25.026  1.00  0.00     0.011 A 
BRANCH  18  23
ATOM     23  S   UNL A   1      33.893  18.055  24.589  1.00  0.00     0.175 S 
ATOM     24  C   UNL A   1      33.102  17.573  23.078  1.00  0.00     0.163 C 
ATOM     25  O   UNL A   1      33.199  17.383  25.671  1.00  0.00    -0.224 OA
ATOM     26  O   UNL A   1      35.327  17.918  24.420  1.00  0.00    -0.224 OA
ENDBRANCH  18  23
ENDBRANCH  13  17
BRANCH  16  27
ATOM     27  C   UNL A   1      30.804  26.659  23.744  1.00  0.00    -0.023 A 
ATOM     28  C   UNL A   1      29.594  26.027  24.066  1.00  0.00     0.007 A 
ATOM     29  C   UNL A   1      30.743  27.943  23.160  1.00  0.00     0.007 A 
ATOM     30  C   UNL A   1      28.370  26.657  23.816  1.00  0.00     0.021 A 
ATOM     31  C   UNL A   1      29.525  28.588  22.945  1.00  0.00     0.021 A 
ATOM     32  C   UNL A   1      28.339  27.939  23.272  1.00  0.00     0.041 A 
ATOM     33  Cl  UNL A   1      26.835  28.733  23.025  1.00  0.00    -0.084 Cl
ENDBRANCH  16  27
ENDBRANCH   7  12
ENDBRANCH   4   6
ENDBRANCH   3   4
ENDBRANCH   2   3
ENDBRANCH   1   2
BRANCH   1  34
ATOM     34  O   UNL A   1      34.919  32.290  30.971  1.00  0.00    -0.374 OA
BRANCH  34  35
ATOM     35  C   UNL A   1      35.551  32.738  32.172  1.00  0.00     0.202 C 
BRANCH  35  36
ATOM     36  C   UNL A   1      37.028  32.364  32.343  1.00  0.00     0.261 C 
BRANCH  36  37
ATOM     37  O   UNL A   1      37.197  31.140  33.080  1.00  0.00    -0.460 OA
BRANCH  37  38
ATOM     38  C   UNL A   1      37.348  30.035  32.315  1.00  0.00     0.338 C 
ATOM     39  O   UNL A   1      36.474  29.267  31.936  1.00  0.00    -0.246 OA
BRANCH  38  40
ATOM     40  C   UNL A   1      38.736  29.943  31.828  1.00  0.00     0.060 A 
ATOM     41  C   UNL A   1      38.973  30.257  30.483  1.00  0.00     0.016 A 
ATOM     42  C   UNL A   1      39.775  29.487  32.643  1.00  0.00     0.016 A 
ATOM     43  C   UNL A   1      40.238  30.069  29.934  1.00  0.00     0.010 A 
ATOM     44  C   UNL A   1      41.044  29.291  32.087  1.00  0.00     0.010 A 
ATOM     45  C   UNL A   1      41.272  29.548  30.723  1.00  0.00    -0.014 A 
BRANCH  45  46
ATOM     46  C   UNL A   1      42.549  29.146  30.084  1.00  0.00     0.031 A 
ATOM     47  C   UNL A   1      42.634  27.813  29.394  1.00  0.00     0.074 A 
ATOM     48  C   UNL A   1      43.611  29.972  30.091  1.00  0.00     0.049 A 
ATOM     49  N   UNL A   1      43.655  27.254  28.793  1.00  0.00    -0.248 NA
ATOM     50  C   UNL A   1      41.407  27.001  29.378  1.00  0.00     0.031 C 
ATOM     51  C   UNL A   1      43.643  31.307  30.684  1.00  0.00     0.029 A 
ATOM     52  N   UNL A   1      44.872  29.799  29.578  1.00  0.00    -0.354 N 
ATOM     53  C   UNL A   1      43.195  26.026  28.334  1.00  0.00     0.074 A 
ATOM     54  C   UNL A   1      41.814  25.908  28.748  1.00  0.00     0.031 C 
ATOM     55  C   UNL A   1      44.868  31.832  30.508  1.00  0.00     0.029 A 
ATOM     56  C   UNL A   1      45.713  30.858  29.819  1.00  0.00     0.049 A 
ATOM     57  H   UNL A   1      45.149  28.993  29.084  1.00  0.00     0.167 HD
ATOM     58  C   UNL A   1      43.860  25.084  27.624  1.00  0.00     0.031 A 
ATOM     59  C   UNL A   1      47.019  31.014  29.534  1.00  0.00     0.031 A 
ATOM     60  C   UNL A   1      45.237  25.192  27.220  1.00  0.00     0.049 A 
ATOM     61  C   UNL A   1      47.758  29.916  28.816  1.00  0.00     0.074 A 
ATOM     62  C   UNL A   1      45.994  24.294  26.488  1.00  0.00     0.029 A 
ATOM     63  N   UNL A   1      46.063  26.263  27.519  1.00  0.00    -0.354 N 
ATOM     64  N   UNL A   1      47.305  28.771  28.365  1.00  0.00    -0.248 NA
ATOM     65  C   UNL A   1      49.190  30.138  28.561  1.00  0.00     0.031 C 
ATOM     66  C   UNL A   1      47.294  24.797  26.391  1.00  0.00     0.029 A 
ATOM     67  C   UNL A   1      47.330  26.036  27.011  1.00  0.00     0.049 A 
ATOM     68  H   UNL A   1      45.790  27.066  28.019  1.00  0.00     0.167 HD
ATOM     69  C   UNL A   1      48.387  28.151  27.751  1.00  0.00     0.074 A 
ATOM     70  C   UNL A   1      49.513  29.052  27.873  1.00  0.00     0.031 C 
ATOM     71  C   UNL A   1      48.441  26.943  27.138  1.00  0.00     0.031 A 
BRANCH  58  72
ATOM     72  C   UNL A   1      43.111  23.833  27.261  1.00  0.00    -0.014 A 
ATOM     73  C   UNL A   1      42.555  23.662  25.984  1.00  0.00     0.009 A 
ATOM     74  C   UNL A   1      42.997  22.794  28.198  1.00  0.00     0.009 A 
ATOM     75  C   UNL A   1      41.877  22.484  25.661  1.00  0.00     0.001 A 
ATOM     76  C   UNL A   1      42.341  21.609  27.863  1.00  0.00     0.001 A 
ATOM     77  C   UNL A   1      41.775  21.457  26.598  1.00  0.00     0.000 A 
ENDBRANCH  58  72
BRANCH  59  78
ATOM     78  C   UNL A   1      47.732  32.250  29.950  1.00  0.00    -0.014 A 
ATOM     79  C   UNL A   1      48.415  32.307  31.175  1.00  0.00     0.009 A 
ATOM     80  C   UNL A   1      47.705  33.393  29.136  1.00  0.00     0.009 A 
ATOM     81  C   UNL A   1      49.029  33.493  31.588  1.00  0.00     0.001 A 
ATOM     82  C   UNL A   1      48.345  34.568  29.538  1.00  0.00     0.001 A 
ATOM     83  C   UNL A   1      48.996  34.619  30.768  1.00  0.00     0.000 A 
ENDBRANCH  59  78
BRANCH  71  84
ATOM     84  C   UNL A   1      49.752  26.542  26.520  1.00  0.00    -0.014 A 
ATOM     85  C   UNL A   1      50.706  25.810  27.242  1.00  0.00     0.009 A 
ATOM     86  C   UNL A   1      50.014  26.867  25.180  1.00  0.00     0.009 A 
ATOM     87  C   UNL A   1      51.912  25.440  26.643  1.00  0.00     0.001 A 
ATOM     88  C   UNL A   1      51.208  26.472  24.575  1.00  0.00     0.001 A 
ATOM     89  C   UNL A   1      52.160  25.767  25.309  1.00  0.00     0.000 A 
ENDBRANCH  71  84
ENDBRANCH  45  46
ENDBRANCH  38  40
ENDBRANCH  37  38
ENDBRANCH  36  37
ENDBRANCH  35  36
ENDBRANCH  34  35
ENDBRANCH   1  34
TORSDOF 18
ENDMDL
MODEL 3
REMARK VINA RESULT:     -10.7      5.638     10.263
REMARK SMILES CS(=O)(=O)c1ccc(C2=NN(c3ccc(C(=O)OCCOCCOC(=O)c4ccc(-c5c6nc(c(-c7ccccc7)c7ccc([nH]7)c(-c7ccccc7)c7nc(c(-c8ccccc8)c8ccc5[nH]8)C=C7)C=C6)cc4)cc3)[C@H](c3ccc(Cl)cc3)C2)cc1
REMARK SMILES IDX 20 1 19 2 18 3 16 4 17 5 15 6 12 7 13 8 76 9 14 10 75 11
REMARK SMILES IDX 11 12 9 13 10 14 85 15 77 16 8 17 5 18 6 19 87 20 7 21 86 22
REMARK SMILES IDX 2 23 1 24 3 25 4 26 78 27 79 28 84 29 80 30 83 31 81 32
REMARK SMILES IDX 82 33 21 34 22 35 23 36 24 37 25 38 26 39 27 40 28 41 74 42
REMARK SMILES IDX 29 43 73 44 30 45 31 46 32 47 67 48 33 49 72 50 66 51 68 52
REMARK SMILES IDX 34 53 71 54 65 55 64 56 35 58 57 59 42 60 56 61 43 62 46 63
REMARK SMILES IDX 55 64 69 65 44 66 45 67 54 69 70 70 47 71 36 72 37 73 41 74
REMARK SMILES IDX 38 75 40 76 39 77 58 78 59 79 63 80 60 81 62 82 61 83 48 84
REMARK SMILES IDX 49 85 53 86 50 87 52 88 51 89
REMARK H PARENT 68 57 46 68
REMARK Flexibility Score: inf
ROOT
ATOM      1  C   UNL A   1      36.918  31.704  29.596  1.00  0.00     0.202 C 
ENDROOT
BRANCH   1   2
ATOM      2  C   UNL A   1      36.337  31.934  28.198  1.00  0.00     0.261 C 
BRANCH   2   3
ATOM      3  O   UNL A   1      35.629  30.770  27.742  1.00  0.00    -0.460 OA
BRANCH   3   4
ATOM      4  C   UNL A   1      34.280  30.883  27.723  1.00  0.00     0.338 C 
ATOM      5  O   UNL A   1      33.629  31.877  28.010  1.00  0.00    -0.246 OA
BRANCH   4   6
ATOM      6  C   UNL A   1      33.660  29.644  27.190  1.00  0.00     0.060 A 
ATOM      7  C   UNL A   1      32.590  27.348  25.973  1.00  0.00     0.060 A 
ATOM      8  C   UNL A   1      33.972  27.561  25.987  1.00  0.00     0.029 A 
ATOM      9  C   UNL A   1      31.763  28.241  26.672  1.00  0.00     0.029 A 
ATOM     10  C   UNL A   1      34.505  28.706  26.581  1.00  0.00     0.018 A 
ATOM     11  C   UNL A   1      32.289  29.389  27.274  1.00  0.00     0.018 A 
BRANCH   7  12
ATOM     12  N   UNL A   1      32.015  26.365  25.153  1.00  0.00    -0.257 N 
ATOM     13  C   UNL A   1      32.227  24.382  24.377  1.00  0.00     0.071 C 
ATOM     14  N   UNL A   1      32.164  25.050  25.488  1.00  0.00    -0.176 NA
ATOM     15  C   UNL A   1      32.243  25.196  23.116  1.00  0.00     0.091 C 
ATOM     16  C   UNL A   1      32.093  26.606  23.698  1.00  0.00     0.144 C 
BRANCH  13  17
ATOM     17  C   UNL A   1      32.245  22.911  24.323  1.00  0.00    -0.002 A 
ATOM     18  C   UNL A   1      32.443  20.143  24.111  1.00  0.00     0.067 A 
ATOM     19  C   UNL A   1      32.212  20.907  22.964  1.00  0.00     0.021 A 
ATOM     20  C   UNL A   1      32.559  20.753  25.367  1.00  0.00     0.021 A 
ATOM     21  C   UNL A   1      32.094  22.294  23.075  1.00  0.00     0.011 A 
ATOM     22  C   UNL A   1      32.471  22.145  25.470  1.00  0.00     0.011 A 
BRANCH  18  23
ATOM     23  S   UNL A   1      32.651  18.382  23.970  1.00  0.00     0.175 S 
ATOM     24  C   UNL A   1      34.364  18.083  24.310  1.00  0.00     0.163 C 
ATOM     25  O   UNL A   1      32.421  18.029  22.581  1.00  0.00    -0.224 OA
ATOM     26  O   UNL A   1      31.862  17.790  25.033  1.00  0.00    -0.224 OA
ENDBRANCH  18  23
ENDBRANCH  13  17
BRANCH  16  27
ATOM     27  C   UNL A   1      30.913  27.447  23.232  1.00  0.00    -0.023 A 
ATOM     28  C   UNL A   1      29.579  27.161  23.558  1.00  0.00     0.007 A 
ATOM     29  C   UNL A   1      31.177  28.630  22.509  1.00  0.00     0.007 A 
ATOM     30  C   UNL A   1      28.548  28.027  23.176  1.00  0.00     0.021 A 
ATOM     31  C   UNL A   1      30.154  29.514  22.162  1.00  0.00     0.021 A 
ATOM     32  C   UNL A   1      28.840  29.207  22.495  1.00  0.00     0.041 A 
ATOM     33  Cl  UNL A   1      27.577  30.298  22.084  1.00  0.00    -0.084 Cl
ENDBRANCH  16  27
ENDBRANCH   7  12
ENDBRANCH   4   6
ENDBRANCH   3   4
ENDBRANCH   2   3
ENDBRANCH   1   2
BRANCH   1  34
ATOM     34  O   UNL A   1      36.020  31.168  30.568  1.00  0.00    -0.374 OA
BRANCH  34  35
ATOM     35  C   UNL A   1      35.342  32.097  31.414  1.00  0.00     0.202 C 
BRANCH  35  36
ATOM     36  C   UNL A   1      35.738  33.569  31.263  1.00  0.00     0.261 C 
BRANCH  36  37
ATOM     37  O   UNL A   1      36.175  34.145  32.507  1.00  0.00    -0.460 OA
BRANCH  37  38
ATOM     38  C   UNL A   1      37.512  34.328  32.608  1.00  0.00     0.338 C 
ATOM     39  O   UNL A   1      38.254  34.856  31.791  1.00  0.00    -0.246 OA
BRANCH  38  40
ATOM     40  C   UNL A   1      37.975  33.943  33.953  1.00  0.00     0.060 A 
ATOM     41  C   UNL A   1      38.834  34.828  34.619  1.00  0.00     0.016 A 
ATOM     42  C   UNL A   1      37.642  32.714  34.525  1.00  0.00     0.016 A 
ATOM     43  C   UNL A   1      39.404  34.465  35.836  1.00  0.00     0.010 A 
ATOM     44  C   UNL A   1      38.222  32.347  35.745  1.00  0.00     0.010 A 
ATOM     45  C   UNL A   1      39.131  33.206  36.388  1.00  0.00    -0.014 A 
BRANCH  45  46
ATOM     46  C   UNL A   1      39.905  32.739  37.564  1.00  0.00     0.031 A 
ATOM     47  C   UNL A   1      41.345  32.347  37.384  1.00  0.00     0.074 A 
ATOM     48  C   UNL A   1      39.340  32.694  38.784  1.00  0.00     0.049 A 
ATOM     49  N   UNL A   1      42.197  31.892  38.269  1.00  0.00    -0.248 NA
ATOM     50  C   UNL A   1      41.901  32.489  36.029  1.00  0.00     0.031 C 
ATOM     51  C   UNL A   1      37.969  33.090  39.099  1.00  0.00     0.029 A 
ATOM     52  N   UNL A   1      39.861  32.290  39.989  1.00  0.00    -0.354 N 
ATOM     53  C   UNL A   1      43.384  31.687  37.577  1.00  0.00     0.074 A 
ATOM     54  C   UNL A   1      43.138  32.041  36.196  1.00  0.00     0.031 C 
ATOM     55  C   UNL A   1      37.753  32.902  40.413  1.00  0.00     0.029 A 
ATOM     56  C   UNL A   1      38.959  32.343  41.022  1.00  0.00     0.049 A 
ATOM     57  H   UNL A   1      40.793  31.990  40.101  1.00  0.00     0.167 HD
ATOM     58  C   UNL A   1      44.576  31.251  38.050  1.00  0.00     0.031 A 
ATOM     59  C   UNL A   1      39.087  31.967  42.309  1.00  0.00     0.031 A 
ATOM     60  C   UNL A   1      44.823  30.886  39.419  1.00  0.00     0.049 A 
ATOM     61  C   UNL A   1      40.398  31.407  42.791  1.00  0.00     0.074 A 
ATOM     62  C   UNL A   1      46.001  30.443  39.995  1.00  0.00     0.029 A 
ATOM     63  N   UNL A   1      43.871  30.917  40.426  1.00  0.00    -0.354 N 
ATOM     64  N   UNL A   1      41.520  31.243  42.133  1.00  0.00    -0.248 NA
ATOM     65  C   UNL A   1      40.461  30.988  44.199  1.00  0.00     0.031 C 
ATOM     66  C   UNL A   1      45.748  30.156  41.339  1.00  0.00     0.029 A 
ATOM     67  C   UNL A   1      44.428  30.475  41.613  1.00  0.00     0.049 A 
ATOM     68  H   UNL A   1      42.938  31.210  40.314  1.00  0.00     0.167 HD
ATOM     69  C   UNL A   1      42.427  30.729  43.052  1.00  0.00     0.074 A 
ATOM     70  C   UNL A   1      41.730  30.623  44.316  1.00  0.00     0.031 C 
ATOM     71  C   UNL A   1      43.723  30.377  42.864  1.00  0.00     0.031 A 
BRANCH  58  72
ATOM     72  C   UNL A   1      45.704  31.115  37.066  1.00  0.00    -0.014 A 
ATOM     73  C   UNL A   1      45.899  29.930  36.340  1.00  0.00     0.009 A 
ATOM     74  C   UNL A   1      46.558  32.205  36.832  1.00  0.00     0.009 A 
ATOM     75  C   UNL A   1      46.944  29.830  35.418  1.00  0.00     0.001 A 
ATOM     76  C   UNL A   1      47.584  32.110  35.892  1.00  0.00     0.001 A 
ATOM     77  C   UNL A   1      47.782  30.922  35.191  1.00  0.00     0.000 A 
ENDBRANCH  58  72
BRANCH  59  78
ATOM     78  C   UNL A   1      37.931  32.078  43.238  1.00  0.00    -0.014 A 
ATOM     79  C   UNL A   1      37.698  33.261  43.955  1.00  0.00     0.009 A 
ATOM     80  C   UNL A   1      37.074  30.984  43.437  1.00  0.00     0.009 A 
ATOM     81  C   UNL A   1      36.647  33.336  44.874  1.00  0.00     0.001 A 
ATOM     82  C   UNL A   1      36.007  31.071  44.334  1.00  0.00     0.001 A 
ATOM     83  C   UNL A   1      35.802  32.243  45.059  1.00  0.00     0.000 A 
ENDBRANCH  59  78
BRANCH  71  84
ATOM     84  C   UNL A   1      44.483  29.881  44.064  1.00  0.00    -0.014 A 
ATOM     85  C   UNL A   1      44.584  28.511  44.348  1.00  0.00     0.009 A 
ATOM     86  C   UNL A   1      45.141  30.800  44.896  1.00  0.00     0.009 A 
ATOM     87  C   UNL A   1      45.304  28.074  45.462  1.00  0.00     0.001 A 
ATOM     88  C   UNL A   1      45.884  30.358  45.992  1.00  0.00     0.001 A 
ATOM     89  C   UNL A   1      45.956  28.996  46.280  1.00  0.00     0.000 A 
ENDBRANCH  71  84
ENDBRANCH  45  46
ENDBRANCH  38  40
ENDBRANCH  37  38
ENDBRANCH  36  37
ENDBRANCH  35  36
ENDBRANCH  34  35
ENDBRANCH   1  34
TORSDOF 18
ENDMDL
