MODEL 1
REMARK VINA RESULT:     -10.8      0.000      0.000
REMARK SMILES O=C(CCN1C(=O)S/C(=C\c2ccccc2F)C1=O)Nc1ccc(C(=O)OCCOCCOC(=O)c2ccc(-c3c4nc(c(-c5ccccc5)c5ccc([nH]5)c(-c5ccccc5)c5nc(c(-c6ccccc6)c6ccc3[nH]6)C=C5)C=C4)cc2)c(O)c1
REMARK SMILES IDX 28 1 27 2 25 3 26 4 24 5 21 6 22 7 86 8 23 9 84 10 20 11
REMARK SMILES IDX 1 12 2 13 3 15 4 16 5 17 6 18 18 19 7 20 8 21 9 22 19 23
REMARK SMILES IDX 10 24 11 25 12 26 16 27 13 28 15 29 17 30 14 31 85 32 29 34
REMARK SMILES IDX 30 35 31 36 32 37 33 38 34 39 35 40 36 41 37 42 83 43 38 44
REMARK SMILES IDX 82 45 39 46 40 47 41 48 76 49 42 50 81 51 75 52 77 53 43 54
REMARK SMILES IDX 80 55 74 56 73 57 44 59 66 60 51 61 65 62 52 63 55 64 64 65
REMARK SMILES IDX 78 66 53 67 54 68 63 70 79 71 56 72 45 73 46 74 50 75 47 76
REMARK SMILES IDX 49 77 48 78 67 79 68 80 72 81 69 82 71 83 70 84 57 85 58 86
REMARK SMILES IDX 62 87 59 88 61 89 60 90
REMARK H PARENT 20 14 85 33 77 58 55 69
REMARK Flexibility Score: inf
ROOT
ATOM      1  C   UNL A   1      42.177  21.840  26.668  1.00  0.00     0.261 C 
ENDROOT
BRANCH   1   2
ATOM      2  O   UNL A   1      41.033  22.349  25.958  1.00  0.00    -0.460 OA
BRANCH   2   3
ATOM      3  C   UNL A   1      40.070  22.877  26.761  1.00  0.00     0.341 C 
ATOM      4  O   UNL A   1      40.246  23.558  27.756  1.00  0.00    -0.246 OA
BRANCH   3   5
ATOM      5  C   UNL A   1      38.737  22.670  26.149  1.00  0.00     0.101 A 
ATOM      6  C   UNL A   1      36.144  22.478  25.067  1.00  0.00     0.044 A 
ATOM      7  C   UNL A   1      36.610  23.692  25.578  1.00  0.00     0.027 A 
ATOM      8  C   UNL A   1      36.998  21.366  25.078  1.00  0.00     0.073 A 
ATOM      9  C   UNL A   1      37.889  23.783  26.128  1.00  0.00     0.022 A 
ATOM     10  C   UNL A   1      38.298  21.471  25.584  1.00  0.00     0.132 A 
BRANCH   6  11
ATOM     11  N   UNL A   1      34.816  22.297  24.619  1.00  0.00    -0.326 N 
ATOM     12  O   UNL A   1      34.788  23.592  22.707  1.00  0.00    -0.275 OA
ATOM     13  C   UNL A   1      34.194  23.011  23.615  1.00  0.00     0.226 C 
ATOM     14  H   UNL A   1      34.285  21.598  25.064  1.00  0.00     0.169 HD
BRANCH  13  15
ATOM     15  C   UNL A   1      32.682  23.156  23.720  1.00  0.00     0.122 C 
BRANCH  15  16
ATOM     16  C   UNL A   1      31.920  23.838  22.590  1.00  0.00     0.140 C 
BRANCH  16  17
ATOM     17  N   UNL A   1      31.182  25.058  22.898  1.00  0.00    -0.268 N 
ATOM     18  C   UNL A   1      30.401  25.220  24.014  1.00  0.00     0.293 C 
ATOM     19  C   UNL A   1      31.445  26.214  22.186  1.00  0.00     0.268 C 
ATOM     20  O   UNL A   1      30.282  24.468  24.961  1.00  0.00    -0.261 OA
ATOM     21  S   UNL A   1      29.527  26.727  23.894  1.00  0.00    -0.022 SA
ATOM     22  C   UNL A   1      30.580  27.323  22.670  1.00  0.00     0.083 C 
ATOM     23  O   UNL A   1      32.259  26.327  21.282  1.00  0.00    -0.268 OA
ATOM     24  C   UNL A   1      30.641  28.566  22.168  1.00  0.00     0.032 C 
BRANCH  24  25
ATOM     25  C   UNL A   1      29.735  29.666  22.533  1.00  0.00     0.012 A 
ATOM     26  C   UNL A   1      28.703  30.005  21.648  1.00  0.00     0.011 A 
ATOM     27  C   UNL A   1      29.827  30.361  23.745  1.00  0.00     0.130 A 
ATOM     28  C   UNL A   1      27.744  30.955  22.012  1.00  0.00     0.001 A 
ATOM     29  C   UNL A   1      28.859  31.286  24.124  1.00  0.00     0.040 A 
ATOM     30  F   UNL A   1      30.849  30.134  24.585  1.00  0.00    -0.206 F 
ATOM     31  C   UNL A   1      27.806  31.575  23.259  1.00  0.00     0.003 A 
ENDBRANCH  24  25
ENDBRANCH  16  17
ENDBRANCH  15  16
ENDBRANCH  13  15
ENDBRANCH   6  11
BRANCH  10  32
ATOM     32  O   UNL A   1      39.076  20.350  25.487  1.00  0.00    -0.507 OA
ATOM     33  H   UNL A   1      39.482  19.992  26.253  1.00  0.00     0.293 HD
ENDBRANCH  10  32
ENDBRANCH   3   5
ENDBRANCH   2   3
ENDBRANCH   1   2
BRANCH   1  34
ATOM     34  C   UNL A   1      41.807  20.675  27.593  1.00  0.00     0.202 C 
BRANCH  34  35
ATOM     35  O   UNL A   1      42.541  19.462  27.458  1.00  0.00    -0.374 OA
BRANCH  35  36
ATOM     36  C   UNL A   1      42.237  18.609  26.356  1.00  0.00     0.202 C 
BRANCH  36  37
ATOM     37  C   UNL A   1      43.362  18.275  25.367  1.00  0.00     0.261 C 
BRANCH  37  38
ATOM     38  O   UNL A   1      44.471  19.186  25.455  1.00  0.00    -0.460 OA
BRANCH  38  39
ATOM     39  C   UNL A   1      44.739  19.852  24.305  1.00  0.00     0.338 C 
ATOM     40  O   UNL A   1      44.586  19.456  23.163  1.00  0.00    -0.246 OA
BRANCH  39  41
ATOM     41  C   UNL A   1      45.086  21.251  24.612  1.00  0.00     0.060 A 
ATOM     42  C   UNL A   1      45.639  21.522  25.871  1.00  0.00     0.016 A 
ATOM     43  C   UNL A   1      44.806  22.287  23.720  1.00  0.00     0.016 A 
ATOM     44  C   UNL A   1      45.870  22.838  26.262  1.00  0.00     0.010 A 
ATOM     45  C   UNL A   1      45.032  23.608  24.118  1.00  0.00     0.010 A 
ATOM     46  C   UNL A   1      45.532  23.890  25.403  1.00  0.00    -0.014 A 
BRANCH  46  47
ATOM     47  C   UNL A   1      45.577  25.287  25.899  1.00  0.00     0.031 A 
ATOM     48  C   UNL A   1      46.892  26.015  25.923  1.00  0.00     0.074 A 
ATOM     49  C   UNL A   1      44.454  25.905  26.308  1.00  0.00     0.049 A 
ATOM     50  N   UNL A   1      47.166  27.219  26.358  1.00  0.00    -0.248 NA
ATOM     51  C   UNL A   1      48.057  25.288  25.390  1.00  0.00     0.031 C 
ATOM     52  C   UNL A   1      43.113  25.322  26.294  1.00  0.00     0.029 A 
ATOM     53  N   UNL A   1      44.270  27.164  26.822  1.00  0.00    -0.354 N 
ATOM     54  C   UNL A   1      48.531  27.388  26.167  1.00  0.00     0.074 A 
ATOM     55  C   UNL A   1      49.036  26.155  25.603  1.00  0.00     0.031 C 
ATOM     56  C   UNL A   1      42.243  26.221  26.786  1.00  0.00     0.029 A 
ATOM     57  C   UNL A   1      42.972  27.423  27.186  1.00  0.00     0.049 A 
ATOM     58  H   UNL A   1      44.999  27.819  26.920  1.00  0.00     0.167 HD
ATOM     59  C   UNL A   1      49.296  28.473  26.435  1.00  0.00     0.031 A 
ATOM     60  C   UNL A   1      42.436  28.497  27.796  1.00  0.00     0.031 A 
ATOM     61  C   UNL A   1      48.792  29.696  27.002  1.00  0.00     0.049 A 
ATOM     62  C   UNL A   1      43.321  29.664  28.149  1.00  0.00     0.074 A 
ATOM     63  C   UNL A   1      49.483  30.863  27.283  1.00  0.00     0.029 A 
ATOM     64  N   UNL A   1      47.477  29.908  27.385  1.00  0.00    -0.354 N 
ATOM     65  N   UNL A   1      44.604  29.825  27.931  1.00  0.00    -0.248 NA
ATOM     66  C   UNL A   1      42.679  30.800  28.825  1.00  0.00     0.031 C 
ATOM     67  C   UNL A   1      48.600  31.755  27.899  1.00  0.00     0.029 A 
ATOM     68  C   UNL A   1      47.343  31.172  27.933  1.00  0.00     0.049 A 
ATOM     69  H   UNL A   1      46.747  29.255  27.282  1.00  0.00     0.167 HD
ATOM     70  C   UNL A   1      44.914  31.091  28.413  1.00  0.00     0.074 A 
ATOM     71  C   UNL A   1      43.683  31.660  28.920  1.00  0.00     0.031 C 
ATOM     72  C   UNL A   1      46.112  31.727  28.433  1.00  0.00     0.031 A 
BRANCH  59  73
ATOM     73  C   UNL A   1      50.770  28.375  26.157  1.00  0.00    -0.014 A 
ATOM     74  C   UNL A   1      51.311  28.740  24.915  1.00  0.00     0.009 A 
ATOM     75  C   UNL A   1      51.639  27.952  27.177  1.00  0.00     0.009 A 
ATOM     76  C   UNL A   1      52.688  28.656  24.690  1.00  0.00     0.001 A 
ATOM     77  C   UNL A   1      53.017  27.900  26.959  1.00  0.00     0.001 A 
ATOM     78  C   UNL A   1      53.539  28.243  25.714  1.00  0.00     0.000 A 
ENDBRANCH  59  73
BRANCH  60  79
ATOM     79  C   UNL A   1      40.989  28.513  28.145  1.00  0.00    -0.014 A 
ATOM     80  C   UNL A   1      40.043  29.060  27.266  1.00  0.00     0.009 A 
ATOM     81  C   UNL A   1      40.553  28.002  29.378  1.00  0.00     0.009 A 
ATOM     82  C   UNL A   1      38.695  29.125  27.628  1.00  0.00     0.001 A 
ATOM     83  C   UNL A   1      39.200  28.037  29.723  1.00  0.00     0.001 A 
ATOM     84  C   UNL A   1      38.274  28.609  28.853  1.00  0.00     0.000 A 
ENDBRANCH  60  79
BRANCH  72  85
ATOM     85  C   UNL A   1      46.143  33.129  28.981  1.00  0.00    -0.014 A 
ATOM     86  C   UNL A   1      45.908  34.243  28.161  1.00  0.00     0.009 A 
ATOM     87  C   UNL A   1      46.368  33.331  30.352  1.00  0.00     0.009 A 
ATOM     88  C   UNL A   1      45.936  35.532  28.697  1.00  0.00     0.001 A 
ATOM     89  C   UNL A   1      46.361  34.617  30.891  1.00  0.00     0.001 A 
ATOM     90  C   UNL A   1      46.156  35.719  30.061  1.00  0.00     0.000 A 
ENDBRANCH  72  85
ENDBRANCH  46  47
ENDBRANCH  39  41
ENDBRANCH  38  39
ENDBRANCH  37  38
ENDBRANCH  36  37
ENDBRANCH  35  36
ENDBRANCH  34  35
ENDBRANCH   1  34
TORSDOF 20
ENDMDL
MODEL 2
REMARK VINA RESULT:     -10.6      4.544      9.865
REMARK SMILES O=C(CCN1C(=O)S/C(=C\c2ccccc2F)C1=O)Nc1ccc(C(=O)OCCOCCOC(=O)c2ccc(-c3c4nc(c(-c5ccccc5)c5ccc([nH]5)c(-c5ccccc5)c5nc(c(-c6ccccc6)c6ccc3[nH]6)C=C5)C=C4)cc2)c(O)c1
REMARK SMILES IDX 28 1 27 2 25 3 26 4 24 5 21 6 22 7 86 8 23 9 84 10 20 11
REMARK SMILES IDX 1 12 2 13 3 15 4 16 5 17 6 18 18 19 7 20 8 21 9 22 19 23
REMARK SMILES IDX 10 24 11 25 12 26 16 27 13 28 15 29 17 30 14 31 85 32 29 34
REMARK SMILES IDX 30 35 31 36 32 37 33 38 34 39 35 40 36 41 37 42 83 43 38 44
REMARK SMILES IDX 82 45 39 46 40 47 41 48 76 49 42 50 81 51 75 52 77 53 43 54
REMARK SMILES IDX 80 55 74 56 73 57 44 59 66 60 51 61 65 62 52 63 55 64 64 65
REMARK SMILES IDX 78 66 53 67 54 68 63 70 79 71 56 72 45 73 46 74 50 75 47 76
REMARK SMILES IDX 49 77 48 78 67 79 68 80 72 81 69 82 71 83 70 84 57 85 58 86
REMARK SMILES IDX 62 87 59 88 61 89 60 90
REMARK H PARENT 20 14 85 33 77 58 55 69
REMARK Flexibility Score: inf
ROOT
ATOM      1  C   UNL A   1      33.529  35.117  29.438  1.00  0.00     0.261 C 
ENDROOT
BRANCH   1   2
ATOM      2  O   UNL A   1      33.594  33.685  29.313  1.00  0.00    -0.460 OA
BRANCH   2   3
ATOM      3  C   UNL A   1      34.412  33.250  28.317  1.00  0.00     0.341 C 
ATOM      4  O   UNL A   1      35.553  33.618  28.100  1.00  0.00    -0.246 OA
BRANCH   3   5
ATOM      5  C   UNL A   1      33.786  32.103  27.619  1.00  0.00     0.101 A 
ATOM      6  C   UNL A   1      32.396  30.022  26.328  1.00  0.00     0.044 A 
ATOM      7  C   UNL A   1      31.744  31.214  26.650  1.00  0.00     0.027 A 
ATOM      8  C   UNL A   1      33.759  29.890  26.632  1.00  0.00     0.073 A 
ATOM      9  C   UNL A   1      32.429  32.239  27.304  1.00  0.00     0.022 A 
ATOM     10  C   UNL A   1      34.457  30.938  27.243  1.00  0.00     0.132 A 
BRANCH   6  11
ATOM     11  N   UNL A   1      31.722  28.905  25.785  1.00  0.00    -0.326 N 
ATOM     12  O   UNL A   1      31.547  27.524  27.629  1.00  0.00    -0.275 OA
ATOM     13  C   UNL A   1      31.536  27.687  26.409  1.00  0.00     0.226 C 
ATOM     14  H   UNL A   1      31.351  29.003  24.879  1.00  0.00     0.169 HD
BRANCH  13  15
ATOM     15  C   UNL A   1      31.413  26.471  25.503  1.00  0.00     0.122 C 
BRANCH  15  16
ATOM     16  C   UNL A   1      32.566  26.117  24.571  1.00  0.00     0.140 C 
BRANCH  16  17
ATOM     17  N   UNL A   1      32.806  24.708  24.279  1.00  0.00    -0.268 N 
ATOM     18  C   UNL A   1      33.093  24.223  23.028  1.00  0.00     0.293 C 
ATOM     19  C   UNL A   1      33.002  23.818  25.318  1.00  0.00     0.268 C 
ATOM     20  O   UNL A   1      33.309  24.853  22.011  1.00  0.00    -0.261 OA
ATOM     21  S   UNL A   1      33.090  22.478  23.069  1.00  0.00    -0.022 SA
ATOM     22  C   UNL A   1      33.227  22.447  24.785  1.00  0.00     0.083 C 
ATOM     23  O   UNL A   1      32.988  24.095  26.508  1.00  0.00    -0.268 OA
ATOM     24  C   UNL A   1      33.466  21.389  25.575  1.00  0.00     0.032 C 
BRANCH  24  25
ATOM     25  C   UNL A   1      33.584  20.000  25.107  1.00  0.00     0.012 A 
ATOM     26  C   UNL A   1      32.411  19.270  24.872  1.00  0.00     0.011 A 
ATOM     27  C   UNL A   1      34.814  19.386  24.840  1.00  0.00     0.130 A 
ATOM     28  C   UNL A   1      32.474  17.994  24.305  1.00  0.00     0.001 A 
ATOM     29  C   UNL A   1      34.882  18.128  24.250  1.00  0.00     0.040 A 
ATOM     30  F   UNL A   1      35.965  20.011  25.131  1.00  0.00    -0.206 F 
ATOM     31  C   UNL A   1      33.707  17.433  23.970  1.00  0.00     0.003 A 
ENDBRANCH  24  25
ENDBRANCH  16  17
ENDBRANCH  15  16
ENDBRANCH  13  15
ENDBRANCH   6  11
BRANCH  10  32
ATOM     32  O   UNL A   1      35.797  30.739  27.436  1.00  0.00    -0.507 OA
ATOM     33  H   UNL A   1      36.376  31.474  27.492  1.00  0.00     0.293 HD
ENDBRANCH  10  32
ENDBRANCH   3   5
ENDBRANCH   2   3
ENDBRANCH   1   2
BRANCH   1  34
ATOM     34  C   UNL A   1      33.511  35.566  30.904  1.00  0.00     0.202 C 
BRANCH  34  35
ATOM     35  O   UNL A   1      32.920  34.689  31.859  1.00  0.00    -0.374 OA
BRANCH  35  36
ATOM     36  C   UNL A   1      33.603  34.480  33.094  1.00  0.00     0.202 C 
BRANCH  36  37
ATOM     37  C   UNL A   1      34.471  33.222  33.236  1.00  0.00     0.261 C 
BRANCH  37  38
ATOM     38  O   UNL A   1      35.446  33.095  32.187  1.00  0.00    -0.460 OA
BRANCH  38  39
ATOM     39  C   UNL A   1      36.708  33.427  32.555  1.00  0.00     0.338 C 
ATOM     40  O   UNL A   1      37.047  34.219  33.417  1.00  0.00    -0.246 OA
BRANCH  39  41
ATOM     41  C   UNL A   1      37.672  32.541  31.878  1.00  0.00     0.060 A 
ATOM     42  C   UNL A   1      38.754  32.065  32.630  1.00  0.00     0.016 A 
ATOM     43  C   UNL A   1      37.563  32.243  30.520  1.00  0.00     0.016 A 
ATOM     44  C   UNL A   1      39.760  31.327  32.013  1.00  0.00     0.010 A 
ATOM     45  C   UNL A   1      38.578  31.508  29.900  1.00  0.00     0.010 A 
ATOM     46  C   UNL A   1      39.698  31.078  30.637  1.00  0.00    -0.014 A 
BRANCH  46  47
ATOM     47  C   UNL A   1      40.867  30.482  29.945  1.00  0.00     0.031 A 
ATOM     48  C   UNL A   1      42.080  31.334  29.690  1.00  0.00     0.074 A 
ATOM     49  C   UNL A   1      40.853  29.193  29.563  1.00  0.00     0.049 A 
ATOM     50  N   UNL A   1      43.189  31.030  29.064  1.00  0.00    -0.248 NA
ATOM     51  C   UNL A   1      42.037  32.712  30.204  1.00  0.00     0.031 C 
ATOM     52  C   UNL A   1      39.755  28.254  29.791  1.00  0.00     0.029 A 
ATOM     53  N   UNL A   1      41.797  28.453  28.896  1.00  0.00    -0.354 N 
ATOM     54  C   UNL A   1      43.967  32.180  29.094  1.00  0.00     0.074 A 
ATOM     55  C   UNL A   1      43.194  33.196  29.776  1.00  0.00     0.031 C 
ATOM     56  C   UNL A   1      40.085  27.063  29.263  1.00  0.00     0.029 A 
ATOM     57  C   UNL A   1      41.397  27.167  28.627  1.00  0.00     0.049 A 
ATOM     58  H   UNL A   1      42.677  28.810  28.636  1.00  0.00     0.167 HD
ATOM     59  C   UNL A   1      45.213  32.373  28.602  1.00  0.00     0.031 A 
ATOM     60  C   UNL A   1      42.008  26.194  27.926  1.00  0.00     0.031 A 
ATOM     61  C   UNL A   1      45.977  31.363  27.919  1.00  0.00     0.049 A 
ATOM     62  C   UNL A   1      43.365  26.456  27.326  1.00  0.00     0.074 A 
ATOM     63  C   UNL A   1      47.262  31.453  27.409  1.00  0.00     0.029 A 
ATOM     64  N   UNL A   1      45.525  30.083  27.640  1.00  0.00    -0.354 N 
ATOM     65  N   UNL A   1      44.104  27.537  27.393  1.00  0.00    -0.248 NA
ATOM     66  C   UNL A   1      43.973  25.358  26.561  1.00  0.00     0.031 C 
ATOM     67  C   UNL A   1      47.559  30.251  26.762  1.00  0.00     0.029 A 
ATOM     68  C   UNL A   1      46.490  29.385  26.934  1.00  0.00     0.049 A 
ATOM     69  H   UNL A   1      44.647  29.724  27.905  1.00  0.00     0.167 HD
ATOM     70  C   UNL A   1      45.276  27.238  26.708  1.00  0.00     0.074 A 
ATOM     71  C   UNL A   1      45.155  25.870  26.248  1.00  0.00     0.031 C 
ATOM     72  C   UNL A   1      46.357  28.025  26.481  1.00  0.00     0.031 A 
BRANCH  59  73
ATOM     73  C   UNL A   1      45.817  33.743  28.747  1.00  0.00    -0.014 A 
ATOM     74  C   UNL A   1      45.781  34.678  27.702  1.00  0.00     0.009 A 
ATOM     75  C   UNL A   1      46.392  34.118  29.973  1.00  0.00     0.009 A 
ATOM     76  C   UNL A   1      46.333  35.950  27.871  1.00  0.00     0.001 A 
ATOM     77  C   UNL A   1      46.915  35.401  30.149  1.00  0.00     0.001 A 
ATOM     78  C   UNL A   1      46.892  36.311  29.096  1.00  0.00     0.000 A 
ENDBRANCH  59  73
BRANCH  60  79
ATOM     79  C   UNL A   1      41.331  24.885  27.721  1.00  0.00    -0.014 A 
ATOM     80  C   UNL A   1      41.772  23.734  28.390  1.00  0.00     0.009 A 
ATOM     81  C   UNL A   1      40.253  24.778  26.827  1.00  0.00     0.009 A 
ATOM     82  C   UNL A   1      41.168  22.498  28.145  1.00  0.00     0.001 A 
ATOM     83  C   UNL A   1      39.629  23.547  26.611  1.00  0.00     0.001 A 
ATOM     84  C   UNL A   1      40.095  22.406  27.260  1.00  0.00     0.000 A 
ENDBRANCH  60  79
BRANCH  72  85
ATOM     85  C   UNL A   1      47.516  27.413  25.740  1.00  0.00    -0.014 A 
ATOM     86  C   UNL A   1      47.572  27.411  24.338  1.00  0.00     0.009 A 
ATOM     87  C   UNL A   1      48.590  26.869  26.463  1.00  0.00     0.009 A 
ATOM     88  C   UNL A   1      48.662  26.842  23.676  1.00  0.00     0.001 A 
ATOM     89  C   UNL A   1      49.694  26.333  25.800  1.00  0.00     0.001 A 
ATOM     90  C   UNL A   1      49.724  26.309  24.406  1.00  0.00     0.000 A 
ENDBRANCH  72  85
ENDBRANCH  46  47
ENDBRANCH  39  41
ENDBRANCH  38  39
ENDBRANCH  37  38
ENDBRANCH  36  37
ENDBRANCH  35  36
ENDBRANCH  34  35
ENDBRANCH   1  34
TORSDOF 20
ENDMDL
MODEL 3
REMARK VINA RESULT:     -10.4      1.681      2.682
REMARK SMILES O=C(CCN1C(=O)S/C(=C\c2ccccc2F)C1=O)Nc1ccc(C(=O)OCCOCCOC(=O)c2ccc(-c3c4nc(c(-c5ccccc5)c5ccc([nH]5)c(-c5ccccc5)c5nc(c(-c6ccccc6)c6ccc3[nH]6)C=C5)C=C4)cc2)c(O)c1
REMARK SMILES IDX 28 1 27 2 25 3 26 4 24 5 21 6 22 7 86 8 23 9 84 10 20 11
REMARK SMILES IDX 1 12 2 13 3 15 4 16 5 17 6 18 18 19 7 20 8 21 9 22 19 23
REMARK SMILES IDX 10 24 11 25 12 26 16 27 13 28 15 29 17 30 14 31 85 32 29 34
REMARK SMILES IDX 30 35 31 36 32 37 33 38 34 39 35 40 36 41 37 42 83 43 38 44
REMARK SMILES IDX 82 45 39 46 40 47 41 48 76 49 42 50 81 51 75 52 77 53 43 54
REMARK SMILES IDX 80 55 74 56 73 57 44 59 66 60 51 61 65 62 52 63 55 64 64 65
REMARK SMILES IDX 78 66 53 67 54 68 63 70 79 71 56 72 45 73 46 74 50 75 47 76
REMARK SMILES IDX 49 77 48 78 67 79 68 80 72 81 69 82 71 83 70 84 57 85 58 86
REMARK SMILES IDX 62 87 59 88 61 89 60 90
REMARK H PARENT 20 14 85 33 77 58 55 69
REMARK Flexibility Score: inf
ROOT
ATOM      1  C   UNL A   1      39.205  22.359  26.716  1.00  0.00     0.261 C 
ENDROOT
BRANCH   1   2
ATOM      2  O   UNL A   1      38.720  22.191  25.372  1.00  0.00    -0.460 OA
BRANCH   2   3
ATOM      3  C   UNL A   1      38.092  21.005  25.151  1.00  0.00     0.341 C 
ATOM      4  O   UNL A   1      38.569  19.892  25.288  1.00  0.00    -0.246 OA
BRANCH   3   5
ATOM      5  C   UNL A   1      36.652  21.240  24.893  1.00  0.00     0.101 A 
ATOM      6  C   UNL A   1      33.957  21.909  24.421  1.00  0.00     0.044 A 
ATOM      7  C   UNL A   1      34.944  22.897  24.411  1.00  0.00     0.027 A 
ATOM      8  C   UNL A   1      34.335  20.576  24.642  1.00  0.00     0.073 A 
ATOM      9  C   UNL A   1      36.277  22.568  24.660  1.00  0.00     0.022 A 
ATOM     10  C   UNL A   1      35.678  20.241  24.843  1.00  0.00     0.132 A 
BRANCH   6  11
ATOM     11  N   UNL A   1      32.580  22.202  24.305  1.00  0.00    -0.326 N 
ATOM     12  O   UNL A   1      32.550  23.576  22.448  1.00  0.00    -0.275 OA
ATOM     13  C   UNL A   1      32.020  23.153  23.474  1.00  0.00     0.226 C 
ATOM     14  H   UNL A   1      31.963  21.682  24.867  1.00  0.00     0.169 HD
BRANCH  13  15
ATOM     15  C   UNL A   1      30.709  23.772  23.938  1.00  0.00     0.122 C 
BRANCH  15  16
ATOM     16  C   UNL A   1      30.304  25.141  23.405  1.00  0.00     0.140 C 
BRANCH  16  17
ATOM     17  N   UNL A   1      30.985  26.316  23.941  1.00  0.00    -0.268 N 
ATOM     18  C   UNL A   1      31.116  27.501  23.262  1.00  0.00     0.293 C 
ATOM     19  C   UNL A   1      31.316  26.362  25.282  1.00  0.00     0.268 C 
ATOM     20  O   UNL A   1      30.614  27.816  22.201  1.00  0.00    -0.261 OA
ATOM     21  S   UNL A   1      32.176  28.563  24.154  1.00  0.00    -0.022 SA
ATOM     22  C   UNL A   1      31.997  27.646  25.599  1.00  0.00     0.083 C 
ATOM     23  O   UNL A   1      31.098  25.483  26.103  1.00  0.00    -0.268 OA
ATOM     24  C   UNL A   1      32.410  27.964  26.835  1.00  0.00     0.032 C 
BRANCH  24  25
ATOM     25  C   UNL A   1      33.184  29.167  27.179  1.00  0.00     0.012 A 
ATOM     26  C   UNL A   1      34.547  29.025  27.472  1.00  0.00     0.011 A 
ATOM     27  C   UNL A   1      32.634  30.455  27.183  1.00  0.00     0.130 A 
ATOM     28  C   UNL A   1      35.347  30.153  27.678  1.00  0.00     0.001 A 
ATOM     29  C   UNL A   1      33.430  31.582  27.359  1.00  0.00     0.040 A 
ATOM     30  F   UNL A   1      31.316  30.633  26.996  1.00  0.00    -0.206 F 
ATOM     31  C   UNL A   1      34.795  31.431  27.595  1.00  0.00     0.003 A 
ENDBRANCH  24  25
ENDBRANCH  16  17
ENDBRANCH  15  16
ENDBRANCH  13  15
ENDBRANCH   6  11
BRANCH  10  32
ATOM     32  O   UNL A   1      35.954  18.907  24.981  1.00  0.00    -0.507 OA
ATOM     33  H   UNL A   1      36.495  18.473  24.350  1.00  0.00     0.293 HD
ENDBRANCH  10  32
ENDBRANCH   3   5
ENDBRANCH   2   3
ENDBRANCH   1   2
BRANCH   1  34
ATOM     34  C   UNL A   1      40.651  21.871  26.869  1.00  0.00     0.202 C 
BRANCH  34  35
ATOM     35  O   UNL A   1      40.874  20.683  27.624  1.00  0.00    -0.374 OA
BRANCH  35  36
ATOM     36  C   UNL A   1      41.582  19.613  27.001  1.00  0.00     0.202 C 
BRANCH  36  37
ATOM     37  C   UNL A   1      42.320  19.902  25.686  1.00  0.00     0.261 C 
BRANCH  37  38
ATOM     38  O   UNL A   1      43.607  19.265  25.617  1.00  0.00    -0.460 OA
BRANCH  38  39
ATOM     39  C   UNL A   1      44.403  19.720  24.618  1.00  0.00     0.338 C 
ATOM     40  O   UNL A   1      44.661  19.168  23.563  1.00  0.00    -0.246 OA
BRANCH  39  41
ATOM     41  C   UNL A   1      44.796  21.113  24.893  1.00  0.00     0.060 A 
ATOM     42  C   UNL A   1      45.377  21.390  26.138  1.00  0.00     0.016 A 
ATOM     43  C   UNL A   1      44.533  22.140  23.987  1.00  0.00     0.016 A 
ATOM     44  C   UNL A   1      45.654  22.705  26.501  1.00  0.00     0.010 A 
ATOM     45  C   UNL A   1      44.805  23.461  24.356  1.00  0.00     0.010 A 
ATOM     46  C   UNL A   1      45.334  23.752  25.628  1.00  0.00    -0.014 A 
BRANCH  46  47
ATOM     47  C   UNL A   1      45.428  25.155  26.097  1.00  0.00     0.031 A 
ATOM     48  C   UNL A   1      46.755  25.861  26.034  1.00  0.00     0.074 A 
ATOM     49  C   UNL A   1      44.341  25.798  26.557  1.00  0.00     0.049 A 
ATOM     50  N   UNL A   1      47.071  27.067  26.433  1.00  0.00    -0.248 NA
ATOM     51  C   UNL A   1      47.876  25.107  25.450  1.00  0.00     0.031 C 
ATOM     52  C   UNL A   1      42.992  25.238  26.628  1.00  0.00     0.029 A 
ATOM     53  N   UNL A   1      44.205  27.068  27.059  1.00  0.00    -0.354 N 
ATOM     54  C   UNL A   1      48.426  27.211  26.164  1.00  0.00     0.074 A 
ATOM     55  C   UNL A   1      48.879  25.960  25.593  1.00  0.00     0.031 C 
ATOM     56  C   UNL A   1      42.166  26.159  27.153  1.00  0.00     0.029 A 
ATOM     57  C   UNL A   1      42.934  27.355  27.491  1.00  0.00     0.049 A 
ATOM     58  H   UNL A   1      44.949  27.713  27.105  1.00  0.00     0.167 HD
ATOM     59  C   UNL A   1      49.222  28.287  26.370  1.00  0.00     0.031 A 
ATOM     60  C   UNL A   1      42.450  28.447  28.112  1.00  0.00     0.031 A 
ATOM     61  C   UNL A   1      48.770  29.527  26.943  1.00  0.00     0.049 A 
ATOM     62  C   UNL A   1      43.372  29.605  28.395  1.00  0.00     0.074 A 
ATOM     63  C   UNL A   1      49.494  30.687  27.165  1.00  0.00     0.029 A 
ATOM     64  N   UNL A   1      47.483  29.767  27.395  1.00  0.00    -0.354 N 
ATOM     65  N   UNL A   1      44.643  29.741  28.103  1.00  0.00    -0.248 NA
ATOM     66  C   UNL A   1      42.787  30.762  29.087  1.00  0.00     0.031 C 
ATOM     67  C   UNL A   1      48.662  31.603  27.814  1.00  0.00     0.029 A 
ATOM     68  C   UNL A   1      47.399  31.042  27.928  1.00  0.00     0.049 A 
ATOM     69  H   UNL A   1      46.737  29.125  27.345  1.00  0.00     0.167 HD
ATOM     70  C   UNL A   1      45.000  31.009  28.545  1.00  0.00     0.074 A 
ATOM     71  C   UNL A   1      43.808  31.607  29.110  1.00  0.00     0.031 C 
ATOM     72  C   UNL A   1      46.207  31.625  28.487  1.00  0.00     0.031 A 
BRANCH  59  73
ATOM     73  C   UNL A   1      50.677  28.159  26.011  1.00  0.00    -0.014 A 
ATOM     74  C   UNL A   1      51.626  27.701  26.937  1.00  0.00     0.009 A 
ATOM     75  C   UNL A   1      51.095  28.458  24.704  1.00  0.00     0.009 A 
ATOM     76  C   UNL A   1      52.968  27.574  26.570  1.00  0.00     0.001 A 
ATOM     77  C   UNL A   1      52.431  28.300  24.331  1.00  0.00     0.001 A 
ATOM     78  C   UNL A   1      53.367  27.867  25.267  1.00  0.00     0.000 A 
ENDBRANCH  59  73
BRANCH  60  79
ATOM     79  C   UNL A   1      41.026  28.493  28.541  1.00  0.00    -0.014 A 
ATOM     80  C   UNL A   1      40.639  28.022  29.804  1.00  0.00     0.009 A 
ATOM     81  C   UNL A   1      40.040  28.985  27.670  1.00  0.00     0.009 A 
ATOM     82  C   UNL A   1      39.292  28.014  30.173  1.00  0.00     0.001 A 
ATOM     83  C   UNL A   1      38.698  29.007  28.056  1.00  0.00     0.001 A 
ATOM     84  C   UNL A   1      38.323  28.510  29.302  1.00  0.00     0.000 A 
ENDBRANCH  60  79
BRANCH  72  85
ATOM     85  C   UNL A   1      46.291  33.035  29.008  1.00  0.00    -0.014 A 
ATOM     86  C   UNL A   1      46.022  34.139  28.186  1.00  0.00     0.009 A 
ATOM     87  C   UNL A   1      46.603  33.255  30.360  1.00  0.00     0.009 A 
ATOM     88  C   UNL A   1      46.100  35.436  28.698  1.00  0.00     0.001 A 
ATOM     89  C   UNL A   1      46.647  34.550  30.877  1.00  0.00     0.001 A 
ATOM     90  C   UNL A   1      46.406  35.641  30.043  1.00  0.00     0.000 A 
ENDBRANCH  72  85
ENDBRANCH  46  47
ENDBRANCH  39  41
ENDBRANCH  38  39
ENDBRANCH  37  38
ENDBRANCH  36  37
ENDBRANCH  35  36
ENDBRANCH  34  35
ENDBRANCH   1  34
TORSDOF 20
ENDMDL
