MODEL 1
REMARK VINA RESULT:      -9.9      0.000      0.000
REMARK SMILES CCOc1cc2c(cc1OCC)[C@@H](C(=O)OCCOCCOC(=O)c1ccc(-c3c4nc(c(-c5ccccc5)c5ccc([nH]5)c(-c5ccccc5)c5nc(c(-c6ccccc6)c6ccc3[nH]6)C=C5)C=C4)cc1)[C@H](c1ccc(F)cc1Cl)N(C)C2=O
REMARK SMILES IDX 19 1 18 2 17 3 16 4 14 5 15 6 13 7 4 8 5 9 9 10 6 11 8 12
REMARK SMILES IDX 7 13 84 14 82 15 85 16 73 17 83 18 3 19 2 20 1 21 10 22
REMARK SMILES IDX 11 23 12 24 74 25 75 26 80 27 76 28 79 29 81 30 77 31 78 32
REMARK SMILES IDX 20 33 21 34 22 35 23 36 24 37 25 38 26 39 72 40 27 41 71 42
REMARK SMILES IDX 28 43 29 44 30 45 65 46 31 47 70 48 64 49 66 50 32 51 69 52
REMARK SMILES IDX 63 53 62 54 33 56 55 57 40 58 54 59 41 60 44 61 53 62 67 63
REMARK SMILES IDX 42 64 43 65 52 67 68 68 45 69 34 70 35 71 39 72 36 73 38 74
REMARK SMILES IDX 37 75 56 76 57 77 61 78 58 79 60 80 59 81 46 82 47 83 51 84
REMARK SMILES IDX 48 85 50 86 49 87
REMARK H PARENT 66 55 44 66
REMARK Flexibility Score: inf
ROOT
ATOM      1  O   UNL A   1      33.414  30.628  27.539  1.00  0.00    -0.374 OA
ENDROOT
BRANCH   1   2
ATOM      2  C   UNL A   1      33.860  29.275  27.502  1.00  0.00     0.202 C 
BRANCH   2   3
ATOM      3  C   UNL A   1      33.350  28.416  26.343  1.00  0.00     0.261 C 
BRANCH   3   4
ATOM      4  O   UNL A   1      34.184  28.525  25.178  1.00  0.00    -0.463 OA
BRANCH   4   5
ATOM      5  C   UNL A   1      33.860  27.709  24.143  1.00  0.00     0.316 C 
ATOM      6  O   UNL A   1      34.012  27.990  22.958  1.00  0.00    -0.251 OA
BRANCH   5   7
ATOM      7  C   UNL A   1      33.210  26.411  24.583  1.00  0.00     0.157 C 
ATOM      8  C   UNL A   1      35.939  23.120  24.247  1.00  0.00     0.161 A 
ATOM      9  C   UNL A   1      35.024  23.400  23.221  1.00  0.00     0.064 A 
ATOM     10  C   UNL A   1      35.987  23.939  25.385  1.00  0.00     0.161 A 
ATOM     11  C   UNL A   1      34.179  24.498  23.305  1.00  0.00     0.048 A 
ATOM     12  C   UNL A   1      35.105  25.018  25.473  1.00  0.00     0.056 A 
ATOM     13  C   UNL A   1      34.191  25.283  24.454  1.00  0.00    -0.015 A 
ATOM     14  C   UNL A   1      33.252  24.816  22.182  1.00  0.00     0.254 C 
ATOM     15  N   UNL A   1      32.135  25.587  22.505  1.00  0.00    -0.333 N 
ATOM     16  O   UNL A   1      33.496  24.407  21.052  1.00  0.00    -0.269 OA
ATOM     17  C   UNL A   1      31.874  26.007  23.884  1.00  0.00     0.135 C 
ATOM     18  C   UNL A   1      31.190  25.915  21.451  1.00  0.00     0.147 C 
BRANCH   8  19
ATOM     19  O   UNL A   1      36.687  21.977  24.160  1.00  0.00    -0.490 OA
BRANCH  19  20
ATOM     20  C   UNL A   1      36.007  20.798  24.612  1.00  0.00     0.226 C 
ATOM     21  C   UNL A   1      35.128  21.077  25.822  1.00  0.00     0.049 C 
ENDBRANCH  19  20
ENDBRANCH   8  19
BRANCH  10  22
ATOM     22  O   UNL A   1      36.781  23.870  26.492  1.00  0.00    -0.490 OA
BRANCH  22  23
ATOM     23  C   UNL A   1      38.166  24.168  26.419  1.00  0.00     0.226 C 
ATOM     24  C   UNL A   1      38.985  22.895  26.507  1.00  0.00     0.049 C 
ENDBRANCH  22  23
ENDBRANCH  10  22
BRANCH  17  25
ATOM     25  C   UNL A   1      31.103  24.988  24.769  1.00  0.00    -0.005 A 
ATOM     26  C   UNL A   1      30.487  25.537  25.927  1.00  0.00     0.010 A 
ATOM     27  C   UNL A   1      31.017  23.583  24.621  1.00  0.00     0.049 A 
ATOM     28  C   UNL A   1      29.933  24.735  26.926  1.00  0.00     0.040 A 
ATOM     29  C   UNL A   1      30.451  22.785  25.628  1.00  0.00     0.060 A 
ATOM     30  Cl  UNL A   1      31.536  22.673  23.251  1.00  0.00    -0.084 Cl
ATOM     31  C   UNL A   1      29.939  23.362  26.775  1.00  0.00     0.124 A 
ATOM     32  F   UNL A   1      29.437  22.583  27.742  1.00  0.00    -0.207 F 
ENDBRANCH  17  25
ENDBRANCH   5   7
ENDBRANCH   4   5
ENDBRANCH   3   4
ENDBRANCH   2   3
ENDBRANCH   1   2
BRANCH   1  33
ATOM     33  C   UNL A   1      34.400  31.644  27.712  1.00  0.00     0.202 C 
BRANCH  33  34
ATOM     34  C   UNL A   1      34.572  32.204  29.127  1.00  0.00     0.261 C 
BRANCH  34  35
ATOM     35  O   UNL A   1      35.951  32.197  29.544  1.00  0.00    -0.460 OA
BRANCH  35  36
ATOM     36  C   UNL A   1      36.258  31.276  30.488  1.00  0.00     0.338 C 
ATOM     37  O   UNL A   1      35.575  30.945  31.449  1.00  0.00    -0.246 OA
BRANCH  36  38
ATOM     38  C   UNL A   1      37.483  30.554  30.108  1.00  0.00     0.060 A 
ATOM     39  C   UNL A   1      38.289  30.049  31.136  1.00  0.00     0.016 A 
ATOM     40  C   UNL A   1      37.871  30.420  28.772  1.00  0.00     0.016 A 
ATOM     41  C   UNL A   1      39.502  29.435  30.837  1.00  0.00     0.010 A 
ATOM     42  C   UNL A   1      39.091  29.805  28.475  1.00  0.00     0.010 A 
ATOM     43  C   UNL A   1      39.926  29.335  29.506  1.00  0.00    -0.014 A 
BRANCH  43  44
ATOM     44  C   UNL A   1      41.293  28.854  29.194  1.00  0.00     0.031 A 
ATOM     45  C   UNL A   1      42.445  29.817  29.274  1.00  0.00     0.074 A 
ATOM     46  C   UNL A   1      41.510  27.572  28.854  1.00  0.00     0.049 A 
ATOM     47  N   UNL A   1      43.703  29.632  28.966  1.00  0.00    -0.248 NA
ATOM     48  C   UNL A   1      42.136  31.170  29.764  1.00  0.00     0.031 C 
ATOM     49  C   UNL A   1      40.489  26.528  28.790  1.00  0.00     0.029 A 
ATOM     50  N   UNL A   1      42.669  26.935  28.482  1.00  0.00    -0.354 N 
ATOM     51  C   UNL A   1      44.333  30.846  29.210  1.00  0.00     0.074 A 
ATOM     52  C   UNL A   1      43.316  31.766  29.672  1.00  0.00     0.031 C 
ATOM     53  C   UNL A   1      41.065  25.381  28.392  1.00  0.00     0.029 A 
ATOM     54  C   UNL A   1      42.481  25.622  28.127  1.00  0.00     0.049 A 
ATOM     55  H   UNL A   1      43.548  27.376  28.472  1.00  0.00     0.167 HD
ATOM     56  C   UNL A   1      45.641  31.166  29.063  1.00  0.00     0.031 A 
ATOM     57  C   UNL A   1      43.345  24.728  27.608  1.00  0.00     0.031 A 
ATOM     58  C   UNL A   1      46.648  30.255  28.592  1.00  0.00     0.049 A 
ATOM     59  C   UNL A   1      44.771  25.140  27.349  1.00  0.00     0.074 A 
ATOM     60  C   UNL A   1      48.006  30.477  28.434  1.00  0.00     0.029 A 
ATOM     61  N   UNL A   1      46.406  28.951  28.189  1.00  0.00    -0.354 N 
ATOM     62  N   UNL A   1      45.363  26.281  27.611  1.00  0.00    -0.248 NA
ATOM     63  C   UNL A   1      45.644  24.142  26.715  1.00  0.00     0.031 C 
ATOM     64  C   UNL A   1      48.573  29.330  27.872  1.00  0.00     0.029 A 
ATOM     65  C   UNL A   1      47.581  28.372  27.739  1.00  0.00     0.049 A 
ATOM     66  H   UNL A   1      45.530  28.504  28.218  1.00  0.00     0.167 HD
ATOM     67  C   UNL A   1      46.677  26.132  27.189  1.00  0.00     0.074 A 
ATOM     68  C   UNL A   1      46.804  24.784  26.674  1.00  0.00     0.031 C 
ATOM     69  C   UNL A   1      47.690  27.032  27.222  1.00  0.00     0.031 A 
BRANCH  56  70
ATOM     70  C   UNL A   1      46.049  32.578  29.378  1.00  0.00    -0.014 A 
ATOM     71  C   UNL A   1      46.538  32.934  30.644  1.00  0.00     0.009 A 
ATOM     72  C   UNL A   1      45.982  33.557  28.375  1.00  0.00     0.009 A 
ATOM     73  C   UNL A   1      46.921  34.252  30.908  1.00  0.00     0.001 A 
ATOM     74  C   UNL A   1      46.391  34.867  28.632  1.00  0.00     0.001 A 
ATOM     75  C   UNL A   1      46.852  35.214  29.901  1.00  0.00     0.000 A 
ENDBRANCH  56  70
BRANCH  57  76
ATOM     76  C   UNL A   1      42.877  23.364  27.246  1.00  0.00    -0.014 A 
ATOM     77  C   UNL A   1      42.637  22.401  28.237  1.00  0.00     0.009 A 
ATOM     78  C   UNL A   1      42.688  23.011  25.899  1.00  0.00     0.009 A 
ATOM     79  C   UNL A   1      42.237  21.109  27.887  1.00  0.00     0.001 A 
ATOM     80  C   UNL A   1      42.259  21.729  25.554  1.00  0.00     0.001 A 
ATOM     81  C   UNL A   1      42.043  20.775  26.547  1.00  0.00     0.000 A 
ENDBRANCH  57  76
BRANCH  69  82
ATOM     82  C   UNL A   1      49.029  26.591  26.700  1.00  0.00    -0.014 A 
ATOM     83  C   UNL A   1      49.908  25.846  27.500  1.00  0.00     0.009 A 
ATOM     84  C   UNL A   1      49.389  26.871  25.372  1.00  0.00     0.009 A 
ATOM     85  C   UNL A   1      51.132  25.409  26.987  1.00  0.00     0.001 A 
ATOM     86  C   UNL A   1      50.599  26.409  24.853  1.00  0.00     0.001 A 
ATOM     87  C   UNL A   1      51.472  25.685  25.663  1.00  0.00     0.000 A 
ENDBRANCH  69  82
ENDBRANCH  43  44
ENDBRANCH  36  38
ENDBRANCH  35  36
ENDBRANCH  34  35
ENDBRANCH  33  34
ENDBRANCH   1  33
TORSDOF 19
ENDMDL
MODEL 2
REMARK VINA RESULT:      -9.9      2.023      7.582
REMARK SMILES CCOc1cc2c(cc1OCC)[C@@H](C(=O)OCCOCCOC(=O)c1ccc(-c3c4nc(c(-c5ccccc5)c5ccc([nH]5)c(-c5ccccc5)c5nc(c(-c6ccccc6)c6ccc3[nH]6)C=C5)C=C4)cc1)[C@H](c1ccc(F)cc1Cl)N(C)C2=O
REMARK SMILES IDX 19 1 18 2 17 3 16 4 14 5 15 6 13 7 4 8 5 9 9 10 6 11 8 12
REMARK SMILES IDX 7 13 84 14 82 15 85 16 73 17 83 18 3 19 2 20 1 21 10 22
REMARK SMILES IDX 11 23 12 24 74 25 75 26 80 27 76 28 79 29 81 30 77 31 78 32
REMARK SMILES IDX 20 33 21 34 22 35 23 36 24 37 25 38 26 39 72 40 27 41 71 42
REMARK SMILES IDX 28 43 29 44 30 45 65 46 31 47 70 48 64 49 66 50 32 51 69 52
REMARK SMILES IDX 63 53 62 54 33 56 55 57 40 58 54 59 41 60 44 61 53 62 67 63
REMARK SMILES IDX 42 64 43 65 52 67 68 68 45 69 34 70 35 71 39 72 36 73 38 74
REMARK SMILES IDX 37 75 56 76 57 77 61 78 58 79 60 80 59 81 46 82 47 83 51 84
REMARK SMILES IDX 48 85 50 86 49 87
REMARK H PARENT 66 55 44 66
REMARK Flexibility Score: inf
ROOT
ATOM      1  O   UNL A   1      37.739  20.971  24.860  1.00  0.00    -0.374 OA
ENDROOT
BRANCH   1   2
ATOM      2  C   UNL A   1      36.545  21.573  25.352  1.00  0.00     0.202 C 
BRANCH   2   3
ATOM      3  C   UNL A   1      36.506  23.102  25.374  1.00  0.00     0.261 C 
BRANCH   3   4
ATOM      4  O   UNL A   1      35.872  23.614  26.558  1.00  0.00    -0.463 OA
BRANCH   4   5
ATOM      5  C   UNL A   1      34.520  23.500  26.599  1.00  0.00     0.316 C 
ATOM      6  O   UNL A   1      33.898  22.866  27.445  1.00  0.00    -0.251 OA
BRANCH   5   7
ATOM      7  C   UNL A   1      33.825  24.184  25.437  1.00  0.00     0.157 C 
ATOM      8  C   UNL A   1      32.241  27.994  26.605  1.00  0.00     0.161 A 
ATOM      9  C   UNL A   1      31.429  26.850  26.606  1.00  0.00     0.064 A 
ATOM     10  C   UNL A   1      33.594  27.893  26.247  1.00  0.00     0.161 A 
ATOM     11  C   UNL A   1      31.955  25.608  26.282  1.00  0.00     0.048 A 
ATOM     12  C   UNL A   1      34.101  26.643  25.886  1.00  0.00     0.056 A 
ATOM     13  C   UNL A   1      33.285  25.512  25.879  1.00  0.00    -0.015 A 
ATOM     14  C   UNL A   1      31.096  24.392  26.342  1.00  0.00     0.254 C 
ATOM     15  N   UNL A   1      31.509  23.306  25.570  1.00  0.00    -0.333 N 
ATOM     16  O   UNL A   1      30.092  24.386  27.046  1.00  0.00    -0.269 OA
ATOM     17  C   UNL A   1      32.694  23.390  24.712  1.00  0.00     0.135 C 
ATOM     18  C   UNL A   1      30.700  22.099  25.580  1.00  0.00     0.147 C 
BRANCH   8  19
ATOM     19  O   UNL A   1      31.656  29.209  26.844  1.00  0.00    -0.490 OA
BRANCH  19  20
ATOM     20  C   UNL A   1      31.672  30.097  25.718  1.00  0.00     0.226 C 
ATOM     21  C   UNL A   1      30.972  29.496  24.509  1.00  0.00     0.049 C 
ENDBRANCH  19  20
ENDBRANCH   8  19
BRANCH  10  22
ATOM     22  O   UNL A   1      34.564  28.849  26.177  1.00  0.00    -0.490 OA
BRANCH  22  23
ATOM     23  C   UNL A   1      35.211  29.322  27.347  1.00  0.00     0.226 C 
ATOM     24  C   UNL A   1      34.714  30.711  27.701  1.00  0.00     0.049 C 
ENDBRANCH  22  23
ENDBRANCH  10  22
BRANCH  17  25
ATOM     25  C   UNL A   1      32.463  23.979  23.292  1.00  0.00    -0.005 A 
ATOM     26  C   UNL A   1      33.446  23.633  22.326  1.00  0.00     0.010 A 
ATOM     27  C   UNL A   1      31.460  24.884  22.868  1.00  0.00     0.049 A 
ATOM     28  C   UNL A   1      33.499  24.236  21.068  1.00  0.00     0.040 A 
ATOM     29  C   UNL A   1      31.517  25.480  21.598  1.00  0.00     0.060 A 
ATOM     30  Cl  UNL A   1      30.070  25.356  23.773  1.00  0.00    -0.084 Cl
ATOM     31  C   UNL A   1      32.543  25.171  20.724  1.00  0.00     0.124 A 
ATOM     32  F   UNL A   1      32.602  25.777  19.531  1.00  0.00    -0.207 F 
ENDBRANCH  17  25
ENDBRANCH   5   7
ENDBRANCH   4   5
ENDBRANCH   3   4
ENDBRANCH   2   3
ENDBRANCH   1   2
BRANCH   1  33
ATOM     33  C   UNL A   1      38.924  21.118  25.641  1.00  0.00     0.202 C 
BRANCH  33  34
ATOM     34  C   UNL A   1      39.606  19.830  26.108  1.00  0.00     0.261 C 
BRANCH  34  35
ATOM     35  O   UNL A   1      40.830  19.580  25.391  1.00  0.00    -0.460 OA
BRANCH  35  36
ATOM     36  C   UNL A   1      41.942  19.519  26.162  1.00  0.00     0.338 C 
ATOM     37  O   UNL A   1      42.554  18.514  26.499  1.00  0.00    -0.246 OA
BRANCH  36  38
ATOM     38  C   UNL A   1      42.459  20.875  26.407  1.00  0.00     0.060 A 
ATOM     39  C   UNL A   1      42.617  21.282  27.738  1.00  0.00     0.016 A 
ATOM     40  C   UNL A   1      42.731  21.757  25.359  1.00  0.00     0.016 A 
ATOM     41  C   UNL A   1      43.020  22.583  28.029  1.00  0.00     0.010 A 
ATOM     42  C   UNL A   1      43.131  23.064  25.653  1.00  0.00     0.010 A 
ATOM     43  C   UNL A   1      43.250  23.493  26.989  1.00  0.00    -0.014 A 
BRANCH  43  44
ATOM     44  C   UNL A   1      43.495  24.923  27.292  1.00  0.00     0.031 A 
ATOM     45  C   UNL A   1      44.841  25.517  26.985  1.00  0.00     0.074 A 
ATOM     46  C   UNL A   1      42.527  25.689  27.824  1.00  0.00     0.049 A 
ATOM     47  N   UNL A   1      45.297  26.716  27.243  1.00  0.00    -0.248 NA
ATOM     48  C   UNL A   1      45.805  24.640  26.299  1.00  0.00     0.031 C 
ATOM     49  C   UNL A   1      41.164  25.248  28.120  1.00  0.00     0.029 A 
ATOM     50  N   UNL A   1      42.552  27.002  28.224  1.00  0.00    -0.354 N 
ATOM     51  C   UNL A   1      46.601  26.734  26.765  1.00  0.00     0.074 A 
ATOM     52  C   UNL A   1      46.872  25.421  26.221  1.00  0.00     0.031 C 
ATOM     53  C   UNL A   1      40.486  26.272  28.665  1.00  0.00     0.029 A 
ATOM     54  C   UNL A   1      41.378  27.421  28.801  1.00  0.00     0.049 A 
ATOM     55  H   UNL A   1      43.335  27.587  28.108  1.00  0.00     0.167 HD
ATOM     56  C   UNL A   1      47.493  27.754  26.777  1.00  0.00     0.031 A 
ATOM     57  C   UNL A   1      41.072  28.585  29.406  1.00  0.00     0.031 A 
ATOM     58  C   UNL A   1      47.228  29.054  27.330  1.00  0.00     0.049 A 
ATOM     59  C   UNL A   1      42.117  29.665  29.506  1.00  0.00     0.074 A 
ATOM     60  C   UNL A   1      48.059  30.161  27.366  1.00  0.00     0.029 A 
ATOM     61  N   UNL A   1      46.046  29.419  27.955  1.00  0.00    -0.354 N 
ATOM     62  N   UNL A   1      43.337  29.683  29.025  1.00  0.00    -0.248 NA
ATOM     63  C   UNL A   1      41.744  30.882  30.242  1.00  0.00     0.031 C 
ATOM     64  C   UNL A   1      47.404  31.174  28.073  1.00  0.00     0.029 A 
ATOM     65  C   UNL A   1      46.143  30.719  28.422  1.00  0.00     0.049 A 
ATOM     66  H   UNL A   1      45.256  28.840  28.053  1.00  0.00     0.167 HD
ATOM     67  C   UNL A   1      43.869  30.914  29.386  1.00  0.00     0.074 A 
ATOM     68  C   UNL A   1      42.834  31.626  30.106  1.00  0.00     0.031 C 
ATOM     69  C   UNL A   1      45.106  31.411  29.144  1.00  0.00     0.031 A 
BRANCH  56  70
ATOM     70  C   UNL A   1      48.860  27.486  26.211  1.00  0.00    -0.014 A 
ATOM     71  C   UNL A   1      49.110  27.568  24.833  1.00  0.00     0.009 A 
ATOM     72  C   UNL A   1      49.922  27.189  27.079  1.00  0.00     0.009 A 
ATOM     73  C   UNL A   1      50.392  27.325  24.333  1.00  0.00     0.001 A 
ATOM     74  C   UNL A   1      51.208  26.974  26.579  1.00  0.00     0.001 A 
ATOM     75  C   UNL A   1      51.439  27.034  25.206  1.00  0.00     0.000 A 
ENDBRANCH  56  70
BRANCH  57  76
ATOM     76  C   UNL A   1      39.728  28.776  30.015  1.00  0.00    -0.014 A 
ATOM     77  C   UNL A   1      38.719  29.463  29.325  1.00  0.00     0.009 A 
ATOM     78  C   UNL A   1      39.456  28.289  31.304  1.00  0.00     0.009 A 
ATOM     79  C   UNL A   1      37.473  29.675  29.919  1.00  0.00     0.001 A 
ATOM     80  C   UNL A   1      38.201  28.476  31.884  1.00  0.00     0.001 A 
ATOM     81  C   UNL A   1      37.213  29.177  31.196  1.00  0.00     0.000 A 
ENDBRANCH  57  76
BRANCH  69  82
ATOM     82  C   UNL A   1      45.410  32.794  29.649  1.00  0.00    -0.014 A 
ATOM     83  C   UNL A   1      45.977  32.994  30.917  1.00  0.00     0.009 A 
ATOM     84  C   UNL A   1      45.184  33.906  28.822  1.00  0.00     0.009 A 
ATOM     85  C   UNL A   1      46.290  34.283  31.355  1.00  0.00     0.001 A 
ATOM     86  C   UNL A   1      45.525  35.189  29.250  1.00  0.00     0.001 A 
ATOM     87  C   UNL A   1      46.070  35.377  30.520  1.00  0.00     0.000 A 
ENDBRANCH  69  82
ENDBRANCH  43  44
ENDBRANCH  36  38
ENDBRANCH  35  36
ENDBRANCH  34  35
ENDBRANCH  33  34
ENDBRANCH   1  33
TORSDOF 19
ENDMDL
MODEL 3
REMARK VINA RESULT:      -9.9      2.058      7.520
REMARK SMILES CCOc1cc2c(cc1OCC)[C@@H](C(=O)OCCOCCOC(=O)c1ccc(-c3c4nc(c(-c5ccccc5)c5ccc([nH]5)c(-c5ccccc5)c5nc(c(-c6ccccc6)c6ccc3[nH]6)C=C5)C=C4)cc1)[C@H](c1ccc(F)cc1Cl)N(C)C2=O
REMARK SMILES IDX 19 1 18 2 17 3 16 4 14 5 15 6 13 7 4 8 5 9 9 10 6 11 8 12
REMARK SMILES IDX 7 13 84 14 82 15 85 16 73 17 83 18 3 19 2 20 1 21 10 22
REMARK SMILES IDX 11 23 12 24 74 25 75 26 80 27 76 28 79 29 81 30 77 31 78 32
REMARK SMILES IDX 20 33 21 34 22 35 23 36 24 37 25 38 26 39 72 40 27 41 71 42
REMARK SMILES IDX 28 43 29 44 30 45 65 46 31 47 70 48 64 49 66 50 32 51 69 52
REMARK SMILES IDX 63 53 62 54 33 56 55 57 40 58 54 59 41 60 44 61 53 62 67 63
REMARK SMILES IDX 42 64 43 65 52 67 68 68 45 69 34 70 35 71 39 72 36 73 38 74
REMARK SMILES IDX 37 75 56 76 57 77 61 78 58 79 60 80 59 81 46 82 47 83 51 84
REMARK SMILES IDX 48 85 50 86 49 87
REMARK H PARENT 66 55 44 66
REMARK Flexibility Score: inf
ROOT
ATOM      1  O   UNL A   1      38.091  21.077  25.025  1.00  0.00    -0.374 OA
ENDROOT
BRANCH   1   2
ATOM      2  C   UNL A   1      36.838  21.493  25.560  1.00  0.00     0.202 C 
BRANCH   2   3
ATOM      3  C   UNL A   1      36.446  22.955  25.333  1.00  0.00     0.261 C 
BRANCH   3   4
ATOM      4  O   UNL A   1      35.849  23.545  26.500  1.00  0.00    -0.463 OA
BRANCH   4   5
ATOM      5  C   UNL A   1      34.495  23.473  26.568  1.00  0.00     0.316 C 
ATOM      6  O   UNL A   1      33.871  22.847  27.418  1.00  0.00    -0.251 OA
BRANCH   5   7
ATOM      7  C   UNL A   1      33.797  24.197  25.431  1.00  0.00     0.157 C 
ATOM      8  C   UNL A   1      32.260  27.987  26.719  1.00  0.00     0.161 A 
ATOM      9  C   UNL A   1      31.437  26.851  26.694  1.00  0.00     0.064 A 
ATOM     10  C   UNL A   1      33.608  27.883  26.347  1.00  0.00     0.161 A 
ATOM     11  C   UNL A   1      31.949  25.613  26.331  1.00  0.00     0.048 A 
ATOM     12  C   UNL A   1      34.101  26.639  25.947  1.00  0.00     0.056 A 
ATOM     13  C   UNL A   1      33.274  25.517  25.915  1.00  0.00    -0.015 A 
ATOM     14  C   UNL A   1      31.078  24.404  26.364  1.00  0.00     0.254 C 
ATOM     15  N   UNL A   1      31.475  23.337  25.558  1.00  0.00    -0.333 N 
ATOM     16  O   UNL A   1      30.079  24.389  27.075  1.00  0.00    -0.269 OA
ATOM     17  C   UNL A   1      32.653  23.434  24.693  1.00  0.00     0.135 C 
ATOM     18  C   UNL A   1      30.654  22.138  25.541  1.00  0.00     0.147 C 
BRANCH   8  19
ATOM     19  O   UNL A   1      31.688  29.200  26.996  1.00  0.00    -0.490 OA
BRANCH  19  20
ATOM     20  C   UNL A   1      31.547  30.055  25.854  1.00  0.00     0.226 C 
ATOM     21  C   UNL A   1      31.414  31.517  26.250  1.00  0.00     0.049 C 
ENDBRANCH  19  20
ENDBRANCH   8  19
BRANCH  10  22
ATOM     22  O   UNL A   1      34.588  28.832  26.296  1.00  0.00    -0.490 OA
BRANCH  22  23
ATOM     23  C   UNL A   1      35.182  29.334  27.482  1.00  0.00     0.226 C 
ATOM     24  C   UNL A   1      34.777  30.779  27.704  1.00  0.00     0.049 C 
ENDBRANCH  22  23
ENDBRANCH  10  22
BRANCH  17  25
ATOM     25  C   UNL A   1      32.417  24.065  23.292  1.00  0.00    -0.005 A 
ATOM     26  C   UNL A   1      33.400  23.752  22.315  1.00  0.00     0.010 A 
ATOM     27  C   UNL A   1      31.410  24.978  22.898  1.00  0.00     0.049 A 
ATOM     28  C   UNL A   1      33.448  24.394  21.075  1.00  0.00     0.040 A 
ATOM     29  C   UNL A   1      31.462  25.613  21.647  1.00  0.00     0.060 A 
ATOM     30  Cl  UNL A   1      30.020  25.417  23.819  1.00  0.00    -0.084 Cl
ATOM     31  C   UNL A   1      32.488  25.335  20.762  1.00  0.00     0.124 A 
ATOM     32  F   UNL A   1      32.542  25.977  19.588  1.00  0.00    -0.207 F 
ENDBRANCH  17  25
ENDBRANCH   5   7
ENDBRANCH   4   5
ENDBRANCH   3   4
ENDBRANCH   2   3
ENDBRANCH   1   2
BRANCH   1  33
ATOM     33  C   UNL A   1      39.241  21.203  25.859  1.00  0.00     0.202 C 
BRANCH  33  34
ATOM     34  C   UNL A   1      39.946  19.904  26.262  1.00  0.00     0.261 C 
BRANCH  34  35
ATOM     35  O   UNL A   1      41.056  19.605  25.394  1.00  0.00    -0.460 OA
BRANCH  35  36
ATOM     36  C   UNL A   1      42.271  19.634  25.990  1.00  0.00     0.338 C 
ATOM     37  O   UNL A   1      43.078  18.715  26.071  1.00  0.00    -0.246 OA
BRANCH  36  38
ATOM     38  C   UNL A   1      42.605  21.011  26.387  1.00  0.00     0.060 A 
ATOM     39  C   UNL A   1      42.839  21.945  25.369  1.00  0.00     0.016 A 
ATOM     40  C   UNL A   1      42.743  21.375  27.729  1.00  0.00     0.016 A 
ATOM     41  C   UNL A   1      43.243  23.240  25.687  1.00  0.00     0.010 A 
ATOM     42  C   UNL A   1      43.152  22.674  28.044  1.00  0.00     0.010 A 
ATOM     43  C   UNL A   1      43.432  23.604  27.026  1.00  0.00    -0.014 A 
BRANCH  43  44
ATOM     44  C   UNL A   1      44.038  24.914  27.362  1.00  0.00     0.031 A 
ATOM     45  C   UNL A   1      43.161  26.015  27.889  1.00  0.00     0.074 A 
ATOM     46  C   UNL A   1      45.358  25.121  27.209  1.00  0.00     0.049 A 
ATOM     47  N   UNL A   1      43.464  27.257  28.167  1.00  0.00    -0.248 NA
ATOM     48  C   UNL A   1      41.751  25.669  28.133  1.00  0.00     0.031 C 
ATOM     49  C   UNL A   1      46.325  24.122  26.757  1.00  0.00     0.029 A 
ATOM     50  N   UNL A   1      46.109  26.253  27.408  1.00  0.00    -0.354 N 
ATOM     51  C   UNL A   1      42.284  27.845  28.604  1.00  0.00     0.074 A 
ATOM     52  C   UNL A   1      41.254  26.830  28.535  1.00  0.00     0.031 C 
ATOM     53  C   UNL A   1      47.542  24.689  26.702  1.00  0.00     0.029 A 
ATOM     54  C   UNL A   1      47.431  26.100  27.067  1.00  0.00     0.049 A 
ATOM     55  H   UNL A   1      45.737  27.093  27.760  1.00  0.00     0.167 HD
ATOM     56  C   UNL A   1      42.076  29.115  29.025  1.00  0.00     0.031 A 
ATOM     57  C   UNL A   1      48.428  27.004  27.018  1.00  0.00     0.031 A 
ATOM     58  C   UNL A   1      43.096  30.126  29.081  1.00  0.00     0.049 A 
ATOM     59  C   UNL A   1      48.147  28.437  27.385  1.00  0.00     0.074 A 
ATOM     60  C   UNL A   1      42.990  31.435  29.518  1.00  0.00     0.029 A 
ATOM     61  N   UNL A   1      44.409  29.945  28.674  1.00  0.00    -0.354 N 
ATOM     62  N   UNL A   1      47.035  28.976  27.825  1.00  0.00    -0.248 NA
ATOM     63  C   UNL A   1      49.258  29.389  27.240  1.00  0.00     0.031 C 
ATOM     64  C   UNL A   1      44.221  32.065  29.313  1.00  0.00     0.029 A 
ATOM     65  C   UNL A   1      45.111  31.131  28.807  1.00  0.00     0.049 A 
ATOM     66  H   UNL A   1      44.786  29.099  28.340  1.00  0.00     0.167 HD
ATOM     67  C   UNL A   1      47.317  30.321  28.023  1.00  0.00     0.074 A 
ATOM     68  C   UNL A   1      48.710  30.515  27.678  1.00  0.00     0.031 C 
ATOM     69  C   UNL A   1      46.495  31.310  28.451  1.00  0.00     0.031 A 
BRANCH  56  70
ATOM     70  C   UNL A   1      40.676  29.494  29.420  1.00  0.00    -0.014 A 
ATOM     71  C   UNL A   1      40.299  29.603  30.767  1.00  0.00     0.009 A 
ATOM     72  C   UNL A   1      39.732  29.789  28.424  1.00  0.00     0.009 A 
ATOM     73  C   UNL A   1      38.994  29.967  31.108  1.00  0.00     0.001 A 
ATOM     74  C   UNL A   1      38.437  30.180  28.767  1.00  0.00     0.001 A 
ATOM     75  C   UNL A   1      38.067  30.260  30.108  1.00  0.00     0.000 A 
ENDBRANCH  56  70
BRANCH  57  76
ATOM     76  C   UNL A   1      49.780  26.596  26.552  1.00  0.00    -0.014 A 
ATOM     77  C   UNL A   1      50.718  26.064  27.449  1.00  0.00     0.009 A 
ATOM     78  C   UNL A   1      50.147  26.758  25.205  1.00  0.00     0.009 A 
ATOM     79  C   UNL A   1      52.000  25.722  27.013  1.00  0.00     0.001 A 
ATOM     80  C   UNL A   1      51.419  26.387  24.766  1.00  0.00     0.001 A 
ATOM     81  C   UNL A   1      52.348  25.878  25.672  1.00  0.00     0.000 A 
ENDBRANCH  57  76
BRANCH  69  82
ATOM     82  C   UNL A   1      47.078  32.689  28.584  1.00  0.00    -0.014 A 
ATOM     83  C   UNL A   1      47.716  33.095  29.766  1.00  0.00     0.009 A 
ATOM     84  C   UNL A   1      47.043  33.572  27.492  1.00  0.00     0.009 A 
ATOM     85  C   UNL A   1      48.288  34.367  29.859  1.00  0.00     0.001 A 
ATOM     86  C   UNL A   1      47.641  34.830  27.578  1.00  0.00     0.001 A 
ATOM     87  C   UNL A   1      48.256  35.229  28.764  1.00  0.00     0.000 A 
ENDBRANCH  69  82
ENDBRANCH  43  44
ENDBRANCH  36  38
ENDBRANCH  35  36
ENDBRANCH  34  35
ENDBRANCH  33  34
ENDBRANCH   1  33
TORSDOF 19
ENDMDL
