MODEL 1
REMARK VINA RESULT:     -10.5      0.000      0.000
REMARK SMILES CC1CC[NH+]([C@H](c2ccc(F)cc2)c2ccc([C@@H](C)C(=O)OCCOCCOC(=O)c3ccc(-c4c5nc(c(-c6ccccc6)c6ccc([nH]6)c(-c6ccccc6)c6nc(c(-c7ccccc7)c7ccc4[nH]7)C=C6)C=C5)cc3)cc2-c2ccc(C(F)(F)F)cc2)CC1
REMARK SMILES IDX 24 1 23 2 22 3 20 4 21 5 18 6 19 7 17 8 14 9 15 10 80 11
REMARK SMILES IDX 16 12 79 13 6 14 5 15 1 16 2 17 3 18 92 19 4 20 91 21 7 23
REMARK SMILES IDX 8 24 13 25 9 26 12 27 10 28 11 29 81 30 82 31 90 32 83 33
REMARK SMILES IDX 89 34 84 35 85 36 86 37 87 38 88 39 25 40 26 41 27 42 28 43
REMARK SMILES IDX 29 44 30 45 31 46 32 47 78 48 33 49 77 50 34 51 35 52 36 53
REMARK SMILES IDX 71 54 37 55 76 56 70 57 72 58 38 59 75 60 69 61 68 62 39 64
REMARK SMILES IDX 61 65 46 66 60 67 47 68 50 69 59 70 73 71 48 72 49 73 58 75
REMARK SMILES IDX 74 76 51 77 40 78 41 79 45 80 42 81 44 82 43 83 62 84 63 85
REMARK SMILES IDX 67 86 64 87 66 88 65 89 52 90 53 91 57 92 54 93 56 94 55 95
REMARK H PARENT 5 22 72 63 50 74
REMARK Flexibility Score: inf
ROOT
ATOM      1  C   UNL A   1      35.212  33.649  30.040  1.00  0.00     0.202 C 
ENDROOT
BRANCH   1   2
ATOM      2  C   UNL A   1      35.625  33.733  28.570  1.00  0.00     0.261 C 
BRANCH   2   3
ATOM      3  O   UNL A   1      35.828  32.414  28.027  1.00  0.00    -0.463 OA
BRANCH   3   4
ATOM      4  C   UNL A   1      34.709  31.695  27.745  1.00  0.00     0.313 C 
ATOM      5  O   UNL A   1      33.605  32.189  27.539  1.00  0.00    -0.252 OA
BRANCH   4   6
ATOM      6  C   UNL A   1      34.932  30.188  27.763  1.00  0.00     0.126 C 
ATOM      7  C   UNL A   1      36.411  29.897  27.516  1.00  0.00     0.025 C 
BRANCH   6   8
ATOM      8  C   UNL A   1      34.027  29.328  26.885  1.00  0.00    -0.033 A 
ATOM      9  C   UNL A   1      32.464  27.693  25.099  1.00  0.00     0.022 A 
ATOM     10  C   UNL A   1      32.072  28.996  25.475  1.00  0.00     0.011 A 
ATOM     11  C   UNL A   1      33.661  27.189  25.685  1.00  0.00    -0.009 A 
ATOM     12  C   UNL A   1      32.843  29.802  26.324  1.00  0.00     0.005 A 
ATOM     13  C   UNL A   1      34.407  28.015  26.566  1.00  0.00     0.013 A 
BRANCH   9  14
ATOM     14  C   UNL A   1      31.655  26.854  24.060  1.00  0.00     0.247 C 
BRANCH  14  15
ATOM     15  N   UNL A   1      30.574  27.522  23.263  1.00  0.00    -0.325 N 
ATOM     16  C   UNL A   1      27.598  30.644  22.385  1.00  0.00     0.008 C 
ATOM     17  C   UNL A   1      28.695  29.747  22.949  1.00  0.00    -0.003 C 
ATOM     18  C   UNL A   1      29.877  29.610  21.991  1.00  0.00     0.065 C 
ATOM     19  C   UNL A   1      28.175  28.340  23.212  1.00  0.00     0.065 C 
ATOM     20  C   UNL A   1      30.998  28.763  22.608  1.00  0.00     0.263 C 
ATOM     21  C   UNL A   1      29.251  27.488  23.878  1.00  0.00     0.263 C 
ATOM     22  H   UNL A   1      30.409  26.920  22.457  1.00  0.00     0.348 HD
ENDBRANCH  14  15
BRANCH  14  23
ATOM     23  C   UNL A   1      31.176  25.496  24.610  1.00  0.00     0.014 A 
ATOM     24  C   UNL A   1      31.256  24.316  23.847  1.00  0.00     0.013 A 
ATOM     25  C   UNL A   1      30.659  25.415  25.918  1.00  0.00     0.013 A 
ATOM     26  C   UNL A   1      30.825  23.096  24.370  1.00  0.00     0.040 A 
ATOM     27  C   UNL A   1      30.209  24.197  26.432  1.00  0.00     0.040 A 
ATOM     28  C   UNL A   1      30.298  23.050  25.654  1.00  0.00     0.123 A 
ATOM     29  F   UNL A   1      29.876  21.880  26.152  1.00  0.00    -0.207 F 
ENDBRANCH  14  23
ENDBRANCH   9  14
BRANCH  11  30
ATOM     30  C   UNL A   1      34.178  25.829  25.441  1.00  0.00    -0.018 A 
ATOM     31  C   UNL A   1      34.687  25.484  24.178  1.00  0.00     0.009 A 
ATOM     32  C   UNL A   1      34.174  24.848  26.443  1.00  0.00     0.009 A 
ATOM     33  C   UNL A   1      35.220  24.214  23.937  1.00  0.00     0.014 A 
ATOM     34  C   UNL A   1      34.718  23.580  26.209  1.00  0.00     0.014 A 
ATOM     35  C   UNL A   1      35.258  23.255  24.957  1.00  0.00     0.056 A 
BRANCH  35  36
ATOM     36  C   UNL A   1      35.862  21.896  24.694  1.00  0.00     0.416 C 
ATOM     37  F   UNL A   1      36.549  21.416  25.767  1.00  0.00    -0.166 F 
ATOM     38  F   UNL A   1      34.925  20.954  24.396  1.00  0.00    -0.166 F 
ATOM     39  F   UNL A   1      36.740  21.887  23.651  1.00  0.00    -0.166 F 
ENDBRANCH  35  36
ENDBRANCH  11  30
ENDBRANCH   6   8
ENDBRANCH   4   6
ENDBRANCH   3   4
ENDBRANCH   2   3
ENDBRANCH   1   2
BRANCH   1  40
ATOM     40  O   UNL A   1      36.276  33.422  30.965  1.00  0.00    -0.374 OA
BRANCH  40  41
ATOM     41  C   UNL A   1      35.914  33.288  32.339  1.00  0.00     0.202 C 
BRANCH  41  42
ATOM     42  C   UNL A   1      36.304  31.964  33.004  1.00  0.00     0.261 C 
BRANCH  42  43
ATOM     43  O   UNL A   1      37.722  31.723  32.949  1.00  0.00    -0.460 OA
BRANCH  43  44
ATOM     44  C   UNL A   1      38.097  30.667  32.187  1.00  0.00     0.338 C 
ATOM     45  O   UNL A   1      37.435  29.673  31.920  1.00  0.00    -0.246 OA
BRANCH  44  46
ATOM     46  C   UNL A   1      39.412  30.932  31.574  1.00  0.00     0.060 A 
ATOM     47  C   UNL A   1      40.409  31.520  32.361  1.00  0.00     0.016 A 
ATOM     48  C   UNL A   1      39.652  30.666  30.227  1.00  0.00     0.016 A 
ATOM     49  C   UNL A   1      41.625  31.888  31.784  1.00  0.00     0.010 A 
ATOM     50  C   UNL A   1      40.873  31.021  29.652  1.00  0.00     0.010 A 
ATOM     51  C   UNL A   1      41.850  31.676  30.417  1.00  0.00    -0.014 A 
BRANCH  51  52
ATOM     52  C   UNL A   1      43.037  32.267  29.752  1.00  0.00     0.031 A 
ATOM     53  C   UNL A   1      42.996  33.710  29.325  1.00  0.00     0.074 A 
ATOM     54  C   UNL A   1      44.140  31.532  29.530  1.00  0.00     0.049 A 
ATOM     55  N   UNL A   1      43.920  34.427  28.737  1.00  0.00    -0.248 NA
ATOM     56  C   UNL A   1      41.744  34.438  29.586  1.00  0.00     0.031 C 
ATOM     57  C   UNL A   1      44.307  30.125  29.892  1.00  0.00     0.029 A 
ATOM     58  N   UNL A   1      45.330  31.874  28.938  1.00  0.00    -0.354 N 
ATOM     59  C   UNL A   1      43.358  35.684  28.552  1.00  0.00     0.074 A 
ATOM     60  C   UNL A   1      42.003  35.622  29.051  1.00  0.00     0.031 C 
ATOM     61  C   UNL A   1      45.533  29.724  29.515  1.00  0.00     0.029 A 
ATOM     62  C   UNL A   1      46.226  30.836  28.867  1.00  0.00     0.049 A 
ATOM     63  H   UNL A   1      45.522  32.777  28.595  1.00  0.00     0.167 HD
ATOM     64  C   UNL A   1      43.924  36.798  28.026  1.00  0.00     0.031 A 
ATOM     65  C   UNL A   1      47.463  30.788  28.336  1.00  0.00     0.031 A 
ATOM     66  C   UNL A   1      45.270  36.865  27.525  1.00  0.00     0.049 A 
ATOM     67  C   UNL A   1      48.058  32.026  27.723  1.00  0.00     0.074 A 
ATOM     68  C   UNL A   1      45.947  37.959  27.017  1.00  0.00     0.029 A 
ATOM     69  N   UNL A   1      46.138  35.788  27.457  1.00  0.00    -0.354 N 
ATOM     70  N   UNL A   1      47.538  33.225  27.612  1.00  0.00    -0.248 NA
ATOM     71  C   UNL A   1      49.416  31.905  27.172  1.00  0.00     0.031 C 
ATOM     72  C   UNL A   1      47.210  37.532  26.592  1.00  0.00     0.029 A 
ATOM     73  C   UNL A   1      47.337  36.184  26.887  1.00  0.00     0.049 A 
ATOM     74  H   UNL A   1      45.934  34.876  27.768  1.00  0.00     0.167 HD
ATOM     75  C   UNL A   1      48.513  34.005  27.003  1.00  0.00     0.074 A 
ATOM     76  C   UNL A   1      49.658  33.148  26.780  1.00  0.00     0.031 C 
ATOM     77  C   UNL A   1      48.465  35.318  26.662  1.00  0.00     0.031 A 
BRANCH  64  78
ATOM     78  C   UNL A   1      43.067  38.031  27.949  1.00  0.00    -0.014 A 
ATOM     79  C   UNL A   1      43.017  38.954  29.005  1.00  0.00     0.009 A 
ATOM     80  C   UNL A   1      42.309  38.281  26.794  1.00  0.00     0.009 A 
ATOM     81  C   UNL A   1      42.195  40.080  28.923  1.00  0.00     0.001 A 
ATOM     82  C   UNL A   1      41.510  39.422  26.703  1.00  0.00     0.001 A 
ATOM     83  C   UNL A   1      41.445  40.314  27.771  1.00  0.00     0.000 A 
ENDBRANCH  64  78
BRANCH  65  84
ATOM     84  C   UNL A   1      48.226  29.515  28.368  1.00  0.00    -0.014 A 
ATOM     85  C   UNL A   1      48.128  28.597  27.312  1.00  0.00     0.009 A 
ATOM     86  C   UNL A   1      49.063  29.216  29.454  1.00  0.00     0.009 A 
ATOM     87  C   UNL A   1      48.844  27.397  27.350  1.00  0.00     0.001 A 
ATOM     88  C   UNL A   1      49.796  28.028  29.478  1.00  0.00     0.001 A 
ATOM     89  C   UNL A   1      49.681  27.117  28.430  1.00  0.00     0.000 A 
ENDBRANCH  65  84
BRANCH  77  90
ATOM     90  C   UNL A   1      49.694  35.913  26.036  1.00  0.00    -0.014 A 
ATOM     91  C   UNL A   1      49.887  35.891  24.646  1.00  0.00     0.009 A 
ATOM     92  C   UNL A   1      50.650  36.546  26.846  1.00  0.00     0.009 A 
ATOM     93  C   UNL A   1      51.029  36.466  24.083  1.00  0.00     0.001 A 
ATOM     94  C   UNL A   1      51.778  37.142  26.279  1.00  0.00     0.001 A 
ATOM     95  C   UNL A   1      51.971  37.095  24.899  1.00  0.00     0.000 A 
ENDBRANCH  77  90
ENDBRANCH  51  52
ENDBRANCH  44  46
ENDBRANCH  43  44
ENDBRANCH  42  43
ENDBRANCH  41  42
ENDBRANCH  40  41
ENDBRANCH   1  40
TORSDOF 20
ENDMDL
MODEL 2
REMARK VINA RESULT:     -10.3      5.580      9.798
REMARK SMILES CC1CC[NH+]([C@H](c2ccc(F)cc2)c2ccc([C@@H](C)C(=O)OCCOCCOC(=O)c3ccc(-c4c5nc(c(-c6ccccc6)c6ccc([nH]6)c(-c6ccccc6)c6nc(c(-c7ccccc7)c7ccc4[nH]7)C=C6)C=C5)cc3)cc2-c2ccc(C(F)(F)F)cc2)CC1
REMARK SMILES IDX 24 1 23 2 22 3 20 4 21 5 18 6 19 7 17 8 14 9 15 10 80 11
REMARK SMILES IDX 16 12 79 13 6 14 5 15 1 16 2 17 3 18 92 19 4 20 91 21 7 23
REMARK SMILES IDX 8 24 13 25 9 26 12 27 10 28 11 29 81 30 82 31 90 32 83 33
REMARK SMILES IDX 89 34 84 35 85 36 86 37 87 38 88 39 25 40 26 41 27 42 28 43
REMARK SMILES IDX 29 44 30 45 31 46 32 47 78 48 33 49 77 50 34 51 35 52 36 53
REMARK SMILES IDX 71 54 37 55 76 56 70 57 72 58 38 59 75 60 69 61 68 62 39 64
REMARK SMILES IDX 61 65 46 66 60 67 47 68 50 69 59 70 73 71 48 72 49 73 58 75
REMARK SMILES IDX 74 76 51 77 40 78 41 79 45 80 42 81 44 82 43 83 62 84 63 85
REMARK SMILES IDX 67 86 64 87 66 88 65 89 52 90 53 91 57 92 54 93 56 94 55 95
REMARK H PARENT 5 22 72 63 50 74
REMARK Flexibility Score: inf
ROOT
ATOM      1  C   UNL A   1      34.119  24.092  25.073  1.00  0.00     0.202 C 
ENDROOT
BRANCH   1   2
ATOM      2  C   UNL A   1      33.300  24.860  26.112  1.00  0.00     0.261 C 
BRANCH   2   3
ATOM      3  O   UNL A   1      33.543  26.275  25.999  1.00  0.00    -0.463 OA
BRANCH   3   4
ATOM      4  C   UNL A   1      32.577  27.098  26.483  1.00  0.00     0.313 C 
ATOM      5  O   UNL A   1      31.713  26.753  27.284  1.00  0.00    -0.252 OA
BRANCH   4   6
ATOM      6  C   UNL A   1      32.619  28.502  25.893  1.00  0.00     0.126 C 
ATOM      7  C   UNL A   1      33.009  28.416  24.420  1.00  0.00     0.025 C 
BRANCH   6   8
ATOM      8  C   UNL A   1      33.433  29.558  26.638  1.00  0.00    -0.033 A 
ATOM      9  C   UNL A   1      34.971  31.433  28.196  1.00  0.00     0.022 A 
ATOM     10  C   UNL A   1      33.698  31.744  27.672  1.00  0.00     0.011 A 
ATOM     11  C   UNL A   1      35.497  30.147  27.878  1.00  0.00    -0.009 A 
ATOM     12  C   UNL A   1      32.937  30.826  26.935  1.00  0.00     0.005 A 
ATOM     13  C   UNL A   1      34.720  29.247  27.103  1.00  0.00     0.013 A 
BRANCH   9  14
ATOM     14  C   UNL A   1      35.753  32.423  29.115  1.00  0.00     0.247 C 
BRANCH  14  15
ATOM     15  N   UNL A   1      36.529  31.882  30.280  1.00  0.00    -0.325 N 
ATOM     16  C   UNL A   1      38.281  31.986  34.315  1.00  0.00     0.008 C 
ATOM     17  C   UNL A   1      37.560  32.243  32.998  1.00  0.00    -0.003 C 
ATOM     18  C   UNL A   1      36.460  31.217  32.732  1.00  0.00     0.065 C 
ATOM     19  C   UNL A   1      38.522  32.174  31.818  1.00  0.00     0.065 C 
ATOM     20  C   UNL A   1      35.700  31.537  31.438  1.00  0.00     0.263 C 
ATOM     21  C   UNL A   1      37.807  32.543  30.522  1.00  0.00     0.263 C 
ATOM     22  H   UNL A   1      36.859  30.961  29.991  1.00  0.00     0.348 HD
ENDBRANCH  14  15
BRANCH  14  23
ATOM     23  C   UNL A   1      34.926  33.657  29.528  1.00  0.00     0.014 A 
ATOM     24  C   UNL A   1      34.474  34.598  28.582  1.00  0.00     0.013 A 
ATOM     25  C   UNL A   1      34.588  33.851  30.881  1.00  0.00     0.013 A 
ATOM     26  C   UNL A   1      33.717  35.701  28.979  1.00  0.00     0.040 A 
ATOM     27  C   UNL A   1      33.849  34.967  31.278  1.00  0.00     0.040 A 
ATOM     28  C   UNL A   1      33.419  35.880  30.323  1.00  0.00     0.123 A 
ATOM     29  F   UNL A   1      32.701  36.945  30.704  1.00  0.00    -0.207 F 
ENDBRANCH  14  23
ENDBRANCH   9  14
BRANCH  11  30
ATOM     30  C   UNL A   1      36.835  29.688  28.298  1.00  0.00    -0.018 A 
ATOM     31  C   UNL A   1      36.991  28.977  29.500  1.00  0.00     0.009 A 
ATOM     32  C   UNL A   1      37.979  29.945  27.529  1.00  0.00     0.009 A 
ATOM     33  C   UNL A   1      38.242  28.496  29.897  1.00  0.00     0.014 A 
ATOM     34  C   UNL A   1      39.231  29.455  27.917  1.00  0.00     0.014 A 
ATOM     35  C   UNL A   1      39.372  28.713  29.099  1.00  0.00     0.056 A 
BRANCH  35  36
ATOM     36  C   UNL A   1      40.713  28.165  29.523  1.00  0.00     0.416 C 
ATOM     37  F   UNL A   1      41.034  28.508  30.801  1.00  0.00    -0.166 F 
ATOM     38  F   UNL A   1      40.764  26.805  29.477  1.00  0.00    -0.166 F 
ATOM     39  F   UNL A   1      41.746  28.600  28.748  1.00  0.00    -0.166 F 
ENDBRANCH  35  36
ENDBRANCH  11  30
ENDBRANCH   6   8
ENDBRANCH   4   6
ENDBRANCH   3   4
ENDBRANCH   2   3
ENDBRANCH   1   2
BRANCH   1  40
ATOM     40  O   UNL A   1      35.059  23.157  25.602  1.00  0.00    -0.374 OA
BRANCH  40  41
ATOM     41  C   UNL A   1      36.394  23.239  25.104  1.00  0.00     0.202 C 
BRANCH  41  42
ATOM     42  C   UNL A   1      37.361  22.165  25.611  1.00  0.00     0.261 C 
BRANCH  42  43
ATOM     43  O   UNL A   1      38.596  22.726  26.094  1.00  0.00    -0.460 OA
BRANCH  43  44
ATOM     44  C   UNL A   1      39.578  21.825  26.340  1.00  0.00     0.338 C 
ATOM     45  O   UNL A   1      39.593  20.640  26.036  1.00  0.00    -0.246 OA
BRANCH  44  46
ATOM     46  C   UNL A   1      40.747  22.507  26.929  1.00  0.00     0.060 A 
ATOM     47  C   UNL A   1      40.698  23.896  27.091  1.00  0.00     0.016 A 
ATOM     48  C   UNL A   1      41.905  21.804  27.262  1.00  0.00     0.016 A 
ATOM     49  C   UNL A   1      41.826  24.585  27.538  1.00  0.00     0.010 A 
ATOM     50  C   UNL A   1      43.029  22.492  27.723  1.00  0.00     0.010 A 
ATOM     51  C   UNL A   1      43.011  23.891  27.819  1.00  0.00    -0.014 A 
BRANCH  51  52
ATOM     52  C   UNL A   1      44.272  24.632  28.071  1.00  0.00     0.031 A 
ATOM     53  C   UNL A   1      44.738  24.824  29.489  1.00  0.00     0.074 A 
ATOM     54  C   UNL A   1      44.995  25.128  27.053  1.00  0.00     0.049 A 
ATOM     55  N   UNL A   1      45.809  25.431  29.934  1.00  0.00    -0.248 NA
ATOM     56  C   UNL A   1      43.878  24.269  30.546  1.00  0.00     0.031 C 
ATOM     57  C   UNL A   1      44.653  25.012  25.636  1.00  0.00     0.029 A 
ATOM     58  N   UNL A   1      46.171  25.835  27.061  1.00  0.00    -0.354 N 
ATOM     59  C   UNL A   1      45.747  25.336  31.319  1.00  0.00     0.074 A 
ATOM     60  C   UNL A   1      44.515  24.652  31.642  1.00  0.00     0.031 C 
ATOM     61  C   UNL A   1      45.602  25.627  24.909  1.00  0.00     0.029 A 
ATOM     62  C   UNL A   1      46.603  26.197  25.810  1.00  0.00     0.049 A 
ATOM     63  H   UNL A   1      46.658  26.062  27.887  1.00  0.00     0.167 HD
ATOM     64  C   UNL A   1      46.641  25.767  32.241  1.00  0.00     0.031 A 
ATOM     65  C   UNL A   1      47.681  26.910  25.432  1.00  0.00     0.031 A 
ATOM     66  C   UNL A   1      47.866  26.451  31.925  1.00  0.00     0.049 A 
ATOM     67  C   UNL A   1      48.642  27.413  26.476  1.00  0.00     0.074 A 
ATOM     68  C   UNL A   1      48.859  26.883  32.787  1.00  0.00     0.029 A 
ATOM     69  N   UNL A   1      48.259  26.811  30.647  1.00  0.00    -0.354 N 
ATOM     70  N   UNL A   1      48.603  27.261  27.778  1.00  0.00    -0.248 NA
ATOM     71  C   UNL A   1      49.804  28.175  25.993  1.00  0.00     0.031 C 
ATOM     72  C   UNL A   1      49.828  27.555  32.033  1.00  0.00     0.029 A 
ATOM     73  C   UNL A   1      49.465  27.490  30.697  1.00  0.00     0.049 A 
ATOM     74  H   UNL A   1      47.755  26.615  29.824  1.00  0.00     0.167 HD
ATOM     75  C   UNL A   1      49.744  27.885  28.266  1.00  0.00     0.074 A 
ATOM     76  C   UNL A   1      50.460  28.407  27.121  1.00  0.00     0.031 C 
ATOM     77  C   UNL A   1      50.162  28.012  29.551  1.00  0.00     0.031 A 
BRANCH  64  78
ATOM     78  C   UNL A   1      46.306  25.526  33.687  1.00  0.00    -0.014 A 
ATOM     79  C   UNL A   1      46.692  24.344  34.339  1.00  0.00     0.009 A 
ATOM     80  C   UNL A   1      45.606  26.503  34.411  1.00  0.00     0.009 A 
ATOM     81  C   UNL A   1      46.349  24.130  35.676  1.00  0.00     0.001 A 
ATOM     82  C   UNL A   1      45.289  26.297  35.755  1.00  0.00     0.001 A 
ATOM     83  C   UNL A   1      45.650  25.107  36.383  1.00  0.00     0.000 A 
ENDBRANCH  64  78
BRANCH  65  84
ATOM     84  C   UNL A   1      47.912  27.188  23.992  1.00  0.00    -0.014 A 
ATOM     85  C   UNL A   1      47.185  28.191  23.333  1.00  0.00     0.009 A 
ATOM     86  C   UNL A   1      48.866  26.454  23.272  1.00  0.00     0.009 A 
ATOM     87  C   UNL A   1      47.401  28.443  21.976  1.00  0.00     0.001 A 
ATOM     88  C   UNL A   1      49.097  26.725  21.922  1.00  0.00     0.001 A 
ATOM     89  C   UNL A   1      48.360  27.714  21.273  1.00  0.00     0.000 A 
ENDBRANCH  65  84
BRANCH  77  90
ATOM     90  C   UNL A   1      51.467  28.721  29.784  1.00  0.00    -0.014 A 
ATOM     91  C   UNL A   1      51.513  30.102  30.026  1.00  0.00     0.009 A 
ATOM     92  C   UNL A   1      52.662  27.985  29.808  1.00  0.00     0.009 A 
ATOM     93  C   UNL A   1      52.735  30.738  30.257  1.00  0.00     0.001 A 
ATOM     94  C   UNL A   1      53.879  28.619  30.066  1.00  0.00     0.001 A 
ATOM     95  C   UNL A   1      53.916  29.995  30.282  1.00  0.00     0.000 A 
ENDBRANCH  77  90
ENDBRANCH  51  52
ENDBRANCH  44  46
ENDBRANCH  43  44
ENDBRANCH  42  43
ENDBRANCH  41  42
ENDBRANCH  40  41
ENDBRANCH   1  40
TORSDOF 20
ENDMDL
MODEL 3
REMARK VINA RESULT:     -10.2      7.104     13.539
REMARK SMILES CC1CC[NH+]([C@H](c2ccc(F)cc2)c2ccc([C@@H](C)C(=O)OCCOCCOC(=O)c3ccc(-c4c5nc(c(-c6ccccc6)c6ccc([nH]6)c(-c6ccccc6)c6nc(c(-c7ccccc7)c7ccc4[nH]7)C=C6)C=C5)cc3)cc2-c2ccc(C(F)(F)F)cc2)CC1
REMARK SMILES IDX 24 1 23 2 22 3 20 4 21 5 18 6 19 7 17 8 14 9 15 10 80 11
REMARK SMILES IDX 16 12 79 13 6 14 5 15 1 16 2 17 3 18 92 19 4 20 91 21 7 23
REMARK SMILES IDX 8 24 13 25 9 26 12 27 10 28 11 29 81 30 82 31 90 32 83 33
REMARK SMILES IDX 89 34 84 35 85 36 86 37 87 38 88 39 25 40 26 41 27 42 28 43
REMARK SMILES IDX 29 44 30 45 31 46 32 47 78 48 33 49 77 50 34 51 35 52 36 53
REMARK SMILES IDX 71 54 37 55 76 56 70 57 72 58 38 59 75 60 69 61 68 62 39 64
REMARK SMILES IDX 61 65 46 66 60 67 47 68 50 69 59 70 73 71 48 72 49 73 58 75
REMARK SMILES IDX 74 76 51 77 40 78 41 79 45 80 42 81 44 82 43 83 62 84 63 85
REMARK SMILES IDX 67 86 64 87 66 88 65 89 52 90 53 91 57 92 54 93 56 94 55 95
REMARK H PARENT 5 22 72 63 50 74
REMARK Flexibility Score: inf
ROOT
ATOM      1  C   UNL A   1      44.553  23.496  30.584  1.00  0.00     0.202 C 
ENDROOT
BRANCH   1   2
ATOM      2  C   UNL A   1      43.137  23.308  30.039  1.00  0.00     0.261 C 
BRANCH   2   3
ATOM      3  O   UNL A   1      43.125  22.314  28.996  1.00  0.00    -0.463 OA
BRANCH   3   4
ATOM      4  C   UNL A   1      42.187  22.464  28.024  1.00  0.00     0.313 C 
ATOM      5  O   UNL A   1      41.020  22.101  28.128  1.00  0.00    -0.252 OA
BRANCH   4   6
ATOM      6  C   UNL A   1      42.731  23.083  26.742  1.00  0.00     0.126 C 
ATOM      7  C   UNL A   1      42.848  21.999  25.673  1.00  0.00     0.025 C 
BRANCH   6   8
ATOM      8  C   UNL A   1      44.003  23.921  26.846  1.00  0.00    -0.033 A 
ATOM      9  C   UNL A   1      46.334  25.615  26.898  1.00  0.00     0.022 A 
ATOM     10  C   UNL A   1      46.406  24.232  26.625  1.00  0.00     0.011 A 
ATOM     11  C   UNL A   1      45.045  26.143  27.201  1.00  0.00    -0.009 A 
ATOM     12  C   UNL A   1      45.271  23.411  26.575  1.00  0.00     0.005 A 
ATOM     13  C   UNL A   1      43.916  25.283  27.173  1.00  0.00     0.013 A 
BRANCH   9  14
ATOM     14  C   UNL A   1      47.592  26.538  26.833  1.00  0.00     0.247 C 
BRANCH  14  15
ATOM     15  N   UNL A   1      48.622  26.295  25.769  1.00  0.00    -0.325 N 
ATOM     16  C   UNL A   1      52.147  27.261  23.317  1.00  0.00     0.008 C 
ATOM     17  C   UNL A   1      50.992  27.210  24.311  1.00  0.00    -0.003 C 
ATOM     18  C   UNL A   1      51.095  26.013  25.254  1.00  0.00     0.065 C 
ATOM     19  C   UNL A   1      49.652  27.094  23.595  1.00  0.00     0.065 C 
ATOM     20  C   UNL A   1      49.964  26.022  26.291  1.00  0.00     0.263 C 
ATOM     21  C   UNL A   1      48.503  27.156  24.597  1.00  0.00     0.263 C 
ATOM     22  H   UNL A   1      48.385  25.396  25.352  1.00  0.00     0.348 HD
ENDBRANCH  14  15
BRANCH  14  23
ATOM     23  C   UNL A   1      48.258  26.761  28.205  1.00  0.00     0.014 A 
ATOM     24  C   UNL A   1      48.537  25.691  29.078  1.00  0.00     0.013 A 
ATOM     25  C   UNL A   1      48.622  28.062  28.602  1.00  0.00     0.013 A 
ATOM     26  C   UNL A   1      49.150  25.917  30.311  1.00  0.00     0.040 A 
ATOM     27  C   UNL A   1      49.216  28.288  29.846  1.00  0.00     0.040 A 
ATOM     28  C   UNL A   1      49.477  27.213  30.686  1.00  0.00     0.123 A 
ATOM     29  F   UNL A   1      50.057  27.429  31.874  1.00  0.00    -0.207 F 
ENDBRANCH  14  23
ENDBRANCH   9  14
BRANCH  11  30
ATOM     30  C   UNL A   1      44.807  27.553  27.564  1.00  0.00    -0.018 A 
ATOM     31  C   UNL A   1      44.920  27.965  28.902  1.00  0.00     0.009 A 
ATOM     32  C   UNL A   1      44.459  28.513  26.603  1.00  0.00     0.009 A 
ATOM     33  C   UNL A   1      44.739  29.304  29.262  1.00  0.00     0.014 A 
ATOM     34  C   UNL A   1      44.289  29.856  26.958  1.00  0.00     0.014 A 
ATOM     35  C   UNL A   1      44.440  30.267  28.290  1.00  0.00     0.056 A 
BRANCH  35  36
ATOM     36  C   UNL A   1      44.275  31.714  28.686  1.00  0.00     0.416 C 
ATOM     37  F   UNL A   1      45.406  32.235  29.237  1.00  0.00    -0.166 F 
ATOM     38  F   UNL A   1      43.969  32.517  27.630  1.00  0.00    -0.166 F 
ATOM     39  F   UNL A   1      43.285  31.915  29.601  1.00  0.00    -0.166 F 
ENDBRANCH  35  36
ENDBRANCH  11  30
ENDBRANCH   6   8
ENDBRANCH   4   6
ENDBRANCH   3   4
ENDBRANCH   2   3
ENDBRANCH   1   2
BRANCH   1  40
ATOM     40  O   UNL A   1      44.716  24.570  31.510  1.00  0.00    -0.374 OA
BRANCH  40  41
ATOM     41  C   UNL A   1      44.951  24.212  32.872  1.00  0.00     0.202 C 
BRANCH  41  42
ATOM     42  C   UNL A   1      46.290  24.668  33.459  1.00  0.00     0.261 C 
BRANCH  42  43
ATOM     43  O   UNL A   1      46.288  24.655  34.898  1.00  0.00    -0.460 OA
BRANCH  43  44
ATOM     44  C   UNL A   1      46.564  25.846  35.484  1.00  0.00     0.338 C 
ATOM     45  O   UNL A   1      47.567  26.147  36.117  1.00  0.00    -0.246 OA
BRANCH  44  46
ATOM     46  C   UNL A   1      45.523  26.830  35.134  1.00  0.00     0.060 A 
ATOM     47  C   UNL A   1      44.210  26.590  35.553  1.00  0.00     0.016 A 
ATOM     48  C   UNL A   1      45.813  27.948  34.352  1.00  0.00     0.016 A 
ATOM     49  C   UNL A   1      43.181  27.440  35.144  1.00  0.00     0.010 A 
ATOM     50  C   UNL A   1      44.787  28.807  33.954  1.00  0.00     0.010 A 
ATOM     51  C   UNL A   1      43.458  28.531  34.310  1.00  0.00    -0.014 A 
BRANCH  51  52
ATOM     52  C   UNL A   1      42.352  29.300  33.688  1.00  0.00     0.031 A 
ATOM     53  C   UNL A   1      41.822  28.867  32.348  1.00  0.00     0.074 A 
ATOM     54  C   UNL A   1      41.823  30.370  34.306  1.00  0.00     0.049 A 
ATOM     55  N   UNL A   1      40.859  29.387  31.630  1.00  0.00    -0.248 NA
ATOM     56  C   UNL A   1      42.469  27.699  31.730  1.00  0.00     0.031 C 
ATOM     57  C   UNL A   1      42.246  30.894  35.603  1.00  0.00     0.029 A 
ATOM     58  N   UNL A   1      40.812  31.211  33.914  1.00  0.00    -0.354 N 
ATOM     59  C   UNL A   1      40.792  28.616  30.476  1.00  0.00     0.074 A 
ATOM     60  C   UNL A   1      41.836  27.620  30.569  1.00  0.00     0.031 C 
ATOM     61  C   UNL A   1      41.497  31.969  35.902  1.00  0.00     0.029 A 
ATOM     62  C   UNL A   1      40.560  32.220  34.809  1.00  0.00     0.049 A 
ATOM     63  H   UNL A   1      40.316  31.101  33.070  1.00  0.00     0.167 HD
ATOM     64  C   UNL A   1      39.930  28.717  29.435  1.00  0.00     0.031 A 
ATOM     65  C   UNL A   1      39.677  33.235  34.752  1.00  0.00     0.031 A 
ATOM     66  C   UNL A   1      38.892  29.707  29.335  1.00  0.00     0.049 A 
ATOM     67  C   UNL A   1      38.754  33.352  33.569  1.00  0.00     0.074 A 
ATOM     68  C   UNL A   1      37.940  29.860  28.344  1.00  0.00     0.029 A 
ATOM     69  N   UNL A   1      38.681  30.721  30.255  1.00  0.00    -0.354 N 
ATOM     70  N   UNL A   1      38.659  32.578  32.514  1.00  0.00    -0.248 NA
ATOM     71  C   UNL A   1      37.807  34.477  33.577  1.00  0.00     0.031 C 
ATOM     72  C   UNL A   1      37.184  31.001  28.637  1.00  0.00     0.029 A 
ATOM     73  C   UNL A   1      37.632  31.523  29.840  1.00  0.00     0.049 A 
ATOM     74  H   UNL A   1      39.200  30.852  31.082  1.00  0.00     0.167 HD
ATOM     75  C   UNL A   1      37.629  33.107  31.747  1.00  0.00     0.074 A 
ATOM     76  C   UNL A   1      37.122  34.259  32.463  1.00  0.00     0.031 C 
ATOM     77  C   UNL A   1      37.143  32.673  30.557  1.00  0.00     0.031 A 
BRANCH  64  78
ATOM     78  C   UNL A   1      40.096  27.735  28.309  1.00  0.00    -0.014 A 
ATOM     79  C   UNL A   1      40.881  28.039  27.185  1.00  0.00     0.009 A 
ATOM     80  C   UNL A   1      39.470  26.481  28.380  1.00  0.00     0.009 A 
ATOM     81  C   UNL A   1      41.002  27.123  26.138  1.00  0.00     0.001 A 
ATOM     82  C   UNL A   1      39.616  25.556  27.344  1.00  0.00     0.001 A 
ATOM     83  C   UNL A   1      40.372  25.881  26.220  1.00  0.00     0.000 A 
ENDBRANCH  64  78
BRANCH  65  84
ATOM     84  C   UNL A   1      39.620  34.224  35.859  1.00  0.00    -0.014 A 
ATOM     85  C   UNL A   1      38.930  33.929  37.044  1.00  0.00     0.009 A 
ATOM     86  C   UNL A   1      40.263  35.464  35.736  1.00  0.00     0.009 A 
ATOM     87  C   UNL A   1      38.874  34.865  38.080  1.00  0.00     0.001 A 
ATOM     88  C   UNL A   1      40.226  36.388  36.782  1.00  0.00     0.001 A 
ATOM     89  C   UNL A   1      39.527  36.091  37.950  1.00  0.00     0.000 A 
ENDBRANCH  65  84
BRANCH  77  90
ATOM     90  C   UNL A   1      35.989  33.433  29.965  1.00  0.00    -0.014 A 
ATOM     91  C   UNL A   1      34.743  33.481  30.607  1.00  0.00     0.009 A 
ATOM     92  C   UNL A   1      36.168  34.147  28.770  1.00  0.00     0.009 A 
ATOM     93  C   UNL A   1      33.689  34.206  30.047  1.00  0.00     0.001 A 
ATOM     94  C   UNL A   1      35.121  34.893  28.227  1.00  0.00     0.001 A 
ATOM     95  C   UNL A   1      33.880  34.915  28.861  1.00  0.00     0.000 A 
ENDBRANCH  77  90
ENDBRANCH  51  52
ENDBRANCH  44  46
ENDBRANCH  43  44
ENDBRANCH  42  43
ENDBRANCH  41  42
ENDBRANCH  40  41
ENDBRANCH   1  40
TORSDOF 20
ENDMDL
