MODEL 1
REMARK VINA RESULT:     -10.3      0.000      0.000
REMARK SMILES C[C@@H](C(=O)OCCOCCOC(=O)c1ccc(-c2c3nc(c(-c4ccccc4)c4ccc([nH]4)c(-c4ccccc4)c4nc(c(-c5ccccc5)c5ccc2[nH]5)C=C4)C=C3)cc1)c1ccc(NC2CCCC2)cc1F
REMARK SMILES IDX 7 1 6 2 5 3 3 4 4 5 2 6 1 7 62 8 63 9 73 10 64 11 72 12
REMARK SMILES IDX 74 13 65 14 66 15 67 17 68 18 71 19 69 20 70 21 8 22 9 23
REMARK SMILES IDX 10 24 11 25 12 26 13 27 14 28 15 29 61 30 16 31 60 32 17 33
REMARK SMILES IDX 18 34 19 35 54 36 20 37 59 38 53 39 55 40 21 41 58 42 52 43
REMARK SMILES IDX 51 44 22 46 44 47 29 48 43 49 30 50 33 51 42 52 56 53 31 54
REMARK SMILES IDX 32 55 41 57 57 58 34 59 23 60 24 61 28 62 25 63 27 64 26 65
REMARK SMILES IDX 45 66 46 67 50 68 47 69 49 70 48 71 35 72 36 73 40 74 37 75
REMARK SMILES IDX 39 76 38 77
REMARK H PARENT 66 16 55 45 33 56
REMARK Flexibility Score: inf
ROOT
ATOM      1  C   UNL A   1      40.661  20.245  26.552  1.00  0.00     0.202 C 
ENDROOT
BRANCH   1   2
ATOM      2  C   UNL A   1      39.897  21.569  26.454  1.00  0.00     0.261 C 
BRANCH   2   3
ATOM      3  O   UNL A   1      38.709  21.402  25.666  1.00  0.00    -0.463 OA
BRANCH   3   4
ATOM      4  C   UNL A   1      37.784  22.392  25.788  1.00  0.00     0.313 C 
ATOM      5  O   UNL A   1      38.053  23.588  25.780  1.00  0.00    -0.252 OA
BRANCH   4   6
ATOM      6  C   UNL A   1      36.354  21.845  25.775  1.00  0.00     0.129 C 
ATOM      7  C   UNL A   1      36.241  20.583  24.905  1.00  0.00     0.025 C 
BRANCH   6   8
ATOM      8  C   UNL A   1      35.297  22.902  25.448  1.00  0.00     0.002 A 
ATOM      9  C   UNL A   1      35.254  23.587  24.225  1.00  0.00     0.010 A 
ATOM     10  C   UNL A   1      34.346  23.275  26.401  1.00  0.00     0.129 A 
ATOM     11  C   UNL A   1      34.310  24.601  23.988  1.00  0.00     0.026 A 
ATOM     12  C   UNL A   1      33.407  24.283  26.160  1.00  0.00     0.065 A 
ATOM     13  F   UNL A   1      34.328  22.678  27.601  1.00  0.00    -0.207 F 
ATOM     14  C   UNL A   1      33.379  24.987  24.952  1.00  0.00     0.037 A 
BRANCH  14  15
ATOM     15  N   UNL A   1      32.469  26.012  24.800  1.00  0.00    -0.382 N 
ATOM     16  H   UNL A   1      31.767  25.849  24.129  1.00  0.00     0.160 HD
BRANCH  15  17
ATOM     17  C   UNL A   1      32.385  27.297  25.480  1.00  0.00     0.079 C 
ATOM     18  C   UNL A   1      31.384  27.350  26.628  1.00  0.00     0.025 C 
ATOM     19  C   UNL A   1      33.716  27.802  26.035  1.00  0.00     0.025 C 
ATOM     20  C   UNL A   1      31.861  28.533  27.457  1.00  0.00     0.002 C 
ATOM     21  C   UNL A   1      33.381  28.502  27.353  1.00  0.00     0.002 C 
ENDBRANCH  15  17
ENDBRANCH  14  15
ENDBRANCH   6   8
ENDBRANCH   4   6
ENDBRANCH   3   4
ENDBRANCH   2   3
ENDBRANCH   1   2
BRANCH   1  22
ATOM     22  O   UNL A   1      42.045  20.344  26.889  1.00  0.00    -0.374 OA
BRANCH  22  23
ATOM     23  C   UNL A   1      42.969  20.637  25.838  1.00  0.00     0.202 C 
BRANCH  23  24
ATOM     24  C   UNL A   1      43.675  21.999  25.894  1.00  0.00     0.261 C 
BRANCH  24  25
ATOM     25  O   UNL A   1      43.006  23.008  25.114  1.00  0.00    -0.460 OA
BRANCH  25  26
ATOM     26  C   UNL A   1      43.648  24.199  25.059  1.00  0.00     0.338 C 
ATOM     27  O   UNL A   1      44.566  24.514  24.315  1.00  0.00    -0.246 OA
BRANCH  26  28
ATOM     28  C   UNL A   1      42.985  25.186  25.930  1.00  0.00     0.060 A 
ATOM     29  C   UNL A   1      43.744  26.283  26.358  1.00  0.00     0.016 A 
ATOM     30  C   UNL A   1      41.691  24.987  26.413  1.00  0.00     0.016 A 
ATOM     31  C   UNL A   1      43.228  27.162  27.308  1.00  0.00     0.010 A 
ATOM     32  C   UNL A   1      41.178  25.865  27.376  1.00  0.00     0.010 A 
ATOM     33  C   UNL A   1      41.957  26.935  27.854  1.00  0.00    -0.014 A 
BRANCH  33  34
ATOM     34  C   UNL A   1      41.510  27.739  29.018  1.00  0.00     0.031 A 
ATOM     35  C   UNL A   1      42.244  27.608  30.326  1.00  0.00     0.074 A 
ATOM     36  C   UNL A   1      40.491  28.608  28.905  1.00  0.00     0.049 A 
ATOM     37  N   UNL A   1      42.020  28.213  31.465  1.00  0.00    -0.248 NA
ATOM     38  C   UNL A   1      43.381  26.675  30.350  1.00  0.00     0.031 C 
ATOM     39  C   UNL A   1      39.727  28.864  27.685  1.00  0.00     0.029 A 
ATOM     40  N   UNL A   1      39.924  29.440  29.840  1.00  0.00    -0.354 N 
ATOM     41  C   UNL A   1      42.986  27.734  32.341  1.00  0.00     0.074 A 
ATOM     42  C   UNL A   1      43.780  26.768  31.610  1.00  0.00     0.031 C 
ATOM     43  C   UNL A   1      38.785  29.787  27.948  1.00  0.00     0.029 A 
ATOM     44  C   UNL A   1      38.863  30.164  29.358  1.00  0.00     0.049 A 
ATOM     45  H   UNL A   1      40.249  29.509  30.767  1.00  0.00     0.167 HD
ATOM     46  C   UNL A   1      43.201  28.071  33.635  1.00  0.00     0.031 A 
ATOM     47  C   UNL A   1      38.035  31.020  29.987  1.00  0.00     0.031 A 
ATOM     48  C   UNL A   1      42.407  29.018  34.372  1.00  0.00     0.049 A 
ATOM     49  C   UNL A   1      38.243  31.319  31.448  1.00  0.00     0.074 A 
ATOM     50  C   UNL A   1      42.553  29.427  35.686  1.00  0.00     0.029 A 
ATOM     51  N   UNL A   1      41.314  29.696  33.860  1.00  0.00    -0.354 N 
ATOM     52  N   UNL A   1      39.173  30.874  32.257  1.00  0.00    -0.248 NA
ATOM     53  C   UNL A   1      37.289  32.244  32.077  1.00  0.00     0.031 C 
ATOM     54  C   UNL A   1      41.516  30.319  35.983  1.00  0.00     0.029 A 
ATOM     55  C   UNL A   1      40.759  30.504  34.838  1.00  0.00     0.049 A 
ATOM     56  H   UNL A   1      40.981  29.617  32.936  1.00  0.00     0.167 HD
ATOM     57  C   UNL A   1      38.932  31.484  33.482  1.00  0.00     0.074 A 
ATOM     58  C   UNL A   1      37.777  32.340  33.306  1.00  0.00     0.031 C 
ATOM     59  C   UNL A   1      39.609  31.348  34.649  1.00  0.00     0.031 A 
BRANCH  46  60
ATOM     60  C   UNL A   1      44.330  27.382  34.348  1.00  0.00    -0.014 A 
ATOM     61  C   UNL A   1      44.183  26.083  34.857  1.00  0.00     0.009 A 
ATOM     62  C   UNL A   1      45.568  28.030  34.483  1.00  0.00     0.009 A 
ATOM     63  C   UNL A   1      45.244  25.458  35.516  1.00  0.00     0.001 A 
ATOM     64  C   UNL A   1      46.634  27.394  35.121  1.00  0.00     0.001 A 
ATOM     65  C   UNL A   1      46.470  26.112  35.643  1.00  0.00     0.000 A 
ENDBRANCH  46  60
BRANCH  47  66
ATOM     66  C   UNL A   1      36.909  31.646  29.245  1.00  0.00    -0.014 A 
ATOM     67  C   UNL A   1      37.049  32.914  28.662  1.00  0.00     0.009 A 
ATOM     68  C   UNL A   1      35.678  30.981  29.136  1.00  0.00     0.009 A 
ATOM     69  C   UNL A   1      35.971  33.512  28.005  1.00  0.00     0.001 A 
ATOM     70  C   UNL A   1      34.611  31.570  28.456  1.00  0.00     0.001 A 
ATOM     71  C   UNL A   1      34.755  32.838  27.898  1.00  0.00     0.000 A 
ENDBRANCH  47  66
BRANCH  59  72
ATOM     72  C   UNL A   1      39.138  32.167  35.818  1.00  0.00    -0.014 A 
ATOM     73  C   UNL A   1      39.604  33.474  36.027  1.00  0.00     0.009 A 
ATOM     74  C   UNL A   1      38.180  31.637  36.696  1.00  0.00     0.009 A 
ATOM     75  C   UNL A   1      39.142  34.221  37.113  1.00  0.00     0.001 A 
ATOM     76  C   UNL A   1      37.701  32.395  37.765  1.00  0.00     0.001 A 
ATOM     77  C   UNL A   1      38.189  33.684  37.977  1.00  0.00     0.000 A 
ENDBRANCH  59  72
ENDBRANCH  33  34
ENDBRANCH  26  28
ENDBRANCH  25  26
ENDBRANCH  24  25
ENDBRANCH  23  24
ENDBRANCH  22  23
ENDBRANCH   1  22
TORSDOF 17
ENDMDL
MODEL 2
REMARK VINA RESULT:     -10.1      3.651      8.634
REMARK SMILES C[C@@H](C(=O)OCCOCCOC(=O)c1ccc(-c2c3nc(c(-c4ccccc4)c4ccc([nH]4)c(-c4ccccc4)c4nc(c(-c5ccccc5)c5ccc2[nH]5)C=C4)C=C3)cc1)c1ccc(NC2CCCC2)cc1F
REMARK SMILES IDX 7 1 6 2 5 3 3 4 4 5 2 6 1 7 62 8 63 9 73 10 64 11 72 12
REMARK SMILES IDX 74 13 65 14 66 15 67 17 68 18 71 19 69 20 70 21 8 22 9 23
REMARK SMILES IDX 10 24 11 25 12 26 13 27 14 28 15 29 61 30 16 31 60 32 17 33
REMARK SMILES IDX 18 34 19 35 54 36 20 37 59 38 53 39 55 40 21 41 58 42 52 43
REMARK SMILES IDX 51 44 22 46 44 47 29 48 43 49 30 50 33 51 42 52 56 53 31 54
REMARK SMILES IDX 32 55 41 57 57 58 34 59 23 60 24 61 28 62 25 63 27 64 26 65
REMARK SMILES IDX 45 66 46 67 50 68 47 69 49 70 48 71 35 72 36 73 40 74 37 75
REMARK SMILES IDX 39 76 38 77
REMARK H PARENT 66 16 55 45 33 56
REMARK Flexibility Score: inf
ROOT
ATOM      1  C   UNL A   1      31.341  29.062  25.123  1.00  0.00     0.202 C 
ENDROOT
BRANCH   1   2
ATOM      2  C   UNL A   1      32.012  28.021  26.025  1.00  0.00     0.261 C 
BRANCH   2   3
ATOM      3  O   UNL A   1      32.130  26.767  25.336  1.00  0.00    -0.463 OA
BRANCH   3   4
ATOM      4  C   UNL A   1      32.279  25.675  26.134  1.00  0.00     0.313 C 
ATOM      5  O   UNL A   1      31.419  25.267  26.907  1.00  0.00    -0.252 OA
BRANCH   4   6
ATOM      6  C   UNL A   1      33.580  24.923  25.838  1.00  0.00     0.129 C 
ATOM      7  C   UNL A   1      34.279  25.476  24.587  1.00  0.00     0.025 C 
BRANCH   6   8
ATOM      8  C   UNL A   1      33.415  23.402  25.816  1.00  0.00     0.002 A 
ATOM      9  C   UNL A   1      32.662  22.728  24.843  1.00  0.00     0.010 A 
ATOM     10  C   UNL A   1      33.974  22.612  26.823  1.00  0.00     0.129 A 
ATOM     11  C   UNL A   1      32.477  21.336  24.896  1.00  0.00     0.026 A 
ATOM     12  C   UNL A   1      33.790  21.226  26.871  1.00  0.00     0.065 A 
ATOM     13  F   UNL A   1      34.697  23.180  27.798  1.00  0.00    -0.207 F 
ATOM     14  C   UNL A   1      33.017  20.555  25.918  1.00  0.00     0.037 A 
BRANCH  14  15
ATOM     15  N   UNL A   1      32.821  19.197  26.056  1.00  0.00    -0.382 N 
ATOM     16  H   UNL A   1      32.660  18.892  26.978  1.00  0.00     0.160 HD
BRANCH  15  17
ATOM     17  C   UNL A   1      32.813  18.146  25.048  1.00  0.00     0.079 C 
ATOM     18  C   UNL A   1      34.053  18.096  24.163  1.00  0.00     0.025 C 
ATOM     19  C   UNL A   1      32.618  16.738  25.610  1.00  0.00     0.025 C 
ATOM     20  C   UNL A   1      34.039  16.677  23.616  1.00  0.00     0.002 C 
ATOM     21  C   UNL A   1      33.488  15.821  24.750  1.00  0.00     0.002 C 
ENDBRANCH  15  17
ENDBRANCH  14  15
ENDBRANCH   6   8
ENDBRANCH   4   6
ENDBRANCH   3   4
ENDBRANCH   2   3
ENDBRANCH   1   2
BRANCH   1  22
ATOM     22  O   UNL A   1      31.469  30.423  25.536  1.00  0.00    -0.374 OA
BRANCH  22  23
ATOM     23  C   UNL A   1      32.534  30.751  26.432  1.00  0.00     0.202 C 
BRANCH  23  24
ATOM     24  C   UNL A   1      32.267  31.873  27.445  1.00  0.00     0.261 C 
BRANCH  24  25
ATOM     25  O   UNL A   1      32.904  33.113  27.085  1.00  0.00    -0.460 OA
BRANCH  25  26
ATOM     26  C   UNL A   1      33.158  33.942  28.126  1.00  0.00     0.338 C 
ATOM     27  O   UNL A   1      32.406  34.776  28.612  1.00  0.00    -0.246 OA
BRANCH  26  28
ATOM     28  C   UNL A   1      34.449  33.608  28.752  1.00  0.00     0.060 A 
ATOM     29  C   UNL A   1      35.609  33.815  27.992  1.00  0.00     0.016 A 
ATOM     30  C   UNL A   1      34.523  32.997  30.004  1.00  0.00     0.016 A 
ATOM     31  C   UNL A   1      36.842  33.371  28.463  1.00  0.00     0.010 A 
ATOM     32  C   UNL A   1      35.762  32.542  30.472  1.00  0.00     0.010 A 
ATOM     33  C   UNL A   1      36.921  32.695  29.688  1.00  0.00    -0.014 A 
BRANCH  33  34
ATOM     34  C   UNL A   1      38.191  32.031  30.074  1.00  0.00     0.031 A 
ATOM     35  C   UNL A   1      39.109  32.715  31.051  1.00  0.00     0.074 A 
ATOM     36  C   UNL A   1      38.506  30.816  29.596  1.00  0.00     0.049 A 
ATOM     37  N   UNL A   1      40.264  32.316  31.521  1.00  0.00    -0.248 NA
ATOM     38  C   UNL A   1      38.665  34.019  31.568  1.00  0.00     0.031 C 
ATOM     39  C   UNL A   1      37.683  30.026  28.680  1.00  0.00     0.029 A 
ATOM     40  N   UNL A   1      39.611  30.031  29.819  1.00  0.00    -0.354 N 
ATOM     41  C   UNL A   1      40.684  33.317  32.387  1.00  0.00     0.074 A 
ATOM     42  C   UNL A   1      39.676  34.355  32.356  1.00  0.00     0.031 C 
ATOM     43  C   UNL A   1      38.317  28.870  28.414  1.00  0.00     0.029 A 
ATOM     44  C   UNL A   1      39.598  28.852  29.117  1.00  0.00     0.049 A 
ATOM     45  H   UNL A   1      40.343  30.291  30.425  1.00  0.00     0.167 HD
ATOM     46  C   UNL A   1      41.804  33.368  33.147  1.00  0.00     0.031 A 
ATOM     47  C   UNL A   1      40.523  27.877  29.036  1.00  0.00     0.031 A 
ATOM     48  C   UNL A   1      42.819  32.347  33.170  1.00  0.00     0.049 A 
ATOM     49  C   UNL A   1      41.798  27.992  29.827  1.00  0.00     0.074 A 
ATOM     50  C   UNL A   1      43.986  32.309  33.912  1.00  0.00     0.029 A 
ATOM     51  N   UNL A   1      42.789  31.189  32.411  1.00  0.00    -0.354 N 
ATOM     52  N   UNL A   1      42.173  28.935  30.657  1.00  0.00    -0.248 NA
ATOM     53  C   UNL A   1      42.775  26.903  29.674  1.00  0.00     0.031 C 
ATOM     54  C   UNL A   1      44.687  31.149  33.565  1.00  0.00     0.029 A 
ATOM     55  C   UNL A   1      43.929  30.441  32.648  1.00  0.00     0.049 A 
ATOM     56  H   UNL A   1      42.063  30.936  31.795  1.00  0.00     0.167 HD
ATOM     57  C   UNL A   1      43.413  28.541  31.143  1.00  0.00     0.074 A 
ATOM     58  C   UNL A   1      43.722  27.268  30.526  1.00  0.00     0.031 C 
ATOM     59  C   UNL A   1      44.224  29.177  32.025  1.00  0.00     0.031 A 
BRANCH  46  60
ATOM     60  C   UNL A   1      42.006  34.590  33.996  1.00  0.00    -0.014 A 
ATOM     61  C   UNL A   1      41.616  34.611  35.344  1.00  0.00     0.009 A 
ATOM     62  C   UNL A   1      42.624  35.726  33.448  1.00  0.00     0.009 A 
ATOM     63  C   UNL A   1      41.813  35.756  36.119  1.00  0.00     0.001 A 
ATOM     64  C   UNL A   1      42.841  36.861  34.231  1.00  0.00     0.001 A 
ATOM     65  C   UNL A   1      42.429  36.878  35.563  1.00  0.00     0.000 A 
ENDBRANCH  46  60
BRANCH  47  66
ATOM     66  C   UNL A   1      40.292  26.705  28.150  1.00  0.00    -0.014 A 
ATOM     67  C   UNL A   1      39.555  25.600  28.598  1.00  0.00     0.009 A 
ATOM     68  C   UNL A   1      40.831  26.683  26.853  1.00  0.00     0.009 A 
ATOM     69  C   UNL A   1      39.381  24.485  27.773  1.00  0.00     0.001 A 
ATOM     70  C   UNL A   1      40.632  25.580  26.022  1.00  0.00     0.001 A 
ATOM     71  C   UNL A   1      39.915  24.478  26.485  1.00  0.00     0.000 A 
ENDBRANCH  47  66
BRANCH  59  72
ATOM     72  C   UNL A   1      45.508  28.491  32.399  1.00  0.00    -0.014 A 
ATOM     73  C   UNL A   1      45.563  27.579  33.464  1.00  0.00     0.009 A 
ATOM     74  C   UNL A   1      46.667  28.729  31.645  1.00  0.00     0.009 A 
ATOM     75  C   UNL A   1      46.765  26.943  33.785  1.00  0.00     0.001 A 
ATOM     76  C   UNL A   1      47.860  28.073  31.952  1.00  0.00     0.001 A 
ATOM     77  C   UNL A   1      47.909  27.186  33.027  1.00  0.00     0.000 A 
ENDBRANCH  59  72
ENDBRANCH  33  34
ENDBRANCH  26  28
ENDBRANCH  25  26
ENDBRANCH  24  25
ENDBRANCH  23  24
ENDBRANCH  22  23
ENDBRANCH   1  22
TORSDOF 17
ENDMDL
MODEL 3
REMARK VINA RESULT:     -10.0      4.009      7.937
REMARK SMILES C[C@@H](C(=O)OCCOCCOC(=O)c1ccc(-c2c3nc(c(-c4ccccc4)c4ccc([nH]4)c(-c4ccccc4)c4nc(c(-c5ccccc5)c5ccc2[nH]5)C=C4)C=C3)cc1)c1ccc(NC2CCCC2)cc1F
REMARK SMILES IDX 7 1 6 2 5 3 3 4 4 5 2 6 1 7 62 8 63 9 73 10 64 11 72 12
REMARK SMILES IDX 74 13 65 14 66 15 67 17 68 18 71 19 69 20 70 21 8 22 9 23
REMARK SMILES IDX 10 24 11 25 12 26 13 27 14 28 15 29 61 30 16 31 60 32 17 33
REMARK SMILES IDX 18 34 19 35 54 36 20 37 59 38 53 39 55 40 21 41 58 42 52 43
REMARK SMILES IDX 51 44 22 46 44 47 29 48 43 49 30 50 33 51 42 52 56 53 31 54
REMARK SMILES IDX 32 55 41 57 57 58 34 59 23 60 24 61 28 62 25 63 27 64 26 65
REMARK SMILES IDX 45 66 46 67 50 68 47 69 49 70 48 71 35 72 36 73 40 74 37 75
REMARK SMILES IDX 39 76 38 77
REMARK H PARENT 66 16 55 45 33 56
REMARK Flexibility Score: inf
ROOT
ATOM      1  C   UNL A   1      36.448  23.018  23.292  1.00  0.00     0.202 C 
ENDROOT
BRANCH   1   2
ATOM      2  C   UNL A   1      34.927  23.124  23.438  1.00  0.00     0.261 C 
BRANCH   2   3
ATOM      3  O   UNL A   1      34.573  24.352  24.091  1.00  0.00    -0.463 OA
BRANCH   3   4
ATOM      4  C   UNL A   1      33.952  25.273  23.306  1.00  0.00     0.313 C 
ATOM      5  O   UNL A   1      33.568  25.053  22.163  1.00  0.00    -0.252 OA
BRANCH   4   6
ATOM      6  C   UNL A   1      33.647  26.564  24.070  1.00  0.00     0.129 C 
ATOM      7  C   UNL A   1      33.910  26.404  25.575  1.00  0.00     0.025 C 
BRANCH   6   8
ATOM      8  C   UNL A   1      32.268  27.149  23.756  1.00  0.00     0.002 A 
ATOM      9  C   UNL A   1      31.076  26.615  24.267  1.00  0.00     0.010 A 
ATOM     10  C   UNL A   1      32.137  28.230  22.881  1.00  0.00     0.129 A 
ATOM     11  C   UNL A   1      29.824  27.137  23.900  1.00  0.00     0.026 A 
ATOM     12  C   UNL A   1      30.889  28.749  22.520  1.00  0.00     0.065 A 
ATOM     13  F   UNL A   1      33.227  28.790  22.338  1.00  0.00    -0.207 F 
ATOM     14  C   UNL A   1      29.698  28.200  23.005  1.00  0.00     0.037 A 
BRANCH  14  15
ATOM     15  N   UNL A   1      28.499  28.717  22.563  1.00  0.00    -0.382 N 
ATOM     16  H   UNL A   1      27.875  28.055  22.185  1.00  0.00     0.160 HD
BRANCH  15  17
ATOM     17  C   UNL A   1      28.011  30.089  22.571  1.00  0.00     0.079 C 
ATOM     18  C   UNL A   1      28.677  31.000  23.595  1.00  0.00     0.025 C 
ATOM     19  C   UNL A   1      28.111  30.799  21.222  1.00  0.00     0.025 C 
ATOM     20  C   UNL A   1      28.405  32.395  23.056  1.00  0.00     0.002 C 
ATOM     21  C   UNL A   1      28.465  32.252  21.539  1.00  0.00     0.002 C 
ENDBRANCH  15  17
ENDBRANCH  14  15
ENDBRANCH   6   8
ENDBRANCH   4   6
ENDBRANCH   3   4
ENDBRANCH   2   3
ENDBRANCH   1   2
BRANCH   1  22
ATOM     22  O   UNL A   1      37.192  22.975  24.510  1.00  0.00    -0.374 OA
BRANCH  22  23
ATOM     23  C   UNL A   1      37.627  21.697  24.981  1.00  0.00     0.202 C 
BRANCH  23  24
ATOM     24  C   UNL A   1      38.976  21.649  25.712  1.00  0.00     0.261 C 
BRANCH  24  25
ATOM     25  O   UNL A   1      39.337  20.320  26.132  1.00  0.00    -0.460 OA
BRANCH  25  26
ATOM     26  C   UNL A   1      40.666  20.062  26.112  1.00  0.00     0.338 C 
ATOM     27  O   UNL A   1      41.228  19.088  25.629  1.00  0.00    -0.246 OA
BRANCH  26  28
ATOM     28  C   UNL A   1      41.426  21.217  26.623  1.00  0.00     0.060 A 
ATOM     29  C   UNL A   1      41.322  21.505  27.991  1.00  0.00     0.016 A 
ATOM     30  C   UNL A   1      42.129  22.069  25.770  1.00  0.00     0.016 A 
ATOM     31  C   UNL A   1      41.884  22.673  28.503  1.00  0.00     0.010 A 
ATOM     32  C   UNL A   1      42.684  23.247  26.285  1.00  0.00     0.010 A 
ATOM     33  C   UNL A   1      42.533  23.572  27.646  1.00  0.00    -0.014 A 
BRANCH  33  34
ATOM     34  C   UNL A   1      42.927  24.909  28.156  1.00  0.00     0.031 A 
ATOM     35  C   UNL A   1      41.868  25.959  28.357  1.00  0.00     0.074 A 
ATOM     36  C   UNL A   1      44.205  25.174  28.477  1.00  0.00     0.049 A 
ATOM     37  N   UNL A   1      41.993  27.188  28.789  1.00  0.00    -0.248 NA
ATOM     38  C   UNL A   1      40.487  25.571  28.032  1.00  0.00     0.031 C 
ATOM     39  C   UNL A   1      45.318  24.232  28.374  1.00  0.00     0.029 A 
ATOM     40  N   UNL A   1      44.779  26.324  28.960  1.00  0.00    -0.354 N 
ATOM     41  C   UNL A   1      40.710  27.720  28.787  1.00  0.00     0.074 A 
ATOM     42  C   UNL A   1      39.825  26.690  28.284  1.00  0.00     0.031 C 
ATOM     43  C   UNL A   1      46.445  24.845  28.775  1.00  0.00     0.029 A 
ATOM     44  C   UNL A   1      46.137  26.227  29.136  1.00  0.00     0.049 A 
ATOM     45  H   UNL A   1      44.266  27.140  29.160  1.00  0.00     0.167 HD
ATOM     46  C   UNL A   1      40.300  28.951  29.175  1.00  0.00     0.031 A 
ATOM     47  C   UNL A   1      47.033  27.154  29.525  1.00  0.00     0.031 A 
ATOM     48  C   UNL A   1      41.175  29.985  29.660  1.00  0.00     0.049 A 
ATOM     49  C   UNL A   1      46.565  28.542  29.874  1.00  0.00     0.074 A 
ATOM     50  C   UNL A   1      40.850  31.263  30.081  1.00  0.00     0.029 A 
ATOM     51  N   UNL A   1      42.549  29.861  29.781  1.00  0.00    -0.354 N 
ATOM     52  N   UNL A   1      45.346  29.023  29.887  1.00  0.00    -0.248 NA
ATOM     53  C   UNL A   1      47.599  29.510  30.270  1.00  0.00     0.031 C 
ATOM     54  C   UNL A   1      42.035  31.929  30.412  1.00  0.00     0.029 A 
ATOM     55  C   UNL A   1      43.090  31.047  30.247  1.00  0.00     0.049 A 
ATOM     56  H   UNL A   1      43.064  29.049  29.568  1.00  0.00     0.167 HD
ATOM     57  C   UNL A   1      45.464  30.340  30.315  1.00  0.00     0.074 A 
ATOM     58  C   UNL A   1      46.870  30.578  30.565  1.00  0.00     0.031 C 
ATOM     59  C   UNL A   1      44.492  31.270  30.488  1.00  0.00     0.031 A 
BRANCH  46  60
ATOM     60  C   UNL A   1      38.833  29.258  29.058  1.00  0.00    -0.014 A 
ATOM     61  C   UNL A   1      38.275  29.693  27.847  1.00  0.00     0.009 A 
ATOM     62  C   UNL A   1      37.993  29.077  30.169  1.00  0.00     0.009 A 
ATOM     63  C   UNL A   1      36.910  29.971  27.758  1.00  0.00     0.001 A 
ATOM     64  C   UNL A   1      36.625  29.333  30.071  1.00  0.00     0.001 A 
ATOM     65  C   UNL A   1      36.085  29.787  28.868  1.00  0.00     0.000 A 
ENDBRANCH  46  60
BRANCH  47  66
ATOM     66  C   UNL A   1      48.478  26.811  29.587  1.00  0.00    -0.014 A 
ATOM     67  C   UNL A   1      49.059  26.359  30.780  1.00  0.00     0.009 A 
ATOM     68  C   UNL A   1      49.288  26.957  28.449  1.00  0.00     0.009 A 
ATOM     69  C   UNL A   1      50.428  26.081  30.838  1.00  0.00     0.001 A 
ATOM     70  C   UNL A   1      50.649  26.653  28.504  1.00  0.00     0.001 A 
ATOM     71  C   UNL A   1      51.220  26.224  29.700  1.00  0.00     0.000 A 
ENDBRANCH  47  66
BRANCH  59  72
ATOM     72  C   UNL A   1      44.912  32.619  31.000  1.00  0.00    -0.014 A 
ATOM     73  C   UNL A   1      45.210  33.671  30.121  1.00  0.00     0.009 A 
ATOM     74  C   UNL A   1      44.967  32.850  32.383  1.00  0.00     0.009 A 
ATOM     75  C   UNL A   1      45.586  34.920  30.620  1.00  0.00     0.001 A 
ATOM     76  C   UNL A   1      45.318  34.107  32.879  1.00  0.00     0.001 A 
ATOM     77  C   UNL A   1      45.635  35.138  31.996  1.00  0.00     0.000 A 
ENDBRANCH  59  72
ENDBRANCH  33  34
ENDBRANCH  26  28
ENDBRANCH  25  26
ENDBRANCH  24  25
ENDBRANCH  23  24
ENDBRANCH  22  23
ENDBRANCH   1  22
TORSDOF 17
ENDMDL
