MODEL 1
REMARK VINA RESULT:     -11.4      0.000      0.000
REMARK SMILES O=C(CC1CCN(C(=O)[C@@H]2Cc3[nH]cnc3C[NH2+]2)CC1)OCCOCCOC(=O)c1ccc(-c2c3nc(c(-c4ccccc4)c4ccc([nH]4)c(-c4ccccc4)c4nc(c(-c5ccccc5)c5ccc2[nH]5)C=C4)C=C3)cc1
REMARK SMILES IDX 24 1 23 2 22 3 21 4 2 5 1 6 3 7 4 8 5 9 20 10 6 11 19 12
REMARK SMILES IDX 7 13 8 14 9 15 10 16 11 17 18 18 12 19 17 20 13 23 16 24
REMARK SMILES IDX 14 25 15 27 25 28 26 29 27 30 28 31 29 32 30 33 31 34 77 35
REMARK SMILES IDX 32 36 76 37 33 38 34 39 35 40 70 41 36 42 75 43 69 44 71 45
REMARK SMILES IDX 37 46 74 47 68 48 67 49 38 51 60 52 45 53 59 54 46 55 49 56
REMARK SMILES IDX 58 57 72 58 47 59 48 60 57 62 73 63 50 64 39 65 40 66 44 67
REMARK SMILES IDX 41 68 43 69 42 70 61 71 62 72 66 73 63 74 65 75 64 76 51 77
REMARK SMILES IDX 52 78 56 79 53 80 55 81 54 82
REMARK H PARENT 18 21 18 22 13 26 71 50 49 61
REMARK Flexibility Score: inf
ROOT
ATOM      1  O   UNL A   1      40.403  21.048  27.453  1.00  0.00    -0.374 OA
ENDROOT
BRANCH   1   2
ATOM      2  C   UNL A   1      39.996  21.483  26.153  1.00  0.00     0.202 C 
BRANCH   2   3
ATOM      3  C   UNL A   1      38.635  22.168  26.087  1.00  0.00     0.261 C 
BRANCH   3   4
ATOM      4  O   UNL A   1      37.983  21.947  24.832  1.00  0.00    -0.463 OA
BRANCH   4   5
ATOM      5  C   UNL A   1      36.681  22.081  24.534  1.00  0.00     0.306 C 
ATOM      6  O   UNL A   1      36.396  22.589  23.446  1.00  0.00    -0.252 OA
BRANCH   5   7
ATOM      7  C   UNL A   1      35.552  21.769  25.506  1.00  0.00     0.126 C 
BRANCH   7   8
ATOM      8  C   UNL A   1      35.030  22.797  26.531  1.00  0.00     0.003 C 
ATOM      9  C   UNL A   1      33.854  22.227  27.382  1.00  0.00     0.026 C 
ATOM     10  C   UNL A   1      34.487  24.095  25.907  1.00  0.00     0.026 C 
ATOM     11  C   UNL A   1      32.468  22.228  26.686  1.00  0.00     0.120 C 
ATOM     12  C   UNL A   1      33.273  23.803  25.049  1.00  0.00     0.120 C 
ATOM     13  N   UNL A   1      32.206  23.467  25.943  1.00  0.00    -0.338 N 
ATOM     14  C   UNL A   1      31.169  24.327  26.273  1.00  0.00     0.281 C 
ATOM     15  O   UNL A   1      30.452  24.071  27.249  1.00  0.00    -0.268 OA
BRANCH  14  16
ATOM     16  C   UNL A   1      30.830  25.609  25.422  1.00  0.00     0.279 C 
ATOM     17  C   UNL A   1      30.386  25.297  23.966  1.00  0.00     0.131 C 
ATOM     18  N   UNL A   1      31.729  26.776  25.659  1.00  0.00    -0.331 N 
ATOM     19  C   UNL A   1      31.445  25.691  23.021  1.00  0.00     0.050 A 
ATOM     20  C   UNL A   1      32.720  27.178  24.644  1.00  0.00     0.320 C 
ATOM     21  H   UNL A   1      32.249  26.575  26.513  1.00  0.00     0.347 HD
ATOM     22  H   UNL A   1      31.081  27.564  25.670  1.00  0.00     0.347 HD
ATOM     23  N   UNL A   1      31.718  25.175  21.790  1.00  0.00    -0.348 N 
ATOM     24  C   UNL A   1      32.462  26.569  23.306  1.00  0.00     0.116 A 
ATOM     25  C   UNL A   1      32.902  25.730  21.392  1.00  0.00     0.197 A 
ATOM     26  H   UNL A   1      31.171  24.529  21.286  1.00  0.00     0.167 HD
ATOM     27  N   UNL A   1      33.365  26.582  22.283  1.00  0.00    -0.236 NA
ENDBRANCH  14  16
ENDBRANCH   7   8
ENDBRANCH   5   7
ENDBRANCH   4   5
ENDBRANCH   3   4
ENDBRANCH   2   3
ENDBRANCH   1   2
BRANCH   1  28
ATOM     28  C   UNL A   1      41.739  20.547  27.574  1.00  0.00     0.202 C 
BRANCH  28  29
ATOM     29  C   UNL A   1      42.331  19.977  26.292  1.00  0.00     0.261 C 
BRANCH  29  30
ATOM     30  O   UNL A   1      43.513  20.697  25.998  1.00  0.00    -0.460 OA
BRANCH  30  31
ATOM     31  C   UNL A   1      44.127  20.360  24.841  1.00  0.00     0.338 C 
ATOM     32  O   UNL A   1      44.123  19.265  24.299  1.00  0.00    -0.246 OA
BRANCH  31  33
ATOM     33  C   UNL A   1      44.923  21.524  24.377  1.00  0.00     0.060 A 
ATOM     34  C   UNL A   1      46.010  21.752  25.215  1.00  0.00     0.016 A 
ATOM     35  C   UNL A   1      44.155  22.577  23.866  1.00  0.00     0.016 A 
ATOM     36  C   UNL A   1      45.932  22.871  26.001  1.00  0.00     0.010 A 
ATOM     37  C   UNL A   1      44.013  23.649  24.693  1.00  0.00     0.010 A 
ATOM     38  C   UNL A   1      44.834  23.715  25.816  1.00  0.00    -0.014 A 
BRANCH  38  39
ATOM     39  C   UNL A   1      44.608  24.773  26.761  1.00  0.00     0.031 A 
ATOM     40  C   UNL A   1      45.727  25.731  26.733  1.00  0.00     0.074 A 
ATOM     41  C   UNL A   1      43.453  24.909  27.433  1.00  0.00     0.049 A 
ATOM     42  N   UNL A   1      46.713  25.805  27.561  1.00  0.00    -0.248 NA
ATOM     43  C   UNL A   1      45.926  26.480  25.476  1.00  0.00     0.031 C 
ATOM     44  C   UNL A   1      42.190  24.185  27.277  1.00  0.00     0.029 A 
ATOM     45  N   UNL A   1      43.146  25.850  28.355  1.00  0.00    -0.354 N 
ATOM     46  C   UNL A   1      47.543  26.774  27.018  1.00  0.00     0.074 A 
ATOM     47  C   UNL A   1      47.186  26.879  25.630  1.00  0.00     0.031 C 
ATOM     48  C   UNL A   1      41.203  24.886  27.888  1.00  0.00     0.029 A 
ATOM     49  C   UNL A   1      41.789  26.030  28.569  1.00  0.00     0.049 A 
ATOM     50  H   UNL A   1      43.832  26.368  28.836  1.00  0.00     0.167 HD
ATOM     51  C   UNL A   1      48.164  27.695  27.802  1.00  0.00     0.031 A 
ATOM     52  C   UNL A   1      41.228  27.113  29.169  1.00  0.00     0.031 A 
ATOM     53  C   UNL A   1      48.164  27.295  29.186  1.00  0.00     0.049 A 
ATOM     54  C   UNL A   1      42.315  27.826  29.894  1.00  0.00     0.074 A 
ATOM     55  C   UNL A   1      48.664  26.212  29.882  1.00  0.00     0.029 A 
ATOM     56  N   UNL A   1      47.202  27.856  29.993  1.00  0.00    -0.354 N 
ATOM     57  N   UNL A   1      42.939  27.322  30.922  1.00  0.00    -0.248 NA
ATOM     58  C   UNL A   1      43.047  28.860  29.173  1.00  0.00     0.031 C 
ATOM     59  C   UNL A   1      47.669  25.908  30.857  1.00  0.00     0.029 A 
ATOM     60  C   UNL A   1      46.650  26.857  30.753  1.00  0.00     0.049 A 
ATOM     61  H   UNL A   1      46.954  28.809  30.022  1.00  0.00     0.167 HD
ATOM     62  C   UNL A   1      44.276  27.646  30.728  1.00  0.00     0.074 A 
ATOM     63  C   UNL A   1      44.271  28.664  29.677  1.00  0.00     0.031 C 
ATOM     64  C   UNL A   1      45.275  26.848  31.211  1.00  0.00     0.031 A 
BRANCH  51  65
ATOM     65  C   UNL A   1      48.325  29.133  27.373  1.00  0.00    -0.014 A 
ATOM     66  C   UNL A   1      49.616  29.675  27.334  1.00  0.00     0.009 A 
ATOM     67  C   UNL A   1      47.255  30.047  27.257  1.00  0.00     0.009 A 
ATOM     68  C   UNL A   1      49.817  31.058  27.248  1.00  0.00     0.001 A 
ATOM     69  C   UNL A   1      47.450  31.421  27.127  1.00  0.00     0.001 A 
ATOM     70  C   UNL A   1      48.735  31.930  27.152  1.00  0.00     0.000 A 
ENDBRANCH  51  65
BRANCH  52  71
ATOM     71  C   UNL A   1      39.941  27.767  28.832  1.00  0.00    -0.014 A 
ATOM     72  C   UNL A   1      38.933  27.930  29.796  1.00  0.00     0.009 A 
ATOM     73  C   UNL A   1      39.802  28.473  27.623  1.00  0.00     0.009 A 
ATOM     74  C   UNL A   1      37.845  28.787  29.565  1.00  0.00     0.001 A 
ATOM     75  C   UNL A   1      38.718  29.327  27.391  1.00  0.00     0.001 A 
ATOM     76  C   UNL A   1      37.745  29.493  28.369  1.00  0.00     0.000 A 
ENDBRANCH  52  71
BRANCH  64  77
ATOM     77  C   UNL A   1      44.881  25.700  32.112  1.00  0.00    -0.014 A 
ATOM     78  C   UNL A   1      44.515  24.430  31.625  1.00  0.00     0.009 A 
ATOM     79  C   UNL A   1      45.049  25.855  33.495  1.00  0.00     0.009 A 
ATOM     80  C   UNL A   1      44.305  23.358  32.501  1.00  0.00     0.001 A 
ATOM     81  C   UNL A   1      44.857  24.781  34.366  1.00  0.00     0.001 A 
ATOM     82  C   UNL A   1      44.481  23.534  33.871  1.00  0.00     0.000 A 
ENDBRANCH  64  77
ENDBRANCH  38  39
ENDBRANCH  31  33
ENDBRANCH  30  31
ENDBRANCH  29  30
ENDBRANCH  28  29
ENDBRANCH   1  28
TORSDOF 16
ENDMDL
MODEL 2
REMARK VINA RESULT:     -11.2      5.446     10.445
REMARK SMILES O=C(CC1CCN(C(=O)[C@@H]2Cc3[nH]cnc3C[NH2+]2)CC1)OCCOCCOC(=O)c1ccc(-c2c3nc(c(-c4ccccc4)c4ccc([nH]4)c(-c4ccccc4)c4nc(c(-c5ccccc5)c5ccc2[nH]5)C=C4)C=C3)cc1
REMARK SMILES IDX 24 1 23 2 22 3 21 4 2 5 1 6 3 7 4 8 5 9 20 10 6 11 19 12
REMARK SMILES IDX 7 13 8 14 9 15 10 16 11 17 18 18 12 19 17 20 13 23 16 24
REMARK SMILES IDX 14 25 15 27 25 28 26 29 27 30 28 31 29 32 30 33 31 34 77 35
REMARK SMILES IDX 32 36 76 37 33 38 34 39 35 40 70 41 36 42 75 43 69 44 71 45
REMARK SMILES IDX 37 46 74 47 68 48 67 49 38 51 60 52 45 53 59 54 46 55 49 56
REMARK SMILES IDX 58 57 72 58 47 59 48 60 57 62 73 63 50 64 39 65 40 66 44 67
REMARK SMILES IDX 41 68 43 69 42 70 61 71 62 72 66 73 63 74 65 75 64 76 51 77
REMARK SMILES IDX 52 78 56 79 53 80 55 81 54 82
REMARK H PARENT 18 21 18 22 13 26 71 50 49 61
REMARK Flexibility Score: inf
ROOT
ATOM      1  O   UNL A   1      34.059  32.778  28.692  1.00  0.00    -0.374 OA
ENDROOT
BRANCH   1   2
ATOM      2  C   UNL A   1      34.605  31.964  27.650  1.00  0.00     0.202 C 
BRANCH   2   3
ATOM      3  C   UNL A   1      34.171  30.502  27.666  1.00  0.00     0.261 C 
BRANCH   3   4
ATOM      4  O   UNL A   1      32.760  30.358  27.466  1.00  0.00    -0.463 OA
BRANCH   4   5
ATOM      5  C   UNL A   1      32.062  30.494  26.327  1.00  0.00     0.306 C 
ATOM      6  O   UNL A   1      31.347  31.493  26.214  1.00  0.00    -0.252 OA
BRANCH   5   7
ATOM      7  C   UNL A   1      32.000  29.433  25.238  1.00  0.00     0.126 C 
BRANCH   7   8
ATOM      8  C   UNL A   1      33.264  28.806  24.615  1.00  0.00     0.003 C 
ATOM      9  C   UNL A   1      33.241  28.873  23.056  1.00  0.00     0.026 C 
ATOM     10  C   UNL A   1      33.466  27.319  24.953  1.00  0.00     0.026 C 
ATOM     11  C   UNL A   1      32.371  27.797  22.357  1.00  0.00     0.120 C 
ATOM     12  C   UNL A   1      32.338  26.486  24.379  1.00  0.00     0.120 C 
ATOM     13  N   UNL A   1      32.520  26.466  22.959  1.00  0.00    -0.338 N 
ATOM     14  C   UNL A   1      33.032  25.385  22.257  1.00  0.00     0.281 C 
ATOM     15  O   UNL A   1      33.414  25.543  21.089  1.00  0.00    -0.268 OA
BRANCH  14  16
ATOM     16  C   UNL A   1      33.109  23.937  22.871  1.00  0.00     0.279 C 
ATOM     17  C   UNL A   1      31.722  23.331  23.223  1.00  0.00     0.131 C 
ATOM     18  N   UNL A   1      34.246  23.712  23.810  1.00  0.00    -0.331 N 
ATOM     19  C   UNL A   1      31.549  23.285  24.685  1.00  0.00     0.050 A 
ATOM     20  C   UNL A   1      34.007  23.594  25.261  1.00  0.00     0.320 C 
ATOM     21  H   UNL A   1      34.890  24.492  23.682  1.00  0.00     0.347 HD
ATOM     22  H   UNL A   1      34.570  22.779  23.556  1.00  0.00     0.347 HD
ATOM     23  N   UNL A   1      30.392  23.327  25.404  1.00  0.00    -0.348 N 
ATOM     24  C   UNL A   1      32.573  23.355  25.598  1.00  0.00     0.116 A 
ATOM     25  C   UNL A   1      30.756  23.454  26.715  1.00  0.00     0.197 A 
ATOM     26  H   UNL A   1      29.475  23.275  25.048  1.00  0.00     0.167 HD
ATOM     27  N   UNL A   1      32.065  23.461  26.859  1.00  0.00    -0.236 NA
ENDBRANCH  14  16
ENDBRANCH   7   8
ENDBRANCH   5   7
ENDBRANCH   4   5
ENDBRANCH   3   4
ENDBRANCH   2   3
ENDBRANCH   1   2
BRANCH   1  28
ATOM     28  C   UNL A   1      33.660  34.104  28.327  1.00  0.00     0.202 C 
BRANCH  28  29
ATOM     29  C   UNL A   1      34.058  35.192  29.316  1.00  0.00     0.261 C 
BRANCH  29  30
ATOM     30  O   UNL A   1      34.362  34.572  30.550  1.00  0.00    -0.460 OA
BRANCH  30  31
ATOM     31  C   UNL A   1      33.528  34.869  31.573  1.00  0.00     0.338 C 
ATOM     32  O   UNL A   1      32.440  35.421  31.496  1.00  0.00    -0.246 OA
BRANCH  31  33
ATOM     33  C   UNL A   1      34.206  34.519  32.847  1.00  0.00     0.060 A 
ATOM     34  C   UNL A   1      35.271  35.378  33.099  1.00  0.00     0.016 A 
ATOM     35  C   UNL A   1      34.296  33.144  33.089  1.00  0.00     0.016 A 
ATOM     36  C   UNL A   1      36.520  34.831  32.972  1.00  0.00     0.010 A 
ATOM     37  C   UNL A   1      35.525  32.595  32.875  1.00  0.00     0.010 A 
ATOM     38  C   UNL A   1      36.601  33.462  32.705  1.00  0.00    -0.014 A 
BRANCH  38  39
ATOM     39  C   UNL A   1      37.876  32.900  32.354  1.00  0.00     0.031 A 
ATOM     40  C   UNL A   1      38.761  32.868  33.532  1.00  0.00     0.074 A 
ATOM     41  C   UNL A   1      38.120  32.351  31.153  1.00  0.00     0.049 A 
ATOM     42  N   UNL A   1      39.706  33.696  33.822  1.00  0.00    -0.248 NA
ATOM     43  C   UNL A   1      38.342  32.002  34.653  1.00  0.00     0.031 C 
ATOM     44  C   UNL A   1      37.197  32.064  30.052  1.00  0.00     0.029 A 
ATOM     45  N   UNL A   1      39.283  31.816  30.716  1.00  0.00    -0.354 N 
ATOM     46  C   UNL A   1      40.133  33.300  35.080  1.00  0.00     0.074 A 
ATOM     47  C   UNL A   1      39.064  32.521  35.642  1.00  0.00     0.031 C 
ATOM     48  C   UNL A   1      37.788  31.186  29.203  1.00  0.00     0.029 A 
ATOM     49  C   UNL A   1      39.155  30.953  29.640  1.00  0.00     0.049 A 
ATOM     50  H   UNL A   1      40.152  32.024  31.130  1.00  0.00     0.167 HD
ATOM     51  C   UNL A   1      41.452  33.286  35.409  1.00  0.00     0.031 A 
ATOM     52  C   UNL A   1      40.092  30.052  29.244  1.00  0.00     0.031 A 
ATOM     53  C   UNL A   1      42.235  34.065  34.483  1.00  0.00     0.049 A 
ATOM     54  C   UNL A   1      41.377  30.444  29.884  1.00  0.00     0.074 A 
ATOM     55  C   UNL A   1      42.240  35.389  34.094  1.00  0.00     0.029 A 
ATOM     56  N   UNL A   1      42.892  33.373  33.493  1.00  0.00    -0.354 N 
ATOM     57  N   UNL A   1      42.015  31.544  29.594  1.00  0.00    -0.248 NA
ATOM     58  C   UNL A   1      41.683  29.880  31.194  1.00  0.00     0.031 C 
ATOM     59  C   UNL A   1      42.487  35.360  32.689  1.00  0.00     0.029 A 
ATOM     60  C   UNL A   1      42.689  34.032  32.307  1.00  0.00     0.049 A 
ATOM     61  H   UNL A   1      43.418  32.549  33.614  1.00  0.00     0.167 HD
ATOM     62  C   UNL A   1      42.457  32.039  30.814  1.00  0.00     0.074 A 
ATOM     63  C   UNL A   1      42.293  30.930  31.755  1.00  0.00     0.031 C 
ATOM     64  C   UNL A   1      42.622  33.381  31.015  1.00  0.00     0.031 A 
BRANCH  51  65
ATOM     65  C   UNL A   1      42.052  32.195  36.261  1.00  0.00    -0.014 A 
ATOM     66  C   UNL A   1      42.661  32.554  37.470  1.00  0.00     0.009 A 
ATOM     67  C   UNL A   1      42.274  30.874  35.812  1.00  0.00     0.009 A 
ATOM     68  C   UNL A   1      43.495  31.660  38.153  1.00  0.00     0.001 A 
ATOM     69  C   UNL A   1      43.067  29.966  36.511  1.00  0.00     0.001 A 
ATOM     70  C   UNL A   1      43.703  30.370  37.670  1.00  0.00     0.000 A 
ENDBRANCH  51  65
BRANCH  52  71
ATOM     71  C   UNL A   1      39.864  28.694  28.696  1.00  0.00    -0.014 A 
ATOM     72  C   UNL A   1      40.430  28.298  27.474  1.00  0.00     0.009 A 
ATOM     73  C   UNL A   1      39.302  27.689  29.506  1.00  0.00     0.009 A 
ATOM     74  C   UNL A   1      40.454  26.947  27.092  1.00  0.00     0.001 A 
ATOM     75  C   UNL A   1      39.325  26.342  29.128  1.00  0.00     0.001 A 
ATOM     76  C   UNL A   1      39.913  25.969  27.924  1.00  0.00     0.000 A 
ENDBRANCH  52  71
BRANCH  64  77
ATOM     77  C   UNL A   1      42.479  34.291  29.817  1.00  0.00    -0.014 A 
ATOM     78  C   UNL A   1      41.239  34.790  29.373  1.00  0.00     0.009 A 
ATOM     79  C   UNL A   1      43.645  34.796  29.226  1.00  0.00     0.009 A 
ATOM     80  C   UNL A   1      41.173  35.748  28.354  1.00  0.00     0.001 A 
ATOM     81  C   UNL A   1      43.579  35.765  28.223  1.00  0.00     0.001 A 
ATOM     82  C   UNL A   1      42.345  36.238  27.783  1.00  0.00     0.000 A 
ENDBRANCH  64  77
ENDBRANCH  38  39
ENDBRANCH  31  33
ENDBRANCH  30  31
ENDBRANCH  29  30
ENDBRANCH  28  29
ENDBRANCH   1  28
TORSDOF 16
ENDMDL
MODEL 3
REMARK VINA RESULT:     -10.8      1.248      2.038
REMARK SMILES O=C(CC1CCN(C(=O)[C@@H]2Cc3[nH]cnc3C[NH2+]2)CC1)OCCOCCOC(=O)c1ccc(-c2c3nc(c(-c4ccccc4)c4ccc([nH]4)c(-c4ccccc4)c4nc(c(-c5ccccc5)c5ccc2[nH]5)C=C4)C=C3)cc1
REMARK SMILES IDX 24 1 23 2 22 3 21 4 2 5 1 6 3 7 4 8 5 9 20 10 6 11 19 12
REMARK SMILES IDX 7 13 8 14 9 15 10 16 11 17 18 18 12 19 17 20 13 23 16 24
REMARK SMILES IDX 14 25 15 27 25 28 26 29 27 30 28 31 29 32 30 33 31 34 77 35
REMARK SMILES IDX 32 36 76 37 33 38 34 39 35 40 70 41 36 42 75 43 69 44 71 45
REMARK SMILES IDX 37 46 74 47 68 48 67 49 38 51 60 52 45 53 59 54 46 55 49 56
REMARK SMILES IDX 58 57 72 58 47 59 48 60 57 62 73 63 50 64 39 65 40 66 44 67
REMARK SMILES IDX 41 68 43 69 42 70 61 71 62 72 66 73 63 74 65 75 64 76 51 77
REMARK SMILES IDX 52 78 56 79 53 80 55 81 54 82
REMARK H PARENT 18 21 18 22 13 26 71 50 49 61
REMARK Flexibility Score: inf
ROOT
ATOM      1  O   UNL A   1      40.399  21.301  27.344  1.00  0.00    -0.374 OA
ENDROOT
BRANCH   1   2
ATOM      2  C   UNL A   1      39.644  21.115  26.144  1.00  0.00     0.202 C 
BRANCH   2   3
ATOM      3  C   UNL A   1      38.506  22.108  25.926  1.00  0.00     0.261 C 
BRANCH   3   4
ATOM      4  O   UNL A   1      37.817  21.872  24.692  1.00  0.00    -0.463 OA
BRANCH   4   5
ATOM      5  C   UNL A   1      36.503  21.975  24.439  1.00  0.00     0.306 C 
ATOM      6  O   UNL A   1      36.166  22.239  23.281  1.00  0.00    -0.252 OA
BRANCH   5   7
ATOM      7  C   UNL A   1      35.425  21.917  25.511  1.00  0.00     0.126 C 
BRANCH   7   8
ATOM      8  C   UNL A   1      35.159  23.083  26.485  1.00  0.00     0.003 C 
ATOM      9  C   UNL A   1      33.689  23.083  27.009  1.00  0.00     0.026 C 
ATOM     10  C   UNL A   1      35.371  24.479  25.875  1.00  0.00     0.026 C 
ATOM     11  C   UNL A   1      32.636  23.667  26.032  1.00  0.00     0.120 C 
ATOM     12  C   UNL A   1      34.383  24.723  24.753  1.00  0.00     0.120 C 
ATOM     13  N   UNL A   1      33.098  24.888  25.362  1.00  0.00    -0.338 N 
ATOM     14  C   UNL A   1      32.471  26.114  25.533  1.00  0.00     0.281 C 
ATOM     15  O   UNL A   1      31.507  26.202  26.305  1.00  0.00    -0.268 OA
BRANCH  14  16
ATOM     16  C   UNL A   1      32.909  27.406  24.745  1.00  0.00     0.279 C 
ATOM     17  C   UNL A   1      33.725  28.415  25.599  1.00  0.00     0.131 C 
ATOM     18  N   UNL A   1      31.890  27.936  23.793  1.00  0.00    -0.331 N 
ATOM     19  C   UNL A   1      32.908  29.605  25.890  1.00  0.00     0.050 A 
ATOM     20  C   UNL A   1      31.155  29.177  24.097  1.00  0.00     0.320 C 
ATOM     21  H   UNL A   1      31.190  27.203  23.676  1.00  0.00     0.347 HD
ATOM     22  H   UNL A   1      32.450  28.195  22.981  1.00  0.00     0.347 HD
ATOM     23  N   UNL A   1      32.992  30.452  26.954  1.00  0.00    -0.348 N 
ATOM     24  C   UNL A   1      31.785  29.975  25.190  1.00  0.00     0.116 A 
ATOM     25  C   UNL A   1      31.904  31.277  26.878  1.00  0.00     0.197 A 
ATOM     26  H   UNL A   1      33.697  30.468  27.641  1.00  0.00     0.167 HD
ATOM     27  N   UNL A   1      31.168  31.017  25.818  1.00  0.00    -0.236 NA
ENDBRANCH  14  16
ENDBRANCH   7   8
ENDBRANCH   5   7
ENDBRANCH   4   5
ENDBRANCH   3   4
ENDBRANCH   2   3
ENDBRANCH   1   2
BRANCH   1  28
ATOM     28  C   UNL A   1      41.622  20.563  27.453  1.00  0.00     0.202 C 
BRANCH  28  29
ATOM     29  C   UNL A   1      42.252  20.160  26.127  1.00  0.00     0.261 C 
BRANCH  29  30
ATOM     30  O   UNL A   1      43.315  21.053  25.857  1.00  0.00    -0.460 OA
BRANCH  30  31
ATOM     31  C   UNL A   1      44.122  20.703  24.830  1.00  0.00     0.338 C 
ATOM     32  O   UNL A   1      44.168  19.619  24.268  1.00  0.00    -0.246 OA
BRANCH  31  33
ATOM     33  C   UNL A   1      45.050  21.831  24.558  1.00  0.00     0.060 A 
ATOM     34  C   UNL A   1      46.028  21.921  25.544  1.00  0.00     0.016 A 
ATOM     35  C   UNL A   1      44.430  22.969  24.030  1.00  0.00     0.016 A 
ATOM     36  C   UNL A   1      45.921  22.991  26.393  1.00  0.00     0.010 A 
ATOM     37  C   UNL A   1      44.252  23.995  24.908  1.00  0.00     0.010 A 
ATOM     38  C   UNL A   1      44.917  23.926  26.129  1.00  0.00    -0.014 A 
BRANCH  38  39
ATOM     39  C   UNL A   1      44.639  24.936  27.112  1.00  0.00     0.031 A 
ATOM     40  C   UNL A   1      45.754  25.896  27.189  1.00  0.00     0.074 A 
ATOM     41  C   UNL A   1      43.450  25.039  27.729  1.00  0.00     0.049 A 
ATOM     42  N   UNL A   1      46.696  25.929  28.070  1.00  0.00    -0.248 NA
ATOM     43  C   UNL A   1      46.017  26.705  25.982  1.00  0.00     0.031 C 
ATOM     44  C   UNL A   1      42.199  24.321  27.471  1.00  0.00     0.029 A 
ATOM     45  N   UNL A   1      43.091  25.933  28.677  1.00  0.00    -0.354 N 
ATOM     46  C   UNL A   1      47.549  26.925  27.619  1.00  0.00     0.074 A 
ATOM     47  C   UNL A   1      47.265  27.097  26.221  1.00  0.00     0.031 C 
ATOM     48  C   UNL A   1      41.178  24.992  28.063  1.00  0.00     0.029 A 
ATOM     49  C   UNL A   1      41.724  26.102  28.828  1.00  0.00     0.049 A 
ATOM     50  H   UNL A   1      43.750  26.427  29.218  1.00  0.00     0.167 HD
ATOM     51  C   UNL A   1      48.125  27.807  28.479  1.00  0.00     0.031 A 
ATOM     52  C   UNL A   1      41.129  27.153  29.451  1.00  0.00     0.031 A 
ATOM     53  C   UNL A   1      48.055  27.339  29.840  1.00  0.00     0.049 A 
ATOM     54  C   UNL A   1      42.175  27.830  30.266  1.00  0.00     0.074 A 
ATOM     55  C   UNL A   1      48.521  26.224  30.508  1.00  0.00     0.029 A 
ATOM     56  N   UNL A   1      47.050  27.860  30.622  1.00  0.00    -0.354 N 
ATOM     57  N   UNL A   1      42.746  27.277  31.299  1.00  0.00    -0.248 NA
ATOM     58  C   UNL A   1      42.940  28.899  29.635  1.00  0.00     0.031 C 
ATOM     59  C   UNL A   1      47.477  25.871  31.413  1.00  0.00     0.029 A 
ATOM     60  C   UNL A   1      46.461  26.824  31.303  1.00  0.00     0.049 A 
ATOM     61  H   UNL A   1      46.798  28.810  30.684  1.00  0.00     0.167 HD
ATOM     62  C   UNL A   1      44.090  27.612  31.192  1.00  0.00     0.074 A 
ATOM     63  C   UNL A   1      44.136  28.680  30.192  1.00  0.00     0.031 C 
ATOM     64  C   UNL A   1      45.065  26.791  31.686  1.00  0.00     0.031 A 
BRANCH  51  65
ATOM     65  C   UNL A   1      48.303  29.264  28.130  1.00  0.00    -0.014 A 
ATOM     66  C   UNL A   1      47.159  30.063  28.008  1.00  0.00     0.009 A 
ATOM     67  C   UNL A   1      49.514  29.823  27.666  1.00  0.00     0.009 A 
ATOM     68  C   UNL A   1      47.219  31.322  27.396  1.00  0.00     0.001 A 
ATOM     69  C   UNL A   1      49.588  31.093  27.097  1.00  0.00     0.001 A 
ATOM     70  C   UNL A   1      48.431  31.832  26.936  1.00  0.00     0.000 A 
ENDBRANCH  51  65
BRANCH  52  71
ATOM     71  C   UNL A   1      39.860  27.822  29.079  1.00  0.00    -0.014 A 
ATOM     72  C   UNL A   1      38.849  28.044  30.028  1.00  0.00     0.009 A 
ATOM     73  C   UNL A   1      39.745  28.484  27.842  1.00  0.00     0.009 A 
ATOM     74  C   UNL A   1      37.782  28.915  29.756  1.00  0.00     0.001 A 
ATOM     75  C   UNL A   1      38.682  29.352  27.570  1.00  0.00     0.001 A 
ATOM     76  C   UNL A   1      37.706  29.577  28.533  1.00  0.00     0.000 A 
ENDBRANCH  52  71
BRANCH  64  77
ATOM     77  C   UNL A   1      44.628  25.600  32.508  1.00  0.00    -0.014 A 
ATOM     78  C   UNL A   1      44.226  25.700  33.855  1.00  0.00     0.009 A 
ATOM     79  C   UNL A   1      44.453  24.373  31.855  1.00  0.00     0.009 A 
ATOM     80  C   UNL A   1      43.688  24.597  34.528  1.00  0.00     0.001 A 
ATOM     81  C   UNL A   1      43.898  23.278  32.522  1.00  0.00     0.001 A 
ATOM     82  C   UNL A   1      43.519  23.388  33.858  1.00  0.00     0.000 A 
ENDBRANCH  64  77
ENDBRANCH  38  39
ENDBRANCH  31  33
ENDBRANCH  30  31
ENDBRANCH  29  30
ENDBRANCH  28  29
ENDBRANCH   1  28
TORSDOF 16
ENDMDL
