MODEL 1
REMARK VINA RESULT:      -8.6      0.000      0.000
REMARK SMILES O=C(CCCCc1nc(-c2ccccc2)no1)OCCOCCOC(=O)c1ccc(-c2c3nc(c(-c4ccccc4)c4ccc([nH]4)c(-c4ccccc4)c4nc(c(-c5ccccc5)c5ccc2[nH]5)C=C4)C=C3)cc1
REMARK SMILES IDX 19 1 18 2 2 3 1 4 3 5 4 6 5 7 6 8 7 9 8 10 17 11 9 12 16 13
REMARK SMILES IDX 10 14 11 15 15 16 12 17 14 18 13 19 20 20 21 21 22 22 23 23
REMARK SMILES IDX 24 24 25 25 26 26 27 27 28 28 74 29 29 30 73 31 30 32 31 33
REMARK SMILES IDX 32 34 67 35 33 36 72 37 66 38 68 39 34 40 71 41 65 42 64 43
REMARK SMILES IDX 35 45 57 46 42 47 56 48 43 49 46 50 55 51 69 52 44 53 45 54
REMARK SMILES IDX 54 56 70 57 47 58 36 59 37 60 41 61 38 62 40 63 39 64 58 65
REMARK SMILES IDX 59 66 63 67 60 68 62 69 61 70 48 71 49 72 53 73 50 74 52 75
REMARK SMILES IDX 51 76
REMARK H PARENT 68 44 46 55
REMARK Flexibility Score: inf
ROOT
ATOM      1  C   UNL A   1      44.216  18.871  25.226  1.00  0.00     0.261 C 
ENDROOT
BRANCH   1   2
ATOM      2  O   UNL A   1      44.282  19.998  24.345  1.00  0.00    -0.463 OA
BRANCH   2   3
ATOM      3  C   UNL A   1      45.213  20.975  24.380  1.00  0.00     0.305 C 
ATOM      4  O   UNL A   1      46.327  20.715  24.834  1.00  0.00    -0.252 OA
BRANCH   3   5
ATOM      5  C   UNL A   1      44.892  22.381  23.916  1.00  0.00     0.123 C 
BRANCH   5   6
ATOM      6  C   UNL A   1      43.634  23.027  24.493  1.00  0.00     0.012 C 
BRANCH   6   7
ATOM      7  C   UNL A   1      43.818  24.061  25.615  1.00  0.00     0.010 C 
BRANCH   7   8
ATOM      8  C   UNL A   1      44.758  23.688  26.771  1.00  0.00     0.100 C 
BRANCH   8   9
ATOM      9  C   UNL A   1      46.102  24.304  26.761  1.00  0.00     0.226 A 
ATOM     10  N   UNL A   1      46.643  25.039  25.816  1.00  0.00    -0.191 NA
ATOM     11  O   UNL A   1      46.936  24.067  27.808  1.00  0.00    -0.339 OA
ATOM     12  C   UNL A   1      47.915  25.235  26.292  1.00  0.00     0.202 A 
ATOM     13  N   UNL A   1      48.145  24.679  27.493  1.00  0.00    -0.057 NA
BRANCH  12  14
ATOM     14  C   UNL A   1      48.934  25.931  25.531  1.00  0.00     0.023 A 
ATOM     15  C   UNL A   1      50.283  25.785  25.882  1.00  0.00     0.012 A 
ATOM     16  C   UNL A   1      48.586  26.756  24.454  1.00  0.00     0.012 A 
ATOM     17  C   UNL A   1      51.272  26.473  25.180  1.00  0.00     0.001 A 
ATOM     18  C   UNL A   1      49.578  27.458  23.764  1.00  0.00     0.001 A 
ATOM     19  C   UNL A   1      50.917  27.318  24.130  1.00  0.00     0.000 A 
ENDBRANCH  12  14
ENDBRANCH   8   9
ENDBRANCH   7   8
ENDBRANCH   6   7
ENDBRANCH   5   6
ENDBRANCH   3   5
ENDBRANCH   2   3
ENDBRANCH   1   2
BRANCH   1  20
ATOM     20  C   UNL A   1      42.803  18.563  25.695  1.00  0.00     0.202 C 
BRANCH  20  21
ATOM     21  O   UNL A   1      42.679  18.439  27.110  1.00  0.00    -0.374 OA
BRANCH  21  22
ATOM     22  C   UNL A   1      42.033  19.554  27.735  1.00  0.00     0.202 C 
BRANCH  22  23
ATOM     23  C   UNL A   1      41.093  20.311  26.788  1.00  0.00     0.261 C 
BRANCH  23  24
ATOM     24  O   UNL A   1      40.373  21.338  27.492  1.00  0.00    -0.460 OA
BRANCH  24  25
ATOM     25  C   UNL A   1      39.753  22.244  26.694  1.00  0.00     0.338 C 
ATOM     26  O   UNL A   1      38.799  22.044  25.960  1.00  0.00    -0.246 OA
BRANCH  25  27
ATOM     27  C   UNL A   1      40.273  23.602  26.985  1.00  0.00     0.060 A 
ATOM     28  C   UNL A   1      41.061  23.758  28.134  1.00  0.00     0.016 A 
ATOM     29  C   UNL A   1      40.037  24.695  26.145  1.00  0.00     0.016 A 
ATOM     30  C   UNL A   1      41.571  25.010  28.473  1.00  0.00     0.010 A 
ATOM     31  C   UNL A   1      40.544  25.954  26.488  1.00  0.00     0.010 A 
ATOM     32  C   UNL A   1      41.278  26.122  27.674  1.00  0.00    -0.014 A 
BRANCH  32  33
ATOM     33  C   UNL A   1      41.568  27.478  28.200  1.00  0.00     0.031 A 
ATOM     34  C   UNL A   1      42.999  27.945  28.214  1.00  0.00     0.074 A 
ATOM     35  C   UNL A   1      40.581  28.304  28.592  1.00  0.00     0.049 A 
ATOM     36  N   UNL A   1      43.492  29.099  28.585  1.00  0.00    -0.248 NA
ATOM     37  C   UNL A   1      44.008  26.982  27.743  1.00  0.00     0.031 C 
ATOM     38  C   UNL A   1      39.155  27.983  28.595  1.00  0.00     0.029 A 
ATOM     39  N   UNL A   1      40.639  29.592  29.062  1.00  0.00    -0.354 N 
ATOM     40  C   UNL A   1      44.863  29.002  28.382  1.00  0.00     0.074 A 
ATOM     41  C   UNL A   1      45.131  27.665  27.902  1.00  0.00     0.031 C 
ATOM     42  C   UNL A   1      38.470  29.049  29.046  1.00  0.00     0.029 A 
ATOM     43  C   UNL A   1      39.410  30.115  29.384  1.00  0.00     0.049 A 
ATOM     44  H   UNL A   1      41.480  30.094  29.159  1.00  0.00     0.167 HD
ATOM     45  C   UNL A   1      45.817  29.946  28.563  1.00  0.00     0.031 A 
ATOM     46  C   UNL A   1      39.087  31.317  29.904  1.00  0.00     0.031 A 
ATOM     47  C   UNL A   1      45.559  31.268  29.064  1.00  0.00     0.049 A 
ATOM     48  C   UNL A   1      40.177  32.323  30.168  1.00  0.00     0.074 A 
ATOM     49  C   UNL A   1      46.459  32.295  29.293  1.00  0.00     0.029 A 
ATOM     50  N   UNL A   1      44.307  31.745  29.419  1.00  0.00    -0.354 N 
ATOM     51  N   UNL A   1      41.466  32.228  29.948  1.00  0.00    -0.248 NA
ATOM     52  C   UNL A   1      39.760  33.614  30.738  1.00  0.00     0.031 C 
ATOM     53  C   UNL A   1      45.757  33.376  29.837  1.00  0.00     0.029 A 
ATOM     54  C   UNL A   1      44.413  33.044  29.886  1.00  0.00     0.049 A 
ATOM     55  H   UNL A   1      43.469  31.236  29.349  1.00  0.00     0.167 HD
ATOM     56  C   UNL A   1      42.009  33.448  30.330  1.00  0.00     0.074 A 
ATOM     57  C   UNL A   1      40.905  34.278  30.766  1.00  0.00     0.031 C 
ATOM     58  C   UNL A   1      43.304  33.851  30.326  1.00  0.00     0.031 A 
BRANCH  45  59
ATOM     59  C   UNL A   1      47.233  29.566  28.234  1.00  0.00    -0.014 A 
ATOM     60  C   UNL A   1      47.913  30.163  27.161  1.00  0.00     0.009 A 
ATOM     61  C   UNL A   1      47.906  28.621  29.024  1.00  0.00     0.009 A 
ATOM     62  C   UNL A   1      49.231  29.802  26.870  1.00  0.00     0.001 A 
ATOM     63  C   UNL A   1      49.232  28.283  28.749  1.00  0.00     0.001 A 
ATOM     64  C   UNL A   1      49.891  28.868  27.667  1.00  0.00     0.000 A 
ENDBRANCH  45  59
BRANCH  46  65
ATOM     65  C   UNL A   1      37.672  31.635  30.237  1.00  0.00    -0.014 A 
ATOM     66  C   UNL A   1      36.848  32.313  29.325  1.00  0.00     0.009 A 
ATOM     67  C   UNL A   1      37.152  31.301  31.498  1.00  0.00     0.009 A 
ATOM     68  C   UNL A   1      35.547  32.680  29.682  1.00  0.00     0.001 A 
ATOM     69  C   UNL A   1      35.841  31.639  31.839  1.00  0.00     0.001 A 
ATOM     70  C   UNL A   1      35.044  32.340  30.936  1.00  0.00     0.000 A 
ENDBRANCH  46  65
BRANCH  58  71
ATOM     71  C   UNL A   1      43.586  35.257  30.781  1.00  0.00    -0.014 A 
ATOM     72  C   UNL A   1      43.508  36.341  29.893  1.00  0.00     0.009 A 
ATOM     73  C   UNL A   1      43.921  35.499  32.122  1.00  0.00     0.009 A 
ATOM     74  C   UNL A   1      43.810  37.633  30.329  1.00  0.00     0.001 A 
ATOM     75  C   UNL A   1      44.188  36.796  32.563  1.00  0.00     0.001 A 
ATOM     76  C   UNL A   1      44.147  37.860  31.662  1.00  0.00     0.000 A 
ENDBRANCH  58  71
ENDBRANCH  32  33
ENDBRANCH  25  27
ENDBRANCH  24  25
ENDBRANCH  23  24
ENDBRANCH  22  23
ENDBRANCH  21  22
ENDBRANCH  20  21
ENDBRANCH   1  20
TORSDOF 19
ENDMDL
MODEL 2
REMARK VINA RESULT:      -8.4      6.378     12.439
REMARK SMILES O=C(CCCCc1nc(-c2ccccc2)no1)OCCOCCOC(=O)c1ccc(-c2c3nc(c(-c4ccccc4)c4ccc([nH]4)c(-c4ccccc4)c4nc(c(-c5ccccc5)c5ccc2[nH]5)C=C4)C=C3)cc1
REMARK SMILES IDX 19 1 18 2 2 3 1 4 3 5 4 6 5 7 6 8 7 9 8 10 17 11 9 12 16 13
REMARK SMILES IDX 10 14 11 15 15 16 12 17 14 18 13 19 20 20 21 21 22 22 23 23
REMARK SMILES IDX 24 24 25 25 26 26 27 27 28 28 74 29 29 30 73 31 30 32 31 33
REMARK SMILES IDX 32 34 67 35 33 36 72 37 66 38 68 39 34 40 71 41 65 42 64 43
REMARK SMILES IDX 35 45 57 46 42 47 56 48 43 49 46 50 55 51 69 52 44 53 45 54
REMARK SMILES IDX 54 56 70 57 47 58 36 59 37 60 41 61 38 62 40 63 39 64 58 65
REMARK SMILES IDX 59 66 63 67 60 68 62 69 61 70 48 71 49 72 53 73 50 74 52 75
REMARK SMILES IDX 51 76
REMARK H PARENT 68 44 46 55
REMARK Flexibility Score: inf
ROOT
ATOM      1  C   UNL A   1      31.855  29.043  26.808  1.00  0.00     0.261 C 
ENDROOT
BRANCH   1   2
ATOM      2  O   UNL A   1      31.968  28.394  25.537  1.00  0.00    -0.463 OA
BRANCH   2   3
ATOM      3  C   UNL A   1      32.964  27.566  25.158  1.00  0.00     0.305 C 
ATOM      4  O   UNL A   1      34.026  28.054  24.770  1.00  0.00    -0.252 OA
BRANCH   3   5
ATOM      5  C   UNL A   1      32.778  26.062  25.161  1.00  0.00     0.123 C 
BRANCH   5   6
ATOM      6  C   UNL A   1      31.720  25.500  26.107  1.00  0.00     0.012 C 
BRANCH   6   7
ATOM      7  C   UNL A   1      30.251  25.591  25.663  1.00  0.00     0.010 C 
BRANCH   7   8
ATOM      8  C   UNL A   1      29.975  25.691  24.156  1.00  0.00     0.100 C 
BRANCH   8   9
ATOM      9  C   UNL A   1      29.158  26.837  23.704  1.00  0.00     0.226 A 
ATOM     10  N   UNL A   1      29.579  27.983  23.218  1.00  0.00    -0.191 NA
ATOM     11  O   UNL A   1      27.807  26.768  23.838  1.00  0.00    -0.339 OA
ATOM     12  C   UNL A   1      28.409  28.688  23.081  1.00  0.00     0.202 A 
ATOM     13  N   UNL A   1      27.309  28.002  23.431  1.00  0.00    -0.057 NA
BRANCH  12  14
ATOM     14  C   UNL A   1      28.380  30.073  22.651  1.00  0.00     0.023 A 
ATOM     15  C   UNL A   1      28.094  30.377  21.313  1.00  0.00     0.012 A 
ATOM     16  C   UNL A   1      28.643  31.110  23.554  1.00  0.00     0.012 A 
ATOM     17  C   UNL A   1      28.094  31.701  20.877  1.00  0.00     0.001 A 
ATOM     18  C   UNL A   1      28.659  32.435  23.110  1.00  0.00     0.001 A 
ATOM     19  C   UNL A   1      28.388  32.727  21.772  1.00  0.00     0.000 A 
ENDBRANCH  12  14
ENDBRANCH   8   9
ENDBRANCH   7   8
ENDBRANCH   6   7
ENDBRANCH   5   6
ENDBRANCH   3   5
ENDBRANCH   2   3
ENDBRANCH   1   2
BRANCH   1  20
ATOM     20  C   UNL A   1      32.327  30.488  26.783  1.00  0.00     0.202 C 
BRANCH  20  21
ATOM     21  O   UNL A   1      31.466  31.364  26.058  1.00  0.00    -0.374 OA
BRANCH  21  22
ATOM     22  C   UNL A   1      31.442  32.704  26.562  1.00  0.00     0.202 C 
BRANCH  22  23
ATOM     23  C   UNL A   1      32.410  32.921  27.733  1.00  0.00     0.261 C 
BRANCH  23  24
ATOM     24  O   UNL A   1      32.595  34.323  27.993  1.00  0.00    -0.460 OA
BRANCH  24  25
ATOM     25  C   UNL A   1      33.177  34.607  29.185  1.00  0.00     0.338 C 
ATOM     26  O   UNL A   1      32.692  35.245  30.106  1.00  0.00    -0.246 OA
BRANCH  25  27
ATOM     27  C   UNL A   1      34.446  33.851  29.313  1.00  0.00     0.060 A 
ATOM     28  C   UNL A   1      34.486  32.812  30.254  1.00  0.00     0.016 A 
ATOM     29  C   UNL A   1      35.563  34.112  28.513  1.00  0.00     0.016 A 
ATOM     30  C   UNL A   1      35.651  32.069  30.434  1.00  0.00     0.010 A 
ATOM     31  C   UNL A   1      36.735  33.371  28.697  1.00  0.00     0.010 A 
ATOM     32  C   UNL A   1      36.795  32.375  29.687  1.00  0.00    -0.014 A 
BRANCH  32  33
ATOM     33  C   UNL A   1      38.095  31.788  30.093  1.00  0.00     0.031 A 
ATOM     34  C   UNL A   1      38.890  32.491  31.161  1.00  0.00     0.074 A 
ATOM     35  C   UNL A   1      38.530  30.624  29.579  1.00  0.00     0.049 A 
ATOM     36  N   UNL A   1      40.028  32.149  31.709  1.00  0.00    -0.248 NA
ATOM     37  C   UNL A   1      38.323  33.745  31.683  1.00  0.00     0.031 C 
ATOM     38  C   UNL A   1      37.838  29.830  28.565  1.00  0.00     0.029 A 
ATOM     39  N   UNL A   1      39.668  29.906  29.852  1.00  0.00    -0.354 N 
ATOM     40  C   UNL A   1      40.305  33.139  32.644  1.00  0.00     0.074 A 
ATOM     41  C   UNL A   1      39.245  34.117  32.557  1.00  0.00     0.031 C 
ATOM     42  C   UNL A   1      38.567  28.732  28.299  1.00  0.00     0.029 A 
ATOM     43  C   UNL A   1      39.785  28.758  29.106  1.00  0.00     0.049 A 
ATOM     44  H   UNL A   1      40.336  30.186  30.517  1.00  0.00     0.167 HD
ATOM     45  C   UNL A   1      41.341  33.221  33.511  1.00  0.00     0.031 A 
ATOM     46  C   UNL A   1      40.772  27.839  29.074  1.00  0.00     0.031 A 
ATOM     47  C   UNL A   1      42.411  32.264  33.584  1.00  0.00     0.049 A 
ATOM     48  C   UNL A   1      41.953  27.995  29.996  1.00  0.00     0.074 A 
ATOM     49  C   UNL A   1      43.514  32.263  34.421  1.00  0.00     0.029 A 
ATOM     50  N   UNL A   1      42.515  31.137  32.783  1.00  0.00    -0.354 N 
ATOM     51  N   UNL A   1      42.190  28.922  30.893  1.00  0.00    -0.248 NA
ATOM     52  C   UNL A   1      42.997  26.962  29.912  1.00  0.00     0.031 C 
ATOM     53  C   UNL A   1      44.312  31.163  34.090  1.00  0.00     0.029 A 
ATOM     54  C   UNL A   1      43.674  30.446  33.091  1.00  0.00     0.049 A 
ATOM     55  H   UNL A   1      41.862  30.870  32.098  1.00  0.00     0.167 HD
ATOM     56  C   UNL A   1      43.394  28.572  31.493  1.00  0.00     0.074 A 
ATOM     57  C   UNL A   1      43.822  27.333  30.879  1.00  0.00     0.031 C 
ATOM     58  C   UNL A   1      44.089  29.218  32.462  1.00  0.00     0.031 A 
BRANCH  45  59
ATOM     59  C   UNL A   1      41.372  34.404  34.437  1.00  0.00    -0.014 A 
ATOM     60  C   UNL A   1      41.991  35.606  34.056  1.00  0.00     0.009 A 
ATOM     61  C   UNL A   1      40.751  34.327  35.692  1.00  0.00     0.009 A 
ATOM     62  C   UNL A   1      42.008  36.699  34.926  1.00  0.00     0.001 A 
ATOM     63  C   UNL A   1      40.745  35.430  36.549  1.00  0.00     0.001 A 
ATOM     64  C   UNL A   1      41.380  36.612  36.168  1.00  0.00     0.000 A 
ENDBRANCH  45  59
BRANCH  46  65
ATOM     65  C   UNL A   1      40.707  26.699  28.120  1.00  0.00    -0.014 A 
ATOM     66  C   UNL A   1      41.205  26.819  26.813  1.00  0.00     0.009 A 
ATOM     67  C   UNL A   1      40.096  25.494  28.503  1.00  0.00     0.009 A 
ATOM     68  C   UNL A   1      41.061  25.769  25.901  1.00  0.00     0.001 A 
ATOM     69  C   UNL A   1      39.984  24.435  27.600  1.00  0.00     0.001 A 
ATOM     70  C   UNL A   1      40.454  24.578  26.296  1.00  0.00     0.000 A 
ENDBRANCH  46  65
BRANCH  58  71
ATOM     71  C   UNL A   1      45.366  28.577  32.932  1.00  0.00    -0.014 A 
ATOM     72  C   UNL A   1      45.372  27.647  33.983  1.00  0.00     0.009 A 
ATOM     73  C   UNL A   1      46.579  28.898  32.302  1.00  0.00     0.009 A 
ATOM     74  C   UNL A   1      46.574  27.092  34.427  1.00  0.00     0.001 A 
ATOM     75  C   UNL A   1      47.774  28.315  32.725  1.00  0.00     0.001 A 
ATOM     76  C   UNL A   1      47.772  27.424  33.797  1.00  0.00     0.000 A 
ENDBRANCH  58  71
ENDBRANCH  32  33
ENDBRANCH  25  27
ENDBRANCH  24  25
ENDBRANCH  23  24
ENDBRANCH  22  23
ENDBRANCH  21  22
ENDBRANCH  20  21
ENDBRANCH   1  20
TORSDOF 19
ENDMDL
MODEL 3
REMARK VINA RESULT:      -8.3      5.745     11.137
REMARK SMILES O=C(CCCCc1nc(-c2ccccc2)no1)OCCOCCOC(=O)c1ccc(-c2c3nc(c(-c4ccccc4)c4ccc([nH]4)c(-c4ccccc4)c4nc(c(-c5ccccc5)c5ccc2[nH]5)C=C4)C=C3)cc1
REMARK SMILES IDX 19 1 18 2 2 3 1 4 3 5 4 6 5 7 6 8 7 9 8 10 17 11 9 12 16 13
REMARK SMILES IDX 10 14 11 15 15 16 12 17 14 18 13 19 20 20 21 21 22 22 23 23
REMARK SMILES IDX 24 24 25 25 26 26 27 27 28 28 74 29 29 30 73 31 30 32 31 33
REMARK SMILES IDX 32 34 67 35 33 36 72 37 66 38 68 39 34 40 71 41 65 42 64 43
REMARK SMILES IDX 35 45 57 46 42 47 56 48 43 49 46 50 55 51 69 52 44 53 45 54
REMARK SMILES IDX 54 56 70 57 47 58 36 59 37 60 41 61 38 62 40 63 39 64 58 65
REMARK SMILES IDX 59 66 63 67 60 68 62 69 61 70 48 71 49 72 53 73 50 74 52 75
REMARK SMILES IDX 51 76
REMARK H PARENT 68 44 46 55
REMARK Flexibility Score: inf
ROOT
ATOM      1  C   UNL A   1      33.265  28.804  25.695  1.00  0.00     0.261 C 
ENDROOT
BRANCH   1   2
ATOM      2  O   UNL A   1      33.263  29.230  24.328  1.00  0.00    -0.463 OA
BRANCH   2   3
ATOM      3  C   UNL A   1      32.597  28.634  23.316  1.00  0.00     0.305 C 
ATOM      4  O   UNL A   1      33.187  27.800  22.628  1.00  0.00    -0.252 OA
BRANCH   3   5
ATOM      5  C   UNL A   1      31.166  29.009  22.989  1.00  0.00     0.123 C 
BRANCH   5   6
ATOM      6  C   UNL A   1      30.075  28.371  23.845  1.00  0.00     0.012 C 
BRANCH   6   7
ATOM      7  C   UNL A   1      30.004  26.836  23.875  1.00  0.00     0.010 C 
BRANCH   7   8
ATOM      8  C   UNL A   1      30.107  26.152  25.246  1.00  0.00     0.100 C 
BRANCH   8   9
ATOM      9  C   UNL A   1      31.378  25.460  25.551  1.00  0.00     0.226 A 
ATOM     10  N   UNL A   1      32.426  25.323  24.772  1.00  0.00    -0.191 NA
ATOM     11  O   UNL A   1      31.504  24.828  26.748  1.00  0.00    -0.339 OA
ATOM     12  C   UNL A   1      33.243  24.514  25.522  1.00  0.00     0.202 A 
ATOM     13  N   UNL A   1      32.742  24.192  26.726  1.00  0.00    -0.057 NA
BRANCH  12  14
ATOM     14  C   UNL A   1      34.507  24.008  25.025  1.00  0.00     0.023 A 
ATOM     15  C   UNL A   1      34.574  23.452  23.740  1.00  0.00     0.012 A 
ATOM     16  C   UNL A   1      35.661  24.059  25.816  1.00  0.00     0.012 A 
ATOM     17  C   UNL A   1      35.775  22.932  23.260  1.00  0.00     0.001 A 
ATOM     18  C   UNL A   1      36.859  23.520  25.339  1.00  0.00     0.001 A 
ATOM     19  C   UNL A   1      36.913  22.955  24.064  1.00  0.00     0.000 A 
ENDBRANCH  12  14
ENDBRANCH   8   9
ENDBRANCH   7   8
ENDBRANCH   6   7
ENDBRANCH   5   6
ENDBRANCH   3   5
ENDBRANCH   2   3
ENDBRANCH   1   2
BRANCH   1  20
ATOM     20  C   UNL A   1      32.150  29.432  26.516  1.00  0.00     0.202 C 
BRANCH  20  21
ATOM     21  O   UNL A   1      32.505  30.677  27.113  1.00  0.00    -0.374 OA
BRANCH  21  22
ATOM     22  C   UNL A   1      31.613  31.750  26.792  1.00  0.00     0.202 C 
BRANCH  22  23
ATOM     23  C   UNL A   1      32.239  33.135  27.010  1.00  0.00     0.261 C 
BRANCH  23  24
ATOM     24  O   UNL A   1      32.296  33.456  28.411  1.00  0.00    -0.460 OA
BRANCH  24  25
ATOM     25  C   UNL A   1      33.091  34.513  28.717  1.00  0.00     0.338 C 
ATOM     26  O   UNL A   1      32.784  35.694  28.690  1.00  0.00    -0.246 OA
BRANCH  25  27
ATOM     27  C   UNL A   1      34.364  34.027  29.300  1.00  0.00     0.060 A 
ATOM     28  C   UNL A   1      35.542  34.289  28.586  1.00  0.00     0.016 A 
ATOM     29  C   UNL A   1      34.426  33.365  30.531  1.00  0.00     0.016 A 
ATOM     30  C   UNL A   1      36.772  33.850  29.071  1.00  0.00     0.010 A 
ATOM     31  C   UNL A   1      35.660  32.918  31.015  1.00  0.00     0.010 A 
ATOM     32  C   UNL A   1      36.832  33.123  30.266  1.00  0.00    -0.014 A 
BRANCH  32  33
ATOM     33  C   UNL A   1      38.086  32.412  30.611  1.00  0.00     0.031 A 
ATOM     34  C   UNL A   1      38.960  32.992  31.691  1.00  0.00     0.074 A 
ATOM     35  C   UNL A   1      38.412  31.243  30.030  1.00  0.00     0.049 A 
ATOM     36  N   UNL A   1      40.076  32.530  32.193  1.00  0.00    -0.248 NA
ATOM     37  C   UNL A   1      38.511  34.261  32.287  1.00  0.00     0.031 C 
ATOM     38  C   UNL A   1      37.634  30.561  28.997  1.00  0.00     0.029 A 
ATOM     39  N   UNL A   1      39.491  30.420  30.239  1.00  0.00    -0.354 N 
ATOM     40  C   UNL A   1      40.455  33.445  33.167  1.00  0.00     0.074 A 
ATOM     41  C   UNL A   1      39.479  34.511  33.155  1.00  0.00     0.031 C 
ATOM     42  C   UNL A   1      38.262  29.421  28.660  1.00  0.00     0.029 A 
ATOM     43  C   UNL A   1      39.496  29.306  29.436  1.00  0.00     0.049 A 
ATOM     44  H   UNL A   1      40.194  30.611  30.900  1.00  0.00     0.167 HD
ATOM     45  C   UNL A   1      41.513  33.398  34.011  1.00  0.00     0.031 A 
ATOM     46  C   UNL A   1      40.402  28.312  29.334  1.00  0.00     0.031 A 
ATOM     47  C   UNL A   1      42.500  32.353  34.010  1.00  0.00     0.049 A 
ATOM     48  C   UNL A   1      41.611  28.323  30.233  1.00  0.00     0.074 A 
ATOM     49  C   UNL A   1      43.616  32.220  34.818  1.00  0.00     0.029 A 
ATOM     50  N   UNL A   1      42.493  31.264  33.153  1.00  0.00    -0.354 N 
ATOM     51  N   UNL A   1      41.943  29.181  31.167  1.00  0.00    -0.248 NA
ATOM     52  C   UNL A   1      42.562  27.213  30.072  1.00  0.00     0.031 C 
ATOM     53  C   UNL A   1      44.313  31.076  34.414  1.00  0.00     0.029 A 
ATOM     54  C   UNL A   1      43.596  30.465  33.398  1.00  0.00     0.049 A 
ATOM     55  H   UNL A   1      41.806  31.086  32.473  1.00  0.00     0.167 HD
ATOM     56  C   UNL A   1      43.126  28.704  31.718  1.00  0.00     0.074 A 
ATOM     57  C   UNL A   1      43.436  27.465  31.035  1.00  0.00     0.031 C 
ATOM     58  C   UNL A   1      43.894  29.240  32.700  1.00  0.00     0.031 A 
BRANCH  45  59
ATOM     59  C   UNL A   1      41.662  34.527  34.992  1.00  0.00    -0.014 A 
ATOM     60  C   UNL A   1      41.191  34.410  36.309  1.00  0.00     0.009 A 
ATOM     61  C   UNL A   1      42.309  35.710  34.604  1.00  0.00     0.009 A 
ATOM     62  C   UNL A   1      41.340  35.466  37.210  1.00  0.00     0.001 A 
ATOM     63  C   UNL A   1      42.482  36.754  35.514  1.00  0.00     0.001 A 
ATOM     64  C   UNL A   1      41.991  36.634  36.814  1.00  0.00     0.000 A 
ENDBRANCH  45  59
BRANCH  46  65
ATOM     65  C   UNL A   1      40.221  27.231  28.328  1.00  0.00    -0.014 A 
ATOM     66  C   UNL A   1      39.483  26.075  28.631  1.00  0.00     0.009 A 
ATOM     67  C   UNL A   1      40.832  27.331  27.068  1.00  0.00     0.009 A 
ATOM     68  C   UNL A   1      39.391  25.031  27.707  1.00  0.00     0.001 A 
ATOM     69  C   UNL A   1      40.710  26.299  26.135  1.00  0.00     0.001 A 
ATOM     70  C   UNL A   1      40.001  25.145  26.459  1.00  0.00     0.000 A 
ENDBRANCH  46  65
BRANCH  58  71
ATOM     71  C   UNL A   1      45.122  28.473  33.106  1.00  0.00    -0.014 A 
ATOM     72  C   UNL A   1      45.071  27.487  34.103  1.00  0.00     0.009 A 
ATOM     73  C   UNL A   1      46.346  28.732  32.469  1.00  0.00     0.009 A 
ATOM     74  C   UNL A   1      46.231  26.813  34.490  1.00  0.00     0.001 A 
ATOM     75  C   UNL A   1      47.497  28.032  32.833  1.00  0.00     0.001 A 
ATOM     76  C   UNL A   1      47.441  27.084  33.853  1.00  0.00     0.000 A 
ENDBRANCH  58  71
ENDBRANCH  32  33
ENDBRANCH  25  27
ENDBRANCH  24  25
ENDBRANCH  23  24
ENDBRANCH  22  23
ENDBRANCH  21  22
ENDBRANCH  20  21
ENDBRANCH   1  20
TORSDOF 19
ENDMDL
