MODEL 1
REMARK VINA RESULT:      -8.7      0.000      0.000
REMARK SMILES CCOCC[C@@H]1CCC[C@@]1([NH2+]C1CC1)C(=O)OCCOCCOC(=O)c1ccc(-c2c3nc(c(-c4ccccc4)c4ccc([nH]4)c(-c4ccccc4)c4nc(c(-c5ccccc5)c5ccc2[nH]5)C=C4)C=C3)cc1
REMARK SMILES IDX 19 1 18 2 17 3 15 4 16 5 10 6 6 7 7 8 8 9 9 10 5 11 4 12
REMARK SMILES IDX 3 13 2 14 1 15 11 16 12 19 13 20 14 21 20 22 21 23 22 24
REMARK SMILES IDX 23 25 24 26 25 27 26 28 27 29 73 30 28 31 72 32 29 33 30 34
REMARK SMILES IDX 31 35 66 36 32 37 71 38 65 39 67 40 33 41 70 42 64 43 63 44
REMARK SMILES IDX 34 46 56 47 41 48 55 49 42 50 45 51 54 52 68 53 43 54 44 55
REMARK SMILES IDX 53 57 69 58 46 59 35 60 36 61 40 62 37 63 39 64 38 65 57 66
REMARK SMILES IDX 58 67 62 68 59 69 61 70 60 71 47 72 48 73 52 74 49 75 51 76
REMARK SMILES IDX 50 77
REMARK H PARENT 11 17 11 18 67 45 45 56
REMARK Flexibility Score: inf
ROOT
ATOM      1  C   UNL A   1      31.438  28.606  24.450  1.00  0.00     0.202 C 
ENDROOT
BRANCH   1   2
ATOM      2  C   UNL A   1      32.561  27.839  23.753  1.00  0.00     0.261 C 
BRANCH   2   3
ATOM      3  O   UNL A   1      32.593  26.420  23.940  1.00  0.00    -0.459 OA
BRANCH   3   4
ATOM      4  C   UNL A   1      33.403  25.983  24.941  1.00  0.00     0.368 C 
ATOM      5  O   UNL A   1      34.028  26.746  25.673  1.00  0.00    -0.245 OA
BRANCH   4   6
ATOM      6  C   UNL A   1      33.440  24.452  25.134  1.00  0.00     0.197 C 
ATOM      7  C   UNL A   1      34.797  24.106  25.849  1.00  0.00     0.065 C 
ATOM      8  C   UNL A   1      34.472  22.849  26.662  1.00  0.00     0.011 C 
ATOM      9  C   UNL A   1      33.057  23.071  27.169  1.00  0.00     0.008 C 
ATOM     10  C   UNL A   1      32.387  24.039  26.194  1.00  0.00     0.081 C 
BRANCH   7  11
ATOM     11  C   UNL A   1      36.057  23.889  24.988  1.00  0.00     0.039 C 
BRANCH  11  12
ATOM     12  C   UNL A   1      37.389  23.718  25.727  1.00  0.00     0.160 C 
BRANCH  12  13
ATOM     13  O   UNL A   1      37.728  22.350  25.948  1.00  0.00    -0.382 OA
BRANCH  13  14
ATOM     14  C   UNL A   1      37.736  21.502  24.804  1.00  0.00     0.156 C 
ATOM     15  C   UNL A   1      36.989  20.198  25.024  1.00  0.00     0.035 C 
ENDBRANCH  13  14
ENDBRANCH  12  13
ENDBRANCH  11  12
ENDBRANCH   7  11
BRANCH   6  16
ATOM     16  N   UNL A   1      33.292  23.646  23.888  1.00  0.00    -0.329 N 
ATOM     17  H   UNL A   1      34.176  23.165  23.722  1.00  0.00     0.347 HD
ATOM     18  H   UNL A   1      33.033  24.311  23.160  1.00  0.00     0.347 HD
BRANCH  16  19
ATOM     19  C   UNL A   1      32.222  22.630  23.894  1.00  0.00     0.183 C 
ATOM     20  C   UNL A   1      32.053  21.779  22.663  1.00  0.00     0.071 C 
ATOM     21  C   UNL A   1      32.582  21.170  23.924  1.00  0.00     0.071 C 
ENDBRANCH  16  19
ENDBRANCH   6  16
ENDBRANCH   4   6
ENDBRANCH   3   4
ENDBRANCH   2   3
ENDBRANCH   1   2
BRANCH   1  22
ATOM     22  O   UNL A   1      31.663  29.205  25.716  1.00  0.00    -0.374 OA
BRANCH  22  23
ATOM     23  C   UNL A   1      32.867  29.931  25.940  1.00  0.00     0.202 C 
BRANCH  23  24
ATOM     24  C   UNL A   1      33.162  30.468  27.343  1.00  0.00     0.261 C 
BRANCH  24  25
ATOM     25  O   UNL A   1      34.295  31.349  27.382  1.00  0.00    -0.460 OA
BRANCH  25  26
ATOM     26  C   UNL A   1      34.932  31.367  28.578  1.00  0.00     0.338 C 
ATOM     27  O   UNL A   1      34.570  31.914  29.604  1.00  0.00    -0.246 OA
BRANCH  26  28
ATOM     28  C   UNL A   1      36.088  30.455  28.547  1.00  0.00     0.060 A 
ATOM     29  C   UNL A   1      36.424  29.810  29.745  1.00  0.00     0.016 A 
ATOM     30  C   UNL A   1      36.886  30.321  27.410  1.00  0.00     0.016 A 
ATOM     31  C   UNL A   1      37.609  29.094  29.837  1.00  0.00     0.010 A 
ATOM     32  C   UNL A   1      38.087  29.613  27.507  1.00  0.00     0.010 A 
ATOM     33  C   UNL A   1      38.473  29.050  28.736  1.00  0.00    -0.014 A 
BRANCH  33  34
ATOM     34  C   UNL A   1      39.869  28.614  28.956  1.00  0.00     0.031 A 
ATOM     35  C   UNL A   1      40.802  29.553  29.671  1.00  0.00     0.074 A 
ATOM     36  C   UNL A   1      40.265  27.380  28.606  1.00  0.00     0.049 A 
ATOM     37  N   UNL A   1      42.060  29.389  29.988  1.00  0.00    -0.248 NA
ATOM     38  C   UNL A   1      40.238  30.848  30.093  1.00  0.00     0.031 C 
ATOM     39  C   UNL A   1      39.419  26.364  27.981  1.00  0.00     0.029 A 
ATOM     40  N   UNL A   1      41.485  26.769  28.742  1.00  0.00    -0.354 N 
ATOM     41  C   UNL A   1      42.434  30.555  30.648  1.00  0.00     0.074 A 
ATOM     42  C   UNL A   1      41.285  31.432  30.655  1.00  0.00     0.031 C 
ATOM     43  C   UNL A   1      40.148  25.251  27.790  1.00  0.00     0.029 A 
ATOM     44  C   UNL A   1      41.515  25.491  28.246  1.00  0.00     0.049 A 
ATOM     45  H   UNL A   1      42.263  27.207  29.156  1.00  0.00     0.167 HD
ATOM     46  C   UNL A   1      43.627  30.862  31.209  1.00  0.00     0.031 A 
ATOM     47  C   UNL A   1      42.541  24.624  28.156  1.00  0.00     0.031 A 
ATOM     48  C   UNL A   1      44.771  29.993  31.179  1.00  0.00     0.049 A 
ATOM     49  C   UNL A   1      43.889  25.037  28.685  1.00  0.00     0.074 A 
ATOM     50  C   UNL A   1      46.038  30.214  31.689  1.00  0.00     0.029 A 
ATOM     51  N   UNL A   1      44.784  28.732  30.602  1.00  0.00    -0.354 N 
ATOM     52  N   UNL A   1      44.235  26.144  29.300  1.00  0.00    -0.248 NA
ATOM     53  C   UNL A   1      44.988  24.078  28.512  1.00  0.00     0.031 C 
ATOM     54  C   UNL A   1      46.831  29.106  31.376  1.00  0.00     0.029 A 
ATOM     55  C   UNL A   1      46.042  28.170  30.726  1.00  0.00     0.049 A 
ATOM     56  H   UNL A   1      44.012  28.301  30.170  1.00  0.00     0.167 HD
ATOM     57  C   UNL A   1      45.580  25.998  29.617  1.00  0.00     0.074 A 
ATOM     58  C   UNL A   1      45.982  24.690  29.140  1.00  0.00     0.031 C 
ATOM     59  C   UNL A   1      46.411  26.863  30.248  1.00  0.00     0.031 A 
BRANCH  46  60
ATOM     60  C   UNL A   1      43.757  32.205  31.871  1.00  0.00    -0.014 A 
ATOM     61  C   UNL A   1      43.493  32.370  33.240  1.00  0.00     0.009 A 
ATOM     62  C   UNL A   1      44.179  33.314  31.122  1.00  0.00     0.009 A 
ATOM     63  C   UNL A   1      43.621  33.625  33.840  1.00  0.00     0.001 A 
ATOM     64  C   UNL A   1      44.332  34.562  31.730  1.00  0.00     0.001 A 
ATOM     65  C   UNL A   1      44.046  34.719  33.085  1.00  0.00     0.000 A 
ENDBRANCH  46  60
BRANCH  47  66
ATOM     66  C   UNL A   1      42.351  23.294  27.522  1.00  0.00    -0.014 A 
ATOM     67  C   UNL A   1      41.905  22.195  28.273  1.00  0.00     0.009 A 
ATOM     68  C   UNL A   1      42.655  23.105  26.163  1.00  0.00     0.009 A 
ATOM     69  C   UNL A   1      41.799  20.931  27.686  1.00  0.00     0.001 A 
ATOM     70  C   UNL A   1      42.519  21.847  25.573  1.00  0.00     0.001 A 
ATOM     71  C   UNL A   1      42.104  20.759  26.336  1.00  0.00     0.000 A 
ENDBRANCH  47  66
BRANCH  59  72
ATOM     72  C   UNL A   1      47.819  26.403  30.498  1.00  0.00    -0.014 A 
ATOM     73  C   UNL A   1      48.184  25.789  31.706  1.00  0.00     0.009 A 
ATOM     74  C   UNL A   1      48.784  26.553  29.490  1.00  0.00     0.009 A 
ATOM     75  C   UNL A   1      49.499  25.369  31.913  1.00  0.00     0.001 A 
ATOM     76  C   UNL A   1      50.090  26.103  29.687  1.00  0.00     0.001 A 
ATOM     77  C   UNL A   1      50.448  25.521  30.902  1.00  0.00     0.000 A 
ENDBRANCH  59  72
ENDBRANCH  33  34
ENDBRANCH  26  28
ENDBRANCH  25  26
ENDBRANCH  24  25
ENDBRANCH  23  24
ENDBRANCH  22  23
ENDBRANCH   1  22
TORSDOF 20
ENDMDL
MODEL 2
REMARK VINA RESULT:      -8.5      4.265     10.306
REMARK SMILES CCOCC[C@@H]1CCC[C@@]1([NH2+]C1CC1)C(=O)OCCOCCOC(=O)c1ccc(-c2c3nc(c(-c4ccccc4)c4ccc([nH]4)c(-c4ccccc4)c4nc(c(-c5ccccc5)c5ccc2[nH]5)C=C4)C=C3)cc1
REMARK SMILES IDX 19 1 18 2 17 3 15 4 16 5 10 6 6 7 7 8 8 9 9 10 5 11 4 12
REMARK SMILES IDX 3 13 2 14 1 15 11 16 12 19 13 20 14 21 20 22 21 23 22 24
REMARK SMILES IDX 23 25 24 26 25 27 26 28 27 29 73 30 28 31 72 32 29 33 30 34
REMARK SMILES IDX 31 35 66 36 32 37 71 38 65 39 67 40 33 41 70 42 64 43 63 44
REMARK SMILES IDX 34 46 56 47 41 48 55 49 42 50 45 51 54 52 68 53 43 54 44 55
REMARK SMILES IDX 53 57 69 58 46 59 35 60 36 61 40 62 37 63 39 64 38 65 57 66
REMARK SMILES IDX 58 67 62 68 59 69 61 70 60 71 47 72 48 73 52 74 49 75 51 76
REMARK SMILES IDX 50 77
REMARK H PARENT 11 17 11 18 67 45 45 56
REMARK Flexibility Score: inf
ROOT
ATOM      1  C   UNL A   1      34.816  35.272  33.991  1.00  0.00     0.202 C 
ENDROOT
BRANCH   1   2
ATOM      2  C   UNL A   1      35.559  33.953  34.204  1.00  0.00     0.261 C 
BRANCH   2   3
ATOM      3  O   UNL A   1      36.888  34.034  34.730  1.00  0.00    -0.459 OA
BRANCH   3   4
ATOM      4  C   UNL A   1      37.023  33.662  36.030  1.00  0.00     0.368 C 
ATOM      5  O   UNL A   1      36.063  33.446  36.765  1.00  0.00    -0.245 OA
BRANCH   4   6
ATOM      6  C   UNL A   1      38.478  33.472  36.511  1.00  0.00     0.197 C 
ATOM      7  C   UNL A   1      39.271  32.790  35.337  1.00  0.00     0.065 C 
ATOM      8  C   UNL A   1      40.702  33.306  35.514  1.00  0.00     0.011 C 
ATOM      9  C   UNL A   1      40.541  34.749  35.959  1.00  0.00     0.008 C 
ATOM     10  C   UNL A   1      39.169  34.855  36.625  1.00  0.00     0.081 C 
BRANCH   7  11
ATOM     11  C   UNL A   1      39.255  31.253  35.222  1.00  0.00     0.039 C 
BRANCH  11  12
ATOM     12  C   UNL A   1      38.172  30.629  34.333  1.00  0.00     0.160 C 
BRANCH  12  13
ATOM     13  O   UNL A   1      38.588  29.404  33.732  1.00  0.00    -0.382 OA
BRANCH  13  14
ATOM     14  C   UNL A   1      37.789  28.917  32.658  1.00  0.00     0.156 C 
ATOM     15  C   UNL A   1      38.412  27.733  31.940  1.00  0.00     0.035 C 
ENDBRANCH  13  14
ENDBRANCH  12  13
ENDBRANCH  11  12
ENDBRANCH   7  11
BRANCH   6  16
ATOM     16  N   UNL A   1      38.639  32.686  37.768  1.00  0.00    -0.329 N 
ATOM     17  H   UNL A   1      39.392  32.014  37.620  1.00  0.00     0.347 HD
ATOM     18  H   UNL A   1      37.729  32.263  37.946  1.00  0.00     0.347 HD
BRANCH  16  19
ATOM     19  C   UNL A   1      38.959  33.460  38.982  1.00  0.00     0.183 C 
ATOM     20  C   UNL A   1      38.868  32.754  40.310  1.00  0.00     0.071 C 
ATOM     21  C   UNL A   1      40.206  33.141  39.761  1.00  0.00     0.071 C 
ENDBRANCH  16  19
ENDBRANCH   6  16
ENDBRANCH   4   6
ENDBRANCH   3   4
ENDBRANCH   2   3
ENDBRANCH   1   2
BRANCH   1  22
ATOM     22  O   UNL A   1      34.653  35.794  32.682  1.00  0.00    -0.374 OA
BRANCH  22  23
ATOM     23  C   UNL A   1      33.422  36.413  32.326  1.00  0.00     0.202 C 
BRANCH  23  24
ATOM     24  C   UNL A   1      32.785  36.077  30.974  1.00  0.00     0.261 C 
BRANCH  24  25
ATOM     25  O   UNL A   1      33.750  35.774  29.956  1.00  0.00    -0.460 OA
BRANCH  25  26
ATOM     26  C   UNL A   1      33.463  34.656  29.247  1.00  0.00     0.338 C 
ATOM     27  O   UNL A   1      32.468  34.434  28.580  1.00  0.00    -0.246 OA
BRANCH  26  28
ATOM     28  C   UNL A   1      34.631  33.759  29.225  1.00  0.00     0.060 A 
ATOM     29  C   UNL A   1      34.970  33.123  30.428  1.00  0.00     0.016 A 
ATOM     30  C   UNL A   1      35.437  33.631  28.093  1.00  0.00     0.016 A 
ATOM     31  C   UNL A   1      36.163  32.423  30.529  1.00  0.00     0.010 A 
ATOM     32  C   UNL A   1      36.646  32.939  28.200  1.00  0.00     0.010 A 
ATOM     33  C   UNL A   1      37.034  32.385  29.433  1.00  0.00    -0.014 A 
BRANCH  33  34
ATOM     34  C   UNL A   1      38.433  31.969  29.662  1.00  0.00     0.031 A 
ATOM     35  C   UNL A   1      38.847  30.592  29.219  1.00  0.00     0.074 A 
ATOM     36  C   UNL A   1      39.330  32.830  30.170  1.00  0.00     0.049 A 
ATOM     37  N   UNL A   1      40.016  30.011  29.301  1.00  0.00    -0.248 NA
ATOM     38  C   UNL A   1      37.804  29.762  28.589  1.00  0.00     0.031 C 
ATOM     39  C   UNL A   1      39.053  34.213  30.557  1.00  0.00     0.029 A 
ATOM     40  N   UNL A   1      40.665  32.665  30.433  1.00  0.00    -0.354 N 
ATOM     41  C   UNL A   1      39.849  28.753  28.732  1.00  0.00     0.074 A 
ATOM     42  C   UNL A   1      38.462  28.640  28.341  1.00  0.00     0.031 C 
ATOM     43  C   UNL A   1      40.188  34.773  31.008  1.00  0.00     0.029 A 
ATOM     44  C   UNL A   1      41.258  33.778  30.973  1.00  0.00     0.049 A 
ATOM     45  H   UNL A   1      41.151  31.828  30.253  1.00  0.00     0.167 HD
ATOM     46  C   UNL A   1      40.773  27.784  28.541  1.00  0.00     0.031 A 
ATOM     47  C   UNL A   1      42.520  33.960  31.406  1.00  0.00     0.031 A 
ATOM     48  C   UNL A   1      42.146  27.896  28.952  1.00  0.00     0.049 A 
ATOM     49  C   UNL A   1      43.499  32.822  31.287  1.00  0.00     0.074 A 
ATOM     50  C   UNL A   1      43.162  26.965  28.835  1.00  0.00     0.029 A 
ATOM     51  N   UNL A   1      42.693  29.014  29.562  1.00  0.00    -0.354 N 
ATOM     52  N   UNL A   1      43.331  31.635  30.755  1.00  0.00    -0.248 NA
ATOM     53  C   UNL A   1      44.847  33.054  31.825  1.00  0.00     0.031 C 
ATOM     54  C   UNL A   1      44.312  27.502  29.421  1.00  0.00     0.029 A 
ATOM     55  C   UNL A   1      44.028  28.790  29.847  1.00  0.00     0.049 A 
ATOM     56  H   UNL A   1      42.203  29.845  29.762  1.00  0.00     0.167 HD
ATOM     57  C   UNL A   1      44.558  30.992  30.863  1.00  0.00     0.074 A 
ATOM     58  C   UNL A   1      45.464  31.928  31.497  1.00  0.00     0.031 C 
ATOM     59  C   UNL A   1      44.908  29.743  30.472  1.00  0.00     0.031 A 
BRANCH  46  60
ATOM     60  C   UNL A   1      40.317  26.509  27.889  1.00  0.00    -0.014 A 
ATOM     61  C   UNL A   1      39.496  25.596  28.571  1.00  0.00     0.009 A 
ATOM     62  C   UNL A   1      40.687  26.229  26.564  1.00  0.00     0.009 A 
ATOM     63  C   UNL A   1      39.079  24.417  27.950  1.00  0.00     0.001 A 
ATOM     64  C   UNL A   1      40.246  25.063  25.936  1.00  0.00     0.001 A 
ATOM     65  C   UNL A   1      39.450  24.154  26.632  1.00  0.00     0.000 A 
ENDBRANCH  46  60
BRANCH  47  66
ATOM     66  C   UNL A   1      42.930  35.253  32.012  1.00  0.00    -0.014 A 
ATOM     67  C   UNL A   1      42.675  35.527  33.365  1.00  0.00     0.009 A 
ATOM     68  C   UNL A   1      43.545  36.242  31.227  1.00  0.00     0.009 A 
ATOM     69  C   UNL A   1      42.997  36.773  33.909  1.00  0.00     0.001 A 
ATOM     70  C   UNL A   1      43.894  37.475  31.781  1.00  0.00     0.001 A 
ATOM     71  C   UNL A   1      43.609  37.745  33.117  1.00  0.00     0.000 A 
ENDBRANCH  47  66
BRANCH  59  72
ATOM     72  C   UNL A   1      46.340  29.337  30.676  1.00  0.00    -0.014 A 
ATOM     73  C   UNL A   1      46.756  28.686  31.848  1.00  0.00     0.009 A 
ATOM     74  C   UNL A   1      47.278  29.577  29.659  1.00  0.00     0.009 A 
ATOM     75  C   UNL A   1      48.092  28.319  32.012  1.00  0.00     0.001 A 
ATOM     76  C   UNL A   1      48.606  29.179  29.812  1.00  0.00     0.001 A 
ATOM     77  C   UNL A   1      49.014  28.560  30.993  1.00  0.00     0.000 A 
ENDBRANCH  59  72
ENDBRANCH  33  34
ENDBRANCH  26  28
ENDBRANCH  25  26
ENDBRANCH  24  25
ENDBRANCH  23  24
ENDBRANCH  22  23
ENDBRANCH   1  22
TORSDOF 20
ENDMDL
MODEL 3
REMARK VINA RESULT:      -8.4      2.764      7.256
REMARK SMILES CCOCC[C@@H]1CCC[C@@]1([NH2+]C1CC1)C(=O)OCCOCCOC(=O)c1ccc(-c2c3nc(c(-c4ccccc4)c4ccc([nH]4)c(-c4ccccc4)c4nc(c(-c5ccccc5)c5ccc2[nH]5)C=C4)C=C3)cc1
REMARK SMILES IDX 19 1 18 2 17 3 15 4 16 5 10 6 6 7 7 8 8 9 9 10 5 11 4 12
REMARK SMILES IDX 3 13 2 14 1 15 11 16 12 19 13 20 14 21 20 22 21 23 22 24
REMARK SMILES IDX 23 25 24 26 25 27 26 28 27 29 73 30 28 31 72 32 29 33 30 34
REMARK SMILES IDX 31 35 66 36 32 37 71 38 65 39 67 40 33 41 70 42 64 43 63 44
REMARK SMILES IDX 34 46 56 47 41 48 55 49 42 50 45 51 54 52 68 53 43 54 44 55
REMARK SMILES IDX 53 57 69 58 46 59 35 60 36 61 40 62 37 63 39 64 38 65 57 66
REMARK SMILES IDX 58 67 62 68 59 69 61 70 60 71 47 72 48 73 52 74 49 75 51 76
REMARK SMILES IDX 50 77
REMARK H PARENT 11 17 11 18 67 45 45 56
REMARK Flexibility Score: inf
ROOT
ATOM      1  C   UNL A   1      32.767  28.298  27.309  1.00  0.00     0.202 C 
ENDROOT
BRANCH   1   2
ATOM      2  C   UNL A   1      31.407  27.748  26.876  1.00  0.00     0.261 C 
BRANCH   2   3
ATOM      3  O   UNL A   1      31.387  26.896  25.726  1.00  0.00    -0.459 OA
BRANCH   3   4
ATOM      4  C   UNL A   1      31.876  25.643  25.920  1.00  0.00     0.368 C 
ATOM      5  O   UNL A   1      31.545  24.939  26.872  1.00  0.00    -0.245 OA
BRANCH   4   6
ATOM      6  C   UNL A   1      32.839  25.136  24.825  1.00  0.00     0.197 C 
ATOM      7  C   UNL A   1      31.956  24.575  23.652  1.00  0.00     0.065 C 
ATOM      8  C   UNL A   1      32.811  24.814  22.404  1.00  0.00     0.011 C 
ATOM      9  C   UNL A   1      33.486  26.152  22.648  1.00  0.00     0.008 C 
ATOM     10  C   UNL A   1      33.549  26.344  24.163  1.00  0.00     0.081 C 
BRANCH   7  11
ATOM     11  C   UNL A   1      31.478  23.110  23.715  1.00  0.00     0.039 C 
BRANCH  11  12
ATOM     12  C   UNL A   1      32.226  22.092  22.847  1.00  0.00     0.160 C 
BRANCH  12  13
ATOM     13  O   UNL A   1      32.248  20.786  23.421  1.00  0.00    -0.382 OA
BRANCH  13  14
ATOM     14  C   UNL A   1      32.705  20.688  24.767  1.00  0.00     0.156 C 
ATOM     15  C   UNL A   1      34.144  20.215  24.875  1.00  0.00     0.035 C 
ENDBRANCH  13  14
ENDBRANCH  12  13
ENDBRANCH  11  12
ENDBRANCH   7  11
BRANCH   6  16
ATOM     16  N   UNL A   1      33.826  24.109  25.266  1.00  0.00    -0.329 N 
ATOM     17  H   UNL A   1      33.622  23.246  24.762  1.00  0.00     0.347 HD
ATOM     18  H   UNL A   1      33.716  24.040  26.277  1.00  0.00     0.347 HD
BRANCH  16  19
ATOM     19  C   UNL A   1      35.247  24.435  25.044  1.00  0.00     0.183 C 
ATOM     20  C   UNL A   1      36.272  23.730  25.894  1.00  0.00     0.071 C 
ATOM     21  C   UNL A   1      36.160  23.406  24.437  1.00  0.00     0.071 C 
ENDBRANCH  16  19
ENDBRANCH   6  16
ENDBRANCH   4   6
ENDBRANCH   3   4
ENDBRANCH   2   3
ENDBRANCH   1   2
BRANCH   1  22
ATOM     22  O   UNL A   1      33.366  29.363  26.588  1.00  0.00    -0.374 OA
BRANCH  22  23
ATOM     23  C   UNL A   1      33.916  30.465  27.301  1.00  0.00     0.202 C 
BRANCH  23  24
ATOM     24  C   UNL A   1      33.031  31.681  27.588  1.00  0.00     0.261 C 
BRANCH  24  25
ATOM     25  O   UNL A   1      33.688  32.930  27.328  1.00  0.00    -0.460 OA
BRANCH  25  26
ATOM     26  C   UNL A   1      33.623  33.806  28.359  1.00  0.00     0.338 C 
ATOM     27  O   UNL A   1      32.691  34.531  28.661  1.00  0.00    -0.246 OA
BRANCH  26  28
ATOM     28  C   UNL A   1      34.801  33.650  29.229  1.00  0.00     0.060 A 
ATOM     29  C   UNL A   1      36.039  34.050  28.705  1.00  0.00     0.016 A 
ATOM     30  C   UNL A   1      34.716  33.029  30.475  1.00  0.00     0.016 A 
ATOM     31  C   UNL A   1      37.208  33.752  29.389  1.00  0.00     0.010 A 
ATOM     32  C   UNL A   1      35.894  32.716  31.157  1.00  0.00     0.010 A 
ATOM     33  C   UNL A   1      37.141  33.028  30.585  1.00  0.00    -0.014 A 
BRANCH  33  34
ATOM     34  C   UNL A   1      38.379  32.405  31.099  1.00  0.00     0.031 A 
ATOM     35  C   UNL A   1      38.849  31.126  30.462  1.00  0.00     0.074 A 
ATOM     36  C   UNL A   1      39.109  33.013  32.049  1.00  0.00     0.049 A 
ATOM     37  N   UNL A   1      39.906  30.404  30.733  1.00  0.00    -0.248 NA
ATOM     38  C   UNL A   1      38.020  30.592  29.366  1.00  0.00     0.031 C 
ATOM     39  C   UNL A   1      38.786  34.295  32.675  1.00  0.00     0.029 A 
ATOM     40  N   UNL A   1      40.286  32.633  32.640  1.00  0.00    -0.354 N 
ATOM     41  C   UNL A   1      39.870  29.339  29.840  1.00  0.00     0.074 A 
ATOM     42  C   UNL A   1      38.672  29.485  29.046  1.00  0.00     0.031 C 
ATOM     43  C   UNL A   1      39.747  34.596  33.565  1.00  0.00     0.029 A 
ATOM     44  C   UNL A   1      40.729  33.515  33.593  1.00  0.00     0.049 A 
ATOM     45  H   UNL A   1      40.766  31.807  32.403  1.00  0.00     0.167 HD
ATOM     46  C   UNL A   1      40.764  28.334  29.688  1.00  0.00     0.031 A 
ATOM     47  C   UNL A   1      41.798  33.440  34.407  1.00  0.00     0.031 A 
ATOM     48  C   UNL A   1      41.942  28.184  30.497  1.00  0.00     0.049 A 
ATOM     49  C   UNL A   1      42.714  32.250  34.295  1.00  0.00     0.074 A 
ATOM     50  C   UNL A   1      42.901  27.188  30.451  1.00  0.00     0.029 A 
ATOM     51  N   UNL A   1      42.320  29.060  31.503  1.00  0.00    -0.354 N 
ATOM     52  N   UNL A   1      42.668  31.244  33.454  1.00  0.00    -0.248 NA
ATOM     53  C   UNL A   1      43.835  32.189  35.244  1.00  0.00     0.031 C 
ATOM     54  C   UNL A   1      43.833  27.435  31.464  1.00  0.00     0.029 A 
ATOM     55  C   UNL A   1      43.487  28.618  32.099  1.00  0.00     0.049 A 
ATOM     56  H   UNL A   1      41.830  29.876  31.755  1.00  0.00     0.167 HD
ATOM     57  C   UNL A   1      43.770  30.451  33.750  1.00  0.00     0.074 A 
ATOM     58  C   UNL A   1      44.473  31.101  34.837  1.00  0.00     0.031 C 
ATOM     59  C   UNL A   1      44.169  29.290  33.175  1.00  0.00     0.031 A 
BRANCH  46  60
ATOM     60  C   UNL A   1      40.478  27.305  28.631  1.00  0.00    -0.014 A 
ATOM     61  C   UNL A   1      39.680  26.183  28.904  1.00  0.00     0.009 A 
ATOM     62  C   UNL A   1      40.989  27.475  27.335  1.00  0.00     0.009 A 
ATOM     63  C   UNL A   1      39.422  25.237  27.909  1.00  0.00     0.001 A 
ATOM     64  C   UNL A   1      40.708  26.542  26.334  1.00  0.00     0.001 A 
ATOM     65  C   UNL A   1      39.932  25.420  26.624  1.00  0.00     0.000 A 
ENDBRANCH  46  60
BRANCH  47  66
ATOM     66  C   UNL A   1      42.055  34.503  35.414  1.00  0.00    -0.014 A 
ATOM     67  C   UNL A   1      41.450  34.456  36.679  1.00  0.00     0.009 A 
ATOM     68  C   UNL A   1      42.878  35.596  35.098  1.00  0.00     0.009 A 
ATOM     69  C   UNL A   1      41.638  35.496  37.594  1.00  0.00     0.001 A 
ATOM     70  C   UNL A   1      43.088  36.619  36.025  1.00  0.00     0.001 A 
ATOM     71  C   UNL A   1      42.459  36.575  37.266  1.00  0.00     0.000 A 
ENDBRANCH  47  66
BRANCH  59  72
ATOM     72  C   UNL A   1      45.446  28.679  33.679  1.00  0.00    -0.014 A 
ATOM     73  C   UNL A   1      45.445  27.732  34.714  1.00  0.00     0.009 A 
ATOM     74  C   UNL A   1      46.665  29.032  33.078  1.00  0.00     0.009 A 
ATOM     75  C   UNL A   1      46.645  27.179  35.163  1.00  0.00     0.001 A 
ATOM     76  C   UNL A   1      47.859  28.453  33.507  1.00  0.00     0.001 A 
ATOM     77  C   UNL A   1      47.849  27.535  34.556  1.00  0.00     0.000 A 
ENDBRANCH  59  72
ENDBRANCH  33  34
ENDBRANCH  26  28
ENDBRANCH  25  26
ENDBRANCH  24  25
ENDBRANCH  23  24
ENDBRANCH  22  23
ENDBRANCH   1  22
TORSDOF 20
ENDMDL
