MODEL 1
REMARK VINA RESULT:     -13.2      0.000      0.000
REMARK SMILES O=C(OCCOCCOC(=O)c1ccc(-c2c3nc(c(-c4ccccc4)c4ccc([nH]4)c(-c4ccccc4)c4nc(c(-c5ccccc5)c5ccc2[nH]5)C=C4)C=C3)cc1)C1=Cc2cc(Cl)cc(-c3ccc(O)cc3)c2O[C@@H]1C(F)(F)F
REMARK SMILES IDX 6 1 5 2 4 3 3 4 2 5 1 6 60 7 61 8 77 9 62 10 76 11 63 12
REMARK SMILES IDX 75 13 64 14 67 15 65 16 66 17 78 18 79 19 80 20 81 21 68 22
REMARK SMILES IDX 69 23 74 24 70 25 73 26 71 27 72 28 7 30 8 31 9 32 10 33
REMARK SMILES IDX 11 34 12 35 13 36 59 37 14 38 58 39 15 40 16 41 17 42 52 43
REMARK SMILES IDX 18 44 57 45 51 46 53 47 19 48 56 49 50 50 49 51 20 53 42 54
REMARK SMILES IDX 27 55 41 56 28 57 31 58 40 59 54 60 29 61 30 62 39 64 55 65
REMARK SMILES IDX 32 66 21 67 22 68 26 69 23 70 25 71 24 72 43 73 44 74 48 75
REMARK SMILES IDX 45 76 47 77 46 78 33 79 34 80 38 81 35 82 37 83 36 84
REMARK H PARENT 72 29 53 52 31 63
REMARK Flexibility Score: inf
ROOT
ATOM      1  O   UNL A   1      34.772  32.467  27.961  1.00  0.00    -0.374 OA
ENDROOT
BRANCH   1   2
ATOM      2  C   UNL A   1      34.237  31.094  27.200  1.00  0.00     0.202 C 
BRANCH   2   3
ATOM      3  C   UNL A   1      32.256  30.195  27.275  1.00  0.00     0.261 C 
BRANCH   3   4
ATOM      4  O   UNL A   1      31.571  29.414  26.095  1.00  0.00    -0.460 OA
BRANCH   4   5
ATOM      5  C   UNL A   1      31.427  28.104  26.328  1.00  0.00     0.338 C 
ATOM      6  O   UNL A   1      31.205  27.504  27.347  1.00  0.00    -0.246 OA
BRANCH   5   7
ATOM      7  C   UNL A   1      31.970  27.700  25.059  1.00  0.00     0.087 C 
ATOM      8  C   UNL A   1      33.374  27.306  25.181  1.00  0.00     0.027 C 
ATOM      9  C   UNL A   1      30.527  26.522  24.541  1.00  0.00     0.316 C 
ATOM     10  C   UNL A   1      33.938  25.598  25.074  1.00  0.00     0.019 A 
ATOM     11  O   UNL A   1      31.119  24.661  24.445  1.00  0.00    -0.475 OA
ATOM     12  C   UNL A   1      35.246  25.398  25.428  1.00  0.00     0.032 A 
ATOM     13  C   UNL A   1      32.876  24.237  24.779  1.00  0.00     0.135 A 
ATOM     14  C   UNL A   1      35.615  24.066  25.584  1.00  0.00     0.042 A 
ATOM     15  C   UNL A   1      33.393  22.906  24.879  1.00  0.00     0.026 A 
ATOM     16  Cl  UNL A   1      37.251  23.751  26.062  1.00  0.00    -0.084 Cl
ATOM     17  C   UNL A   1      34.747  22.926  25.370  1.00  0.00     0.033 A 
BRANCH   9  18
ATOM     18  C   UNL A   1      29.904  27.568  23.467  1.00  0.00     0.430 C 
ATOM     19  F   UNL A   1      30.451  27.511  22.235  1.00  0.00    -0.167 F 
ATOM     20  F   UNL A   1      28.592  27.242  23.263  1.00  0.00    -0.167 F 
ATOM     21  F   UNL A   1      29.869  28.859  23.869  1.00  0.00    -0.167 F 
ENDBRANCH   9  18
BRANCH  15  22
ATOM     22  C   UNL A   1      32.762  21.451  24.560  1.00  0.00    -0.014 A 
ATOM     23  C   UNL A   1      32.279  21.552  22.814  1.00  0.00     0.012 A 
ATOM     24  C   UNL A   1      32.844  19.578  25.351  1.00  0.00     0.012 A 
ATOM     25  C   UNL A   1      31.967  20.065  21.919  1.00  0.00     0.047 A 
ATOM     26  C   UNL A   1      32.515  18.155  24.300  1.00  0.00     0.047 A 
ATOM     27  C   UNL A   1      32.089  18.458  22.643  1.00  0.00     0.115 A 
BRANCH  27  28
ATOM     28  O   UNL A   1      31.747  17.391  21.858  1.00  0.00    -0.508 OA
ATOM     29  H   UNL A   1      32.059  17.338  20.976  1.00  0.00     0.293 HD
ENDBRANCH  27  28
ENDBRANCH  15  22
ENDBRANCH   5   7
ENDBRANCH   4   5
ENDBRANCH   3   4
ENDBRANCH   2   3
ENDBRANCH   1   2
BRANCH   1  30
ATOM     30  C   UNL A   1      34.164  33.318  28.976  1.00  0.00     0.202 C 
BRANCH  30  31
ATOM     31  C   UNL A   1      35.054  33.843  30.109  1.00  0.00     0.261 C 
BRANCH  31  32
ATOM     32  O   UNL A   1      36.191  33.027  30.202  1.00  0.00    -0.460 OA
BRANCH  32  33
ATOM     33  C   UNL A   1      35.970  32.041  31.087  1.00  0.00     0.338 C 
ATOM     34  O   UNL A   1      35.145  31.958  31.977  1.00  0.00    -0.246 OA
BRANCH  33  35
ATOM     35  C   UNL A   1      36.894  31.006  30.726  1.00  0.00     0.060 A 
ATOM     36  C   UNL A   1      38.025  30.430  31.972  1.00  0.00     0.016 A 
ATOM     37  C   UNL A   1      37.237  30.623  28.985  1.00  0.00     0.016 A 
ATOM     38  C   UNL A   1      39.518  29.544  31.579  1.00  0.00     0.010 A 
ATOM     39  C   UNL A   1      38.943  29.606  28.612  1.00  0.00     0.010 A 
ATOM     40  C   UNL A   1      40.018  29.145  29.951  1.00  0.00    -0.014 A 
BRANCH  40  41
ATOM     41  C   UNL A   1      41.393  28.745  29.538  1.00  0.00     0.031 A 
ATOM     42  C   UNL A   1      42.492  29.766  29.285  1.00  0.00     0.074 A 
ATOM     43  C   UNL A   1      41.559  27.501  29.060  1.00  0.00     0.049 A 
ATOM     44  N   UNL A   1      43.696  29.604  28.779  1.00  0.00    -0.248 NA
ATOM     45  C   UNL A   1      42.179  31.171  29.571  1.00  0.00     0.031 C 
ATOM     46  C   UNL A   1      40.522  26.475  29.022  1.00  0.00     0.029 A 
ATOM     47  N   UNL A   1      42.643  26.911  28.465  1.00  0.00    -0.354 N 
ATOM     48  C   UNL A   1      44.255  30.880  28.682  1.00  0.00     0.074 A 
ATOM     49  C   UNL A   1      43.227  31.812  29.074  1.00  0.00     0.031 C 
ATOM     50  C   UNL A   1      41.018  25.375  28.435  1.00  0.00     0.029 A 
ATOM     51  C   UNL A   1      42.405  25.622  28.061  1.00  0.00     0.049 A 
ATOM     52  H   UNL A   1      43.507  27.367  28.339  1.00  0.00     0.167 HD
ATOM     53  C   UNL A   1      45.523  31.248  28.359  1.00  0.00     0.031 A 
ATOM     54  C   UNL A   1      43.223  24.731  27.475  1.00  0.00     0.031 A 
ATOM     55  C   UNL A   1      46.545  30.311  27.970  1.00  0.00     0.049 A 
ATOM     56  C   UNL A   1      44.656  25.109  27.226  1.00  0.00     0.074 A 
ATOM     57  C   UNL A   1      47.898  30.528  27.764  1.00  0.00     0.029 A 
ATOM     58  N   UNL A   1      46.314  28.969  27.720  1.00  0.00    -0.354 N 
ATOM     59  N   UNL A   1      45.243  26.275  27.360  1.00  0.00    -0.248 NA
ATOM     60  C   UNL A   1      45.553  24.027  26.801  1.00  0.00     0.031 C 
ATOM     61  C   UNL A   1      48.473  29.324  27.342  1.00  0.00     0.029 A 
ATOM     62  C   UNL A   1      47.492  28.346  27.349  1.00  0.00     0.049 A 
ATOM     63  H   UNL A   1      45.439  28.524  27.795  1.00  0.00     0.167 HD
ATOM     64  C   UNL A   1      46.585  26.056  27.076  1.00  0.00     0.074 A 
ATOM     65  C   UNL A   1      46.725  24.643  26.793  1.00  0.00     0.031 C 
ATOM     66  C   UNL A   1      47.612  26.942  27.053  1.00  0.00     0.031 A 
BRANCH  53  67
ATOM     67  C   UNL A   1      45.905  32.708  28.492  1.00  0.00    -0.014 A 
ATOM     68  C   UNL A   1      45.771  33.586  27.400  1.00  0.00     0.009 A 
ATOM     69  C   UNL A   1      46.314  33.244  29.726  1.00  0.00     0.009 A 
ATOM     70  C   UNL A   1      46.079  34.943  27.523  1.00  0.00     0.001 A 
ATOM     71  C   UNL A   1      46.587  34.612  29.857  1.00  0.00     0.001 A 
ATOM     72  C   UNL A   1      46.479  35.458  28.753  1.00  0.00     0.000 A 
ENDBRANCH  53  67
BRANCH  54  73
ATOM     73  C   UNL A   1      42.734  23.354  27.212  1.00  0.00    -0.014 A 
ATOM     74  C   UNL A   1      42.242  23.017  25.941  1.00  0.00     0.009 A 
ATOM     75  C   UNL A   1      42.777  22.366  28.207  1.00  0.00     0.009 A 
ATOM     76  C   UNL A   1      41.756  21.735  25.685  1.00  0.00     0.001 A 
ATOM     77  C   UNL A   1      42.324  21.073  27.936  1.00  0.00     0.001 A 
ATOM     78  C   UNL A   1      41.801  20.763  26.681  1.00  0.00     0.000 A 
ENDBRANCH  54  73
BRANCH  66  79
ATOM     79  C   UNL A   1      48.978  26.393  26.738  1.00  0.00    -0.014 A 
ATOM     80  C   UNL A   1      49.733  25.708  27.703  1.00  0.00     0.009 A 
ATOM     81  C   UNL A   1      49.518  26.574  25.456  1.00  0.00     0.009 A 
ATOM     82  C   UNL A   1      51.026  25.273  27.409  1.00  0.00     0.001 A 
ATOM     83  C   UNL A   1      50.795  26.100  25.151  1.00  0.00     0.001 A 
ATOM     84  C   UNL A   1      51.554  25.467  26.133  1.00  0.00     0.000 A 
ENDBRANCH  66  79
ENDBRANCH  40  41
ENDBRANCH  33  35
ENDBRANCH  32  33
ENDBRANCH  31  32
ENDBRANCH  30  31
ENDBRANCH   1  30
TORSDOF 17
ENDMDL
MODEL 2
REMARK VINA RESULT:     -13.1      1.402      5.952
REMARK SMILES O=C(OCCOCCOC(=O)c1ccc(-c2c3nc(c(-c4ccccc4)c4ccc([nH]4)c(-c4ccccc4)c4nc(c(-c5ccccc5)c5ccc2[nH]5)C=C4)C=C3)cc1)C1=Cc2cc(Cl)cc(-c3ccc(O)cc3)c2O[C@@H]1C(F)(F)F
REMARK SMILES IDX 6 1 5 2 4 3 3 4 2 5 1 6 60 7 61 8 77 9 62 10 76 11 63 12
REMARK SMILES IDX 75 13 64 14 67 15 65 16 66 17 78 18 79 19 80 20 81 21 68 22
REMARK SMILES IDX 69 23 74 24 70 25 73 26 71 27 72 28 7 30 8 31 9 32 10 33
REMARK SMILES IDX 11 34 12 35 13 36 59 37 14 38 58 39 15 40 16 41 17 42 52 43
REMARK SMILES IDX 18 44 57 45 51 46 53 47 19 48 56 49 50 50 49 51 20 53 42 54
REMARK SMILES IDX 27 55 41 56 28 57 31 58 40 59 54 60 29 61 30 62 39 64 55 65
REMARK SMILES IDX 32 66 21 67 22 68 26 69 23 70 25 71 24 72 43 73 44 74 48 75
REMARK SMILES IDX 45 76 47 77 46 78 33 79 34 80 38 81 35 82 37 83 36 84
REMARK H PARENT 72 29 53 52 31 63
REMARK Flexibility Score: inf
ROOT
ATOM      1  O   UNL A   1      33.514  31.525  27.598  1.00  0.00    -0.374 OA
ENDROOT
BRANCH   1   2
ATOM      2  C   UNL A   1      34.067  30.004  27.233  1.00  0.00     0.202 C 
BRANCH   2   3
ATOM      3  C   UNL A   1      32.962  28.129  27.242  1.00  0.00     0.261 C 
BRANCH   3   4
ATOM      4  O   UNL A   1      32.355  27.430  25.972  1.00  0.00    -0.460 OA
BRANCH   4   5
ATOM      5  C   UNL A   1      32.040  26.143  26.165  1.00  0.00     0.338 C 
ATOM      6  O   UNL A   1      31.708  25.552  27.159  1.00  0.00    -0.246 OA
BRANCH   5   7
ATOM      7  C   UNL A   1      32.573  25.703  24.903  1.00  0.00     0.087 C 
ATOM      8  C   UNL A   1      34.014  25.466  24.987  1.00  0.00     0.027 C 
ATOM      9  C   UNL A   1      31.245  24.345  24.538  1.00  0.00     0.316 C 
ATOM     10  C   UNL A   1      34.754  23.823  24.975  1.00  0.00     0.019 A 
ATOM     11  O   UNL A   1      32.028  22.554  24.547  1.00  0.00    -0.475 OA
ATOM     12  C   UNL A   1      36.088  23.788  25.281  1.00  0.00     0.032 A 
ATOM     13  C   UNL A   1      33.832  22.341  24.828  1.00  0.00     0.135 A 
ATOM     14  C   UNL A   1      36.603  22.516  25.514  1.00  0.00     0.042 A 
ATOM     15  C   UNL A   1      34.492  21.082  24.997  1.00  0.00     0.026 A 
ATOM     16  Cl  UNL A   1      38.281  22.410  25.936  1.00  0.00    -0.084 Cl
ATOM     17  C   UNL A   1      35.855  21.280  25.421  1.00  0.00     0.033 A 
BRANCH   9  18
ATOM     18  C   UNL A   1      30.472  25.237  23.423  1.00  0.00     0.430 C 
ATOM     19  F   UNL A   1      31.270  25.795  22.489  1.00  0.00    -0.167 F 
ATOM     20  F   UNL A   1      29.651  24.411  22.708  1.00  0.00    -0.167 F 
ATOM     21  F   UNL A   1      29.644  26.187  23.913  1.00  0.00    -0.167 F 
ENDBRANCH   9  18
BRANCH  15  22
ATOM     22  C   UNL A   1      34.008  19.549  24.813  1.00  0.00    -0.014 A 
ATOM     23  C   UNL A   1      35.555  18.608  24.706  1.00  0.00     0.012 A 
ATOM     24  C   UNL A   1      32.328  18.457  25.166  1.00  0.00     0.012 A 
ATOM     25  C   UNL A   1      35.521  16.862  24.954  1.00  0.00     0.047 A 
ATOM     26  C   UNL A   1      32.460  16.681  25.417  1.00  0.00     0.047 A 
ATOM     27  C   UNL A   1      34.039  15.965  25.296  1.00  0.00     0.115 A 
BRANCH  27  28
ATOM     28  O   UNL A   1      34.140  14.604  25.394  1.00  0.00    -0.508 OA
ATOM     29  H   UNL A   1      34.847  14.219  25.874  1.00  0.00     0.293 HD
ENDBRANCH  27  28
ENDBRANCH  15  22
ENDBRANCH   5   7
ENDBRANCH   4   5
ENDBRANCH   3   4
ENDBRANCH   2   3
ENDBRANCH   1   2
BRANCH   1  30
ATOM     30  C   UNL A   1      34.204  32.734  28.033  1.00  0.00     0.202 C 
BRANCH  30  31
ATOM     31  C   UNL A   1      34.342  32.985  29.540  1.00  0.00     0.261 C 
BRANCH  31  32
ATOM     32  O   UNL A   1      34.873  31.835  30.140  1.00  0.00    -0.460 OA
BRANCH  32  33
ATOM     33  C   UNL A   1      36.084  32.109  30.653  1.00  0.00     0.338 C 
ATOM     34  O   UNL A   1      36.428  32.986  31.421  1.00  0.00    -0.246 OA
BRANCH  33  35
ATOM     35  C   UNL A   1      36.940  31.072  30.155  1.00  0.00     0.060 A 
ATOM     36  C   UNL A   1      37.965  30.207  31.324  1.00  0.00     0.016 A 
ATOM     37  C   UNL A   1      37.331  30.951  28.387  1.00  0.00     0.016 A 
ATOM     38  C   UNL A   1      39.401  29.275  30.836  1.00  0.00     0.010 A 
ATOM     39  C   UNL A   1      38.968  29.867  27.904  1.00  0.00     0.010 A 
ATOM     40  C   UNL A   1      39.941  29.105  29.182  1.00  0.00    -0.014 A 
BRANCH  40  41
ATOM     41  C   UNL A   1      41.298  28.663  28.752  1.00  0.00     0.031 A 
ATOM     42  C   UNL A   1      41.599  27.219  28.380  1.00  0.00     0.074 A 
ATOM     43  C   UNL A   1      42.330  29.477  29.024  1.00  0.00     0.049 A 
ATOM     44  N   UNL A   1      42.750  26.633  28.129  1.00  0.00    -0.248 NA
ATOM     45  C   UNL A   1      40.467  26.285  28.353  1.00  0.00     0.031 C 
ATOM     46  C   UNL A   1      42.212  30.811  29.603  1.00  0.00     0.029 A 
ATOM     47  N   UNL A   1      43.680  29.278  28.902  1.00  0.00    -0.354 N 
ATOM     48  C   UNL A   1      42.467  25.280  27.933  1.00  0.00     0.074 A 
ATOM     49  C   UNL A   1      41.060  25.109  28.203  1.00  0.00     0.031 C 
ATOM     50  C   UNL A   1      43.441  31.318  29.787  1.00  0.00     0.029 A 
ATOM     51  C   UNL A   1      44.427  30.343  29.335  1.00  0.00     0.049 A 
ATOM     52  H   UNL A   1      44.075  28.452  28.539  1.00  0.00     0.167 HD
ATOM     53  C   UNL A   1      43.280  24.277  27.508  1.00  0.00     0.031 A 
ATOM     54  C   UNL A   1      45.759  30.523  29.344  1.00  0.00     0.031 A 
ATOM     55  C   UNL A   1      44.683  24.454  27.239  1.00  0.00     0.049 A 
ATOM     56  C   UNL A   1      46.644  29.456  28.766  1.00  0.00     0.074 A 
ATOM     57  C   UNL A   1      45.583  23.571  26.666  1.00  0.00     0.029 A 
ATOM     58  N   UNL A   1      45.391  25.606  27.539  1.00  0.00    -0.354 N 
ATOM     59  N   UNL A   1      46.332  28.248  28.360  1.00  0.00    -0.248 NA
ATOM     60  C   UNL A   1      48.060  29.803  28.593  1.00  0.00     0.031 C 
ATOM     61  C   UNL A   1      46.846  24.174  26.665  1.00  0.00     0.029 A 
ATOM     62  C   UNL A   1      46.718  25.455  27.177  1.00  0.00     0.049 A 
ATOM     63  H   UNL A   1      45.006  26.414  27.951  1.00  0.00     0.167 HD
ATOM     64  C   UNL A   1      47.503  27.708  27.846  1.00  0.00     0.074 A 
ATOM     65  C   UNL A   1      48.521  28.732  27.965  1.00  0.00     0.031 C 
ATOM     66  C   UNL A   1      47.722  26.477  27.319  1.00  0.00     0.031 A 
BRANCH  53  67
ATOM     67  C   UNL A   1      42.664  22.921  27.225  1.00  0.00    -0.014 A 
ATOM     68  C   UNL A   1      42.401  22.021  28.274  1.00  0.00     0.009 A 
ATOM     69  C   UNL A   1      42.256  22.564  25.928  1.00  0.00     0.009 A 
ATOM     70  C   UNL A   1      41.794  20.786  28.030  1.00  0.00     0.001 A 
ATOM     71  C   UNL A   1      41.614  21.342  25.691  1.00  0.00     0.001 A 
ATOM     72  C   UNL A   1      41.393  20.450  26.740  1.00  0.00     0.000 A 
ENDBRANCH  53  67
BRANCH  54  73
ATOM     73  C   UNL A   1      46.317  31.823  29.797  1.00  0.00    -0.014 A 
ATOM     74  C   UNL A   1      46.679  31.998  31.142  1.00  0.00     0.009 A 
ATOM     75  C   UNL A   1      46.516  32.881  28.897  1.00  0.00     0.009 A 
ATOM     76  C   UNL A   1      47.182  33.220  31.588  1.00  0.00     0.001 A 
ATOM     77  C   UNL A   1      47.054  34.091  29.340  1.00  0.00     0.001 A 
ATOM     78  C   UNL A   1      47.372  34.265  30.687  1.00  0.00     0.000 A 
ENDBRANCH  54  73
BRANCH  66  79
ATOM     79  C   UNL A   1      49.108  26.191  26.808  1.00  0.00    -0.014 A 
ATOM     80  C   UNL A   1      49.462  26.432  25.471  1.00  0.00     0.009 A 
ATOM     81  C   UNL A   1      50.073  25.663  27.680  1.00  0.00     0.009 A 
ATOM     82  C   UNL A   1      50.731  26.090  25.004  1.00  0.00     0.001 A 
ATOM     83  C   UNL A   1      51.356  25.362  27.221  1.00  0.00     0.001 A 
ATOM     84  C   UNL A   1      51.677  25.558  25.879  1.00  0.00     0.000 A 
ENDBRANCH  66  79
ENDBRANCH  40  41
ENDBRANCH  33  35
ENDBRANCH  32  33
ENDBRANCH  31  32
ENDBRANCH  30  31
ENDBRANCH   1  30
TORSDOF 17
ENDMDL
MODEL 3
REMARK VINA RESULT:     -12.7      1.536      5.896
REMARK SMILES O=C(OCCOCCOC(=O)c1ccc(-c2c3nc(c(-c4ccccc4)c4ccc([nH]4)c(-c4ccccc4)c4nc(c(-c5ccccc5)c5ccc2[nH]5)C=C4)C=C3)cc1)C1=Cc2cc(Cl)cc(-c3ccc(O)cc3)c2O[C@@H]1C(F)(F)F
REMARK SMILES IDX 6 1 5 2 4 3 3 4 2 5 1 6 60 7 61 8 77 9 62 10 76 11 63 12
REMARK SMILES IDX 75 13 64 14 67 15 65 16 66 17 78 18 79 19 80 20 81 21 68 22
REMARK SMILES IDX 69 23 74 24 70 25 73 26 71 27 72 28 7 30 8 31 9 32 10 33
REMARK SMILES IDX 11 34 12 35 13 36 59 37 14 38 58 39 15 40 16 41 17 42 52 43
REMARK SMILES IDX 18 44 57 45 51 46 53 47 19 48 56 49 50 50 49 51 20 53 42 54
REMARK SMILES IDX 27 55 41 56 28 57 31 58 40 59 54 60 29 61 30 62 39 64 55 65
REMARK SMILES IDX 32 66 21 67 22 68 26 69 23 70 25 71 24 72 43 73 44 74 48 75
REMARK SMILES IDX 45 76 47 77 46 78 33 79 34 80 38 81 35 82 37 83 36 84
REMARK H PARENT 72 29 53 52 31 63
REMARK Flexibility Score: inf
ROOT
ATOM      1  O   UNL A   1      35.155  32.284  27.657  1.00  0.00    -0.374 OA
ENDROOT
BRANCH   1   2
ATOM      2  C   UNL A   1      34.470  30.808  27.333  1.00  0.00     0.202 C 
BRANCH   2   3
ATOM      3  C   UNL A   1      32.358  30.283  27.281  1.00  0.00     0.261 C 
BRANCH   3   4
ATOM      4  O   UNL A   1      31.655  29.470  26.134  1.00  0.00    -0.460 OA
BRANCH   4   5
ATOM      5  C   UNL A   1      31.551  28.160  26.390  1.00  0.00     0.338 C 
ATOM      6  O   UNL A   1      31.358  27.570  27.420  1.00  0.00    -0.246 OA
BRANCH   5   7
ATOM      7  C   UNL A   1      32.090  27.751  25.120  1.00  0.00     0.087 C 
ATOM      8  C   UNL A   1      33.487  27.337  25.242  1.00  0.00     0.027 C 
ATOM      9  C   UNL A   1      30.631  26.595  24.597  1.00  0.00     0.316 C 
ATOM     10  C   UNL A   1      34.028  25.621  25.132  1.00  0.00     0.019 A 
ATOM     11  O   UNL A   1      31.196  24.726  24.497  1.00  0.00    -0.475 OA
ATOM     12  C   UNL A   1      35.332  25.402  25.488  1.00  0.00     0.032 A 
ATOM     13  C   UNL A   1      32.946  24.276  24.833  1.00  0.00     0.135 A 
ATOM     14  C   UNL A   1      35.681  24.064  25.641  1.00  0.00     0.042 A 
ATOM     15  C   UNL A   1      33.444  22.938  24.930  1.00  0.00     0.026 A 
ATOM     16  Cl  UNL A   1      37.313  23.725  26.120  1.00  0.00    -0.084 Cl
ATOM     17  C   UNL A   1      34.798  22.937  25.422  1.00  0.00     0.033 A 
BRANCH   9  18
ATOM     18  C   UNL A   1      30.024  27.652  23.525  1.00  0.00     0.430 C 
ATOM     19  F   UNL A   1      30.706  27.740  22.364  1.00  0.00    -0.167 F 
ATOM     20  F   UNL A   1      28.784  27.218  23.150  1.00  0.00    -0.167 F 
ATOM     21  F   UNL A   1      29.810  28.901  24.000  1.00  0.00    -0.167 F 
ENDBRANCH   9  18
BRANCH  15  22
ATOM     22  C   UNL A   1      32.792  21.492  24.607  1.00  0.00    -0.014 A 
ATOM     23  C   UNL A   1      32.317  21.603  22.860  1.00  0.00     0.012 A 
ATOM     24  C   UNL A   1      32.844  19.618  25.395  1.00  0.00     0.012 A 
ATOM     25  C   UNL A   1      31.986  20.123  21.961  1.00  0.00     0.047 A 
ATOM     26  C   UNL A   1      32.497  18.201  24.341  1.00  0.00     0.047 A 
ATOM     27  C   UNL A   1      32.081  18.513  22.683  1.00  0.00     0.115 A 
BRANCH  27  28
ATOM     28  O   UNL A   1      31.727  17.452  21.895  1.00  0.00    -0.508 OA
ATOM     29  H   UNL A   1      30.893  17.443  21.467  1.00  0.00     0.293 HD
ENDBRANCH  27  28
ENDBRANCH  15  22
ENDBRANCH   5   7
ENDBRANCH   4   5
ENDBRANCH   3   4
ENDBRANCH   2   3
ENDBRANCH   1   2
BRANCH   1  30
ATOM     30  C   UNL A   1      36.116  32.711  28.667  1.00  0.00     0.202 C 
BRANCH  30  31
ATOM     31  C   UNL A   1      36.039  32.067  30.056  1.00  0.00     0.261 C 
BRANCH  31  32
ATOM     32  O   UNL A   1      37.202  31.313  30.268  1.00  0.00    -0.460 OA
BRANCH  32  33
ATOM     33  C   UNL A   1      36.890  30.010  30.346  1.00  0.00     0.338 C 
ATOM     34  O   UNL A   1      35.907  29.467  30.813  1.00  0.00    -0.246 OA
BRANCH  33  35
ATOM     35  C   UNL A   1      37.961  29.332  29.676  1.00  0.00     0.060 A 
ATOM     36  C   UNL A   1      39.201  28.542  30.678  1.00  0.00     0.016 A 
ATOM     37  C   UNL A   1      38.318  29.649  27.925  1.00  0.00     0.016 A 
ATOM     38  C   UNL A   1      40.808  28.105  30.049  1.00  0.00     0.010 A 
ATOM     39  C   UNL A   1      40.157  29.117  27.276  1.00  0.00     0.010 A 
ATOM     40  C   UNL A   1      41.325  28.392  28.404  1.00  0.00    -0.014 A 
BRANCH  40  41
ATOM     41  C   UNL A   1      42.737  28.390  27.924  1.00  0.00     0.031 A 
ATOM     42  C   UNL A   1      43.377  27.160  27.297  1.00  0.00     0.074 A 
ATOM     43  C   UNL A   1      43.540  29.372  28.359  1.00  0.00     0.049 A 
ATOM     44  N   UNL A   1      44.630  26.937  26.963  1.00  0.00    -0.248 NA
ATOM     45  C   UNL A   1      42.513  25.994  27.079  1.00  0.00     0.031 C 
ATOM     46  C   UNL A   1      43.111  30.505  29.172  1.00  0.00     0.029 A 
ATOM     47  N   UNL A   1      44.893  29.543  28.227  1.00  0.00    -0.354 N 
ATOM     48  C   UNL A   1      44.687  25.616  26.516  1.00  0.00     0.074 A 
ATOM     49  C   UNL A   1      43.376  25.052  26.726  1.00  0.00     0.031 C 
ATOM     50  C   UNL A   1      44.179  31.261  29.468  1.00  0.00     0.029 A 
ATOM     51  C   UNL A   1      45.364  30.664  28.862  1.00  0.00     0.049 A 
ATOM     52  H   UNL A   1      45.471  28.923  27.725  1.00  0.00     0.167 HD
ATOM     53  C   UNL A   1      45.712  24.943  25.928  1.00  0.00     0.031 A 
ATOM     54  C   UNL A   1      46.609  31.167  28.928  1.00  0.00     0.031 A 
ATOM     55  C   UNL A   1      47.018  25.513  25.722  1.00  0.00     0.049 A 
ATOM     56  C   UNL A   1      47.715  30.479  28.179  1.00  0.00     0.074 A 
ATOM     57  C   UNL A   1      48.093  25.003  25.012  1.00  0.00     0.029 A 
ATOM     58  N   UNL A   1      47.425  26.730  26.241  1.00  0.00    -0.354 N 
ATOM     59  N   UNL A   1      47.701  29.327  27.552  1.00  0.00    -0.248 NA
ATOM     60  C   UNL A   1      48.993  31.196  28.098  1.00  0.00     0.031 C 
ATOM     61  C   UNL A   1      49.165  25.892  25.145  1.00  0.00     0.029 A 
ATOM     62  C   UNL A   1      48.736  26.984  25.881  1.00  0.00     0.049 A 
ATOM     63  H   UNL A   1      46.863  27.326  26.788  1.00  0.00     0.167 HD
ATOM     64  C   UNL A   1      48.955  29.201  26.968  1.00  0.00     0.074 A 
ATOM     65  C   UNL A   1      49.688  30.407  27.292  1.00  0.00     0.031 C 
ATOM     66  C   UNL A   1      49.458  28.182  26.227  1.00  0.00     0.031 A 
BRANCH  53  67
ATOM     67  C   UNL A   1      45.445  23.552  25.389  1.00  0.00    -0.014 A 
ATOM     68  C   UNL A   1      44.908  23.374  24.100  1.00  0.00     0.009 A 
ATOM     69  C   UNL A   1      45.810  22.407  26.118  1.00  0.00     0.009 A 
ATOM     70  C   UNL A   1      44.699  22.096  23.576  1.00  0.00     0.001 A 
ATOM     71  C   UNL A   1      45.634  21.127  25.576  1.00  0.00     0.001 A 
ATOM     72  C   UNL A   1      45.069  20.973  24.311  1.00  0.00     0.000 A 
ENDBRANCH  53  67
BRANCH  54  73
ATOM     73  C   UNL A   1      46.838  32.460  29.623  1.00  0.00    -0.014 A 
ATOM     74  C   UNL A   1      47.242  32.469  30.967  1.00  0.00     0.009 A 
ATOM     75  C   UNL A   1      46.683  33.682  28.951  1.00  0.00     0.009 A 
ATOM     76  C   UNL A   1      47.438  33.674  31.640  1.00  0.00     0.001 A 
ATOM     77  C   UNL A   1      46.916  34.886  29.619  1.00  0.00     0.001 A 
ATOM     78  C   UNL A   1      47.278  34.882  30.965  1.00  0.00     0.000 A 
ENDBRANCH  54  73
BRANCH  66  79
ATOM     79  C   UNL A   1      50.856  28.350  25.697  1.00  0.00    -0.014 A 
ATOM     80  C   UNL A   1      51.097  28.868  24.414  1.00  0.00     0.009 A 
ATOM     81  C   UNL A   1      51.949  27.976  26.494  1.00  0.00     0.009 A 
ATOM     82  C   UNL A   1      52.399  28.946  23.918  1.00  0.00     0.001 A 
ATOM     83  C   UNL A   1      53.253  28.095  26.011  1.00  0.00     0.001 A 
ATOM     84  C   UNL A   1      53.475  28.562  24.717  1.00  0.00     0.000 A 
ENDBRANCH  66  79
ENDBRANCH  40  41
ENDBRANCH  33  35
ENDBRANCH  32  33
ENDBRANCH  31  32
ENDBRANCH  30  31
ENDBRANCH   1  30
TORSDOF 17
ENDMDL
