MODEL 1
REMARK VINA RESULT:     -11.1      0.000      0.000
REMARK SMILES O=C(OCCOCCOC(=O)c1cc(-c2ccc(C(F)(F)F)cc2)cc([N+](=O)[O-])c1)c1ccc(-c2c3nc(c(-c4ccccc4)c4ccc([nH]4)c(-c4ccccc4)c4nc(c(-c5ccccc5)c5ccc2[nH]5)C=C4)C=C3)cc1
REMARK SMILES IDX 6 1 5 2 4 3 3 4 2 5 1 6 31 7 32 8 78 9 33 10 77 11 34 12
REMARK SMILES IDX 35 13 36 14 71 15 37 16 76 17 70 18 72 19 38 20 75 21 69 22
REMARK SMILES IDX 68 23 39 25 61 26 46 27 60 28 47 29 50 30 59 31 73 32 48 33
REMARK SMILES IDX 49 34 58 36 74 37 51 38 40 39 41 40 45 41 42 42 44 43 43 44
REMARK SMILES IDX 62 45 63 46 67 47 64 48 66 49 65 50 52 51 53 52 57 53 54 54
REMARK SMILES IDX 56 55 55 56 7 57 8 58 9 59 10 60 11 61 12 62 13 63 30 64
REMARK SMILES IDX 14 65 26 66 25 67 15 68 16 69 24 70 17 71 23 72 18 73 19 74
REMARK SMILES IDX 20 75 21 76 22 77 27 78 28 79 29 80
REMARK H PARENT 72 24 50 35
REMARK Flexibility Score: inf
ROOT
ATOM      1  O   UNL A   1      31.878  30.074  26.828  1.00  0.00    -0.374 OA
ENDROOT
BRANCH   1   2
ATOM      2  C   UNL A   1      32.735  31.126  27.267  1.00  0.00     0.202 C 
BRANCH   2   3
ATOM      3  C   UNL A   1      32.326  32.524  26.794  1.00  0.00     0.261 C 
BRANCH   3   4
ATOM      4  O   UNL A   1      32.132  33.399  27.917  1.00  0.00    -0.460 OA
BRANCH   4   5
ATOM      5  C   UNL A   1      33.033  34.242  28.475  1.00  0.00     0.338 C 
ATOM      6  O   UNL A   1      32.823  35.453  28.427  1.00  0.00    -0.246 OA
BRANCH   5   7
ATOM      7  C   UNL A   1      34.288  33.779  29.139  1.00  0.00     0.060 A 
ATOM      8  C   UNL A   1      34.330  32.848  30.176  1.00  0.00     0.016 A 
ATOM      9  C   UNL A   1      35.507  34.219  28.599  1.00  0.00     0.016 A 
ATOM     10  C   UNL A   1      35.523  32.376  30.687  1.00  0.00     0.010 A 
ATOM     11  C   UNL A   1      36.721  33.717  29.078  1.00  0.00     0.010 A 
ATOM     12  C   UNL A   1      36.720  32.783  30.119  1.00  0.00    -0.014 A 
BRANCH  12  13
ATOM     13  C   UNL A   1      37.950  32.219  30.689  1.00  0.00     0.031 A 
ATOM     14  C   UNL A   1      38.559  31.029  30.026  1.00  0.00     0.074 A 
ATOM     15  C   UNL A   1      38.563  32.881  31.688  1.00  0.00     0.049 A 
ATOM     16  N   UNL A   1      39.614  30.348  30.374  1.00  0.00    -0.248 NA
ATOM     17  C   UNL A   1      37.903  30.551  28.795  1.00  0.00     0.031 C 
ATOM     18  C   UNL A   1      38.098  34.143  32.279  1.00  0.00     0.029 A 
ATOM     19  N   UNL A   1      39.725  32.613  32.357  1.00  0.00    -0.354 N 
ATOM     20  C   UNL A   1      39.728  29.338  29.431  1.00  0.00     0.074 A 
ATOM     21  C   UNL A   1      38.647  29.499  28.487  1.00  0.00     0.031 C 
ATOM     22  C   UNL A   1      38.976  34.542  33.212  1.00  0.00     0.029 A 
ATOM     23  C   UNL A   1      40.012  33.527  33.341  1.00  0.00     0.049 A 
ATOM     24  H   UNL A   1      40.298  31.838  32.154  1.00  0.00     0.167 HD
ATOM     25  C   UNL A   1      40.651  28.353  29.385  1.00  0.00     0.031 A 
ATOM     26  C   UNL A   1      40.981  33.507  34.274  1.00  0.00     0.031 A 
ATOM     27  C   UNL A   1      41.707  28.226  30.352  1.00  0.00     0.049 A 
ATOM     28  C   UNL A   1      41.919  32.330  34.266  1.00  0.00     0.074 A 
ATOM     29  C   UNL A   1      42.676  27.247  30.448  1.00  0.00     0.029 A 
ATOM     30  N   UNL A   1      41.920  29.116  31.396  1.00  0.00    -0.354 N 
ATOM     31  N   UNL A   1      41.997  31.342  33.405  1.00  0.00    -0.248 NA
ATOM     32  C   UNL A   1      42.886  32.249  35.367  1.00  0.00     0.031 C 
ATOM     33  C   UNL A   1      43.436  27.510  31.593  1.00  0.00     0.029 A 
ATOM     34  C   UNL A   1      42.984  28.690  32.167  1.00  0.00     0.049 A 
ATOM     35  H   UNL A   1      41.392  29.931  31.561  1.00  0.00     0.167 HD
ATOM     36  C   UNL A   1      43.027  30.529  33.851  1.00  0.00     0.074 A 
ATOM     37  C   UNL A   1      43.567  31.160  35.041  1.00  0.00     0.031 C 
ATOM     38  C   UNL A   1      43.484  29.360  33.340  1.00  0.00     0.031 A 
BRANCH  25  39
ATOM     39  C   UNL A   1      40.490  27.302  28.329  1.00  0.00    -0.014 A 
ATOM     40  C   UNL A   1      39.704  26.157  28.533  1.00  0.00     0.009 A 
ATOM     41  C   UNL A   1      41.142  27.470  27.097  1.00  0.00     0.009 A 
ATOM     42  C   UNL A   1      39.596  25.190  27.529  1.00  0.00     0.001 A 
ATOM     43  C   UNL A   1      41.012  26.515  26.089  1.00  0.00     0.001 A 
ATOM     44  C   UNL A   1      40.245  25.373  26.307  1.00  0.00     0.000 A 
ENDBRANCH  25  39
BRANCH  26  45
ATOM     45  C   UNL A   1      41.047  34.544  35.341  1.00  0.00    -0.014 A 
ATOM     46  C   UNL A   1      41.947  35.616  35.259  1.00  0.00     0.009 A 
ATOM     47  C   UNL A   1      40.241  34.430  36.487  1.00  0.00     0.009 A 
ATOM     48  C   UNL A   1      42.070  36.521  36.319  1.00  0.00     0.001 A 
ATOM     49  C   UNL A   1      40.339  35.357  37.528  1.00  0.00     0.001 A 
ATOM     50  C   UNL A   1      41.266  36.392  37.450  1.00  0.00     0.000 A 
ENDBRANCH  26  45
BRANCH  38  51
ATOM     51  C   UNL A   1      44.636  28.719  34.055  1.00  0.00    -0.014 A 
ATOM     52  C   UNL A   1      45.962  29.054  33.743  1.00  0.00     0.009 A 
ATOM     53  C   UNL A   1      44.383  27.807  35.092  1.00  0.00     0.009 A 
ATOM     54  C   UNL A   1      47.016  28.463  34.438  1.00  0.00     0.001 A 
ATOM     55  C   UNL A   1      45.437  27.246  35.808  1.00  0.00     0.001 A 
ATOM     56  C   UNL A   1      46.753  27.566  35.474  1.00  0.00     0.000 A 
ENDBRANCH  38  51
ENDBRANCH  12  13
ENDBRANCH   5   7
ENDBRANCH   4   5
ENDBRANCH   3   4
ENDBRANCH   2   3
ENDBRANCH   1   2
BRANCH   1  57
ATOM     57  C   UNL A   1      32.514  28.856  26.423  1.00  0.00     0.202 C 
BRANCH  57  58
ATOM     58  C   UNL A   1      31.719  27.675  26.987  1.00  0.00     0.261 C 
BRANCH  58  59
ATOM     59  O   UNL A   1      32.263  26.471  26.426  1.00  0.00    -0.460 OA
BRANCH  59  60
ATOM     60  C   UNL A   1      31.330  25.575  26.009  1.00  0.00     0.338 C 
ATOM     61  O   UNL A   1      30.196  25.432  26.420  1.00  0.00    -0.246 OA
BRANCH  60  62
ATOM     62  C   UNL A   1      31.858  24.910  24.799  1.00  0.00     0.067 A 
ATOM     63  C   UNL A   1      32.007  23.514  24.813  1.00  0.00     0.025 A 
ATOM     64  C   UNL A   1      32.208  25.650  23.669  1.00  0.00     0.101 A 
ATOM     65  C   UNL A   1      32.517  22.838  23.696  1.00  0.00    -0.011 A 
ATOM     66  C   UNL A   1      32.728  24.981  22.560  1.00  0.00     0.270 A 
ATOM     67  C   UNL A   1      32.870  23.584  22.560  1.00  0.00     0.094 A 
BRANCH  65  68
ATOM     68  C   UNL A   1      32.836  21.409  23.775  1.00  0.00    -0.018 A 
ATOM     69  C   UNL A   1      32.167  20.433  23.026  1.00  0.00     0.009 A 
ATOM     70  C   UNL A   1      33.858  21.004  24.646  1.00  0.00     0.009 A 
ATOM     71  C   UNL A   1      32.521  19.080  23.149  1.00  0.00     0.014 A 
ATOM     72  C   UNL A   1      34.210  19.661  24.770  1.00  0.00     0.014 A 
ATOM     73  C   UNL A   1      33.547  18.683  24.021  1.00  0.00     0.056 A 
BRANCH  73  74
ATOM     74  C   UNL A   1      33.929  17.227  24.155  1.00  0.00     0.416 C 
ATOM     75  F   UNL A   1      34.079  16.615  22.949  1.00  0.00    -0.166 F 
ATOM     76  F   UNL A   1      35.108  17.056  24.813  1.00  0.00    -0.166 F 
ATOM     77  F   UNL A   1      33.010  16.486  24.837  1.00  0.00    -0.166 F 
ENDBRANCH  73  74
ENDBRANCH  65  68
BRANCH  66  78
ATOM     78  N   UNL A   1      33.200  25.760  21.412  1.00  0.00     0.062 N 
ATOM     79  O   UNL A   1      32.891  25.362  20.282  1.00  0.00    -0.258 OA
ATOM     80  O   UNL A   1      33.892  26.761  21.645  1.00  0.00    -0.258 OA
ENDBRANCH  66  78
ENDBRANCH  60  62
ENDBRANCH  59  60
ENDBRANCH  58  59
ENDBRANCH  57  58
ENDBRANCH   1  57
TORSDOF 17
ENDMDL
MODEL 2
REMARK VINA RESULT:     -11.0      2.157      2.773
REMARK SMILES O=C(OCCOCCOC(=O)c1cc(-c2ccc(C(F)(F)F)cc2)cc([N+](=O)[O-])c1)c1ccc(-c2c3nc(c(-c4ccccc4)c4ccc([nH]4)c(-c4ccccc4)c4nc(c(-c5ccccc5)c5ccc2[nH]5)C=C4)C=C3)cc1
REMARK SMILES IDX 6 1 5 2 4 3 3 4 2 5 1 6 31 7 32 8 78 9 33 10 77 11 34 12
REMARK SMILES IDX 35 13 36 14 71 15 37 16 76 17 70 18 72 19 38 20 75 21 69 22
REMARK SMILES IDX 68 23 39 25 61 26 46 27 60 28 47 29 50 30 59 31 73 32 48 33
REMARK SMILES IDX 49 34 58 36 74 37 51 38 40 39 41 40 45 41 42 42 44 43 43 44
REMARK SMILES IDX 62 45 63 46 67 47 64 48 66 49 65 50 52 51 53 52 57 53 54 54
REMARK SMILES IDX 56 55 55 56 7 57 8 58 9 59 10 60 11 61 12 62 13 63 30 64
REMARK SMILES IDX 14 65 26 66 25 67 15 68 16 69 24 70 17 71 23 72 18 73 19 74
REMARK SMILES IDX 20 75 21 76 22 77 27 78 28 79 29 80
REMARK H PARENT 72 24 50 35
REMARK Flexibility Score: inf
ROOT
ATOM      1  O   UNL A   1      31.346  30.301  26.999  1.00  0.00    -0.374 OA
ENDROOT
BRANCH   1   2
ATOM      2  C   UNL A   1      31.657  31.606  26.518  1.00  0.00     0.202 C 
BRANCH   2   3
ATOM      3  C   UNL A   1      32.818  32.296  27.243  1.00  0.00     0.261 C 
BRANCH   3   4
ATOM      4  O   UNL A   1      32.411  33.584  27.732  1.00  0.00    -0.460 OA
BRANCH   4   5
ATOM      5  C   UNL A   1      33.084  34.399  28.578  1.00  0.00     0.338 C 
ATOM      6  O   UNL A   1      32.715  35.566  28.699  1.00  0.00    -0.246 OA
BRANCH   5   7
ATOM      7  C   UNL A   1      34.273  33.959  29.367  1.00  0.00     0.060 A 
ATOM      8  C   UNL A   1      34.218  33.070  30.441  1.00  0.00     0.016 A 
ATOM      9  C   UNL A   1      35.537  34.373  28.920  1.00  0.00     0.016 A 
ATOM     10  C   UNL A   1      35.358  32.616  31.074  1.00  0.00     0.010 A 
ATOM     11  C   UNL A   1      36.702  33.888  29.524  1.00  0.00     0.010 A 
ATOM     12  C   UNL A   1      36.603  32.997  30.597  1.00  0.00    -0.014 A 
BRANCH  12  13
ATOM     13  C   UNL A   1      37.774  32.452  31.296  1.00  0.00     0.031 A 
ATOM     14  C   UNL A   1      38.542  31.353  30.643  1.00  0.00     0.074 A 
ATOM     15  C   UNL A   1      38.200  33.063  32.417  1.00  0.00     0.049 A 
ATOM     16  N   UNL A   1      39.579  30.701  31.088  1.00  0.00    -0.248 NA
ATOM     17  C   UNL A   1      38.096  30.943  29.299  1.00  0.00     0.031 C 
ATOM     18  C   UNL A   1      37.579  34.247  33.025  1.00  0.00     0.029 A 
ATOM     19  N   UNL A   1      39.271  32.801  33.225  1.00  0.00    -0.354 N 
ATOM     20  C   UNL A   1      39.887  29.778  30.100  1.00  0.00     0.074 A 
ATOM     21  C   UNL A   1      38.940  29.959  29.025  1.00  0.00     0.031 C 
ATOM     22  C   UNL A   1      38.291  34.614  34.102  1.00  0.00     0.029 A 
ATOM     23  C   UNL A   1      39.362  33.647  34.304  1.00  0.00     0.049 A 
ATOM     24  H   UNL A   1      39.915  32.076  33.052  1.00  0.00     0.167 HD
ATOM     25  C   UNL A   1      40.867  28.849  30.116  1.00  0.00     0.031 A 
ATOM     26  C   UNL A   1      40.191  33.601  35.363  1.00  0.00     0.031 A 
ATOM     27  C   UNL A   1      41.783  28.698  31.213  1.00  0.00     0.049 A 
ATOM     28  C   UNL A   1      41.191  32.479  35.405  1.00  0.00     0.074 A 
ATOM     29  C   UNL A   1      42.789  27.767  31.376  1.00  0.00     0.029 A 
ATOM     30  N   UNL A   1      41.793  29.511  32.339  1.00  0.00    -0.354 N 
ATOM     31  N   UNL A   1      41.450  31.569  34.494  1.00  0.00    -0.248 NA
ATOM     32  C   UNL A   1      41.999  32.359  36.624  1.00  0.00     0.031 C 
ATOM     33  C   UNL A   1      43.364  27.975  32.634  1.00  0.00     0.029 A 
ATOM     34  C   UNL A   1      42.764  29.079  33.222  1.00  0.00     0.049 A 
ATOM     35  H   UNL A   1      41.197  30.282  32.485  1.00  0.00     0.167 HD
ATOM     36  C   UNL A   1      42.457  30.776  35.023  1.00  0.00     0.074 A 
ATOM     37  C   UNL A   1      42.785  31.336  36.321  1.00  0.00     0.031 C 
ATOM     38  C   UNL A   1      43.053  29.678  34.499  1.00  0.00     0.031 A 
BRANCH  25  39
ATOM     39  C   UNL A   1      40.920  27.879  28.974  1.00  0.00    -0.014 A 
ATOM     40  C   UNL A   1      41.756  28.082  27.865  1.00  0.00     0.009 A 
ATOM     41  C   UNL A   1      40.112  26.733  29.018  1.00  0.00     0.009 A 
ATOM     42  C   UNL A   1      41.760  27.164  26.811  1.00  0.00     0.001 A 
ATOM     43  C   UNL A   1      40.137  25.806  27.975  1.00  0.00     0.001 A 
ATOM     44  C   UNL A   1      40.956  26.025  26.870  1.00  0.00     0.000 A 
ENDBRANCH  25  39
BRANCH  26  45
ATOM     45  C   UNL A   1      40.042  34.550  36.500  1.00  0.00    -0.014 A 
ATOM     46  C   UNL A   1      40.756  35.757  36.540  1.00  0.00     0.009 A 
ATOM     47  C   UNL A   1      39.220  34.221  37.593  1.00  0.00     0.009 A 
ATOM     48  C   UNL A   1      40.686  36.586  37.664  1.00  0.00     0.001 A 
ATOM     49  C   UNL A   1      39.123  35.070  38.698  1.00  0.00     0.001 A 
ATOM     50  C   UNL A   1      39.870  36.243  38.740  1.00  0.00     0.000 A 
ENDBRANCH  26  45
BRANCH  38  51
ATOM     51  C   UNL A   1      44.132  29.041  35.325  1.00  0.00    -0.014 A 
ATOM     52  C   UNL A   1      45.468  29.455  35.217  1.00  0.00     0.009 A 
ATOM     53  C   UNL A   1      43.791  28.051  36.260  1.00  0.00     0.009 A 
ATOM     54  C   UNL A   1      46.450  28.865  36.012  1.00  0.00     0.001 A 
ATOM     55  C   UNL A   1      44.770  27.490  37.077  1.00  0.00     0.001 A 
ATOM     56  C   UNL A   1      46.099  27.890  36.945  1.00  0.00     0.000 A 
ENDBRANCH  38  51
ENDBRANCH  12  13
ENDBRANCH   5   7
ENDBRANCH   4   5
ENDBRANCH   3   4
ENDBRANCH   2   3
ENDBRANCH   1   2
BRANCH   1  57
ATOM     57  C   UNL A   1      32.422  29.355  27.030  1.00  0.00     0.202 C 
BRANCH  57  58
ATOM     58  C   UNL A   1      32.045  28.153  26.160  1.00  0.00     0.261 C 
BRANCH  58  59
ATOM     59  O   UNL A   1      32.934  27.076  26.490  1.00  0.00    -0.460 OA
BRANCH  59  60
ATOM     60  C   UNL A   1      32.406  25.837  26.309  1.00  0.00     0.338 C 
ATOM     61  O   UNL A   1      31.364  25.397  26.750  1.00  0.00    -0.246 OA
BRANCH  60  62
ATOM     62  C   UNL A   1      33.228  25.145  25.292  1.00  0.00     0.067 A 
ATOM     63  C   UNL A   1      34.356  24.428  25.718  1.00  0.00     0.025 A 
ATOM     64  C   UNL A   1      32.896  25.209  23.938  1.00  0.00     0.101 A 
ATOM     65  C   UNL A   1      35.176  23.767  24.792  1.00  0.00    -0.011 A 
ATOM     66  C   UNL A   1      33.717  24.562  23.013  1.00  0.00     0.270 A 
ATOM     67  C   UNL A   1      34.841  23.832  23.430  1.00  0.00     0.094 A 
BRANCH  65  68
ATOM     68  C   UNL A   1      36.445  23.169  25.217  1.00  0.00    -0.018 A 
ATOM     69  C   UNL A   1      37.371  23.834  26.030  1.00  0.00     0.009 A 
ATOM     70  C   UNL A   1      36.745  21.870  24.783  1.00  0.00     0.009 A 
ATOM     71  C   UNL A   1      38.569  23.205  26.400  1.00  0.00     0.014 A 
ATOM     72  C   UNL A   1      37.935  21.243  25.149  1.00  0.00     0.014 A 
ATOM     73  C   UNL A   1      38.861  21.902  25.964  1.00  0.00     0.056 A 
BRANCH  73  74
ATOM     74  C   UNL A   1      40.151  21.224  26.362  1.00  0.00     0.416 C 
ATOM     75  F   UNL A   1      40.132  19.885  26.120  1.00  0.00    -0.166 F 
ATOM     76  F   UNL A   1      41.227  21.713  25.686  1.00  0.00    -0.166 F 
ATOM     77  F   UNL A   1      40.450  21.359  27.685  1.00  0.00    -0.166 F 
ENDBRANCH  73  74
ENDBRANCH  65  68
BRANCH  66  78
ATOM     78  N   UNL A   1      33.438  24.715  21.582  1.00  0.00     0.062 N 
ATOM     79  O   UNL A   1      33.336  25.866  21.138  1.00  0.00    -0.258 OA
ATOM     80  O   UNL A   1      33.305  23.683  20.910  1.00  0.00    -0.258 OA
ENDBRANCH  66  78
ENDBRANCH  60  62
ENDBRANCH  59  60
ENDBRANCH  58  59
ENDBRANCH  57  58
ENDBRANCH   1  57
TORSDOF 17
ENDMDL
MODEL 3
REMARK VINA RESULT:     -11.0      6.524     11.710
REMARK SMILES O=C(OCCOCCOC(=O)c1cc(-c2ccc(C(F)(F)F)cc2)cc([N+](=O)[O-])c1)c1ccc(-c2c3nc(c(-c4ccccc4)c4ccc([nH]4)c(-c4ccccc4)c4nc(c(-c5ccccc5)c5ccc2[nH]5)C=C4)C=C3)cc1
REMARK SMILES IDX 6 1 5 2 4 3 3 4 2 5 1 6 31 7 32 8 78 9 33 10 77 11 34 12
REMARK SMILES IDX 35 13 36 14 71 15 37 16 76 17 70 18 72 19 38 20 75 21 69 22
REMARK SMILES IDX 68 23 39 25 61 26 46 27 60 28 47 29 50 30 59 31 73 32 48 33
REMARK SMILES IDX 49 34 58 36 74 37 51 38 40 39 41 40 45 41 42 42 44 43 43 44
REMARK SMILES IDX 62 45 63 46 67 47 64 48 66 49 65 50 52 51 53 52 57 53 54 54
REMARK SMILES IDX 56 55 55 56 7 57 8 58 9 59 10 60 11 61 12 62 13 63 30 64
REMARK SMILES IDX 14 65 26 66 25 67 15 68 16 69 24 70 17 71 23 72 18 73 19 74
REMARK SMILES IDX 20 75 21 76 22 77 27 78 28 79 29 80
REMARK H PARENT 72 24 50 35
REMARK Flexibility Score: inf
ROOT
ATOM      1  O   UNL A   1      40.379  34.668  39.647  1.00  0.00    -0.374 OA
ENDROOT
BRANCH   1   2
ATOM      2  C   UNL A   1      40.477  36.087  39.552  1.00  0.00     0.202 C 
BRANCH   2   3
ATOM      3  C   UNL A   1      41.869  36.608  39.181  1.00  0.00     0.261 C 
BRANCH   3   4
ATOM      4  O   UNL A   1      41.860  37.170  37.858  1.00  0.00    -0.460 OA
BRANCH   4   5
ATOM      5  C   UNL A   1      42.745  36.947  36.858  1.00  0.00     0.338 C 
ATOM      6  O   UNL A   1      43.683  37.728  36.708  1.00  0.00    -0.246 OA
BRANCH   5   7
ATOM      7  C   UNL A   1      42.633  35.803  35.905  1.00  0.00     0.060 A 
ATOM      8  C   UNL A   1      42.069  34.567  36.224  1.00  0.00     0.016 A 
ATOM      9  C   UNL A   1      43.008  36.030  34.572  1.00  0.00     0.016 A 
ATOM     10  C   UNL A   1      41.897  33.576  35.279  1.00  0.00     0.010 A 
ATOM     11  C   UNL A   1      42.800  35.050  33.595  1.00  0.00     0.010 A 
ATOM     12  C   UNL A   1      42.231  33.825  33.956  1.00  0.00    -0.014 A 
BRANCH  12  13
ATOM     13  C   UNL A   1      41.992  32.740  32.998  1.00  0.00     0.031 A 
ATOM     14  C   UNL A   1      40.768  32.800  32.147  1.00  0.00     0.074 A 
ATOM     15  C   UNL A   1      42.955  31.817  32.811  1.00  0.00     0.049 A 
ATOM     16  N   UNL A   1      40.340  31.942  31.265  1.00  0.00    -0.248 NA
ATOM     17  C   UNL A   1      39.920  33.997  32.294  1.00  0.00     0.031 C 
ATOM     18  C   UNL A   1      44.249  31.792  33.505  1.00  0.00     0.029 A 
ATOM     19  N   UNL A   1      43.016  30.747  31.962  1.00  0.00    -0.354 N 
ATOM     20  C   UNL A   1      39.153  32.471  30.780  1.00  0.00     0.074 A 
ATOM     21  C   UNL A   1      38.933  33.731  31.451  1.00  0.00     0.031 C 
ATOM     22  C   UNL A   1      44.978  30.766  33.040  1.00  0.00     0.029 A 
ATOM     23  C   UNL A   1      44.174  30.018  32.084  1.00  0.00     0.049 A 
ATOM     24  H   UNL A   1      42.298  30.521  31.327  1.00  0.00     0.167 HD
ATOM     25  C   UNL A   1      38.319  31.927  29.868  1.00  0.00     0.031 A 
ATOM     26  C   UNL A   1      44.512  28.845  31.519  1.00  0.00     0.031 A 
ATOM     27  C   UNL A   1      38.574  30.665  29.231  1.00  0.00     0.049 A 
ATOM     28  C   UNL A   1      43.505  28.209  30.600  1.00  0.00     0.074 A 
ATOM     29  C   UNL A   1      37.787  29.979  28.327  1.00  0.00     0.029 A 
ATOM     30  N   UNL A   1      39.714  29.900  29.443  1.00  0.00    -0.354 N 
ATOM     31  N   UNL A   1      42.355  28.684  30.179  1.00  0.00    -0.248 NA
ATOM     32  C   UNL A   1      43.826  26.869  30.095  1.00  0.00     0.031 C 
ATOM     33  C   UNL A   1      38.422  28.765  28.044  1.00  0.00     0.029 A 
ATOM     34  C   UNL A   1      39.635  28.728  28.716  1.00  0.00     0.049 A 
ATOM     35  H   UNL A   1      40.467  30.156  30.024  1.00  0.00     0.167 HD
ATOM     36  C   UNL A   1      41.820  27.708  29.352  1.00  0.00     0.074 A 
ATOM     37  C   UNL A   1      42.790  26.630  29.303  1.00  0.00     0.031 C 
ATOM     38  C   UNL A   1      40.633  27.689  28.698  1.00  0.00     0.031 A 
BRANCH  25  39
ATOM     39  C   UNL A   1      37.029  32.641  29.598  1.00  0.00    -0.014 A 
ATOM     40  C   UNL A   1      36.987  33.876  28.934  1.00  0.00     0.009 A 
ATOM     41  C   UNL A   1      35.826  32.053  30.018  1.00  0.00     0.009 A 
ATOM     42  C   UNL A   1      35.765  34.519  28.720  1.00  0.00     0.001 A 
ATOM     43  C   UNL A   1      34.605  32.685  29.781  1.00  0.00     0.001 A 
ATOM     44  C   UNL A   1      34.576  33.920  29.138  1.00  0.00     0.000 A 
ENDBRANCH  25  39
BRANCH  26  45
ATOM     45  C   UNL A   1      45.778  28.151  31.882  1.00  0.00    -0.014 A 
ATOM     46  C   UNL A   1      46.952  28.341  31.138  1.00  0.00     0.009 A 
ATOM     47  C   UNL A   1      45.802  27.238  32.952  1.00  0.00     0.009 A 
ATOM     48  C   UNL A   1      48.103  27.601  31.427  1.00  0.00     0.001 A 
ATOM     49  C   UNL A   1      46.964  26.528  33.262  1.00  0.00     0.001 A 
ATOM     50  C   UNL A   1      48.108  26.697  32.489  1.00  0.00     0.000 A 
ENDBRANCH  26  45
BRANCH  38  51
ATOM     51  C   UNL A   1      40.346  26.478  27.862  1.00  0.00    -0.014 A 
ATOM     52  C   UNL A   1      39.505  25.456  28.328  1.00  0.00     0.009 A 
ATOM     53  C   UNL A   1      40.884  26.390  26.568  1.00  0.00     0.009 A 
ATOM     54  C   UNL A   1      39.234  24.351  27.524  1.00  0.00     0.001 A 
ATOM     55  C   UNL A   1      40.581  25.301  25.754  1.00  0.00     0.001 A 
ATOM     56  C   UNL A   1      39.765  24.278  26.236  1.00  0.00     0.000 A 
ENDBRANCH  38  51
ENDBRANCH  12  13
ENDBRANCH   5   7
ENDBRANCH   4   5
ENDBRANCH   3   4
ENDBRANCH   2   3
ENDBRANCH   1   2
BRANCH   1  57
ATOM     57  C   UNL A   1      39.081  34.099  39.436  1.00  0.00     0.202 C 
BRANCH  57  58
ATOM     58  C   UNL A   1      38.722  34.229  37.953  1.00  0.00     0.261 C 
BRANCH  58  59
ATOM     59  O   UNL A   1      38.108  32.999  37.540  1.00  0.00    -0.460 OA
BRANCH  59  60
ATOM     60  C   UNL A   1      38.929  32.169  36.844  1.00  0.00     0.338 C 
ATOM     61  O   UNL A   1      39.936  31.615  37.234  1.00  0.00    -0.246 OA
BRANCH  60  62
ATOM     62  C   UNL A   1      38.274  31.875  35.551  1.00  0.00     0.067 A 
ATOM     63  C   UNL A   1      37.368  32.813  35.031  1.00  0.00     0.025 A 
ATOM     64  C   UNL A   1      38.543  30.690  34.864  1.00  0.00     0.101 A 
ATOM     65  C   UNL A   1      36.710  32.574  33.816  1.00  0.00    -0.011 A 
ATOM     66  C   UNL A   1      37.880  30.445  33.661  1.00  0.00     0.270 A 
ATOM     67  C   UNL A   1      36.981  31.381  33.126  1.00  0.00     0.094 A 
BRANCH  65  68
ATOM     68  C   UNL A   1      35.638  33.466  33.364  1.00  0.00    -0.018 A 
ATOM     69  C   UNL A   1      34.282  33.123  33.418  1.00  0.00     0.009 A 
ATOM     70  C   UNL A   1      35.993  34.722  32.848  1.00  0.00     0.009 A 
ATOM     71  C   UNL A   1      33.305  34.024  32.968  1.00  0.00     0.014 A 
ATOM     72  C   UNL A   1      35.024  35.617  32.399  1.00  0.00     0.014 A 
ATOM     73  C   UNL A   1      33.668  35.280  32.456  1.00  0.00     0.056 A 
BRANCH  73  74
ATOM     74  C   UNL A   1      32.617  36.251  31.970  1.00  0.00     0.416 C 
ATOM     75  F   UNL A   1      32.761  37.490  32.512  1.00  0.00    -0.166 F 
ATOM     76  F   UNL A   1      32.652  36.424  30.620  1.00  0.00    -0.166 F 
ATOM     77  F   UNL A   1      31.343  35.862  32.262  1.00  0.00    -0.166 F 
ENDBRANCH  73  74
ENDBRANCH  65  68
BRANCH  66  78
ATOM     78  N   UNL A   1      38.073  29.156  32.990  1.00  0.00     0.062 N 
ATOM     79  O   UNL A   1      38.983  29.075  32.155  1.00  0.00    -0.258 OA
ATOM     80  O   UNL A   1      37.304  28.233  33.290  1.00  0.00    -0.258 OA
ENDBRANCH  66  78
ENDBRANCH  60  62
ENDBRANCH  59  60
ENDBRANCH  58  59
ENDBRANCH  57  58
ENDBRANCH   1  57
TORSDOF 17
ENDMDL
