MODEL 1
REMARK VINA RESULT:     -10.9      0.000      0.000
REMARK SMILES O=C(OCCOCCOC(=O)c1cccnc1N1CCC([N@H+]2CCC[C@H](C(=O)NC3CC3)C2)CC1)c1ccc(-c2c3nc(c(-c4ccccc4)c4ccc([nH]4)c(-c4ccccc4)c4nc(c(-c5ccccc5)c5ccc2[nH]5)C=C4)C=C3)cc1
REMARK SMILES IDX 7 1 6 2 5 3 4 4 3 5 2 6 1 7 36 8 37 9 83 10 38 11 82 12
REMARK SMILES IDX 39 13 40 14 41 15 76 16 42 17 81 18 75 19 77 20 43 21 80 22
REMARK SMILES IDX 74 23 73 24 44 26 66 27 51 28 65 29 52 30 55 31 64 32 78 33
REMARK SMILES IDX 53 34 54 35 63 37 79 38 56 39 45 40 46 41 50 42 47 43 49 44
REMARK SMILES IDX 48 45 67 46 68 47 72 48 69 49 71 50 70 51 57 52 58 53 62 54
REMARK SMILES IDX 59 55 61 56 60 57 8 58 9 59 10 60 11 61 12 62 13 63 17 64
REMARK SMILES IDX 14 65 16 66 15 67 18 68 19 69 35 70 20 71 34 72 21 73 22 74
REMARK SMILES IDX 23 75 33 76 24 78 26 79 25 80 27 81 28 82 29 83 30 85 31 86
REMARK SMILES IDX 32 87
REMARK H PARENT 77 25 55 36 22 77 29 84
REMARK Flexibility Score: inf
ROOT
ATOM      1  C   UNL A   1      35.338  33.451  28.528  1.00  0.00     0.202 C 
ENDROOT
BRANCH   1   2
ATOM      2  O   UNL A   1      34.891  34.659  29.100  1.00  0.00    -0.374 OA
BRANCH   2   3
ATOM      3  C   UNL A   1      33.795  35.294  28.453  1.00  0.00     0.202 C 
BRANCH   3   4
ATOM      4  C   UNL A   1      32.969  36.159  29.410  1.00  0.00     0.261 C 
BRANCH   4   5
ATOM      5  O   UNL A   1      32.460  35.374  30.497  1.00  0.00    -0.460 OA
BRANCH   5   6
ATOM      6  C   UNL A   1      32.751  35.585  31.805  1.00  0.00     0.338 C 
ATOM      7  O   UNL A   1      32.015  36.293  32.487  1.00  0.00    -0.246 OA
BRANCH   6   8
ATOM      8  C   UNL A   1      33.920  34.934  32.467  1.00  0.00     0.060 A 
ATOM      9  C   UNL A   1      33.890  33.638  32.974  1.00  0.00     0.016 A 
ATOM     10  C   UNL A   1      35.144  35.611  32.481  1.00  0.00     0.016 A 
ATOM     11  C   UNL A   1      34.987  33.018  33.512  1.00  0.00     0.010 A 
ATOM     12  C   UNL A   1      36.299  34.946  32.905  1.00  0.00     0.010 A 
ATOM     13  C   UNL A   1      36.215  33.625  33.370  1.00  0.00    -0.014 A 
BRANCH  13  14
ATOM     14  C   UNL A   1      37.378  32.793  33.680  1.00  0.00     0.031 A 
ATOM     15  C   UNL A   1      38.027  32.958  35.003  1.00  0.00     0.074 A 
ATOM     16  C   UNL A   1      37.742  31.836  32.801  1.00  0.00     0.049 A 
ATOM     17  N   UNL A   1      39.149  32.455  35.426  1.00  0.00    -0.248 NA
ATOM     18  C   UNL A   1      37.323  33.805  35.983  1.00  0.00     0.031 C 
ATOM     19  C   UNL A   1      37.039  31.510  31.548  1.00  0.00     0.029 A 
ATOM     20  N   UNL A   1      38.774  30.940  32.832  1.00  0.00    -0.354 N 
ATOM     21  C   UNL A   1      39.326  32.980  36.695  1.00  0.00     0.074 A 
ATOM     22  C   UNL A   1      38.187  33.820  36.986  1.00  0.00     0.031 C 
ATOM     23  C   UNL A   1      37.651  30.479  30.948  1.00  0.00     0.029 A 
ATOM     24  C   UNL A   1      38.845  30.150  31.707  1.00  0.00     0.049 A 
ATOM     25  H   UNL A   1      39.403  30.867  33.585  1.00  0.00     0.167 HD
ATOM     26  C   UNL A   1      40.379  32.785  37.514  1.00  0.00     0.031 A 
ATOM     27  C   UNL A   1      39.816  29.311  31.309  1.00  0.00     0.031 A 
ATOM     28  C   UNL A   1      41.483  31.934  37.171  1.00  0.00     0.049 A 
ATOM     29  C   UNL A   1      41.022  29.200  32.201  1.00  0.00     0.074 A 
ATOM     30  C   UNL A   1      42.633  31.680  37.890  1.00  0.00     0.029 A 
ATOM     31  N   UNL A   1      41.565  31.198  35.995  1.00  0.00    -0.354 N 
ATOM     32  N   UNL A   1      41.230  29.747  33.377  1.00  0.00    -0.248 NA
ATOM     33  C   UNL A   1      42.135  28.387  31.704  1.00  0.00     0.031 C 
ATOM     34  C   UNL A   1      43.438  30.836  37.121  1.00  0.00     0.029 A 
ATOM     35  C   UNL A   1      42.762  30.512  35.953  1.00  0.00     0.049 A 
ATOM     36  H   UNL A   1      40.872  31.170  35.295  1.00  0.00     0.167 HD
ATOM     37  C   UNL A   1      42.492  29.332  33.768  1.00  0.00     0.074 A 
ATOM     38  C   UNL A   1      42.985  28.459  32.718  1.00  0.00     0.031 C 
ATOM     39  C   UNL A   1      43.194  29.648  34.883  1.00  0.00     0.031 A 
BRANCH  26  40
ATOM     40  C   UNL A   1      40.416  33.582  38.781  1.00  0.00    -0.014 A 
ATOM     41  C   UNL A   1      41.017  34.848  38.846  1.00  0.00     0.009 A 
ATOM     42  C   UNL A   1      39.845  33.037  39.942  1.00  0.00     0.009 A 
ATOM     43  C   UNL A   1      41.065  35.542  40.057  1.00  0.00     0.001 A 
ATOM     44  C   UNL A   1      39.871  33.744  41.143  1.00  0.00     0.001 A 
ATOM     45  C   UNL A   1      40.486  34.992  41.201  1.00  0.00     0.000 A 
ENDBRANCH  26  40
BRANCH  27  46
ATOM     46  C   UNL A   1      39.759  28.623  29.990  1.00  0.00    -0.014 A 
ATOM     47  C   UNL A   1      39.360  27.282  29.891  1.00  0.00     0.009 A 
ATOM     48  C   UNL A   1      40.165  29.289  28.819  1.00  0.00     0.009 A 
ATOM     49  C   UNL A   1      39.417  26.611  28.664  1.00  0.00     0.001 A 
ATOM     50  C   UNL A   1      40.183  28.628  27.588  1.00  0.00     0.001 A 
ATOM     51  C   UNL A   1      39.828  27.284  27.516  1.00  0.00     0.000 A 
ENDBRANCH  27  46
BRANCH  39  52
ATOM     52  C   UNL A   1      44.544  29.012  35.025  1.00  0.00    -0.014 A 
ATOM     53  C   UNL A   1      44.719  27.840  35.774  1.00  0.00     0.009 A 
ATOM     54  C   UNL A   1      45.640  29.569  34.349  1.00  0.00     0.009 A 
ATOM     55  C   UNL A   1      45.980  27.251  35.867  1.00  0.00     0.001 A 
ATOM     56  C   UNL A   1      46.889  28.958  34.415  1.00  0.00     0.001 A 
ATOM     57  C   UNL A   1      47.060  27.806  35.180  1.00  0.00     0.000 A 
ENDBRANCH  39  52
ENDBRANCH  13  14
ENDBRANCH   6   8
ENDBRANCH   5   6
ENDBRANCH   4   5
ENDBRANCH   3   4
ENDBRANCH   2   3
ENDBRANCH   1   2
BRANCH   1  58
ATOM     58  C   UNL A   1      34.485  32.293  29.036  1.00  0.00     0.261 C 
BRANCH  58  59
ATOM     59  O   UNL A   1      33.611  31.839  27.983  1.00  0.00    -0.460 OA
BRANCH  59  60
ATOM     60  C   UNL A   1      33.957  30.712  27.286  1.00  0.00     0.341 C 
ATOM     61  O   UNL A   1      34.948  30.037  27.447  1.00  0.00    -0.246 OA
BRANCH  60  62
ATOM     62  C   UNL A   1      32.850  30.454  26.323  1.00  0.00     0.102 A 
ATOM     63  C   UNL A   1      31.761  31.345  26.361  1.00  0.00     0.021 A 
ATOM     64  C   UNL A   1      32.821  29.375  25.417  1.00  0.00     0.143 A 
ATOM     65  C   UNL A   1      30.683  31.157  25.516  1.00  0.00     0.021 A 
ATOM     66  N   UNL A   1      31.764  29.212  24.580  1.00  0.00    -0.238 NA
ATOM     67  C   UNL A   1      30.738  30.092  24.642  1.00  0.00     0.113 A 
BRANCH  64  68
ATOM     68  N   UNL A   1      33.782  28.371  25.374  1.00  0.00    -0.355 N 
ATOM     69  C   UNL A   1      34.251  27.953  24.052  1.00  0.00     0.124 C 
ATOM     70  C   UNL A   1      33.690  27.328  26.393  1.00  0.00     0.124 C 
ATOM     71  C   UNL A   1      33.556  26.671  23.559  1.00  0.00     0.086 C 
ATOM     72  C   UNL A   1      33.013  26.058  25.925  1.00  0.00     0.086 C 
ATOM     73  C   UNL A   1      33.635  25.559  24.617  1.00  0.00     0.187 C 
BRANCH  73  74
ATOM     74  N   UNL A   1      33.021  24.261  24.291  1.00  0.00    -0.332 N 
ATOM     75  C   UNL A   1      32.066  24.252  23.184  1.00  0.00     0.262 C 
ATOM     76  C   UNL A   1      33.961  23.141  24.251  1.00  0.00     0.275 C 
ATOM     77  H   UNL A   1      32.432  24.100  25.108  1.00  0.00     0.348 HD
ATOM     78  C   UNL A   1      31.250  22.957  23.157  1.00  0.00     0.062 C 
ATOM     79  C   UNL A   1      33.275  21.772  24.174  1.00  0.00     0.133 C 
ATOM     80  C   UNL A   1      32.125  21.714  23.167  1.00  0.00     0.025 C 
BRANCH  79  81
ATOM     81  C   UNL A   1      33.000  21.080  25.516  1.00  0.00     0.229 C 
ATOM     82  O   UNL A   1      33.036  21.758  26.553  1.00  0.00    -0.275 OA
ATOM     83  N   UNL A   1      32.735  19.754  25.684  1.00  0.00    -0.353 N 
ATOM     84  H   UNL A   1      32.586  19.496  26.621  1.00  0.00     0.163 HD
BRANCH  83  85
ATOM     85  C   UNL A   1      32.632  18.675  24.767  1.00  0.00     0.082 C 
ATOM     86  C   UNL A   1      33.848  17.869  24.402  1.00  0.00     0.027 C 
ATOM     87  C   UNL A   1      32.761  17.249  25.230  1.00  0.00     0.027 C 
ENDBRANCH  83  85
ENDBRANCH  79  81
ENDBRANCH  73  74
ENDBRANCH  64  68
ENDBRANCH  60  62
ENDBRANCH  59  60
ENDBRANCH  58  59
ENDBRANCH   1  58
TORSDOF 18
ENDMDL
MODEL 2
REMARK VINA RESULT:     -10.9      3.533      9.987
REMARK SMILES O=C(OCCOCCOC(=O)c1cccnc1N1CCC([N@H+]2CCC[C@H](C(=O)NC3CC3)C2)CC1)c1ccc(-c2c3nc(c(-c4ccccc4)c4ccc([nH]4)c(-c4ccccc4)c4nc(c(-c5ccccc5)c5ccc2[nH]5)C=C4)C=C3)cc1
REMARK SMILES IDX 7 1 6 2 5 3 4 4 3 5 2 6 1 7 36 8 37 9 83 10 38 11 82 12
REMARK SMILES IDX 39 13 40 14 41 15 76 16 42 17 81 18 75 19 77 20 43 21 80 22
REMARK SMILES IDX 74 23 73 24 44 26 66 27 51 28 65 29 52 30 55 31 64 32 78 33
REMARK SMILES IDX 53 34 54 35 63 37 79 38 56 39 45 40 46 41 50 42 47 43 49 44
REMARK SMILES IDX 48 45 67 46 68 47 72 48 69 49 71 50 70 51 57 52 58 53 62 54
REMARK SMILES IDX 59 55 61 56 60 57 8 58 9 59 10 60 11 61 12 62 13 63 17 64
REMARK SMILES IDX 14 65 16 66 15 67 18 68 19 69 35 70 20 71 34 72 21 73 22 74
REMARK SMILES IDX 23 75 33 76 24 78 26 79 25 80 27 81 28 82 29 83 30 85 31 86
REMARK SMILES IDX 32 87
REMARK H PARENT 77 25 55 36 22 77 29 84
REMARK Flexibility Score: inf
ROOT
ATOM      1  C   UNL A   1      41.785  20.721  26.140  1.00  0.00     0.202 C 
ENDROOT
BRANCH   1   2
ATOM      2  O   UNL A   1      42.381  21.752  25.386  1.00  0.00    -0.374 OA
BRANCH   2   3
ATOM      3  C   UNL A   1      43.796  21.859  25.474  1.00  0.00     0.202 C 
BRANCH   3   4
ATOM      4  C   UNL A   1      44.405  22.609  24.285  1.00  0.00     0.261 C 
BRANCH   4   5
ATOM      5  O   UNL A   1      44.011  23.988  24.296  1.00  0.00    -0.460 OA
BRANCH   5   6
ATOM      6  C   UNL A   1      44.519  24.930  25.130  1.00  0.00     0.338 C 
ATOM      7  O   UNL A   1      45.709  25.223  25.066  1.00  0.00    -0.246 OA
BRANCH   6   8
ATOM      8  C   UNL A   1      43.657  25.673  26.097  1.00  0.00     0.060 A 
ATOM      9  C   UNL A   1      42.814  25.045  27.011  1.00  0.00     0.016 A 
ATOM     10  C   UNL A   1      43.782  27.063  26.175  1.00  0.00     0.016 A 
ATOM     11  C   UNL A   1      42.083  25.727  27.947  1.00  0.00     0.010 A 
ATOM     12  C   UNL A   1      43.146  27.760  27.208  1.00  0.00     0.010 A 
ATOM     13  C   UNL A   1      42.338  27.069  28.123  1.00  0.00    -0.014 A 
BRANCH  13  14
ATOM     14  C   UNL A   1      41.765  27.676  29.326  1.00  0.00     0.031 A 
ATOM     15  C   UNL A   1      40.407  28.265  29.235  1.00  0.00     0.074 A 
ATOM     16  C   UNL A   1      42.443  27.574  30.488  1.00  0.00     0.049 A 
ATOM     17  N   UNL A   1      39.776  28.988  30.113  1.00  0.00    -0.248 NA
ATOM     18  C   UNL A   1      39.658  28.011  27.991  1.00  0.00     0.031 C 
ATOM     19  C   UNL A   1      43.716  26.857  30.679  1.00  0.00     0.029 A 
ATOM     20  N   UNL A   1      42.151  28.046  31.737  1.00  0.00    -0.354 N 
ATOM     21  C   UNL A   1      38.584  29.339  29.502  1.00  0.00     0.074 A 
ATOM     22  C   UNL A   1      38.565  28.732  28.192  1.00  0.00     0.031 C 
ATOM     23  C   UNL A   1      44.077  26.925  31.968  1.00  0.00     0.029 A 
ATOM     24  C   UNL A   1      43.132  27.779  32.664  1.00  0.00     0.049 A 
ATOM     25  H   UNL A   1      41.321  28.530  31.951  1.00  0.00     0.167 HD
ATOM     26  C   UNL A   1      37.617  30.132  30.006  1.00  0.00     0.031 A 
ATOM     27  C   UNL A   1      43.277  28.244  33.917  1.00  0.00     0.031 A 
ATOM     28  C   UNL A   1      37.689  30.707  31.320  1.00  0.00     0.049 A 
ATOM     29  C   UNL A   1      42.231  29.209  34.405  1.00  0.00     0.074 A 
ATOM     30  C   UNL A   1      36.799  31.560  31.939  1.00  0.00     0.029 A 
ATOM     31  N   UNL A   1      38.726  30.476  32.216  1.00  0.00    -0.354 N 
ATOM     32  N   UNL A   1      41.129  29.602  33.808  1.00  0.00    -0.248 NA
ATOM     33  C   UNL A   1      42.459  29.816  35.720  1.00  0.00     0.031 C 
ATOM     34  C   UNL A   1      37.329  31.895  33.188  1.00  0.00     0.029 A 
ATOM     35  C   UNL A   1      38.516  31.198  33.374  1.00  0.00     0.049 A 
ATOM     36  H   UNL A   1      39.498  29.887  32.049  1.00  0.00     0.167 HD
ATOM     37  C   UNL A   1      40.523  30.491  34.680  1.00  0.00     0.074 A 
ATOM     38  C   UNL A   1      41.365  30.551  35.861  1.00  0.00     0.031 C 
ATOM     39  C   UNL A   1      39.385  31.209  34.523  1.00  0.00     0.031 A 
BRANCH  26  40
ATOM     40  C   UNL A   1      36.483  30.492  29.096  1.00  0.00    -0.014 A 
ATOM     41  C   UNL A   1      35.605  29.525  28.586  1.00  0.00     0.009 A 
ATOM     42  C   UNL A   1      36.306  31.836  28.733  1.00  0.00     0.009 A 
ATOM     43  C   UNL A   1      34.584  29.897  27.709  1.00  0.00     0.001 A 
ATOM     44  C   UNL A   1      35.269  32.208  27.879  1.00  0.00     0.001 A 
ATOM     45  C   UNL A   1      34.413  31.238  27.362  1.00  0.00     0.000 A 
ENDBRANCH  26  40
BRANCH  27  46
ATOM     46  C   UNL A   1      44.479  27.923  34.734  1.00  0.00    -0.014 A 
ATOM     47  C   UNL A   1      44.547  26.741  35.486  1.00  0.00     0.009 A 
ATOM     48  C   UNL A   1      45.551  28.831  34.815  1.00  0.00     0.009 A 
ATOM     49  C   UNL A   1      45.631  26.501  36.338  1.00  0.00     0.001 A 
ATOM     50  C   UNL A   1      46.651  28.569  35.637  1.00  0.00     0.001 A 
ATOM     51  C   UNL A   1      46.680  27.413  36.411  1.00  0.00     0.000 A 
ENDBRANCH  27  46
BRANCH  39  52
ATOM     52  C   UNL A   1      38.981  32.080  35.674  1.00  0.00    -0.014 A 
ATOM     53  C   UNL A   1      39.353  33.430  35.729  1.00  0.00     0.009 A 
ATOM     54  C   UNL A   1      38.167  31.547  36.687  1.00  0.00     0.009 A 
ATOM     55  C   UNL A   1      38.941  34.227  36.796  1.00  0.00     0.001 A 
ATOM     56  C   UNL A   1      37.727  32.356  37.731  1.00  0.00     0.001 A 
ATOM     57  C   UNL A   1      38.121  33.691  37.789  1.00  0.00     0.000 A 
ENDBRANCH  39  52
ENDBRANCH  13  14
ENDBRANCH   6   8
ENDBRANCH   5   6
ENDBRANCH   4   5
ENDBRANCH   3   4
ENDBRANCH   2   3
ENDBRANCH   1   2
BRANCH   1  58
ATOM     58  C   UNL A   1      40.477  21.217  26.749  1.00  0.00     0.261 C 
BRANCH  58  59
ATOM     59  O   UNL A   1      39.415  21.084  25.784  1.00  0.00    -0.460 OA
BRANCH  59  60
ATOM     60  C   UNL A   1      38.411  22.016  25.783  1.00  0.00     0.341 C 
ATOM     61  O   UNL A   1      38.530  23.208  25.951  1.00  0.00    -0.246 OA
BRANCH  60  62
ATOM     62  C   UNL A   1      37.151  21.280  25.485  1.00  0.00     0.102 A 
ATOM     63  C   UNL A   1      37.288  19.978  24.969  1.00  0.00     0.021 A 
ATOM     64  C   UNL A   1      35.858  21.815  25.660  1.00  0.00     0.143 A 
ATOM     65  C   UNL A   1      36.165  19.240  24.644  1.00  0.00     0.021 A 
ATOM     66  N   UNL A   1      34.763  21.074  25.353  1.00  0.00    -0.238 NA
ATOM     67  C   UNL A   1      34.935  19.823  24.865  1.00  0.00     0.113 A 
BRANCH  64  68
ATOM     68  N   UNL A   1      35.608  23.126  26.048  1.00  0.00    -0.355 N 
ATOM     69  C   UNL A   1      34.554  23.336  27.044  1.00  0.00     0.124 C 
ATOM     70  C   UNL A   1      35.748  24.156  25.022  1.00  0.00     0.124 C 
ATOM     71  C   UNL A   1      33.217  23.757  26.405  1.00  0.00     0.086 C 
ATOM     72  C   UNL A   1      34.445  24.585  24.386  1.00  0.00     0.086 C 
ATOM     73  C   UNL A   1      33.411  24.951  25.456  1.00  0.00     0.187 C 
BRANCH  73  74
ATOM     74  N   UNL A   1      32.219  25.480  24.772  1.00  0.00    -0.332 N 
ATOM     75  C   UNL A   1      31.145  24.525  24.504  1.00  0.00     0.262 C 
ATOM     76  C   UNL A   1      31.738  26.758  25.297  1.00  0.00     0.275 C 
ATOM     77  H   UNL A   1      32.588  25.682  23.842  1.00  0.00     0.348 HD
ATOM     78  C   UNL A   1      30.129  25.088  23.507  1.00  0.00     0.062 C 
ATOM     79  C   UNL A   1      30.672  27.417  24.413  1.00  0.00     0.133 C 
ATOM     80  C   UNL A   1      29.594  26.449  23.922  1.00  0.00     0.025 C 
BRANCH  79  81
ATOM     81  C   UNL A   1      31.188  28.405  23.359  1.00  0.00     0.229 C 
ATOM     82  O   UNL A   1      32.307  28.215  22.862  1.00  0.00    -0.275 OA
ATOM     83  N   UNL A   1      30.527  29.513  22.922  1.00  0.00    -0.353 N 
ATOM     84  H   UNL A   1      31.020  30.026  22.242  1.00  0.00     0.163 HD
BRANCH  83  85
ATOM     85  C   UNL A   1      29.265  30.069  23.258  1.00  0.00     0.082 C 
ATOM     86  C   UNL A   1      28.854  31.408  22.709  1.00  0.00     0.027 C 
ATOM     87  C   UNL A   1      28.162  30.163  22.238  1.00  0.00     0.027 C 
ENDBRANCH  83  85
ENDBRANCH  79  81
ENDBRANCH  73  74
ENDBRANCH  64  68
ENDBRANCH  60  62
ENDBRANCH  59  60
ENDBRANCH  58  59
ENDBRANCH   1  58
TORSDOF 18
ENDMDL
MODEL 3
REMARK VINA RESULT:     -10.4      0.630      5.683
REMARK SMILES O=C(OCCOCCOC(=O)c1cccnc1N1CCC([N@H+]2CCC[C@H](C(=O)NC3CC3)C2)CC1)c1ccc(-c2c3nc(c(-c4ccccc4)c4ccc([nH]4)c(-c4ccccc4)c4nc(c(-c5ccccc5)c5ccc2[nH]5)C=C4)C=C3)cc1
REMARK SMILES IDX 7 1 6 2 5 3 4 4 3 5 2 6 1 7 36 8 37 9 83 10 38 11 82 12
REMARK SMILES IDX 39 13 40 14 41 15 76 16 42 17 81 18 75 19 77 20 43 21 80 22
REMARK SMILES IDX 74 23 73 24 44 26 66 27 51 28 65 29 52 30 55 31 64 32 78 33
REMARK SMILES IDX 53 34 54 35 63 37 79 38 56 39 45 40 46 41 50 42 47 43 49 44
REMARK SMILES IDX 48 45 67 46 68 47 72 48 69 49 71 50 70 51 57 52 58 53 62 54
REMARK SMILES IDX 59 55 61 56 60 57 8 58 9 59 10 60 11 61 12 62 13 63 17 64
REMARK SMILES IDX 14 65 16 66 15 67 18 68 19 69 35 70 20 71 34 72 21 73 22 74
REMARK SMILES IDX 23 75 33 76 24 78 26 79 25 80 27 81 28 82 29 83 30 85 31 86
REMARK SMILES IDX 32 87
REMARK H PARENT 77 25 55 36 22 77 29 84
REMARK Flexibility Score: inf
ROOT
ATOM      1  C   UNL A   1      35.534  33.202  28.240  1.00  0.00     0.202 C 
ENDROOT
BRANCH   1   2
ATOM      2  O   UNL A   1      35.171  34.403  28.881  1.00  0.00    -0.374 OA
BRANCH   2   3
ATOM      3  C   UNL A   1      34.088  35.122  28.303  1.00  0.00     0.202 C 
BRANCH   3   4
ATOM      4  C   UNL A   1      33.255  35.869  29.349  1.00  0.00     0.261 C 
BRANCH   4   5
ATOM      5  O   UNL A   1      32.690  34.956  30.299  1.00  0.00    -0.460 OA
BRANCH   5   6
ATOM      6  C   UNL A   1      32.853  35.041  31.644  1.00  0.00     0.338 C 
ATOM      7  O   UNL A   1      31.947  35.488  32.341  1.00  0.00    -0.246 OA
BRANCH   6   8
ATOM      8  C   UNL A   1      34.092  34.553  32.319  1.00  0.00     0.060 A 
ATOM      9  C   UNL A   1      34.269  33.237  32.737  1.00  0.00     0.016 A 
ATOM     10  C   UNL A   1      35.178  35.426  32.439  1.00  0.00     0.016 A 
ATOM     11  C   UNL A   1      35.436  32.776  33.288  1.00  0.00     0.010 A 
ATOM     12  C   UNL A   1      36.415  34.939  32.875  1.00  0.00     0.010 A 
ATOM     13  C   UNL A   1      36.544  33.594  33.248  1.00  0.00    -0.014 A 
BRANCH  13  14
ATOM     14  C   UNL A   1      37.822  32.952  33.560  1.00  0.00     0.031 A 
ATOM     15  C   UNL A   1      38.403  32.021  32.562  1.00  0.00     0.074 A 
ATOM     16  C   UNL A   1      38.471  33.318  34.685  1.00  0.00     0.049 A 
ATOM     17  N   UNL A   1      39.425  31.227  32.691  1.00  0.00    -0.248 NA
ATOM     18  C   UNL A   1      37.746  31.972  31.244  1.00  0.00     0.031 C 
ATOM     19  C   UNL A   1      38.030  34.357  35.631  1.00  0.00     0.029 A 
ATOM     20  N   UNL A   1      39.654  32.884  35.216  1.00  0.00    -0.354 N 
ATOM     21  C   UNL A   1      39.493  30.529  31.497  1.00  0.00     0.074 A 
ATOM     22  C   UNL A   1      38.428  31.007  30.647  1.00  0.00     0.031 C 
ATOM     23  C   UNL A   1      38.939  34.487  36.608  1.00  0.00     0.029 A 
ATOM     24  C   UNL A   1      39.959  33.470  36.422  1.00  0.00     0.049 A 
ATOM     25  H   UNL A   1      40.230  32.217  34.777  1.00  0.00     0.167 HD
ATOM     26  C   UNL A   1      40.364  29.551  31.178  1.00  0.00     0.031 A 
ATOM     27  C   UNL A   1      40.920  33.158  37.308  1.00  0.00     0.031 A 
ATOM     28  C   UNL A   1      41.406  29.119  32.067  1.00  0.00     0.049 A 
ATOM     29  C   UNL A   1      41.806  31.992  36.963  1.00  0.00     0.074 A 
ATOM     30  C   UNL A   1      42.332  28.112  31.886  1.00  0.00     0.029 A 
ATOM     31  N   UNL A   1      41.653  29.683  33.313  1.00  0.00    -0.354 N 
ATOM     32  N   UNL A   1      41.836  31.279  35.861  1.00  0.00    -0.248 NA
ATOM     33  C   UNL A   1      42.766  31.570  37.986  1.00  0.00     0.031 C 
ATOM     34  C   UNL A   1      43.101  28.026  33.050  1.00  0.00     0.029 A 
ATOM     35  C   UNL A   1      42.698  29.023  33.928  1.00  0.00     0.049 A 
ATOM     36  H   UNL A   1      41.156  30.440  33.700  1.00  0.00     0.167 HD
ATOM     37  C   UNL A   1      42.828  30.331  36.051  1.00  0.00     0.074 A 
ATOM     38  C   UNL A   1      43.398  30.586  37.361  1.00  0.00     0.031 C 
ATOM     39  C   UNL A   1      43.230  29.330  35.232  1.00  0.00     0.031 A 
BRANCH  26  40
ATOM     40  C   UNL A   1      40.146  28.837  29.881  1.00  0.00    -0.014 A 
ATOM     41  C   UNL A   1      40.664  29.321  28.670  1.00  0.00     0.009 A 
ATOM     42  C   UNL A   1      39.388  27.656  29.876  1.00  0.00     0.009 A 
ATOM     43  C   UNL A   1      40.405  28.645  27.476  1.00  0.00     0.001 A 
ATOM     44  C   UNL A   1      39.153  26.969  28.686  1.00  0.00     0.001 A 
ATOM     45  C   UNL A   1      39.656  27.467  27.486  1.00  0.00     0.000 A 
ENDBRANCH  26  40
BRANCH  27  46
ATOM     46  C   UNL A   1      41.020  33.846  38.625  1.00  0.00    -0.014 A 
ATOM     47  C   UNL A   1      40.289  33.395  39.734  1.00  0.00     0.009 A 
ATOM     48  C   UNL A   1      41.806  35.004  38.768  1.00  0.00     0.009 A 
ATOM     49  C   UNL A   1      40.301  34.113  40.934  1.00  0.00     0.001 A 
ATOM     50  C   UNL A   1      41.848  35.697  39.981  1.00  0.00     0.001 A 
ATOM     51  C   UNL A   1      41.080  35.261  41.056  1.00  0.00     0.000 A 
ENDBRANCH  27  46
BRANCH  39  52
ATOM     52  C   UNL A   1      44.357  28.474  35.726  1.00  0.00    -0.014 A 
ATOM     53  C   UNL A   1      44.115  27.317  36.480  1.00  0.00     0.009 A 
ATOM     54  C   UNL A   1      45.676  28.808  35.379  1.00  0.00     0.009 A 
ATOM     55  C   UNL A   1      45.179  26.523  36.903  1.00  0.00     0.001 A 
ATOM     56  C   UNL A   1      46.733  27.992  35.772  1.00  0.00     0.001 A 
ATOM     57  C   UNL A   1      46.485  26.856  36.540  1.00  0.00     0.000 A 
ENDBRANCH  39  52
ENDBRANCH  13  14
ENDBRANCH   6   8
ENDBRANCH   5   6
ENDBRANCH   4   5
ENDBRANCH   3   4
ENDBRANCH   2   3
ENDBRANCH   1   2
BRANCH   1  58
ATOM     58  C   UNL A   1      34.641  32.065  28.726  1.00  0.00     0.261 C 
BRANCH  58  59
ATOM     59  O   UNL A   1      33.803  31.613  27.644  1.00  0.00    -0.460 OA
BRANCH  59  60
ATOM     60  C   UNL A   1      33.942  30.325  27.202  1.00  0.00     0.341 C 
ATOM     61  O   UNL A   1      34.762  29.516  27.574  1.00  0.00    -0.246 OA
BRANCH  60  62
ATOM     62  C   UNL A   1      32.857  30.099  26.207  1.00  0.00     0.102 A 
ATOM     63  C   UNL A   1      31.757  30.975  26.264  1.00  0.00     0.021 A 
ATOM     64  C   UNL A   1      32.857  29.060  25.253  1.00  0.00     0.143 A 
ATOM     65  C   UNL A   1      30.698  30.814  25.390  1.00  0.00     0.021 A 
ATOM     66  N   UNL A   1      31.819  28.924  24.390  1.00  0.00    -0.238 NA
ATOM     67  C   UNL A   1      30.782  29.790  24.471  1.00  0.00     0.113 A 
BRANCH  64  68
ATOM     68  N   UNL A   1      33.830  28.070  25.184  1.00  0.00    -0.355 N 
ATOM     69  C   UNL A   1      34.280  27.669  23.850  1.00  0.00     0.124 C 
ATOM     70  C   UNL A   1      33.771  27.017  26.196  1.00  0.00     0.124 C 
ATOM     71  C   UNL A   1      33.592  26.382  23.359  1.00  0.00     0.086 C 
ATOM     72  C   UNL A   1      33.102  25.743  25.730  1.00  0.00     0.086 C 
ATOM     73  C   UNL A   1      33.706  25.262  24.407  1.00  0.00     0.187 C 
BRANCH  73  74
ATOM     74  N   UNL A   1      33.103  23.959  24.082  1.00  0.00    -0.332 N 
ATOM     75  C   UNL A   1      32.003  23.972  23.118  1.00  0.00     0.262 C 
ATOM     76  C   UNL A   1      34.070  22.889  23.839  1.00  0.00     0.275 C 
ATOM     77  H   UNL A   1      32.640  23.721  24.959  1.00  0.00     0.348 HD
ATOM     78  C   UNL A   1      31.242  22.644  23.117  1.00  0.00     0.062 C 
ATOM     79  C   UNL A   1      33.433  21.496  23.765  1.00  0.00     0.133 C 
ATOM     80  C   UNL A   1      32.157  21.445  22.924  1.00  0.00     0.025 C 
BRANCH  79  81
ATOM     81  C   UNL A   1      33.375  20.712  25.083  1.00  0.00     0.229 C 
ATOM     82  O   UNL A   1      33.078  21.317  26.123  1.00  0.00    -0.275 OA
ATOM     83  N   UNL A   1      33.646  19.385  25.227  1.00  0.00    -0.353 N 
ATOM     84  H   UNL A   1      33.556  19.060  26.152  1.00  0.00     0.163 HD
BRANCH  83  85
ATOM     85  C   UNL A   1      34.032  18.381  24.301  1.00  0.00     0.082 C 
ATOM     86  C   UNL A   1      33.690  16.939  24.557  1.00  0.00     0.027 C 
ATOM     87  C   UNL A   1      33.011  17.681  23.445  1.00  0.00     0.027 C 
ENDBRANCH  83  85
ENDBRANCH  79  81
ENDBRANCH  73  74
ENDBRANCH  64  68
ENDBRANCH  60  62
ENDBRANCH  59  60
ENDBRANCH  58  59
ENDBRANCH   1  58
TORSDOF 18
ENDMDL
