MODEL 1
REMARK VINA RESULT:     -11.2      0.000      0.000
REMARK SMILES C[C@@H](C(=O)OCCOCCOC(=O)c1ccc(-c2c3nc(c(-c4ccccc4)c4ccc([nH]4)c(-c4ccccc4)c4nc(c(-c5ccccc5)c5ccc2[nH]5)C=C4)C=C3)cc1)c1cc(/C=C/S(C)(=O)=O)cc(C(=O)c2ccccc2)c1
REMARK SMILES IDX 7 1 6 2 5 3 3 4 4 5 2 6 1 7 62 8 63 9 81 10 64 11 72 12
REMARK SMILES IDX 71 13 65 14 66 15 67 16 68 17 69 18 70 19 73 20 74 21 75 22
REMARK SMILES IDX 76 23 80 24 77 25 79 26 78 27 8 28 9 29 10 30 11 31 12 32
REMARK SMILES IDX 13 33 14 34 15 35 61 36 16 37 60 38 17 39 18 40 19 41 54 42
REMARK SMILES IDX 20 43 59 44 53 45 55 46 21 47 58 48 52 49 51 50 22 52 44 53
REMARK SMILES IDX 29 54 43 55 30 56 33 57 42 58 56 59 31 60 32 61 41 63 57 64
REMARK SMILES IDX 34 65 23 66 24 67 28 68 25 69 27 70 26 71 45 72 46 73 50 74
REMARK SMILES IDX 47 75 49 76 48 77 35 78 36 79 40 80 37 81 39 82 38 83
REMARK H PARENT 55 51 33 62
REMARK Flexibility Score: inf
ROOT
ATOM      1  C   UNL A   1      34.682  33.904  28.367  1.00  0.00     0.202 C 
ENDROOT
BRANCH   1   2
ATOM      2  C   UNL A   1      35.032  32.416  28.445  1.00  0.00     0.261 C 
BRANCH   2   3
ATOM      3  O   UNL A   1      34.675  31.742  27.226  1.00  0.00    -0.463 OA
BRANCH   3   4
ATOM      4  C   UNL A   1      33.605  30.907  27.309  1.00  0.00     0.313 C 
ATOM      5  O   UNL A   1      32.453  31.279  27.509  1.00  0.00    -0.252 OA
BRANCH   4   6
ATOM      6  C   UNL A   1      33.981  29.433  27.101  1.00  0.00     0.126 C 
ATOM      7  C   UNL A   1      35.477  29.129  27.223  1.00  0.00     0.025 C 
BRANCH   6   8
ATOM      8  C   UNL A   1      33.321  28.874  25.838  1.00  0.00    -0.033 A 
ATOM      9  C   UNL A   1      32.115  29.463  25.418  1.00  0.00     0.012 A 
ATOM     10  C   UNL A   1      33.850  27.833  25.061  1.00  0.00     0.016 A 
ATOM     11  C   UNL A   1      31.441  29.057  24.259  1.00  0.00    -0.024 A 
ATOM     12  C   UNL A   1      33.167  27.365  23.926  1.00  0.00     0.023 A 
ATOM     13  C   UNL A   1      31.974  27.991  23.527  1.00  0.00     0.020 A 
BRANCH  11  14
ATOM     14  C   UNL A   1      30.165  29.670  23.847  1.00  0.00     0.020 C 
ATOM     15  C   UNL A   1      29.601  29.493  22.641  1.00  0.00     0.106 C 
BRANCH  15  16
ATOM     16  S   UNL A   1      28.176  30.372  22.190  1.00  0.00     0.168 S 
ATOM     17  C   UNL A   1      28.718  32.045  22.459  1.00  0.00     0.163 C 
ATOM     18  O   UNL A   1      27.981  30.218  20.757  1.00  0.00    -0.225 OA
ATOM     19  O   UNL A   1      27.096  30.115  23.115  1.00  0.00    -0.225 OA
ENDBRANCH  15  16
ENDBRANCH  11  14
BRANCH  12  20
ATOM     20  C   UNL A   1      33.681  26.238  23.088  1.00  0.00     0.193 C 
ATOM     21  O   UNL A   1      33.850  26.404  21.882  1.00  0.00    -0.289 OA
BRANCH  20  22
ATOM     22  C   UNL A   1      34.031  24.917  23.665  1.00  0.00     0.022 A 
ATOM     23  C   UNL A   1      33.632  23.767  22.976  1.00  0.00     0.012 A 
ATOM     24  C   UNL A   1      34.711  24.800  24.883  1.00  0.00     0.012 A 
ATOM     25  C   UNL A   1      33.963  22.505  23.472  1.00  0.00     0.001 A 
ATOM     26  C   UNL A   1      35.046  23.535  25.372  1.00  0.00     0.001 A 
ATOM     27  C   UNL A   1      34.679  22.391  24.663  1.00  0.00     0.000 A 
ENDBRANCH  20  22
ENDBRANCH  12  20
ENDBRANCH   6   8
ENDBRANCH   4   6
ENDBRANCH   3   4
ENDBRANCH   2   3
ENDBRANCH   1   2
BRANCH   1  28
ATOM     28  O   UNL A   1      34.778  34.645  29.582  1.00  0.00    -0.374 OA
BRANCH  28  29
ATOM     29  C   UNL A   1      34.064  34.164  30.718  1.00  0.00     0.202 C 
BRANCH  29  30
ATOM     30  C   UNL A   1      34.882  33.874  31.984  1.00  0.00     0.261 C 
BRANCH  30  31
ATOM     31  O   UNL A   1      35.041  32.463  32.230  1.00  0.00    -0.460 OA
BRANCH  31  32
ATOM     32  C   UNL A   1      36.137  32.139  32.960  1.00  0.00     0.338 C 
ATOM     33  O   UNL A   1      36.297  32.287  34.161  1.00  0.00    -0.246 OA
BRANCH  32  34
ATOM     34  C   UNL A   1      37.102  31.390  32.134  1.00  0.00     0.060 A 
ATOM     35  C   UNL A   1      38.249  30.897  32.772  1.00  0.00     0.016 A 
ATOM     36  C   UNL A   1      36.947  31.260  30.753  1.00  0.00     0.016 A 
ATOM     37  C   UNL A   1      39.270  30.317  32.021  1.00  0.00     0.010 A 
ATOM     38  C   UNL A   1      37.979  30.687  30.000  1.00  0.00     0.010 A 
ATOM     39  C   UNL A   1      39.159  30.247  30.627  1.00  0.00    -0.014 A 
BRANCH  39  40
ATOM     40  C   UNL A   1      40.342  29.854  29.824  1.00  0.00     0.031 A 
ATOM     41  C   UNL A   1      40.353  28.511  29.145  1.00  0.00     0.074 A 
ATOM     42  C   UNL A   1      41.376  30.699  29.659  1.00  0.00     0.049 A 
ATOM     43  N   UNL A   1      41.283  27.964  28.404  1.00  0.00    -0.248 NA
ATOM     44  C   UNL A   1      39.155  27.674  29.325  1.00  0.00     0.031 C 
ATOM     45  C   UNL A   1      41.466  32.045  30.220  1.00  0.00     0.029 A 
ATOM     46  N   UNL A   1      42.551  30.540  28.967  1.00  0.00    -0.354 N 
ATOM     47  C   UNL A   1      40.786  26.720  28.032  1.00  0.00     0.074 A 
ATOM     48  C   UNL A   1      39.486  26.581  28.654  1.00  0.00     0.031 C 
ATOM     49  C   UNL A   1      42.640  32.590  29.854  1.00  0.00     0.029 A 
ATOM     50  C   UNL A   1      43.392  31.621  29.060  1.00  0.00     0.049 A 
ATOM     51  H   UNL A   1      42.769  29.729  28.453  1.00  0.00     0.167 HD
ATOM     52  C   UNL A   1      41.354  25.782  27.239  1.00  0.00     0.031 A 
ATOM     53  C   UNL A   1      44.636  31.800  28.576  1.00  0.00     0.031 A 
ATOM     54  C   UNL A   1      42.650  25.910  26.630  1.00  0.00     0.049 A 
ATOM     55  C   UNL A   1      45.281  30.707  27.764  1.00  0.00     0.074 A 
ATOM     56  C   UNL A   1      43.309  25.015  25.805  1.00  0.00     0.029 A 
ATOM     57  N   UNL A   1      43.490  27.001  26.787  1.00  0.00    -0.354 N 
ATOM     58  N   UNL A   1      44.793  29.545  27.406  1.00  0.00    -0.248 NA
ATOM     59  C   UNL A   1      46.648  30.959  27.285  1.00  0.00     0.031 C 
ATOM     60  C   UNL A   1      44.569  25.542  25.504  1.00  0.00     0.029 A 
ATOM     61  C   UNL A   1      44.671  26.790  26.096  1.00  0.00     0.049 A 
ATOM     62  H   UNL A   1      43.277  27.807  27.311  1.00  0.00     0.167 HD
ATOM     63  C   UNL A   1      45.780  28.938  26.639  1.00  0.00     0.074 A 
ATOM     64  C   UNL A   1      46.889  29.867  26.573  1.00  0.00     0.031 C 
ATOM     65  C   UNL A   1      45.768  27.722  26.041  1.00  0.00     0.031 A 
BRANCH  52  66
ATOM     66  C   UNL A   1      40.583  24.511  27.013  1.00  0.00    -0.014 A 
ATOM     67  C   UNL A   1      41.028  23.285  27.534  1.00  0.00     0.009 A 
ATOM     68  C   UNL A   1      39.379  24.547  26.294  1.00  0.00     0.009 A 
ATOM     69  C   UNL A   1      40.299  22.117  27.309  1.00  0.00     0.001 A 
ATOM     70  C   UNL A   1      38.638  23.381  26.094  1.00  0.00     0.001 A 
ATOM     71  C   UNL A   1      39.102  22.165  26.594  1.00  0.00     0.000 A 
ENDBRANCH  52  66
BRANCH  53  72
ATOM     72  C   UNL A   1      45.371  33.059  28.863  1.00  0.00    -0.014 A 
ATOM     73  C   UNL A   1      46.167  33.181  30.012  1.00  0.00     0.009 A 
ATOM     74  C   UNL A   1      45.263  34.156  27.993  1.00  0.00     0.009 A 
ATOM     75  C   UNL A   1      46.820  34.384  30.295  1.00  0.00     0.001 A 
ATOM     76  C   UNL A   1      45.939  35.346  28.264  1.00  0.00     0.001 A 
ATOM     77  C   UNL A   1      46.710  35.463  29.419  1.00  0.00     0.000 A 
ENDBRANCH  53  72
BRANCH  65  78
ATOM     78  C   UNL A   1      46.976  27.338  25.234  1.00  0.00    -0.014 A 
ATOM     79  C   UNL A   1      47.123  27.752  23.900  1.00  0.00     0.009 A 
ATOM     80  C   UNL A   1      48.001  26.587  25.830  1.00  0.00     0.009 A 
ATOM     81  C   UNL A   1      48.260  27.393  23.172  1.00  0.00     0.001 A 
ATOM     82  C   UNL A   1      49.149  26.255  25.108  1.00  0.00     0.001 A 
ATOM     83  C   UNL A   1      49.273  26.650  23.778  1.00  0.00     0.000 A 
ENDBRANCH  65  78
ENDBRANCH  39  40
ENDBRANCH  32  34
ENDBRANCH  31  32
ENDBRANCH  30  31
ENDBRANCH  29  30
ENDBRANCH  28  29
ENDBRANCH   1  28
TORSDOF 19
ENDMDL
MODEL 2
REMARK VINA RESULT:     -10.6      5.308     11.369
REMARK SMILES C[C@@H](C(=O)OCCOCCOC(=O)c1ccc(-c2c3nc(c(-c4ccccc4)c4ccc([nH]4)c(-c4ccccc4)c4nc(c(-c5ccccc5)c5ccc2[nH]5)C=C4)C=C3)cc1)c1cc(/C=C/S(C)(=O)=O)cc(C(=O)c2ccccc2)c1
REMARK SMILES IDX 7 1 6 2 5 3 3 4 4 5 2 6 1 7 62 8 63 9 81 10 64 11 72 12
REMARK SMILES IDX 71 13 65 14 66 15 67 16 68 17 69 18 70 19 73 20 74 21 75 22
REMARK SMILES IDX 76 23 80 24 77 25 79 26 78 27 8 28 9 29 10 30 11 31 12 32
REMARK SMILES IDX 13 33 14 34 15 35 61 36 16 37 60 38 17 39 18 40 19 41 54 42
REMARK SMILES IDX 20 43 59 44 53 45 55 46 21 47 58 48 52 49 51 50 22 52 44 53
REMARK SMILES IDX 29 54 43 55 30 56 33 57 42 58 56 59 31 60 32 61 41 63 57 64
REMARK SMILES IDX 34 65 23 66 24 67 28 68 25 69 27 70 26 71 45 72 46 73 50 74
REMARK SMILES IDX 47 75 49 76 48 77 35 78 36 79 40 80 37 81 39 82 38 83
REMARK H PARENT 55 51 33 62
REMARK Flexibility Score: inf
ROOT
ATOM      1  C   UNL A   1      45.458  21.878  25.799  1.00  0.00     0.202 C 
ENDROOT
BRANCH   1   2
ATOM      2  C   UNL A   1      44.521  21.903  24.590  1.00  0.00     0.261 C 
BRANCH   2   3
ATOM      3  O   UNL A   1      43.151  22.029  25.008  1.00  0.00    -0.463 OA
BRANCH   3   4
ATOM      4  C   UNL A   1      42.638  20.956  25.667  1.00  0.00     0.313 C 
ATOM      5  O   UNL A   1      42.775  19.792  25.302  1.00  0.00    -0.252 OA
BRANCH   4   6
ATOM      6  C   UNL A   1      41.880  21.346  26.944  1.00  0.00     0.126 C 
ATOM      7  C   UNL A   1      41.164  20.187  27.644  1.00  0.00     0.025 C 
BRANCH   6   8
ATOM      8  C   UNL A   1      41.008  22.581  26.706  1.00  0.00    -0.033 A 
ATOM      9  C   UNL A   1      39.633  22.376  26.498  1.00  0.00     0.012 A 
ATOM     10  C   UNL A   1      41.484  23.899  26.707  1.00  0.00     0.016 A 
ATOM     11  C   UNL A   1      38.733  23.433  26.305  1.00  0.00    -0.024 A 
ATOM     12  C   UNL A   1      40.616  24.977  26.458  1.00  0.00     0.023 A 
ATOM     13  C   UNL A   1      39.245  24.734  26.273  1.00  0.00     0.020 A 
BRANCH  11  14
ATOM     14  C   UNL A   1      37.298  23.198  26.064  1.00  0.00     0.020 C 
ATOM     15  C   UNL A   1      36.777  22.006  25.726  1.00  0.00     0.106 C 
BRANCH  15  16
ATOM     16  S   UNL A   1      35.099  21.855  25.316  1.00  0.00     0.168 S 
ATOM     17  C   UNL A   1      35.018  20.132  24.878  1.00  0.00     0.163 C 
ATOM     18  O   UNL A   1      34.318  22.018  26.532  1.00  0.00    -0.225 OA
ATOM     19  O   UNL A   1      34.787  22.617  24.128  1.00  0.00    -0.225 OA
ENDBRANCH  15  16
ENDBRANCH  11  14
BRANCH  12  20
ATOM     20  C   UNL A   1      41.089  26.395  26.421  1.00  0.00     0.193 C 
ATOM     21  O   UNL A   1      41.639  26.827  25.410  1.00  0.00    -0.289 OA
BRANCH  20  22
ATOM     22  C   UNL A   1      40.891  27.327  27.559  1.00  0.00     0.022 A 
ATOM     23  C   UNL A   1      40.763  28.692  27.282  1.00  0.00     0.012 A 
ATOM     24  C   UNL A   1      40.866  26.878  28.885  1.00  0.00     0.012 A 
ATOM     25  C   UNL A   1      40.551  29.598  28.322  1.00  0.00     0.001 A 
ATOM     26  C   UNL A   1      40.647  27.787  29.921  1.00  0.00     0.001 A 
ATOM     27  C   UNL A   1      40.482  29.144  29.639  1.00  0.00     0.000 A 
ENDBRANCH  20  22
ENDBRANCH  12  20
ENDBRANCH   6   8
ENDBRANCH   4   6
ENDBRANCH   3   4
ENDBRANCH   2   3
ENDBRANCH   1   2
BRANCH   1  28
ATOM     28  O   UNL A   1      46.466  22.888  25.845  1.00  0.00    -0.374 OA
BRANCH  28  29
ATOM     29  C   UNL A   1      46.081  24.230  25.557  1.00  0.00     0.202 C 
BRANCH  29  30
ATOM     30  C   UNL A   1      47.143  25.137  24.918  1.00  0.00     0.261 C 
BRANCH  30  31
ATOM     31  O   UNL A   1      46.581  26.345  24.368  1.00  0.00    -0.460 OA
BRANCH  31  32
ATOM     32  C   UNL A   1      47.067  27.489  24.910  1.00  0.00     0.338 C 
ATOM     33  O   UNL A   1      47.820  28.295  24.387  1.00  0.00    -0.246 OA
BRANCH  32  34
ATOM     34  C   UNL A   1      46.420  27.759  26.207  1.00  0.00     0.060 A 
ATOM     35  C   UNL A   1      45.019  27.722  26.248  1.00  0.00     0.016 A 
ATOM     36  C   UNL A   1      47.152  28.142  27.332  1.00  0.00     0.016 A 
ATOM     37  C   UNL A   1      44.343  28.117  27.400  1.00  0.00     0.010 A 
ATOM     38  C   UNL A   1      46.471  28.549  28.485  1.00  0.00     0.010 A 
ATOM     39  C   UNL A   1      45.064  28.573  28.511  1.00  0.00    -0.014 A 
BRANCH  39  40
ATOM     40  C   UNL A   1      44.338  29.215  29.634  1.00  0.00     0.031 A 
ATOM     41  C   UNL A   1      43.938  30.661  29.514  1.00  0.00     0.074 A 
ATOM     42  C   UNL A   1      43.997  28.512  30.728  1.00  0.00     0.049 A 
ATOM     43  N   UNL A   1      43.306  31.421  30.372  1.00  0.00    -0.248 NA
ATOM     44  C   UNL A   1      44.295  31.340  28.257  1.00  0.00     0.031 C 
ATOM     45  C   UNL A   1      44.280  27.095  30.945  1.00  0.00     0.029 A 
ATOM     46  N   UNL A   1      43.333  28.903  31.864  1.00  0.00    -0.354 N 
ATOM     47  C   UNL A   1      43.193  32.665  29.764  1.00  0.00     0.074 A 
ATOM     48  C   UNL A   1      43.848  32.567  28.477  1.00  0.00     0.031 C 
ATOM     49  C   UNL A   1      43.798  26.736  32.148  1.00  0.00     0.029 A 
ATOM     50  C   UNL A   1      43.200  27.903  32.794  1.00  0.00     0.049 A 
ATOM     51  H   UNL A   1      42.986  29.815  31.999  1.00  0.00     0.167 HD
ATOM     52  C   UNL A   1      42.593  33.786  30.228  1.00  0.00     0.031 A 
ATOM     53  C   UNL A   1      42.673  27.930  34.033  1.00  0.00     0.031 A 
ATOM     54  C   UNL A   1      41.953  33.891  31.512  1.00  0.00     0.049 A 
ATOM     55  C   UNL A   1      42.085  29.211  34.562  1.00  0.00     0.074 A 
ATOM     56  C   UNL A   1      41.312  34.984  32.070  1.00  0.00     0.029 A 
ATOM     57  N   UNL A   1      41.881  32.868  32.443  1.00  0.00    -0.354 N 
ATOM     58  N   UNL A   1      41.969  30.374  33.969  1.00  0.00    -0.248 NA
ATOM     59  C   UNL A   1      41.547  29.177  35.929  1.00  0.00     0.031 C 
ATOM     60  C   UNL A   1      40.896  34.637  33.359  1.00  0.00     0.029 A 
ATOM     61  C   UNL A   1      41.229  33.311  33.582  1.00  0.00     0.049 A 
ATOM     62  H   UNL A   1      42.239  31.960  32.313  1.00  0.00     0.167 HD
ATOM     63  C   UNL A   1      41.323  31.202  34.878  1.00  0.00     0.074 A 
ATOM     64  C   UNL A   1      41.060  30.403  36.058  1.00  0.00     0.031 C 
ATOM     65  C   UNL A   1      40.977  32.506  34.749  1.00  0.00     0.031 A 
BRANCH  52  66
ATOM     66  C   UNL A   1      42.633  35.005  29.349  1.00  0.00    -0.014 A 
ATOM     67  C   UNL A   1      41.600  35.281  28.438  1.00  0.00     0.009 A 
ATOM     68  C   UNL A   1      43.704  35.905  29.455  1.00  0.00     0.009 A 
ATOM     69  C   UNL A   1      41.659  36.417  27.629  1.00  0.00     0.001 A 
ATOM     70  C   UNL A   1      43.746  37.054  28.664  1.00  0.00     0.001 A 
ATOM     71  C   UNL A   1      42.728  37.304  27.745  1.00  0.00     0.000 A 
ENDBRANCH  52  66
BRANCH  53  72
ATOM     72  C   UNL A   1      42.697  26.707  34.877  1.00  0.00    -0.014 A 
ATOM     73  C   UNL A   1      43.869  26.313  35.540  1.00  0.00     0.009 A 
ATOM     74  C   UNL A   1      41.545  25.916  35.009  1.00  0.00     0.009 A 
ATOM     75  C   UNL A   1      43.893  25.138  36.297  1.00  0.00     0.001 A 
ATOM     76  C   UNL A   1      41.563  24.758  35.789  1.00  0.00     0.001 A 
ATOM     77  C   UNL A   1      42.739  24.365  36.425  1.00  0.00     0.000 A 
ENDBRANCH  53  72
BRANCH  65  78
ATOM     78  C   UNL A   1      40.245  33.143  35.897  1.00  0.00    -0.014 A 
ATOM     79  C   UNL A   1      40.934  33.815  36.918  1.00  0.00     0.009 A 
ATOM     80  C   UNL A   1      38.843  33.106  35.932  1.00  0.00     0.009 A 
ATOM     81  C   UNL A   1      40.232  34.410  37.969  1.00  0.00     0.001 A 
ATOM     82  C   UNL A   1      38.142  33.725  36.969  1.00  0.00     0.001 A 
ATOM     83  C   UNL A   1      38.838  34.369  37.991  1.00  0.00     0.000 A 
ENDBRANCH  65  78
ENDBRANCH  39  40
ENDBRANCH  32  34
ENDBRANCH  31  32
ENDBRANCH  30  31
ENDBRANCH  29  30
ENDBRANCH  28  29
ENDBRANCH   1  28
TORSDOF 19
ENDMDL
MODEL 3
REMARK VINA RESULT:     -10.3      4.339      7.396
REMARK SMILES C[C@@H](C(=O)OCCOCCOC(=O)c1ccc(-c2c3nc(c(-c4ccccc4)c4ccc([nH]4)c(-c4ccccc4)c4nc(c(-c5ccccc5)c5ccc2[nH]5)C=C4)C=C3)cc1)c1cc(/C=C/S(C)(=O)=O)cc(C(=O)c2ccccc2)c1
REMARK SMILES IDX 7 1 6 2 5 3 3 4 4 5 2 6 1 7 62 8 63 9 81 10 64 11 72 12
REMARK SMILES IDX 71 13 65 14 66 15 67 16 68 17 69 18 70 19 73 20 74 21 75 22
REMARK SMILES IDX 76 23 80 24 77 25 79 26 78 27 8 28 9 29 10 30 11 31 12 32
REMARK SMILES IDX 13 33 14 34 15 35 61 36 16 37 60 38 17 39 18 40 19 41 54 42
REMARK SMILES IDX 20 43 59 44 53 45 55 46 21 47 58 48 52 49 51 50 22 52 44 53
REMARK SMILES IDX 29 54 43 55 30 56 33 57 42 58 56 59 31 60 32 61 41 63 57 64
REMARK SMILES IDX 34 65 23 66 24 67 28 68 25 69 27 70 26 71 45 72 46 73 50 74
REMARK SMILES IDX 47 75 49 76 48 77 35 78 36 79 40 80 37 81 39 82 38 83
REMARK H PARENT 55 51 33 62
REMARK Flexibility Score: inf
ROOT
ATOM      1  C   UNL A   1      31.899  27.831  27.177  1.00  0.00     0.202 C 
ENDROOT
BRANCH   1   2
ATOM      2  C   UNL A   1      31.146  26.732  26.424  1.00  0.00     0.261 C 
BRANCH   2   3
ATOM      3  O   UNL A   1      31.939  25.535  26.339  1.00  0.00    -0.463 OA
BRANCH   3   4
ATOM      4  C   UNL A   1      31.862  24.862  25.160  1.00  0.00     0.313 C 
ATOM      5  O   UNL A   1      32.049  25.373  24.060  1.00  0.00    -0.252 OA
BRANCH   4   6
ATOM      6  C   UNL A   1      31.537  23.372  25.344  1.00  0.00     0.126 C 
ATOM      7  C   UNL A   1      30.674  23.050  26.567  1.00  0.00     0.025 C 
BRANCH   6   8
ATOM      8  C   UNL A   1      32.800  22.518  25.215  1.00  0.00    -0.033 A 
ATOM      9  C   UNL A   1      32.636  21.157  24.902  1.00  0.00     0.012 A 
ATOM     10  C   UNL A   1      34.106  23.006  25.364  1.00  0.00     0.016 A 
ATOM     11  C   UNL A   1      33.721  20.288  24.726  1.00  0.00    -0.024 A 
ATOM     12  C   UNL A   1      35.212  22.146  25.251  1.00  0.00     0.023 A 
ATOM     13  C   UNL A   1      35.010  20.796  24.919  1.00  0.00     0.020 A 
BRANCH  11  14
ATOM     14  C   UNL A   1      33.529  18.858  24.421  1.00  0.00     0.020 C 
ATOM     15  C   UNL A   1      34.115  17.859  25.103  1.00  0.00     0.106 C 
BRANCH  15  16
ATOM     16  S   UNL A   1      33.952  16.213  24.581  1.00  0.00     0.168 S 
ATOM     17  C   UNL A   1      32.414  15.770  25.358  1.00  0.00     0.163 C 
ATOM     18  O   UNL A   1      33.715  16.213  23.146  1.00  0.00    -0.225 OA
ATOM     19  O   UNL A   1      34.983  15.383  25.161  1.00  0.00    -0.225 OA
ENDBRANCH  15  16
ENDBRANCH  11  14
BRANCH  12  20
ATOM     20  C   UNL A   1      36.618  22.621  25.432  1.00  0.00     0.193 C 
ATOM     21  O   UNL A   1      36.850  23.825  25.507  1.00  0.00    -0.289 OA
BRANCH  20  22
ATOM     22  C   UNL A   1      37.761  21.683  25.556  1.00  0.00     0.022 A 
ATOM     23  C   UNL A   1      38.921  22.133  26.196  1.00  0.00     0.012 A 
ATOM     24  C   UNL A   1      37.716  20.389  25.022  1.00  0.00     0.012 A 
ATOM     25  C   UNL A   1      40.009  21.274  26.356  1.00  0.00     0.001 A 
ATOM     26  C   UNL A   1      38.805  19.531  25.190  1.00  0.00     0.001 A 
ATOM     27  C   UNL A   1      39.946  19.971  25.863  1.00  0.00     0.000 A 
ENDBRANCH  20  22
ENDBRANCH  12  20
ENDBRANCH   6   8
ENDBRANCH   4   6
ENDBRANCH   3   4
ENDBRANCH   2   3
ENDBRANCH   1   2
BRANCH   1  28
ATOM     28  O   UNL A   1      32.435  28.892  26.388  1.00  0.00    -0.374 OA
BRANCH  28  29
ATOM     29  C   UNL A   1      32.098  30.230  26.747  1.00  0.00     0.202 C 
BRANCH  29  30
ATOM     30  C   UNL A   1      33.213  31.089  27.360  1.00  0.00     0.261 C 
BRANCH  30  31
ATOM     31  O   UNL A   1      33.197  32.446  26.874  1.00  0.00    -0.460 OA
BRANCH  31  32
ATOM     32  C   UNL A   1      33.254  33.391  27.844  1.00  0.00     0.338 C 
ATOM     33  O   UNL A   1      32.388  34.198  28.144  1.00  0.00    -0.246 OA
BRANCH  32  34
ATOM     34  C   UNL A   1      34.472  33.222  28.656  1.00  0.00     0.060 A 
ATOM     35  C   UNL A   1      35.685  33.645  28.095  1.00  0.00     0.016 A 
ATOM     36  C   UNL A   1      34.450  32.573  29.892  1.00  0.00     0.016 A 
ATOM     37  C   UNL A   1      36.887  33.374  28.746  1.00  0.00     0.010 A 
ATOM     38  C   UNL A   1      35.660  32.292  30.538  1.00  0.00     0.010 A 
ATOM     39  C   UNL A   1      36.885  32.659  29.950  1.00  0.00    -0.014 A 
BRANCH  39  40
ATOM     40  C   UNL A   1      38.169  32.167  30.504  1.00  0.00     0.031 A 
ATOM     41  C   UNL A   1      38.820  30.960  29.884  1.00  0.00     0.074 A 
ATOM     42  C   UNL A   1      38.776  32.811  31.517  1.00  0.00     0.049 A 
ATOM     43  N   UNL A   1      39.935  30.358  30.212  1.00  0.00    -0.248 NA
ATOM     44  C   UNL A   1      38.121  30.352  28.739  1.00  0.00     0.031 C 
ATOM     45  C   UNL A   1      38.277  34.019  32.171  1.00  0.00     0.029 A 
ATOM     46  N   UNL A   1      39.950  32.532  32.170  1.00  0.00    -0.354 N 
ATOM     47  C   UNL A   1      40.070  29.301  29.320  1.00  0.00     0.074 A 
ATOM     48  C   UNL A   1      38.908  29.325  28.457  1.00  0.00     0.031 C 
ATOM     49  C   UNL A   1      39.139  34.375  33.140  1.00  0.00     0.029 A 
ATOM     50  C   UNL A   1      40.231  33.405  33.192  1.00  0.00     0.049 A 
ATOM     51  H   UNL A   1      40.536  31.778  31.930  1.00  0.00     0.167 HD
ATOM     52  C   UNL A   1      41.071  28.395  29.222  1.00  0.00     0.031 A 
ATOM     53  C   UNL A   1      41.243  33.410  34.080  1.00  0.00     0.031 A 
ATOM     54  C   UNL A   1      42.220  28.359  30.086  1.00  0.00     0.049 A 
ATOM     55  C   UNL A   1      42.303  32.344  34.003  1.00  0.00     0.074 A 
ATOM     56  C   UNL A   1      43.292  27.484  30.061  1.00  0.00     0.029 A 
ATOM     57  N   UNL A   1      42.443  29.233  31.138  1.00  0.00    -0.354 N 
ATOM     58  N   UNL A   1      42.428  31.362  33.144  1.00  0.00    -0.248 NA
ATOM     59  C   UNL A   1      43.367  32.395  35.016  1.00  0.00     0.031 C 
ATOM     60  C   UNL A   1      44.138  27.797  31.130  1.00  0.00     0.029 A 
ATOM     61  C   UNL A   1      43.622  28.902  31.785  1.00  0.00     0.049 A 
ATOM     62  H   UNL A   1      41.851  29.980  31.387  1.00  0.00     0.167 HD
ATOM     63  C   UNL A   1      43.595  30.695  33.495  1.00  0.00     0.074 A 
ATOM     64  C   UNL A   1      44.148  31.393  34.637  1.00  0.00     0.031 C 
ATOM     65  C   UNL A   1      44.159  29.603  32.923  1.00  0.00     0.031 A 
BRANCH  52  66
ATOM     66  C   UNL A   1      40.948  27.344  28.155  1.00  0.00    -0.014 A 
ATOM     67  C   UNL A   1      41.370  27.587  26.838  1.00  0.00     0.009 A 
ATOM     68  C   UNL A   1      40.430  26.081  28.480  1.00  0.00     0.009 A 
ATOM     69  C   UNL A   1      41.244  26.597  25.862  1.00  0.00     0.001 A 
ATOM     70  C   UNL A   1      40.330  25.084  27.508  1.00  0.00     0.001 A 
ATOM     71  C   UNL A   1      40.729  25.346  26.198  1.00  0.00     0.000 A 
ENDBRANCH  52  66
BRANCH  53  72
ATOM     72  C   UNL A   1      41.295  34.449  35.141  1.00  0.00    -0.014 A 
ATOM     73  C   UNL A   1      40.628  34.265  36.362  1.00  0.00     0.009 A 
ATOM     74  C   UNL A   1      42.002  35.644  34.928  1.00  0.00     0.009 A 
ATOM     75  C   UNL A   1      40.648  35.266  37.337  1.00  0.00     0.001 A 
ATOM     76  C   UNL A   1      42.043  36.630  35.915  1.00  0.00     0.001 A 
ATOM     77  C   UNL A   1      41.359  36.445  37.115  1.00  0.00     0.000 A 
ENDBRANCH  53  72
BRANCH  65  78
ATOM     78  C   UNL A   1      45.459  29.116  33.499  1.00  0.00    -0.014 A 
ATOM     79  C   UNL A   1      46.689  29.622  33.052  1.00  0.00     0.009 A 
ATOM     80  C   UNL A   1      45.448  28.167  34.533  1.00  0.00     0.009 A 
ATOM     81  C   UNL A   1      47.885  29.162  33.610  1.00  0.00     0.001 A 
ATOM     82  C   UNL A   1      46.643  27.731  35.108  1.00  0.00     0.001 A 
ATOM     83  C   UNL A   1      47.860  28.223  34.640  1.00  0.00     0.000 A 
ENDBRANCH  65  78
ENDBRANCH  39  40
ENDBRANCH  32  34
ENDBRANCH  31  32
ENDBRANCH  30  31
ENDBRANCH  29  30
ENDBRANCH  28  29
ENDBRANCH   1  28
TORSDOF 19
ENDMDL
