MODEL 1
REMARK VINA RESULT:      -9.7      0.000      0.000
REMARK SMILES CCC[C@H]1CC[C@H](C(=O)OCCOCCOC(=O)c2ccc(-c3c4nc(c(-c5ccccc5)c5ccc([nH]5)c(-c5ccccc5)c5nc(c(-c6ccccc6)c6ccc3[nH]6)C=C5)C=C4)cc2)[C@H](Sc2ccncc2)C1
REMARK SMILES IDX 13 1 12 2 11 3 10 4 8 5 9 6 7 7 4 8 5 9 75 10 6 11 67 12
REMARK SMILES IDX 3 13 2 14 1 15 68 16 69 17 70 18 74 19 71 20 73 21 72 22
REMARK SMILES IDX 14 23 15 24 16 25 17 26 18 27 19 28 20 29 66 30 21 31 65 32
REMARK SMILES IDX 22 33 23 34 24 35 59 36 25 37 64 38 58 39 60 40 26 41 63 42
REMARK SMILES IDX 57 43 56 44 27 46 49 47 34 48 48 49 35 50 38 51 47 52 61 53
REMARK SMILES IDX 36 54 37 55 46 57 62 58 39 59 28 60 29 61 33 62 30 63 32 64
REMARK SMILES IDX 31 65 50 66 51 67 55 68 52 69 54 70 53 71 40 72 41 73 45 74
REMARK SMILES IDX 42 75 44 76 43 77
REMARK H PARENT 60 45 38 56
REMARK Flexibility Score: inf
ROOT
ATOM      1  O   UNL A   1      31.436  28.760  25.787  1.00  0.00    -0.374 OA
ENDROOT
BRANCH   1   2
ATOM      2  C   UNL A   1      31.662  27.790  26.798  1.00  0.00     0.202 C 
BRANCH   2   3
ATOM      3  C   UNL A   1      32.209  26.408  26.419  1.00  0.00     0.261 C 
BRANCH   3   4
ATOM      4  O   UNL A   1      31.316  25.293  26.498  1.00  0.00    -0.463 OA
BRANCH   4   5
ATOM      5  C   UNL A   1      31.904  24.081  26.672  1.00  0.00     0.310 C 
ATOM      6  O   UNL A   1      31.441  23.167  27.342  1.00  0.00    -0.252 OA
BRANCH   5   7
ATOM      7  C   UNL A   1      33.182  23.930  25.877  1.00  0.00     0.112 C 
ATOM      8  C   UNL A   1      34.426  21.171  25.727  1.00  0.00    -0.010 C 
ATOM      9  C   UNL A   1      34.424  21.981  27.020  1.00  0.00     0.004 C 
ATOM     10  C   UNL A   1      33.218  21.568  24.838  1.00  0.00     0.019 C 
ATOM     11  C   UNL A   1      34.339  23.492  26.793  1.00  0.00     0.017 C 
ATOM     12  C   UNL A   1      33.098  23.077  24.601  1.00  0.00     0.066 C 
BRANCH   8  13
ATOM     13  C   UNL A   1      35.786  21.076  24.978  1.00  0.00     0.003 C 
BRANCH  13  14
ATOM     14  C   UNL A   1      36.622  22.321  24.639  1.00  0.00    -0.003 C 
ATOM     15  C   UNL A   1      36.424  22.891  23.236  1.00  0.00     0.004 C 
ENDBRANCH  13  14
ENDBRANCH   8  13
BRANCH  12  16
ATOM     16  S   UNL A   1      31.793  23.516  23.341  1.00  0.00    -0.122 SA
BRANCH  16  17
ATOM     17  C   UNL A   1      32.034  25.238  22.936  1.00  0.00     0.011 A 
ATOM     18  C   UNL A   1      30.952  26.117  23.004  1.00  0.00     0.035 A 
ATOM     19  C   UNL A   1      33.297  25.763  22.676  1.00  0.00     0.035 A 
ATOM     20  C   UNL A   1      31.152  27.454  22.694  1.00  0.00     0.112 A 
ATOM     21  C   UNL A   1      33.406  27.123  22.418  1.00  0.00     0.112 A 
ATOM     22  N   UNL A   1      32.358  27.975  22.391  1.00  0.00    -0.265 NA
ENDBRANCH  16  17
ENDBRANCH  12  16
ENDBRANCH   5   7
ENDBRANCH   4   5
ENDBRANCH   3   4
ENDBRANCH   2   3
ENDBRANCH   1   2
BRANCH   1  23
ATOM     23  C   UNL A   1      32.042  30.043  25.925  1.00  0.00     0.202 C 
BRANCH  23  24
ATOM     24  C   UNL A   1      32.740  30.363  27.247  1.00  0.00     0.261 C 
BRANCH  24  25
ATOM     25  O   UNL A   1      34.031  30.961  27.024  1.00  0.00    -0.460 OA
BRANCH  25  26
ATOM     26  C   UNL A   1      34.717  31.260  28.148  1.00  0.00     0.338 C 
ATOM     27  O   UNL A   1      34.394  32.050  29.029  1.00  0.00    -0.246 OA
BRANCH  26  28
ATOM     28  C   UNL A   1      35.871  30.362  28.293  1.00  0.00     0.060 A 
ATOM     29  C   UNL A   1      36.034  29.705  29.522  1.00  0.00     0.016 A 
ATOM     30  C   UNL A   1      36.847  30.279  27.300  1.00  0.00     0.016 A 
ATOM     31  C   UNL A   1      37.220  29.034  29.798  1.00  0.00     0.010 A 
ATOM     32  C   UNL A   1      38.041  29.615  27.582  1.00  0.00     0.010 A 
ATOM     33  C   UNL A   1      38.252  29.045  28.852  1.00  0.00    -0.014 A 
BRANCH  33  34
ATOM     34  C   UNL A   1      39.623  28.679  29.267  1.00  0.00     0.031 A 
ATOM     35  C   UNL A   1      40.164  27.345  28.831  1.00  0.00     0.074 A 
ATOM     36  C   UNL A   1      40.374  29.513  30.002  1.00  0.00     0.049 A 
ATOM     37  N   UNL A   1      41.291  26.761  29.148  1.00  0.00    -0.248 NA
ATOM     38  C   UNL A   1      39.317  26.563  27.914  1.00  0.00     0.031 C 
ATOM     39  C   UNL A   1      39.983  30.856  30.424  1.00  0.00     0.029 A 
ATOM     40  N   UNL A   1      41.627  29.340  30.532  1.00  0.00    -0.354 N 
ATOM     41  C   UNL A   1      41.275  25.537  28.491  1.00  0.00     0.074 A 
ATOM     42  C   UNL A   1      40.024  25.453  27.772  1.00  0.00     0.031 C 
ATOM     43  C   UNL A   1      40.972  31.381  31.168  1.00  0.00     0.029 A 
ATOM     44  C   UNL A   1      42.042  30.395  31.304  1.00  0.00     0.049 A 
ATOM     45  H   UNL A   1      42.173  28.537  30.375  1.00  0.00     0.167 HD
ATOM     46  C   UNL A   1      42.221  24.568  28.488  1.00  0.00     0.031 A 
ATOM     47  C   UNL A   1      43.148  30.531  32.061  1.00  0.00     0.031 A 
ATOM     48  C   UNL A   1      43.459  24.653  29.213  1.00  0.00     0.049 A 
ATOM     49  C   UNL A   1      44.149  29.409  32.108  1.00  0.00     0.074 A 
ATOM     50  C   UNL A   1      44.488  23.731  29.275  1.00  0.00     0.029 A 
ATOM     51  N   UNL A   1      43.830  25.726  30.008  1.00  0.00    -0.354 N 
ATOM     52  N   UNL A   1      44.128  28.254  31.486  1.00  0.00    -0.248 NA
ATOM     53  C   UNL A   1      45.330  29.610  32.961  1.00  0.00     0.031 C 
ATOM     54  C   UNL A   1      45.461  24.226  30.152  1.00  0.00     0.029 A 
ATOM     55  C   UNL A   1      45.063  25.481  30.585  1.00  0.00     0.049 A 
ATOM     56  H   UNL A   1      43.295  26.543  30.141  1.00  0.00     0.167 HD
ATOM     57  C   UNL A   1      45.305  27.607  31.843  1.00  0.00     0.074 A 
ATOM     58  C   UNL A   1      46.017  28.499  32.734  1.00  0.00     0.031 C 
ATOM     59  C   UNL A   1      45.757  26.387  31.463  1.00  0.00     0.031 A 
BRANCH  46  60
ATOM     60  C   UNL A   1      41.921  23.315  27.714  1.00  0.00    -0.014 A 
ATOM     61  C   UNL A   1      42.359  23.146  26.391  1.00  0.00     0.009 A 
ATOM     62  C   UNL A   1      41.194  22.280  28.326  1.00  0.00     0.009 A 
ATOM     63  C   UNL A   1      42.041  21.983  25.685  1.00  0.00     0.001 A 
ATOM     64  C   UNL A   1      40.903  21.108  27.627  1.00  0.00     0.001 A 
ATOM     65  C   UNL A   1      41.318  20.964  26.304  1.00  0.00     0.000 A 
ENDBRANCH  46  60
BRANCH  47  66
ATOM     66  C   UNL A   1      43.351  31.769  32.856  1.00  0.00    -0.014 A 
ATOM     67  C   UNL A   1      42.861  31.866  34.166  1.00  0.00     0.009 A 
ATOM     68  C   UNL A   1      44.043  32.860  32.306  1.00  0.00     0.009 A 
ATOM     69  C   UNL A   1      43.044  33.039  34.903  1.00  0.00     0.001 A 
ATOM     70  C   UNL A   1      44.247  34.020  33.054  1.00  0.00     0.001 A 
ATOM     71  C   UNL A   1      43.742  34.112  34.349  1.00  0.00     0.000 A 
ENDBRANCH  47  66
BRANCH  59  72
ATOM     72  C   UNL A   1      47.109  25.965  31.965  1.00  0.00    -0.014 A 
ATOM     73  C   UNL A   1      47.259  25.282  33.182  1.00  0.00     0.009 A 
ATOM     74  C   UNL A   1      48.243  26.200  31.171  1.00  0.00     0.009 A 
ATOM     75  C   UNL A   1      48.523  24.869  33.605  1.00  0.00     0.001 A 
ATOM     76  C   UNL A   1      49.502  25.762  31.584  1.00  0.00     0.001 A 
ATOM     77  C   UNL A   1      49.642  25.102  32.804  1.00  0.00     0.000 A 
ENDBRANCH  59  72
ENDBRANCH  33  34
ENDBRANCH  26  28
ENDBRANCH  25  26
ENDBRANCH  24  25
ENDBRANCH  23  24
ENDBRANCH   1  23
TORSDOF 18
ENDMDL
MODEL 2
REMARK VINA RESULT:      -9.6      3.639      7.842
REMARK SMILES CCC[C@H]1CC[C@H](C(=O)OCCOCCOC(=O)c2ccc(-c3c4nc(c(-c5ccccc5)c5ccc([nH]5)c(-c5ccccc5)c5nc(c(-c6ccccc6)c6ccc3[nH]6)C=C5)C=C4)cc2)[C@H](Sc2ccncc2)C1
REMARK SMILES IDX 13 1 12 2 11 3 10 4 8 5 9 6 7 7 4 8 5 9 75 10 6 11 67 12
REMARK SMILES IDX 3 13 2 14 1 15 68 16 69 17 70 18 74 19 71 20 73 21 72 22
REMARK SMILES IDX 14 23 15 24 16 25 17 26 18 27 19 28 20 29 66 30 21 31 65 32
REMARK SMILES IDX 22 33 23 34 24 35 59 36 25 37 64 38 58 39 60 40 26 41 63 42
REMARK SMILES IDX 57 43 56 44 27 46 49 47 34 48 48 49 35 50 38 51 47 52 61 53
REMARK SMILES IDX 36 54 37 55 46 57 62 58 39 59 28 60 29 61 33 62 30 63 32 64
REMARK SMILES IDX 31 65 50 66 51 67 55 68 52 69 54 70 53 71 40 72 41 73 45 74
REMARK SMILES IDX 42 75 44 76 43 77
REMARK H PARENT 60 45 38 56
REMARK Flexibility Score: inf
ROOT
ATOM      1  O   UNL A   1      35.340  23.020  24.131  1.00  0.00    -0.374 OA
ENDROOT
BRANCH   1   2
ATOM      2  C   UNL A   1      34.622  24.016  23.418  1.00  0.00     0.202 C 
BRANCH   2   3
ATOM      3  C   UNL A   1      33.091  23.957  23.359  1.00  0.00     0.261 C 
BRANCH   3   4
ATOM      4  O   UNL A   1      32.382  25.188  23.186  1.00  0.00    -0.463 OA
BRANCH   4   5
ATOM      5  C   UNL A   1      31.278  25.344  23.961  1.00  0.00     0.310 C 
ATOM      6  O   UNL A   1      30.367  24.531  24.058  1.00  0.00    -0.252 OA
BRANCH   5   7
ATOM      7  C   UNL A   1      31.312  26.616  24.779  1.00  0.00     0.112 C 
ATOM      8  C   UNL A   1      34.027  27.756  25.495  1.00  0.00    -0.010 C 
ATOM      9  C   UNL A   1      33.510  26.463  26.118  1.00  0.00     0.004 C 
ATOM     10  C   UNL A   1      33.399  27.968  24.092  1.00  0.00     0.019 C 
ATOM     11  C   UNL A   1      31.983  26.365  26.142  1.00  0.00     0.017 C 
ATOM     12  C   UNL A   1      31.871  27.865  24.079  1.00  0.00     0.066 C 
BRANCH   8  13
ATOM     13  C   UNL A   1      34.019  29.012  26.412  1.00  0.00     0.003 C 
BRANCH  13  14
ATOM     14  C   UNL A   1      35.141  29.294  27.424  1.00  0.00    -0.003 C 
ATOM     15  C   UNL A   1      35.153  30.697  28.027  1.00  0.00     0.004 C 
ENDBRANCH  13  14
ENDBRANCH   8  13
BRANCH  12  16
ATOM     16  S   UNL A   1      31.120  28.360  22.443  1.00  0.00    -0.122 SA
BRANCH  16  17
ATOM     17  C   UNL A   1      29.519  29.061  22.808  1.00  0.00     0.011 A 
ATOM     18  C   UNL A   1      28.413  28.219  22.930  1.00  0.00     0.035 A 
ATOM     19  C   UNL A   1      29.357  30.411  23.103  1.00  0.00     0.035 A 
ATOM     20  C   UNL A   1      27.175  28.772  23.220  1.00  0.00     0.112 A 
ATOM     21  C   UNL A   1      28.086  30.869  23.426  1.00  0.00     0.112 A 
ATOM     22  N   UNL A   1      26.987  30.085  23.462  1.00  0.00    -0.265 NA
ENDBRANCH  16  17
ENDBRANCH  12  16
ENDBRANCH   5   7
ENDBRANCH   4   5
ENDBRANCH   3   4
ENDBRANCH   2   3
ENDBRANCH   1   2
BRANCH   1  23
ATOM     23  C   UNL A   1      36.649  22.675  23.689  1.00  0.00     0.202 C 
BRANCH  23  24
ATOM     24  C   UNL A   1      37.333  21.480  24.353  1.00  0.00     0.261 C 
BRANCH  24  25
ATOM     25  O   UNL A   1      37.644  21.757  25.732  1.00  0.00    -0.460 OA
BRANCH  25  26
ATOM     26  C   UNL A   1      38.950  21.635  26.052  1.00  0.00     0.338 C 
ATOM     27  O   UNL A   1      39.733  20.771  25.671  1.00  0.00    -0.246 OA
BRANCH  26  28
ATOM     28  C   UNL A   1      39.400  22.811  26.809  1.00  0.00     0.060 A 
ATOM     29  C   UNL A   1      38.776  24.038  26.539  1.00  0.00     0.016 A 
ATOM     30  C   UNL A   1      40.504  22.739  27.660  1.00  0.00     0.016 A 
ATOM     31  C   UNL A   1      39.311  25.216  27.048  1.00  0.00     0.010 A 
ATOM     32  C   UNL A   1      41.047  23.923  28.160  1.00  0.00     0.010 A 
ATOM     33  C   UNL A   1      40.487  25.165  27.805  1.00  0.00    -0.014 A 
BRANCH  33  34
ATOM     34  C   UNL A   1      41.265  26.403  28.024  1.00  0.00     0.031 A 
ATOM     35  C   UNL A   1      40.649  27.490  28.863  1.00  0.00     0.074 A 
ATOM     36  C   UNL A   1      42.492  26.556  27.503  1.00  0.00     0.049 A 
ATOM     37  N   UNL A   1      41.088  28.696  29.114  1.00  0.00    -0.248 NA
ATOM     38  C   UNL A   1      39.361  27.172  29.503  1.00  0.00     0.031 C 
ATOM     39  C   UNL A   1      43.217  25.548  26.733  1.00  0.00     0.029 A 
ATOM     40  N   UNL A   1      43.339  27.634  27.538  1.00  0.00    -0.354 N 
ATOM     41  C   UNL A   1      40.121  29.286  29.918  1.00  0.00     0.074 A 
ATOM     42  C   UNL A   1      39.065  28.316  30.100  1.00  0.00     0.031 C 
ATOM     43  C   UNL A   1      44.399  26.063  26.351  1.00  0.00     0.029 A 
ATOM     44  C   UNL A   1      44.489  27.446  26.814  1.00  0.00     0.049 A 
ATOM     45  H   UNL A   1      43.141  28.460  28.033  1.00  0.00     0.167 HD
ATOM     46  C   UNL A   1      40.114  30.528  30.457  1.00  0.00     0.031 A 
ATOM     47  C   UNL A   1      45.485  28.307  26.533  1.00  0.00     0.031 A 
ATOM     48  C   UNL A   1      41.161  31.492  30.265  1.00  0.00     0.049 A 
ATOM     49  C   UNL A   1      45.419  29.710  27.075  1.00  0.00     0.074 A 
ATOM     50  C   UNL A   1      41.257  32.777  30.768  1.00  0.00     0.029 A 
ATOM     51  N   UNL A   1      42.297  31.274  29.500  1.00  0.00    -0.354 N 
ATOM     52  N   UNL A   1      44.502  30.262  27.833  1.00  0.00    -0.248 NA
ATOM     53  C   UNL A   1      46.529  30.608  26.725  1.00  0.00     0.031 C 
ATOM     54  C   UNL A   1      42.427  33.355  30.264  1.00  0.00     0.029 A 
ATOM     55  C   UNL A   1      43.089  32.409  29.498  1.00  0.00     0.049 A 
ATOM     56  H   UNL A   1      42.509  30.435  29.029  1.00  0.00     0.167 HD
ATOM     57  C   UNL A   1      44.939  31.558  28.078  1.00  0.00     0.074 A 
ATOM     58  C   UNL A   1      46.205  31.708  27.391  1.00  0.00     0.031 C 
ATOM     59  C   UNL A   1      44.349  32.533  28.812  1.00  0.00     0.031 A 
BRANCH  46  60
ATOM     60  C   UNL A   1      38.907  30.923  31.261  1.00  0.00    -0.014 A 
ATOM     61  C   UNL A   1      38.852  30.721  32.650  1.00  0.00     0.009 A 
ATOM     62  C   UNL A   1      37.809  31.516  30.617  1.00  0.00     0.009 A 
ATOM     63  C   UNL A   1      37.706  31.071  33.369  1.00  0.00     0.001 A 
ATOM     64  C   UNL A   1      36.678  31.890  31.344  1.00  0.00     0.001 A 
ATOM     65  C   UNL A   1      36.623  31.658  32.717  1.00  0.00     0.000 A 
ENDBRANCH  46  60
BRANCH  47  66
ATOM     66  C   UNL A   1      46.617  27.873  25.675  1.00  0.00    -0.014 A 
ATOM     67  C   UNL A   1      47.763  27.294  26.240  1.00  0.00     0.009 A 
ATOM     68  C   UNL A   1      46.553  28.033  24.281  1.00  0.00     0.009 A 
ATOM     69  C   UNL A   1      48.829  26.901  25.428  1.00  0.00     0.001 A 
ATOM     70  C   UNL A   1      47.609  27.615  23.470  1.00  0.00     0.001 A 
ATOM     71  C   UNL A   1      48.749  27.056  24.044  1.00  0.00     0.000 A 
ENDBRANCH  47  66
BRANCH  59  72
ATOM     72  C   UNL A   1      45.089  33.833  28.955  1.00  0.00    -0.014 A 
ATOM     73  C   UNL A   1      44.945  34.865  28.015  1.00  0.00     0.009 A 
ATOM     74  C   UNL A   1      45.894  34.047  30.085  1.00  0.00     0.009 A 
ATOM     75  C   UNL A   1      45.616  36.077  28.194  1.00  0.00     0.001 A 
ATOM     76  C   UNL A   1      46.541  35.268  30.275  1.00  0.00     0.001 A 
ATOM     77  C   UNL A   1      46.407  36.280  29.325  1.00  0.00     0.000 A 
ENDBRANCH  59  72
ENDBRANCH  33  34
ENDBRANCH  26  28
ENDBRANCH  25  26
ENDBRANCH  24  25
ENDBRANCH  23  24
ENDBRANCH   1  23
TORSDOF 18
ENDMDL
MODEL 3
REMARK VINA RESULT:      -9.6      2.596      3.700
REMARK SMILES CCC[C@H]1CC[C@H](C(=O)OCCOCCOC(=O)c2ccc(-c3c4nc(c(-c5ccccc5)c5ccc([nH]5)c(-c5ccccc5)c5nc(c(-c6ccccc6)c6ccc3[nH]6)C=C5)C=C4)cc2)[C@H](Sc2ccncc2)C1
REMARK SMILES IDX 13 1 12 2 11 3 10 4 8 5 9 6 7 7 4 8 5 9 75 10 6 11 67 12
REMARK SMILES IDX 3 13 2 14 1 15 68 16 69 17 70 18 74 19 71 20 73 21 72 22
REMARK SMILES IDX 14 23 15 24 16 25 17 26 18 27 19 28 20 29 66 30 21 31 65 32
REMARK SMILES IDX 22 33 23 34 24 35 59 36 25 37 64 38 58 39 60 40 26 41 63 42
REMARK SMILES IDX 57 43 56 44 27 46 49 47 34 48 48 49 35 50 38 51 47 52 61 53
REMARK SMILES IDX 36 54 37 55 46 57 62 58 39 59 28 60 29 61 33 62 30 63 32 64
REMARK SMILES IDX 31 65 50 66 51 67 55 68 52 69 54 70 53 71 40 72 41 73 45 74
REMARK SMILES IDX 42 75 44 76 43 77
REMARK H PARENT 60 45 38 56
REMARK Flexibility Score: inf
ROOT
ATOM      1  O   UNL A   1      31.679  29.867  26.746  1.00  0.00    -0.374 OA
ENDROOT
BRANCH   1   2
ATOM      2  C   UNL A   1      32.456  28.878  26.090  1.00  0.00     0.202 C 
BRANCH   2   3
ATOM      3  C   UNL A   1      32.680  27.516  26.758  1.00  0.00     0.261 C 
BRANCH   3   4
ATOM      4  O   UNL A   1      31.575  26.608  26.806  1.00  0.00    -0.463 OA
BRANCH   4   5
ATOM      5  C   UNL A   1      31.883  25.299  26.609  1.00  0.00     0.310 C 
ATOM      6  O   UNL A   1      31.402  24.364  27.236  1.00  0.00    -0.252 OA
BRANCH   5   7
ATOM      7  C   UNL A   1      32.843  25.089  25.459  1.00  0.00     0.112 C 
ATOM      8  C   UNL A   1      33.906  22.288  25.010  1.00  0.00    -0.010 C 
ATOM      9  C   UNL A   1      34.330  23.123  26.214  1.00  0.00     0.004 C 
ATOM     10  C   UNL A   1      32.491  22.708  24.532  1.00  0.00     0.019 C 
ATOM     11  C   UNL A   1      34.217  24.631  25.981  1.00  0.00     0.017 C 
ATOM     12  C   UNL A   1      32.341  24.214  24.299  1.00  0.00     0.066 C 
BRANCH   8  13
ATOM     13  C   UNL A   1      34.960  22.132  23.876  1.00  0.00     0.003 C 
BRANCH  13  14
ATOM     14  C   UNL A   1      36.457  22.392  24.109  1.00  0.00    -0.003 C 
ATOM     15  C   UNL A   1      37.231  21.260  24.780  1.00  0.00     0.004 C 
ENDBRANCH  13  14
ENDBRANCH   8  13
BRANCH  12  16
ATOM     16  S   UNL A   1      30.719  24.672  23.498  1.00  0.00    -0.122 SA
BRANCH  16  17
ATOM     17  C   UNL A   1      30.736  26.445  23.289  1.00  0.00     0.011 A 
ATOM     18  C   UNL A   1      31.798  27.046  22.613  1.00  0.00     0.035 A 
ATOM     19  C   UNL A   1      29.659  27.241  23.668  1.00  0.00     0.035 A 
ATOM     20  C   UNL A   1      31.799  28.423  22.450  1.00  0.00     0.112 A 
ATOM     21  C   UNL A   1      29.729  28.606  23.425  1.00  0.00     0.112 A 
ATOM     22  N   UNL A   1      30.788  29.219  22.852  1.00  0.00    -0.265 NA
ENDBRANCH  16  17
ENDBRANCH  12  16
ENDBRANCH   5   7
ENDBRANCH   4   5
ENDBRANCH   3   4
ENDBRANCH   2   3
ENDBRANCH   1   2
BRANCH   1  23
ATOM     23  C   UNL A   1      31.548  31.148  26.137  1.00  0.00     0.202 C 
BRANCH  23  24
ATOM     24  C   UNL A   1      31.403  32.362  27.056  1.00  0.00     0.261 C 
BRANCH  24  25
ATOM     25  O   UNL A   1      32.484  33.294  26.863  1.00  0.00    -0.460 OA
BRANCH  25  26
ATOM     26  C   UNL A   1      33.054  33.742  28.002  1.00  0.00     0.338 C 
ATOM     27  O   UNL A   1      32.556  34.482  28.844  1.00  0.00    -0.246 OA
BRANCH  26  28
ATOM     28  C   UNL A   1      34.345  33.074  28.222  1.00  0.00     0.060 A 
ATOM     29  C   UNL A   1      34.323  31.718  28.579  1.00  0.00     0.016 A 
ATOM     30  C   UNL A   1      35.538  33.797  28.217  1.00  0.00     0.016 A 
ATOM     31  C   UNL A   1      35.486  31.099  29.024  1.00  0.00     0.010 A 
ATOM     32  C   UNL A   1      36.702  33.179  28.675  1.00  0.00     0.010 A 
ATOM     33  C   UNL A   1      36.664  31.848  29.135  1.00  0.00    -0.014 A 
BRANCH  33  34
ATOM     34  C   UNL A   1      37.783  31.327  29.948  1.00  0.00     0.031 A 
ATOM     35  C   UNL A   1      38.720  30.336  29.313  1.00  0.00     0.074 A 
ATOM     36  C   UNL A   1      37.972  31.731  31.213  1.00  0.00     0.049 A 
ATOM     37  N   UNL A   1      39.708  29.666  29.847  1.00  0.00    -0.248 NA
ATOM     38  C   UNL A   1      38.510  30.061  27.881  1.00  0.00     0.031 C 
ATOM     39  C   UNL A   1      37.173  32.735  31.911  1.00  0.00     0.029 A 
ATOM     40  N   UNL A   1      38.900  31.328  32.140  1.00  0.00    -0.354 N 
ATOM     41  C   UNL A   1      40.220  28.876  28.824  1.00  0.00     0.074 A 
ATOM     42  C   UNL A   1      39.426  29.135  27.645  1.00  0.00     0.031 C 
ATOM     43  C   UNL A   1      37.634  32.859  33.167  1.00  0.00     0.029 A 
ATOM     44  C   UNL A   1      38.730  31.914  33.369  1.00  0.00     0.049 A 
ATOM     45  H   UNL A   1      39.615  30.683  31.942  1.00  0.00     0.167 HD
ATOM     46  C   UNL A   1      41.260  28.011  28.866  1.00  0.00     0.031 A 
ATOM     47  C   UNL A   1      39.369  31.685  34.532  1.00  0.00     0.031 A 
ATOM     48  C   UNL A   1      42.040  27.750  30.044  1.00  0.00     0.049 A 
ATOM     49  C   UNL A   1      40.469  30.659  34.577  1.00  0.00     0.074 A 
ATOM     50  C   UNL A   1      43.118  26.897  30.195  1.00  0.00     0.029 A 
ATOM     51  N   UNL A   1      41.818  28.341  31.278  1.00  0.00    -0.354 N 
ATOM     52  N   UNL A   1      40.948  29.916  33.608  1.00  0.00    -0.248 NA
ATOM     53  C   UNL A   1      41.122  30.445  35.876  1.00  0.00     0.031 C 
ATOM     54  C   UNL A   1      43.516  26.932  31.537  1.00  0.00     0.029 A 
ATOM     55  C   UNL A   1      42.724  27.854  32.204  1.00  0.00     0.049 A 
ATOM     56  H   UNL A   1      41.120  29.009  31.468  1.00  0.00     0.167 HD
ATOM     57  C   UNL A   1      41.977  29.171  34.171  1.00  0.00     0.074 A 
ATOM     58  C   UNL A   1      42.056  29.556  35.565  1.00  0.00     0.031 C 
ATOM     59  C   UNL A   1      42.788  28.257  33.585  1.00  0.00     0.031 A 
BRANCH  46  60
ATOM     60  C   UNL A   1      41.574  27.250  27.609  1.00  0.00    -0.014 A 
ATOM     61  C   UNL A   1      42.477  27.746  26.655  1.00  0.00     0.009 A 
ATOM     62  C   UNL A   1      40.960  26.007  27.380  1.00  0.00     0.009 A 
ATOM     63  C   UNL A   1      42.728  27.032  25.481  1.00  0.00     0.001 A 
ATOM     64  C   UNL A   1      41.236  25.283  26.219  1.00  0.00     0.001 A 
ATOM     65  C   UNL A   1      42.111  25.800  25.266  1.00  0.00     0.000 A 
ENDBRANCH  46  60
BRANCH  47  66
ATOM     66  C   UNL A   1      38.964  32.424  35.755  1.00  0.00    -0.014 A 
ATOM     67  C   UNL A   1      38.057  31.859  36.664  1.00  0.00     0.009 A 
ATOM     68  C   UNL A   1      39.489  33.698  36.022  1.00  0.00     0.009 A 
ATOM     69  C   UNL A   1      37.670  32.565  37.806  1.00  0.00     0.001 A 
ATOM     70  C   UNL A   1      39.122  34.390  37.177  1.00  0.00     0.001 A 
ATOM     71  C   UNL A   1      38.207  33.827  38.064  1.00  0.00     0.000 A 
ENDBRANCH  47  66
BRANCH  59  72
ATOM     72  C   UNL A   1      43.867  27.646  34.434  1.00  0.00    -0.014 A 
ATOM     73  C   UNL A   1      43.662  26.440  35.123  1.00  0.00     0.009 A 
ATOM     74  C   UNL A   1      45.129  28.258  34.491  1.00  0.00     0.009 A 
ATOM     75  C   UNL A   1      44.695  25.876  35.875  1.00  0.00     0.001 A 
ATOM     76  C   UNL A   1      46.167  27.678  35.220  1.00  0.00     0.001 A 
ATOM     77  C   UNL A   1      45.947  26.491  35.918  1.00  0.00     0.000 A 
ENDBRANCH  59  72
ENDBRANCH  33  34
ENDBRANCH  26  28
ENDBRANCH  25  26
ENDBRANCH  24  25
ENDBRANCH  23  24
ENDBRANCH   1  23
TORSDOF 18
ENDMDL
