MODEL 1
REMARK VINA RESULT:     -10.1      0.000      0.000
REMARK SMILES CCC[C@H](NC(=O)Cn1cccc1C(=O)OCCOCCOC(=O)c1ccc(-c2c3nc(c(-c4ccccc4)c4ccc([nH]4)c(-c4ccccc4)c4nc(c(-c5ccccc5)c5ccc2[nH]5)C=C4)C=C3)cc1)c1cccs1
REMARK SMILES IDX 17 1 16 2 14 3 15 4 13 5 9 6 10 7 11 8 12 9 8 10 6 11 5 12
REMARK SMILES IDX 7 14 4 15 3 16 2 17 1 18 73 19 74 20 77 21 75 22 76 23 18 24
REMARK SMILES IDX 19 25 20 26 21 27 22 28 23 29 24 30 25 31 26 32 72 33 27 34
REMARK SMILES IDX 71 35 28 36 29 37 30 38 65 39 31 40 70 41 64 42 66 43 32 44
REMARK SMILES IDX 69 45 63 46 62 47 33 49 55 50 40 51 54 52 41 53 44 54 53 55
REMARK SMILES IDX 67 56 42 57 43 58 52 60 68 61 45 62 34 63 35 64 39 65 36 66
REMARK SMILES IDX 38 67 37 68 56 69 57 70 61 71 58 72 60 73 59 74 46 75 47 76
REMARK SMILES IDX 51 77 48 78 50 79 49 80
REMARK H PARENT 5 13 66 48 44 59
REMARK Flexibility Score: inf
ROOT
ATOM      1  C   UNL A   1      35.930  22.399  25.297  1.00  0.00     0.261 C 
ENDROOT
BRANCH   1   2
ATOM      2  O   UNL A   1      35.426  21.209  25.921  1.00  0.00    -0.459 OA
BRANCH   2   3
ATOM      3  C   UNL A   1      34.144  21.329  26.368  1.00  0.00     0.355 C 
ATOM      4  O   UNL A   1      33.823  21.333  27.544  1.00  0.00    -0.244 OA
BRANCH   3   5
ATOM      5  C   UNL A   1      33.253  21.624  25.269  1.00  0.00     0.128 A 
ATOM      6  N   UNL A   1      32.655  22.832  24.973  1.00  0.00    -0.333 N 
ATOM      7  C   UNL A   1      31.898  22.698  23.830  1.00  0.00     0.087 A 
ATOM      8  C   UNL A   1      32.083  21.429  23.332  1.00  0.00     0.020 A 
ATOM      9  C   UNL A   1      32.934  20.758  24.231  1.00  0.00     0.035 A 
BRANCH   6  10
ATOM     10  C   UNL A   1      32.881  24.093  25.670  1.00  0.00     0.222 C 
BRANCH  10  11
ATOM     11  C   UNL A   1      31.614  24.625  26.305  1.00  0.00     0.240 C 
ATOM     12  N   UNL A   1      31.058  25.808  25.927  1.00  0.00    -0.347 N 
ATOM     13  H   UNL A   1      30.130  25.923  26.238  1.00  0.00     0.164 HD
ATOM     14  O   UNL A   1      31.025  23.980  27.179  1.00  0.00    -0.273 OA
BRANCH  12  15
ATOM     15  C   UNL A   1      31.558  26.947  25.152  1.00  0.00     0.122 C 
BRANCH  15  16
ATOM     16  C   UNL A   1      30.407  27.677  24.430  1.00  0.00     0.030 C 
BRANCH  16  17
ATOM     17  C   UNL A   1      30.891  28.854  23.569  1.00  0.00    -0.001 C 
ATOM     18  C   UNL A   1      30.019  29.089  22.342  1.00  0.00     0.004 C 
ENDBRANCH  16  17
ENDBRANCH  15  16
BRANCH  15  19
ATOM     19  C   UNL A   1      32.533  27.812  25.922  1.00  0.00     0.027 A 
ATOM     20  C   UNL A   1      33.883  28.023  25.696  1.00  0.00     0.017 A 
ATOM     21  S   UNL A   1      31.973  28.869  27.168  1.00  0.00    -0.147 S 
ATOM     22  C   UNL A   1      34.467  28.942  26.619  1.00  0.00     0.012 A 
ATOM     23  C   UNL A   1      33.537  29.465  27.484  1.00  0.00     0.065 A 
ENDBRANCH  15  19
ENDBRANCH  12  15
ENDBRANCH  10  11
ENDBRANCH   6  10
ENDBRANCH   3   5
ENDBRANCH   2   3
ENDBRANCH   1   2
BRANCH   1  24
ATOM     24  C   UNL A   1      37.389  22.297  24.842  1.00  0.00     0.202 C 
BRANCH  24  25
ATOM     25  O   UNL A   1      38.453  22.804  25.641  1.00  0.00    -0.374 OA
BRANCH  25  26
ATOM     26  C   UNL A   1      39.333  21.980  26.391  1.00  0.00     0.202 C 
BRANCH  26  27
ATOM     27  C   UNL A   1      39.675  20.563  25.940  1.00  0.00     0.261 C 
BRANCH  27  28
ATOM     28  O   UNL A   1      40.498  19.847  26.841  1.00  0.00    -0.460 OA
BRANCH  28  29
ATOM     29  C   UNL A   1      41.660  19.510  26.245  1.00  0.00     0.338 C 
ATOM     30  O   UNL A   1      41.912  18.486  25.629  1.00  0.00    -0.246 OA
BRANCH  29  31
ATOM     31  C   UNL A   1      42.703  20.461  26.604  1.00  0.00     0.060 A 
ATOM     32  C   UNL A   1      42.616  20.928  27.916  1.00  0.00     0.016 A 
ATOM     33  C   UNL A   1      43.266  21.203  25.558  1.00  0.00     0.016 A 
ATOM     34  C   UNL A   1      42.854  22.260  28.134  1.00  0.00     0.010 A 
ATOM     35  C   UNL A   1      43.471  22.546  25.769  1.00  0.00     0.010 A 
ATOM     36  C   UNL A   1      43.208  23.063  27.041  1.00  0.00    -0.014 A 
BRANCH  36  37
ATOM     37  C   UNL A   1      43.504  24.459  27.334  1.00  0.00     0.031 A 
ATOM     38  C   UNL A   1      42.200  25.242  27.404  1.00  0.00     0.074 A 
ATOM     39  C   UNL A   1      44.825  24.804  27.377  1.00  0.00     0.049 A 
ATOM     40  N   UNL A   1      41.997  26.495  27.176  1.00  0.00    -0.248 NA
ATOM     41  C   UNL A   1      40.915  24.530  27.683  1.00  0.00     0.031 C 
ATOM     42  C   UNL A   1      45.960  23.851  27.278  1.00  0.00     0.029 A 
ATOM     43  N   UNL A   1      45.492  26.004  27.490  1.00  0.00    -0.354 N 
ATOM     44  C   UNL A   1      40.645  26.758  27.448  1.00  0.00     0.074 A 
ATOM     45  C   UNL A   1      40.003  25.499  27.650  1.00  0.00     0.031 C 
ATOM     46  C   UNL A   1      47.140  24.508  27.250  1.00  0.00     0.029 A 
ATOM     47  C   UNL A   1      46.901  25.935  27.349  1.00  0.00     0.049 A 
ATOM     48  H   UNL A   1      45.021  26.852  27.657  1.00  0.00     0.167 HD
ATOM     49  C   UNL A   1      40.175  28.020  27.632  1.00  0.00     0.031 A 
ATOM     50  C   UNL A   1      47.805  26.960  27.279  1.00  0.00     0.031 A 
ATOM     51  C   UNL A   1      41.199  28.970  27.359  1.00  0.00     0.049 A 
ATOM     52  C   UNL A   1      47.051  28.186  27.576  1.00  0.00     0.074 A 
ATOM     53  C   UNL A   1      41.819  29.326  26.189  1.00  0.00     0.029 A 
ATOM     54  N   UNL A   1      41.988  29.331  28.424  1.00  0.00    -0.354 N 
ATOM     55  N   UNL A   1      46.603  28.518  28.748  1.00  0.00    -0.248 NA
ATOM     56  C   UNL A   1      46.713  29.097  26.475  1.00  0.00     0.031 C 
ATOM     57  C   UNL A   1      43.174  29.441  26.567  1.00  0.00     0.029 A 
ATOM     58  C   UNL A   1      43.279  29.389  27.962  1.00  0.00     0.049 A 
ATOM     59  H   UNL A   1      41.686  29.512  29.344  1.00  0.00     0.167 HD
ATOM     60  C   UNL A   1      45.611  29.410  28.431  1.00  0.00     0.074 A 
ATOM     61  C   UNL A   1      45.954  29.966  27.139  1.00  0.00     0.031 C 
ATOM     62  C   UNL A   1      44.355  29.195  28.905  1.00  0.00     0.031 A 
BRANCH  49  63
ATOM     63  C   UNL A   1      38.929  28.488  28.310  1.00  0.00    -0.014 A 
ATOM     64  C   UNL A   1      38.242  29.567  27.714  1.00  0.00     0.009 A 
ATOM     65  C   UNL A   1      38.603  28.159  29.631  1.00  0.00     0.009 A 
ATOM     66  C   UNL A   1      37.363  30.365  28.445  1.00  0.00     0.001 A 
ATOM     67  C   UNL A   1      37.691  28.936  30.353  1.00  0.00     0.001 A 
ATOM     68  C   UNL A   1      37.103  30.058  29.774  1.00  0.00     0.000 A 
ENDBRANCH  49  63
BRANCH  50  69
ATOM     69  C   UNL A   1      49.258  27.165  26.933  1.00  0.00    -0.014 A 
ATOM     70  C   UNL A   1      50.231  27.737  27.755  1.00  0.00     0.009 A 
ATOM     71  C   UNL A   1      49.734  26.656  25.690  1.00  0.00     0.009 A 
ATOM     72  C   UNL A   1      51.596  27.711  27.392  1.00  0.00     0.001 A 
ATOM     73  C   UNL A   1      51.085  26.580  25.349  1.00  0.00     0.001 A 
ATOM     74  C   UNL A   1      52.026  27.101  26.213  1.00  0.00     0.000 A 
ENDBRANCH  50  69
BRANCH  62  75
ATOM     75  C   UNL A   1      44.276  28.371  30.183  1.00  0.00    -0.014 A 
ATOM     76  C   UNL A   1      44.679  28.936  31.404  1.00  0.00     0.009 A 
ATOM     77  C   UNL A   1      43.933  27.008  30.197  1.00  0.00     0.009 A 
ATOM     78  C   UNL A   1      44.762  28.169  32.576  1.00  0.00     0.001 A 
ATOM     79  C   UNL A   1      44.016  26.234  31.367  1.00  0.00     0.001 A 
ATOM     80  C   UNL A   1      44.435  26.817  32.557  1.00  0.00     0.000 A 
ENDBRANCH  62  75
ENDBRANCH  36  37
ENDBRANCH  29  31
ENDBRANCH  28  29
ENDBRANCH  27  28
ENDBRANCH  26  27
ENDBRANCH  25  26
ENDBRANCH  24  25
ENDBRANCH   1  24
TORSDOF 20
ENDMDL
MODEL 2
REMARK VINA RESULT:      -9.8      3.633      7.777
REMARK SMILES CCC[C@H](NC(=O)Cn1cccc1C(=O)OCCOCCOC(=O)c1ccc(-c2c3nc(c(-c4ccccc4)c4ccc([nH]4)c(-c4ccccc4)c4nc(c(-c5ccccc5)c5ccc2[nH]5)C=C4)C=C3)cc1)c1cccs1
REMARK SMILES IDX 17 1 16 2 14 3 15 4 13 5 9 6 10 7 11 8 12 9 8 10 6 11 5 12
REMARK SMILES IDX 7 14 4 15 3 16 2 17 1 18 73 19 74 20 77 21 75 22 76 23 18 24
REMARK SMILES IDX 19 25 20 26 21 27 22 28 23 29 24 30 25 31 26 32 72 33 27 34
REMARK SMILES IDX 71 35 28 36 29 37 30 38 65 39 31 40 70 41 64 42 66 43 32 44
REMARK SMILES IDX 69 45 63 46 62 47 33 49 55 50 40 51 54 52 41 53 44 54 53 55
REMARK SMILES IDX 67 56 42 57 43 58 52 60 68 61 45 62 34 63 35 64 39 65 36 66
REMARK SMILES IDX 38 67 37 68 56 69 57 70 61 71 58 72 60 73 59 74 46 75 47 76
REMARK SMILES IDX 51 77 48 78 50 79 49 80
REMARK H PARENT 5 13 66 48 44 59
REMARK Flexibility Score: inf
ROOT
ATOM      1  C   UNL A   1      36.386  22.813  25.815  1.00  0.00     0.261 C 
ENDROOT
BRANCH   1   2
ATOM      2  O   UNL A   1      35.877  21.480  25.966  1.00  0.00    -0.459 OA
BRANCH   2   3
ATOM      3  C   UNL A   1      34.614  21.434  26.478  1.00  0.00     0.355 C 
ATOM      4  O   UNL A   1      34.340  21.607  27.653  1.00  0.00    -0.244 OA
BRANCH   3   5
ATOM      5  C   UNL A   1      33.643  21.328  25.413  1.00  0.00     0.128 A 
ATOM      6  N   UNL A   1      32.828  22.324  24.916  1.00  0.00    -0.333 N 
ATOM      7  C   UNL A   1      32.064  21.818  23.887  1.00  0.00     0.087 A 
ATOM      8  C   UNL A   1      32.453  20.520  23.655  1.00  0.00     0.020 A 
ATOM      9  C   UNL A   1      33.444  20.214  24.608  1.00  0.00     0.035 A 
BRANCH   6  10
ATOM     10  C   UNL A   1      32.852  23.728  25.313  1.00  0.00     0.222 C 
BRANCH  10  11
ATOM     11  C   UNL A   1      31.549  24.159  25.952  1.00  0.00     0.240 C 
ATOM     12  N   UNL A   1      30.932  25.325  25.619  1.00  0.00    -0.347 N 
ATOM     13  H   UNL A   1      29.996  25.373  25.921  1.00  0.00     0.164 HD
ATOM     14  O   UNL A   1      30.988  23.443  26.789  1.00  0.00    -0.273 OA
BRANCH  12  15
ATOM     15  C   UNL A   1      31.376  26.523  24.902  1.00  0.00     0.122 C 
BRANCH  15  16
ATOM     16  C   UNL A   1      30.189  27.239  24.225  1.00  0.00     0.030 C 
BRANCH  16  17
ATOM     17  C   UNL A   1      30.501  28.696  23.854  1.00  0.00    -0.001 C 
ATOM     18  C   UNL A   1      30.653  28.906  22.352  1.00  0.00     0.004 C 
ENDBRANCH  16  17
ENDBRANCH  15  16
BRANCH  15  19
ATOM     19  C   UNL A   1      32.318  27.389  25.712  1.00  0.00     0.027 A 
ATOM     20  C   UNL A   1      33.559  27.897  25.362  1.00  0.00     0.017 A 
ATOM     21  S   UNL A   1      31.818  28.049  27.228  1.00  0.00    -0.147 S 
ATOM     22  C   UNL A   1      34.138  28.709  26.383  1.00  0.00     0.012 A 
ATOM     23  C   UNL A   1      33.298  28.860  27.460  1.00  0.00     0.065 A 
ENDBRANCH  15  19
ENDBRANCH  12  15
ENDBRANCH  10  11
ENDBRANCH   6  10
ENDBRANCH   3   5
ENDBRANCH   2   3
ENDBRANCH   1   2
BRANCH   1  24
ATOM     24  C   UNL A   1      37.915  22.898  25.780  1.00  0.00     0.202 C 
BRANCH  24  25
ATOM     25  O   UNL A   1      38.716  21.747  25.534  1.00  0.00    -0.374 OA
BRANCH  25  26
ATOM     26  C   UNL A   1      39.819  21.370  26.345  1.00  0.00     0.202 C 
BRANCH  26  27
ATOM     27  C   UNL A   1      41.150  22.112  26.272  1.00  0.00     0.261 C 
BRANCH  27  28
ATOM     28  O   UNL A   1      41.209  23.284  27.062  1.00  0.00    -0.460 OA
BRANCH  28  29
ATOM     29  C   UNL A   1      41.478  24.356  26.289  1.00  0.00     0.338 C 
ATOM     30  O   UNL A   1      42.387  24.485  25.484  1.00  0.00    -0.246 OA
BRANCH  29  31
ATOM     31  C   UNL A   1      40.640  25.481  26.681  1.00  0.00     0.060 A 
ATOM     32  C   UNL A   1      41.149  26.725  26.306  1.00  0.00     0.016 A 
ATOM     33  C   UNL A   1      39.811  25.293  27.794  1.00  0.00     0.016 A 
ATOM     34  C   UNL A   1      41.048  27.752  27.208  1.00  0.00     0.010 A 
ATOM     35  C   UNL A   1      39.740  26.311  28.714  1.00  0.00     0.010 A 
ATOM     36  C   UNL A   1      40.407  27.507  28.430  1.00  0.00    -0.014 A 
BRANCH  36  37
ATOM     37  C   UNL A   1      40.276  28.645  29.330  1.00  0.00     0.031 A 
ATOM     38  C   UNL A   1      41.236  28.468  30.499  1.00  0.00     0.074 A 
ATOM     39  C   UNL A   1      39.294  29.546  29.032  1.00  0.00     0.049 A 
ATOM     40  N   UNL A   1      41.141  28.935  31.698  1.00  0.00    -0.248 NA
ATOM     41  C   UNL A   1      42.431  27.581  30.358  1.00  0.00     0.031 C 
ATOM     42  C   UNL A   1      38.455  29.520  27.807  1.00  0.00     0.029 A 
ATOM     43  N   UNL A   1      38.783  30.647  29.684  1.00  0.00    -0.354 N 
ATOM     44  C   UNL A   1      42.310  28.566  32.385  1.00  0.00     0.074 A 
ATOM     45  C   UNL A   1      43.016  27.647  31.552  1.00  0.00     0.031 C 
ATOM     46  C   UNL A   1      37.507  30.483  27.851  1.00  0.00     0.029 A 
ATOM     47  C   UNL A   1      37.645  31.239  29.081  1.00  0.00     0.049 A 
ATOM     48  H   UNL A   1      39.181  30.997  30.513  1.00  0.00     0.167 HD
ATOM     49  C   UNL A   1      42.688  29.164  33.545  1.00  0.00     0.031 A 
ATOM     50  C   UNL A   1      36.848  32.244  29.560  1.00  0.00     0.031 A 
ATOM     51  C   UNL A   1      41.673  30.057  33.991  1.00  0.00     0.049 A 
ATOM     52  C   UNL A   1      37.515  32.748  30.768  1.00  0.00     0.074 A 
ATOM     53  C   UNL A   1      40.408  29.829  34.470  1.00  0.00     0.029 A 
ATOM     54  N   UNL A   1      41.764  31.351  33.536  1.00  0.00    -0.354 N 
ATOM     55  N   UNL A   1      38.601  33.459  30.776  1.00  0.00    -0.248 NA
ATOM     56  C   UNL A   1      36.970  32.391  32.084  1.00  0.00     0.031 C 
ATOM     57  C   UNL A   1      39.642  30.832  33.839  1.00  0.00     0.029 A 
ATOM     58  C   UNL A   1      40.491  31.749  33.212  1.00  0.00     0.049 A 
ATOM     59  H   UNL A   1      42.585  31.889  33.456  1.00  0.00     0.167 HD
ATOM     60  C   UNL A   1      39.064  33.257  32.051  1.00  0.00     0.074 A 
ATOM     61  C   UNL A   1      37.910  32.924  32.860  1.00  0.00     0.031 C 
ATOM     62  C   UNL A   1      40.330  32.794  32.228  1.00  0.00     0.031 A 
BRANCH  49  63
ATOM     63  C   UNL A   1      44.030  29.227  34.196  1.00  0.00    -0.014 A 
ATOM     64  C   UNL A   1      44.179  28.549  35.425  1.00  0.00     0.009 A 
ATOM     65  C   UNL A   1      45.010  30.164  33.848  1.00  0.00     0.009 A 
ATOM     66  C   UNL A   1      45.189  28.883  36.326  1.00  0.00     0.001 A 
ATOM     67  C   UNL A   1      46.048  30.471  34.735  1.00  0.00     0.001 A 
ATOM     68  C   UNL A   1      46.114  29.861  35.986  1.00  0.00     0.000 A 
ENDBRANCH  49  63
BRANCH  50  69
ATOM     69  C   UNL A   1      35.521  32.884  29.242  1.00  0.00    -0.014 A 
ATOM     70  C   UNL A   1      35.126  34.180  29.579  1.00  0.00     0.009 A 
ATOM     71  C   UNL A   1      34.594  32.154  28.443  1.00  0.00     0.009 A 
ATOM     72  C   UNL A   1      33.929  34.732  29.070  1.00  0.00     0.001 A 
ATOM     73  C   UNL A   1      33.437  32.710  27.894  1.00  0.00     0.001 A 
ATOM     74  C   UNL A   1      33.108  34.014  28.200  1.00  0.00     0.000 A 
ENDBRANCH  50  69
BRANCH  62  75
ATOM     75  C   UNL A   1      41.296  33.101  31.093  1.00  0.00    -0.014 A 
ATOM     76  C   UNL A   1      41.857  32.050  30.349  1.00  0.00     0.009 A 
ATOM     77  C   UNL A   1      41.768  34.396  30.816  1.00  0.00     0.009 A 
ATOM     78  C   UNL A   1      42.860  32.278  29.395  1.00  0.00     0.001 A 
ATOM     79  C   UNL A   1      42.774  34.631  29.864  1.00  0.00     0.001 A 
ATOM     80  C   UNL A   1      43.323  33.568  29.155  1.00  0.00     0.000 A 
ENDBRANCH  62  75
ENDBRANCH  36  37
ENDBRANCH  29  31
ENDBRANCH  28  29
ENDBRANCH  27  28
ENDBRANCH  26  27
ENDBRANCH  25  26
ENDBRANCH  24  25
ENDBRANCH   1  24
TORSDOF 20
ENDMDL
MODEL 3
REMARK VINA RESULT:      -9.8      2.640      7.642
REMARK SMILES CCC[C@H](NC(=O)Cn1cccc1C(=O)OCCOCCOC(=O)c1ccc(-c2c3nc(c(-c4ccccc4)c4ccc([nH]4)c(-c4ccccc4)c4nc(c(-c5ccccc5)c5ccc2[nH]5)C=C4)C=C3)cc1)c1cccs1
REMARK SMILES IDX 17 1 16 2 14 3 15 4 13 5 9 6 10 7 11 8 12 9 8 10 6 11 5 12
REMARK SMILES IDX 7 14 4 15 3 16 2 17 1 18 73 19 74 20 77 21 75 22 76 23 18 24
REMARK SMILES IDX 19 25 20 26 21 27 22 28 23 29 24 30 25 31 26 32 72 33 27 34
REMARK SMILES IDX 71 35 28 36 29 37 30 38 65 39 31 40 70 41 64 42 66 43 32 44
REMARK SMILES IDX 69 45 63 46 62 47 33 49 55 50 40 51 54 52 41 53 44 54 53 55
REMARK SMILES IDX 67 56 42 57 43 58 52 60 68 61 45 62 34 63 35 64 39 65 36 66
REMARK SMILES IDX 38 67 37 68 56 69 57 70 61 71 58 72 60 73 59 74 46 75 47 76
REMARK SMILES IDX 51 77 48 78 50 79 49 80
REMARK H PARENT 5 13 66 48 44 59
REMARK Flexibility Score: inf
ROOT
ATOM      1  C   UNL A   1      32.571  27.426  26.128  1.00  0.00     0.261 C 
ENDROOT
BRANCH   1   2
ATOM      2  O   UNL A   1      33.771  26.696  26.424  1.00  0.00    -0.459 OA
BRANCH   2   3
ATOM      3  C   UNL A   1      34.044  25.709  25.523  1.00  0.00     0.355 C 
ATOM      4  O   UNL A   1      34.349  25.905  24.359  1.00  0.00    -0.244 OA
BRANCH   3   5
ATOM      5  C   UNL A   1      34.091  24.425  26.183  1.00  0.00     0.128 A 
ATOM      6  N   UNL A   1      33.061  23.774  26.830  1.00  0.00    -0.333 N 
ATOM      7  C   UNL A   1      33.513  22.561  27.303  1.00  0.00     0.087 A 
ATOM      8  C   UNL A   1      34.809  22.385  26.879  1.00  0.00     0.020 A 
ATOM      9  C   UNL A   1      35.170  23.550  26.174  1.00  0.00     0.035 A 
BRANCH   6  10
ATOM     10  C   UNL A   1      31.674  24.221  26.897  1.00  0.00     0.222 C 
BRANCH  10  11
ATOM     11  C   UNL A   1      30.749  23.326  26.099  1.00  0.00     0.240 C 
ATOM     12  N   UNL A   1      30.813  23.248  24.742  1.00  0.00    -0.347 N 
ATOM     13  H   UNL A   1      30.334  22.471  24.371  1.00  0.00     0.164 HD
ATOM     14  O   UNL A   1      29.916  22.610  26.666  1.00  0.00    -0.273 OA
BRANCH  12  15
ATOM     15  C   UNL A   1      31.448  24.084  23.721  1.00  0.00     0.122 C 
BRANCH  15  16
ATOM     16  C   UNL A   1      31.797  23.260  22.464  1.00  0.00     0.030 C 
BRANCH  16  17
ATOM     17  C   UNL A   1      33.277  23.367  22.070  1.00  0.00    -0.001 C 
ATOM     18  C   UNL A   1      34.200  22.612  23.019  1.00  0.00     0.004 C 
ENDBRANCH  16  17
ENDBRANCH  15  16
BRANCH  15  19
ATOM     19  C   UNL A   1      30.730  25.397  23.492  1.00  0.00     0.027 A 
ATOM     20  C   UNL A   1      29.590  25.889  24.107  1.00  0.00     0.017 A 
ATOM     21  S   UNL A   1      31.424  26.613  22.480  1.00  0.00    -0.147 S 
ATOM     22  C   UNL A   1      29.228  27.193  23.651  1.00  0.00     0.012 A 
ATOM     23  C   UNL A   1      30.136  27.695  22.752  1.00  0.00     0.065 A 
ENDBRANCH  15  19
ENDBRANCH  12  15
ENDBRANCH  10  11
ENDBRANCH   6  10
ENDBRANCH   3   5
ENDBRANCH   2   3
ENDBRANCH   1   2
BRANCH   1  24
ATOM     24  C   UNL A   1      32.817  28.821  25.544  1.00  0.00     0.202 C 
BRANCH  24  25
ATOM     25  O   UNL A   1      33.749  29.719  26.137  1.00  0.00    -0.374 OA
BRANCH  25  26
ATOM     26  C   UNL A   1      33.430  30.582  27.218  1.00  0.00     0.202 C 
BRANCH  26  27
ATOM     27  C   UNL A   1      34.515  31.164  28.120  1.00  0.00     0.261 C 
BRANCH  27  28
ATOM     28  O   UNL A   1      35.717  30.419  28.141  1.00  0.00    -0.460 OA
BRANCH  28  29
ATOM     29  C   UNL A   1      36.463  30.765  29.210  1.00  0.00     0.338 C 
ATOM     30  O   UNL A   1      36.089  31.318  30.232  1.00  0.00    -0.246 OA
BRANCH  29  31
ATOM     31  C   UNL A   1      37.878  30.575  28.918  1.00  0.00     0.060 A 
ATOM     32  C   UNL A   1      38.141  30.233  27.591  1.00  0.00     0.016 A 
ATOM     33  C   UNL A   1      38.698  30.195  29.988  1.00  0.00     0.016 A 
ATOM     34  C   UNL A   1      39.091  29.274  27.358  1.00  0.00     0.010 A 
ATOM     35  C   UNL A   1      39.626  29.208  29.759  1.00  0.00     0.010 A 
ATOM     36  C   UNL A   1      39.768  28.723  28.455  1.00  0.00    -0.014 A 
BRANCH  36  37
ATOM     37  C   UNL A   1      40.807  27.748  28.151  1.00  0.00     0.031 A 
ATOM     38  C   UNL A   1      42.135  28.473  27.977  1.00  0.00     0.074 A 
ATOM     39  C   UNL A   1      40.397  26.457  27.980  1.00  0.00     0.049 A 
ATOM     40  N   UNL A   1      43.162  28.120  27.282  1.00  0.00    -0.248 NA
ATOM     41  C   UNL A   1      42.336  29.823  28.587  1.00  0.00     0.031 C 
ATOM     42  C   UNL A   1      39.015  25.963  28.205  1.00  0.00     0.029 A 
ATOM     43  N   UNL A   1      41.031  25.305  27.570  1.00  0.00    -0.354 N 
ATOM     44  C   UNL A   1      44.168  29.076  27.501  1.00  0.00     0.074 A 
ATOM     45  C   UNL A   1      43.573  30.155  28.222  1.00  0.00     0.031 C 
ATOM     46  C   UNL A   1      38.904  24.663  27.852  1.00  0.00     0.029 A 
ATOM     47  C   UNL A   1      40.190  24.178  27.390  1.00  0.00     0.049 A 
ATOM     48  H   UNL A   1      42.001  25.267  27.412  1.00  0.00     0.167 HD
ATOM     49  C   UNL A   1      45.471  28.841  27.195  1.00  0.00     0.031 A 
ATOM     50  C   UNL A   1      40.503  22.951  26.868  1.00  0.00     0.031 A 
ATOM     51  C   UNL A   1      45.598  27.599  26.509  1.00  0.00     0.049 A 
ATOM     52  C   UNL A   1      41.962  22.945  26.694  1.00  0.00     0.074 A 
ATOM     53  C   UNL A   1      45.188  27.204  25.262  1.00  0.00     0.029 A 
ATOM     54  N   UNL A   1      45.799  26.492  27.298  1.00  0.00    -0.354 N 
ATOM     55  N   UNL A   1      42.825  22.874  27.661  1.00  0.00    -0.248 NA
ATOM     56  C   UNL A   1      42.519  23.087  25.343  1.00  0.00     0.031 C 
ATOM     57  C   UNL A   1      44.683  25.906  25.488  1.00  0.00     0.029 A 
ATOM     58  C   UNL A   1      45.021  25.487  26.779  1.00  0.00     0.049 A 
ATOM     59  H   UNL A   1      46.387  26.431  28.085  1.00  0.00     0.167 HD
ATOM     60  C   UNL A   1      43.955  23.381  27.072  1.00  0.00     0.074 A 
ATOM     61  C   UNL A   1      43.812  23.158  25.648  1.00  0.00     0.031 C 
ATOM     62  C   UNL A   1      44.594  24.426  27.661  1.00  0.00     0.031 A 
BRANCH  49  63
ATOM     63  C   UNL A   1      46.708  29.508  27.699  1.00  0.00    -0.014 A 
ATOM     64  C   UNL A   1      47.828  29.515  26.839  1.00  0.00     0.009 A 
ATOM     65  C   UNL A   1      46.921  29.812  29.048  1.00  0.00     0.009 A 
ATOM     66  C   UNL A   1      49.121  29.689  27.329  1.00  0.00     0.001 A 
ATOM     67  C   UNL A   1      48.216  30.026  29.533  1.00  0.00     0.001 A 
ATOM     68  C   UNL A   1      49.316  29.926  28.683  1.00  0.00     0.000 A 
ENDBRANCH  49  63
BRANCH  50  69
ATOM     69  C   UNL A   1      39.792  21.711  26.388  1.00  0.00    -0.014 A 
ATOM     70  C   UNL A   1      38.529  21.658  25.798  1.00  0.00     0.009 A 
ATOM     71  C   UNL A   1      40.489  20.469  26.448  1.00  0.00     0.009 A 
ATOM     72  C   UNL A   1      38.043  20.461  25.225  1.00  0.00     0.001 A 
ATOM     73  C   UNL A   1      40.038  19.297  25.837  1.00  0.00     0.001 A 
ATOM     74  C   UNL A   1      38.810  19.296  25.210  1.00  0.00     0.000 A 
ENDBRANCH  50  69
BRANCH  62  75
ATOM     75  C   UNL A   1      44.381  24.552  29.163  1.00  0.00    -0.014 A 
ATOM     76  C   UNL A   1      44.117  25.811  29.728  1.00  0.00     0.009 A 
ATOM     77  C   UNL A   1      44.557  23.481  30.055  1.00  0.00     0.009 A 
ATOM     78  C   UNL A   1      44.060  25.996  31.117  1.00  0.00     0.001 A 
ATOM     79  C   UNL A   1      44.504  23.659  31.448  1.00  0.00     0.001 A 
ATOM     80  C   UNL A   1      44.258  24.921  31.978  1.00  0.00     0.000 A 
ENDBRANCH  62  75
ENDBRANCH  36  37
ENDBRANCH  29  31
ENDBRANCH  28  29
ENDBRANCH  27  28
ENDBRANCH  26  27
ENDBRANCH  25  26
ENDBRANCH  24  25
ENDBRANCH   1  24
TORSDOF 20
ENDMDL
