MODEL 1
REMARK VINA RESULT:     -10.7      0.000      0.000
REMARK SMILES Cc1ccc(C(=O)OCCOCCOC(=O)c2ccc(-c3c4nc(c(-c5ccccc5)c5ccc([nH]5)c(-c5ccccc5)c5nc(c(-c6ccccc6)c6ccc3[nH]6)C=C5)C=C4)cc2)cc1S(=O)(=O)N(C)[C@H]1CCSC1
REMARK SMILES IDX 10 1 9 2 8 3 6 4 7 5 5 6 1 7 2 8 3 9 66 10 4 11 65 12 67 13
REMARK SMILES IDX 68 14 69 15 70 16 71 17 72 18 73 19 76 20 74 21 75 22 11 23
REMARK SMILES IDX 12 24 13 25 14 26 15 27 16 28 17 29 18 30 64 31 19 32 63 33
REMARK SMILES IDX 20 34 21 35 22 36 57 37 23 38 62 39 56 40 58 41 24 42 61 43
REMARK SMILES IDX 55 44 54 45 25 47 47 48 32 49 46 50 33 51 36 52 45 53 59 54
REMARK SMILES IDX 34 55 35 56 44 58 60 59 37 60 26 61 27 62 31 63 28 64 30 65
REMARK SMILES IDX 29 66 48 67 49 68 53 69 50 70 52 71 51 72 38 73 39 74 43 75
REMARK SMILES IDX 40 76 42 77 41 78
REMARK H PARENT 58 46 36 57
REMARK Flexibility Score: inf
ROOT
ATOM      1  C   UNL A   1      33.988  33.729  28.835  1.00  0.00     0.202 C 
ENDROOT
BRANCH   1   2
ATOM      2  C   UNL A   1      32.947  33.531  27.782  1.00  0.00     0.261 C 
BRANCH   2   3
ATOM      3  O   UNL A   1      32.976  32.189  27.275  1.00  0.00    -0.460 OA
BRANCH   3   4
ATOM      4  C   UNL A   1      31.888  31.618  26.687  1.00  0.00     0.338 C 
ATOM      5  O   UNL A   1      30.940  32.136  26.144  1.00  0.00    -0.246 OA
BRANCH   4   6
ATOM      6  C   UNL A   1      32.184  30.173  26.627  1.00  0.00     0.061 A 
ATOM      7  C   UNL A   1      31.859  25.949  25.957  1.00  0.00     0.046 C 
ATOM      8  C   UNL A   1      32.083  27.421  26.107  1.00  0.00    -0.031 A 
ATOM      9  C   UNL A   1      31.645  27.955  27.343  1.00  0.00     0.006 A 
ATOM     10  C   UNL A   1      32.607  28.308  25.149  1.00  0.00     0.086 A 
ATOM     11  C   UNL A   1      31.666  29.323  27.595  1.00  0.00     0.016 A 
ATOM     12  C   UNL A   1      32.746  29.655  25.466  1.00  0.00     0.037 A 
BRANCH  10  13
ATOM     13  S   UNL A   1      32.993  27.986  23.433  1.00  0.00     0.243 S 
ATOM     14  O   UNL A   1      33.516  29.217  22.885  1.00  0.00    -0.207 OA
ATOM     15  O   UNL A   1      33.771  26.760  23.388  1.00  0.00    -0.207 OA
BRANCH  13  16
ATOM     16  N   UNL A   1      31.527  27.618  22.730  1.00  0.00    -0.197 NA
ATOM     17  C   UNL A   1      31.422  26.364  21.989  1.00  0.00     0.125 C 
BRANCH  16  18
ATOM     18  C   UNL A   1      30.409  28.547  22.961  1.00  0.00     0.083 C 
ATOM     19  C   UNL A   1      30.306  29.672  21.942  1.00  0.00     0.032 C 
ATOM     20  C   UNL A   1      29.040  27.881  23.018  1.00  0.00     0.089 C 
ATOM     21  C   UNL A   1      29.135  30.510  22.421  1.00  0.00     0.071 C 
ATOM     22  S   UNL A   1      27.874  29.282  22.883  1.00  0.00    -0.160 SA
ENDBRANCH  16  18
ENDBRANCH  13  16
ENDBRANCH  10  13
ENDBRANCH   4   6
ENDBRANCH   3   4
ENDBRANCH   2   3
ENDBRANCH   1   2
BRANCH   1  23
ATOM     23  O   UNL A   1      34.076  35.132  29.011  1.00  0.00    -0.374 OA
BRANCH  23  24
ATOM     24  C   UNL A   1      32.917  35.751  29.525  1.00  0.00     0.202 C 
BRANCH  24  25
ATOM     25  C   UNL A   1      32.847  35.682  31.056  1.00  0.00     0.261 C 
BRANCH  25  26
ATOM     26  O   UNL A   1      34.070  36.209  31.621  1.00  0.00    -0.460 OA
BRANCH  26  27
ATOM     27  C   UNL A   1      34.596  35.534  32.682  1.00  0.00     0.338 C 
ATOM     28  O   UNL A   1      34.755  35.988  33.803  1.00  0.00    -0.246 OA
BRANCH  27  29
ATOM     29  C   UNL A   1      35.216  34.257  32.212  1.00  0.00     0.060 A 
ATOM     30  C   UNL A   1      34.995  33.054  32.916  1.00  0.00     0.016 A 
ATOM     31  C   UNL A   1      36.270  34.338  31.309  1.00  0.00     0.016 A 
ATOM     32  C   UNL A   1      35.933  32.007  32.846  1.00  0.00     0.010 A 
ATOM     33  C   UNL A   1      37.235  33.355  31.332  1.00  0.00     0.010 A 
ATOM     34  C   UNL A   1      37.108  32.201  32.126  1.00  0.00    -0.014 A 
BRANCH  34  35
ATOM     35  C   UNL A   1      38.336  31.391  32.218  1.00  0.00     0.031 A 
ATOM     36  C   UNL A   1      38.398  30.123  31.457  1.00  0.00     0.074 A 
ATOM     37  C   UNL A   1      39.496  31.930  32.676  1.00  0.00     0.049 A 
ATOM     38  N   UNL A   1      39.354  29.266  31.561  1.00  0.00    -0.248 NA
ATOM     39  C   UNL A   1      37.363  29.682  30.521  1.00  0.00     0.031 C 
ATOM     40  C   UNL A   1      40.874  31.592  32.302  1.00  0.00     0.029 A 
ATOM     41  N   UNL A   1      39.687  32.973  33.580  1.00  0.00    -0.354 N 
ATOM     42  C   UNL A   1      39.286  28.452  30.456  1.00  0.00     0.074 A 
ATOM     43  C   UNL A   1      37.955  28.635  29.942  1.00  0.00     0.031 C 
ATOM     44  C   UNL A   1      41.739  32.194  33.138  1.00  0.00     0.029 A 
ATOM     45  C   UNL A   1      40.954  32.854  34.167  1.00  0.00     0.049 A 
ATOM     46  H   UNL A   1      39.034  33.683  33.776  1.00  0.00     0.167 HD
ATOM     47  C   UNL A   1      40.434  27.867  30.011  1.00  0.00     0.031 A 
ATOM     48  C   UNL A   1      41.075  32.757  35.517  1.00  0.00     0.031 A 
ATOM     49  C   UNL A   1      41.556  28.135  30.929  1.00  0.00     0.049 A 
ATOM     50  C   UNL A   1      41.575  31.371  35.805  1.00  0.00     0.074 A 
ATOM     51  C   UNL A   1      42.709  28.895  30.823  1.00  0.00     0.029 A 
ATOM     52  N   UNL A   1      41.412  27.840  32.287  1.00  0.00    -0.354 N 
ATOM     53  N   UNL A   1      41.400  30.388  34.963  1.00  0.00    -0.248 NA
ATOM     54  C   UNL A   1      42.411  30.995  36.940  1.00  0.00     0.031 C 
ATOM     55  C   UNL A   1      43.200  29.131  32.141  1.00  0.00     0.029 A 
ATOM     56  C   UNL A   1      42.366  28.492  33.046  1.00  0.00     0.049 A 
ATOM     57  H   UNL A   1      40.720  27.245  32.656  1.00  0.00     0.167 HD
ATOM     58  C   UNL A   1      42.204  29.354  35.310  1.00  0.00     0.074 A 
ATOM     59  C   UNL A   1      42.746  29.734  36.605  1.00  0.00     0.031 C 
ATOM     60  C   UNL A   1      42.431  28.291  34.492  1.00  0.00     0.031 A 
BRANCH  47  61
ATOM     61  C   UNL A   1      40.609  27.272  28.625  1.00  0.00    -0.014 A 
ATOM     62  C   UNL A   1      41.368  27.968  27.665  1.00  0.00     0.009 A 
ATOM     63  C   UNL A   1      40.025  26.074  28.171  1.00  0.00     0.009 A 
ATOM     64  C   UNL A   1      41.501  27.517  26.340  1.00  0.00     0.001 A 
ATOM     65  C   UNL A   1      40.154  25.613  26.852  1.00  0.00     0.001 A 
ATOM     66  C   UNL A   1      40.889  26.340  25.932  1.00  0.00     0.000 A 
ENDBRANCH  47  61
BRANCH  48  67
ATOM     67  C   UNL A   1      40.028  33.573  36.213  1.00  0.00    -0.014 A 
ATOM     68  C   UNL A   1      39.141  32.869  37.066  1.00  0.00     0.009 A 
ATOM     69  C   UNL A   1      40.226  34.940  36.465  1.00  0.00     0.009 A 
ATOM     70  C   UNL A   1      38.605  33.469  38.214  1.00  0.00     0.001 A 
ATOM     71  C   UNL A   1      39.686  35.536  37.618  1.00  0.00     0.001 A 
ATOM     72  C   UNL A   1      38.916  34.791  38.514  1.00  0.00     0.000 A 
ENDBRANCH  48  67
BRANCH  60  73
ATOM     73  C   UNL A   1      42.798  26.940  35.019  1.00  0.00    -0.014 A 
ATOM     74  C   UNL A   1      41.837  25.988  35.384  1.00  0.00     0.009 A 
ATOM     75  C   UNL A   1      44.139  26.517  34.944  1.00  0.00     0.009 A 
ATOM     76  C   UNL A   1      42.206  24.682  35.708  1.00  0.00     0.001 A 
ATOM     77  C   UNL A   1      44.503  25.199  35.209  1.00  0.00     0.001 A 
ATOM     78  C   UNL A   1      43.536  24.286  35.606  1.00  0.00     0.000 A 
ENDBRANCH  60  73
ENDBRANCH  34  35
ENDBRANCH  27  29
ENDBRANCH  26  27
ENDBRANCH  25  26
ENDBRANCH  24  25
ENDBRANCH  23  24
ENDBRANCH   1  23
TORSDOF 17
ENDMDL
MODEL 2
REMARK VINA RESULT:     -10.6      2.367      3.636
REMARK SMILES Cc1ccc(C(=O)OCCOCCOC(=O)c2ccc(-c3c4nc(c(-c5ccccc5)c5ccc([nH]5)c(-c5ccccc5)c5nc(c(-c6ccccc6)c6ccc3[nH]6)C=C5)C=C4)cc2)cc1S(=O)(=O)N(C)[C@H]1CCSC1
REMARK SMILES IDX 10 1 9 2 8 3 6 4 7 5 5 6 1 7 2 8 3 9 66 10 4 11 65 12 67 13
REMARK SMILES IDX 68 14 69 15 70 16 71 17 72 18 73 19 76 20 74 21 75 22 11 23
REMARK SMILES IDX 12 24 13 25 14 26 15 27 16 28 17 29 18 30 64 31 19 32 63 33
REMARK SMILES IDX 20 34 21 35 22 36 57 37 23 38 62 39 56 40 58 41 24 42 61 43
REMARK SMILES IDX 55 44 54 45 25 47 47 48 32 49 46 50 33 51 36 52 45 53 59 54
REMARK SMILES IDX 34 55 35 56 44 58 60 59 37 60 26 61 27 62 31 63 28 64 30 65
REMARK SMILES IDX 29 66 48 67 49 68 53 69 50 70 52 71 51 72 38 73 39 74 43 75
REMARK SMILES IDX 40 76 42 77 41 78
REMARK H PARENT 58 46 36 57
REMARK Flexibility Score: inf
ROOT
ATOM      1  C   UNL A   1      32.033  30.185  26.864  1.00  0.00     0.202 C 
ENDROOT
BRANCH   1   2
ATOM      2  C   UNL A   1      31.469  30.129  25.482  1.00  0.00     0.261 C 
BRANCH   2   3
ATOM      3  O   UNL A   1      31.523  28.794  24.958  1.00  0.00    -0.460 OA
BRANCH   3   4
ATOM      4  C   UNL A   1      32.227  28.491  23.831  1.00  0.00     0.338 C 
ATOM      5  O   UNL A   1      32.264  29.059  22.765  1.00  0.00    -0.246 OA
BRANCH   4   6
ATOM      6  C   UNL A   1      33.160  27.417  24.226  1.00  0.00     0.061 A 
ATOM      7  C   UNL A   1      34.779  23.781  25.823  1.00  0.00     0.046 C 
ATOM      8  C   UNL A   1      34.265  25.010  25.142  1.00  0.00    -0.031 A 
ATOM      9  C   UNL A   1      34.170  26.146  25.983  1.00  0.00     0.006 A 
ATOM     10  C   UNL A   1      33.817  25.128  23.813  1.00  0.00     0.086 A 
ATOM     11  C   UNL A   1      33.596  27.334  25.541  1.00  0.00     0.016 A 
ATOM     12  C   UNL A   1      33.370  26.360  23.348  1.00  0.00     0.037 A 
BRANCH  10  13
ATOM     13  S   UNL A   1      33.567  23.831  22.607  1.00  0.00     0.243 S 
ATOM     14  O   UNL A   1      33.100  24.471  21.399  1.00  0.00    -0.207 OA
ATOM     15  O   UNL A   1      34.765  23.011  22.601  1.00  0.00    -0.207 OA
BRANCH  13  16
ATOM     16  N   UNL A   1      32.366  22.874  23.257  1.00  0.00    -0.197 NA
ATOM     17  C   UNL A   1      31.048  23.474  23.451  1.00  0.00     0.125 C 
BRANCH  16  18
ATOM     18  C   UNL A   1      32.690  21.464  23.526  1.00  0.00     0.083 C 
ATOM     19  C   UNL A   1      32.233  20.964  24.888  1.00  0.00     0.032 C 
ATOM     20  C   UNL A   1      32.142  20.487  22.494  1.00  0.00     0.089 C 
ATOM     21  C   UNL A   1      32.725  19.529  24.947  1.00  0.00     0.071 C 
ATOM     22  S   UNL A   1      32.327  18.858  23.304  1.00  0.00    -0.160 SA
ENDBRANCH  16  18
ENDBRANCH  13  16
ENDBRANCH  10  13
ENDBRANCH   4   6
ENDBRANCH   3   4
ENDBRANCH   2   3
ENDBRANCH   1   2
BRANCH   1  23
ATOM     23  O   UNL A   1      33.260  30.883  26.736  1.00  0.00    -0.374 OA
BRANCH  23  24
ATOM     24  C   UNL A   1      33.620  31.681  27.842  1.00  0.00     0.202 C 
BRANCH  24  25
ATOM     25  C   UNL A   1      33.130  33.128  27.703  1.00  0.00     0.261 C 
BRANCH  25  26
ATOM     26  O   UNL A   1      34.124  34.029  28.244  1.00  0.00    -0.460 OA
BRANCH  26  27
ATOM     27  C   UNL A   1      34.169  34.148  29.601  1.00  0.00     0.338 C 
ATOM     28  O   UNL A   1      33.249  34.519  30.311  1.00  0.00    -0.246 OA
BRANCH  27  29
ATOM     29  C   UNL A   1      35.584  34.037  30.072  1.00  0.00     0.060 A 
ATOM     30  C   UNL A   1      36.651  34.122  29.152  1.00  0.00     0.016 A 
ATOM     31  C   UNL A   1      35.811  33.506  31.336  1.00  0.00     0.016 A 
ATOM     32  C   UNL A   1      37.886  33.512  29.438  1.00  0.00     0.010 A 
ATOM     33  C   UNL A   1      36.984  32.820  31.562  1.00  0.00     0.010 A 
ATOM     34  C   UNL A   1      38.019  32.773  30.610  1.00  0.00    -0.014 A 
BRANCH  34  35
ATOM     35  C   UNL A   1      39.079  31.796  30.916  1.00  0.00     0.031 A 
ATOM     36  C   UNL A   1      38.942  30.422  30.384  1.00  0.00     0.074 A 
ATOM     37  C   UNL A   1      40.300  32.204  31.351  1.00  0.00     0.049 A 
ATOM     38  N   UNL A   1      39.725  29.448  30.693  1.00  0.00    -0.248 NA
ATOM     39  C   UNL A   1      37.877  30.004  29.470  1.00  0.00     0.031 C 
ATOM     40  C   UNL A   1      41.608  31.578  31.130  1.00  0.00     0.029 A 
ATOM     41  N   UNL A   1      40.641  33.343  32.078  1.00  0.00    -0.354 N 
ATOM     42  C   UNL A   1      39.553  28.475  29.738  1.00  0.00     0.074 A 
ATOM     43  C   UNL A   1      38.294  28.787  29.114  1.00  0.00     0.031 C 
ATOM     44  C   UNL A   1      42.537  32.163  31.908  1.00  0.00     0.029 A 
ATOM     45  C   UNL A   1      41.846  33.117  32.757  1.00  0.00     0.049 A 
ATOM     46  H   UNL A   1      40.119  34.176  32.109  1.00  0.00     0.167 HD
ATOM     47  C   UNL A   1      40.593  27.635  29.473  1.00  0.00     0.031 A 
ATOM     48  C   UNL A   1      41.901  33.241  34.110  1.00  0.00     0.031 A 
ATOM     49  C   UNL A   1      41.713  27.867  30.404  1.00  0.00     0.049 A 
ATOM     50  C   UNL A   1      42.137  31.864  34.658  1.00  0.00     0.074 A 
ATOM     51  C   UNL A   1      42.985  28.391  30.247  1.00  0.00     0.029 A 
ATOM     52  N   UNL A   1      41.471  27.846  31.780  1.00  0.00    -0.354 N 
ATOM     53  N   UNL A   1      41.819  30.791  33.983  1.00  0.00    -0.248 NA
ATOM     54  C   UNL A   1      42.852  31.558  35.892  1.00  0.00     0.031 C 
ATOM     55  C   UNL A   1      43.464  28.770  31.536  1.00  0.00     0.029 A 
ATOM     56  C   UNL A   1      42.498  28.451  32.479  1.00  0.00     0.049 A 
ATOM     57  H   UNL A   1      40.672  27.451  32.198  1.00  0.00     0.167 HD
ATOM     58  C   UNL A   1      42.414  29.715  34.551  1.00  0.00     0.074 A 
ATOM     59  C   UNL A   1      42.970  30.220  35.796  1.00  0.00     0.031 C 
ATOM     60  C   UNL A   1      42.476  28.501  33.940  1.00  0.00     0.031 A 
BRANCH  47  61
ATOM     61  C   UNL A   1      40.708  26.784  28.220  1.00  0.00    -0.014 A 
ATOM     62  C   UNL A   1      40.575  25.387  28.319  1.00  0.00     0.009 A 
ATOM     63  C   UNL A   1      40.997  27.268  26.930  1.00  0.00     0.009 A 
ATOM     64  C   UNL A   1      40.753  24.534  27.216  1.00  0.00     0.001 A 
ATOM     65  C   UNL A   1      41.175  26.426  25.821  1.00  0.00     0.001 A 
ATOM     66  C   UNL A   1      41.058  25.054  25.965  1.00  0.00     0.000 A 
ENDBRANCH  47  61
BRANCH  48  67
ATOM     67  C   UNL A   1      40.991  34.332  34.589  1.00  0.00    -0.014 A 
ATOM     68  C   UNL A   1      39.866  33.928  35.350  1.00  0.00     0.009 A 
ATOM     69  C   UNL A   1      41.467  35.640  34.774  1.00  0.00     0.009 A 
ATOM     70  C   UNL A   1      39.343  34.743  36.366  1.00  0.00     0.001 A 
ATOM     71  C   UNL A   1      40.938  36.451  35.793  1.00  0.00     0.001 A 
ATOM     72  C   UNL A   1      39.911  35.987  36.616  1.00  0.00     0.000 A 
ENDBRANCH  48  67
BRANCH  60  73
ATOM     73  C   UNL A   1      42.579  27.222  34.709  1.00  0.00    -0.014 A 
ATOM     74  C   UNL A   1      41.453  26.484  35.096  1.00  0.00     0.009 A 
ATOM     75  C   UNL A   1      43.841  26.614  34.862  1.00  0.00     0.009 A 
ATOM     76  C   UNL A   1      41.584  25.214  35.660  1.00  0.00     0.001 A 
ATOM     77  C   UNL A   1      43.971  25.324  35.369  1.00  0.00     0.001 A 
ATOM     78  C   UNL A   1      42.841  24.631  35.781  1.00  0.00     0.000 A 
ENDBRANCH  60  73
ENDBRANCH  34  35
ENDBRANCH  27  29
ENDBRANCH  26  27
ENDBRANCH  25  26
ENDBRANCH  24  25
ENDBRANCH  23  24
ENDBRANCH   1  23
TORSDOF 17
ENDMDL
MODEL 3
REMARK VINA RESULT:     -10.6      6.808     11.903
REMARK SMILES Cc1ccc(C(=O)OCCOCCOC(=O)c2ccc(-c3c4nc(c(-c5ccccc5)c5ccc([nH]5)c(-c5ccccc5)c5nc(c(-c6ccccc6)c6ccc3[nH]6)C=C5)C=C4)cc2)cc1S(=O)(=O)N(C)[C@H]1CCSC1
REMARK SMILES IDX 10 1 9 2 8 3 6 4 7 5 5 6 1 7 2 8 3 9 66 10 4 11 65 12 67 13
REMARK SMILES IDX 68 14 69 15 70 16 71 17 72 18 73 19 76 20 74 21 75 22 11 23
REMARK SMILES IDX 12 24 13 25 14 26 15 27 16 28 17 29 18 30 64 31 19 32 63 33
REMARK SMILES IDX 20 34 21 35 22 36 57 37 23 38 62 39 56 40 58 41 24 42 61 43
REMARK SMILES IDX 55 44 54 45 25 47 47 48 32 49 46 50 33 51 36 52 45 53 59 54
REMARK SMILES IDX 34 55 35 56 44 58 60 59 37 60 26 61 27 62 31 63 28 64 30 65
REMARK SMILES IDX 29 66 48 67 49 68 53 69 50 70 52 71 51 72 38 73 39 74 43 75
REMARK SMILES IDX 40 76 42 77 41 78
REMARK H PARENT 58 46 36 57
REMARK Flexibility Score: inf
ROOT
ATOM      1  C   UNL A   1      40.830  20.807  27.129  1.00  0.00     0.202 C 
ENDROOT
BRANCH   1   2
ATOM      2  C   UNL A   1      40.234  20.522  25.789  1.00  0.00     0.261 C 
BRANCH   2   3
ATOM      3  O   UNL A   1      38.890  21.019  25.708  1.00  0.00    -0.460 OA
BRANCH   3   4
ATOM      4  C   UNL A   1      37.897  20.312  25.098  1.00  0.00     0.338 C 
ATOM      5  O   UNL A   1      37.779  19.119  24.942  1.00  0.00    -0.246 OA
BRANCH   4   6
ATOM      6  C   UNL A   1      36.821  21.289  24.838  1.00  0.00     0.061 A 
ATOM      7  C   UNL A   1      33.548  23.393  23.034  1.00  0.00     0.046 C 
ATOM      8  C   UNL A   1      34.608  22.640  23.774  1.00  0.00    -0.031 A 
ATOM      9  C   UNL A   1      35.932  23.008  23.432  1.00  0.00     0.006 A 
ATOM     10  C   UNL A   1      34.428  21.592  24.695  1.00  0.00     0.086 A 
ATOM     11  C   UNL A   1      37.033  22.322  23.935  1.00  0.00     0.016 A 
ATOM     12  C   UNL A   1      35.538  21.004  25.292  1.00  0.00     0.037 A 
BRANCH  10  13
ATOM     13  S   UNL A   1      32.915  20.738  25.123  1.00  0.00     0.243 S 
ATOM     14  O   UNL A   1      33.185  19.993  26.331  1.00  0.00    -0.207 OA
ATOM     15  O   UNL A   1      31.840  21.714  25.072  1.00  0.00    -0.207 OA
BRANCH  13  16
ATOM     16  N   UNL A   1      32.642  19.696  23.851  1.00  0.00    -0.197 NA
ATOM     17  C   UNL A   1      32.138  20.263  22.602  1.00  0.00     0.125 C 
BRANCH  16  18
ATOM     18  C   UNL A   1      32.994  18.280  24.043  1.00  0.00     0.083 C 
ATOM     19  C   UNL A   1      34.478  18.027  24.262  1.00  0.00     0.032 C 
ATOM     20  C   UNL A   1      32.260  17.602  25.193  1.00  0.00     0.089 C 
ATOM     21  C   UNL A   1      34.591  16.517  24.376  1.00  0.00     0.071 C 
ATOM     22  S   UNL A   1      33.194  16.051  25.444  1.00  0.00    -0.160 SA
ENDBRANCH  16  18
ENDBRANCH  13  16
ENDBRANCH  10  13
ENDBRANCH   4   6
ENDBRANCH   3   4
ENDBRANCH   2   3
ENDBRANCH   1   2
BRANCH   1  23
ATOM     23  O   UNL A   1      41.943  19.935  27.233  1.00  0.00    -0.374 OA
BRANCH  23  24
ATOM     24  C   UNL A   1      42.120  19.048  26.151  1.00  0.00     0.202 C 
BRANCH  24  25
ATOM     25  C   UNL A   1      43.599  18.838  25.802  1.00  0.00     0.261 C 
BRANCH  25  26
ATOM     26  O   UNL A   1      43.980  19.750  24.746  1.00  0.00    -0.460 OA
BRANCH  26  27
ATOM     27  C   UNL A   1      45.078  20.527  24.974  1.00  0.00     0.338 C 
ATOM     28  O   UNL A   1      46.128  20.143  25.461  1.00  0.00    -0.246 OA
BRANCH  27  29
ATOM     29  C   UNL A   1      44.719  21.969  24.810  1.00  0.00     0.060 A 
ATOM     30  C   UNL A   1      45.681  22.897  24.359  1.00  0.00     0.016 A 
ATOM     31  C   UNL A   1      43.565  22.428  25.434  1.00  0.00     0.016 A 
ATOM     32  C   UNL A   1      45.567  24.259  24.694  1.00  0.00     0.010 A 
ATOM     33  C   UNL A   1      43.517  23.741  25.850  1.00  0.00     0.010 A 
ATOM     34  C   UNL A   1      44.529  24.664  25.528  1.00  0.00    -0.014 A 
BRANCH  34  35
ATOM     35  C   UNL A   1      44.439  25.940  26.261  1.00  0.00     0.031 A 
ATOM     36  C   UNL A   1      43.162  26.685  26.219  1.00  0.00     0.074 A 
ATOM     37  C   UNL A   1      45.343  26.256  27.225  1.00  0.00     0.049 A 
ATOM     38  N   UNL A   1      43.000  27.869  26.700  1.00  0.00    -0.248 NA
ATOM     39  C   UNL A   1      41.940  26.174  25.594  1.00  0.00     0.031 C 
ATOM     40  C   UNL A   1      45.147  27.061  28.436  1.00  0.00     0.029 A 
ATOM     41  N   UNL A   1      46.675  25.867  27.346  1.00  0.00    -0.354 N 
ATOM     42  C   UNL A   1      41.648  28.064  26.843  1.00  0.00     0.074 A 
ATOM     43  C   UNL A   1      41.039  27.073  25.995  1.00  0.00     0.031 C 
ATOM     44  C   UNL A   1      46.335  27.325  29.011  1.00  0.00     0.029 A 
ATOM     45  C   UNL A   1      47.364  26.802  28.130  1.00  0.00     0.049 A 
ATOM     46  H   UNL A   1      47.071  25.059  26.946  1.00  0.00     0.167 HD
ATOM     47  C   UNL A   1      41.216  28.924  27.808  1.00  0.00     0.031 A 
ATOM     48  C   UNL A   1      48.456  27.441  27.630  1.00  0.00     0.031 A 
ATOM     49  C   UNL A   1      42.350  29.607  28.457  1.00  0.00     0.049 A 
ATOM     50  C   UNL A   1      48.074  28.885  27.476  1.00  0.00     0.074 A 
ATOM     51  C   UNL A   1      42.902  29.536  29.726  1.00  0.00     0.029 A 
ATOM     52  N   UNL A   1      43.288  30.273  27.665  1.00  0.00    -0.354 N 
ATOM     53  N   UNL A   1      46.827  29.259  27.361  1.00  0.00    -0.248 NA
ATOM     54  C   UNL A   1      48.991  30.014  27.579  1.00  0.00     0.031 C 
ATOM     55  C   UNL A   1      44.218  30.083  29.660  1.00  0.00     0.029 A 
ATOM     56  C   UNL A   1      44.456  30.512  28.364  1.00  0.00     0.049 A 
ATOM     57  H   UNL A   1      43.137  30.538  26.729  1.00  0.00     0.167 HD
ATOM     58  C   UNL A   1      46.744  30.597  27.554  1.00  0.00     0.074 A 
ATOM     59  C   UNL A   1      48.126  31.047  27.590  1.00  0.00     0.031 C 
ATOM     60  C   UNL A   1      45.560  31.241  27.742  1.00  0.00     0.031 A 
BRANCH  47  61
ATOM     61  C   UNL A   1      39.796  28.962  28.347  1.00  0.00    -0.014 A 
ATOM     62  C   UNL A   1      38.765  29.480  27.543  1.00  0.00     0.009 A 
ATOM     63  C   UNL A   1      39.403  28.562  29.639  1.00  0.00     0.009 A 
ATOM     64  C   UNL A   1      37.446  29.622  28.009  1.00  0.00     0.001 A 
ATOM     65  C   UNL A   1      38.090  28.696  30.113  1.00  0.00     0.001 A 
ATOM     66  C   UNL A   1      37.109  29.234  29.298  1.00  0.00     0.000 A 
ENDBRANCH  47  61
BRANCH  48  67
ATOM     67  C   UNL A   1      49.236  26.542  26.719  1.00  0.00    -0.014 A 
ATOM     68  C   UNL A   1      49.351  26.956  25.369  1.00  0.00     0.009 A 
ATOM     69  C   UNL A   1      50.228  25.687  27.225  1.00  0.00     0.009 A 
ATOM     70  C   UNL A   1      50.492  26.658  24.610  1.00  0.00     0.001 A 
ATOM     71  C   UNL A   1      51.370  25.392  26.459  1.00  0.00     0.001 A 
ATOM     72  C   UNL A   1      51.522  25.914  25.173  1.00  0.00     0.000 A 
ENDBRANCH  48  67
BRANCH  60  73
ATOM     73  C   UNL A   1      45.367  32.681  27.386  1.00  0.00    -0.014 A 
ATOM     74  C   UNL A   1      45.109  33.104  26.075  1.00  0.00     0.009 A 
ATOM     75  C   UNL A   1      45.216  33.627  28.418  1.00  0.00     0.009 A 
ATOM     76  C   UNL A   1      44.766  34.428  25.802  1.00  0.00     0.001 A 
ATOM     77  C   UNL A   1      44.815  34.934  28.154  1.00  0.00     0.001 A 
ATOM     78  C   UNL A   1      44.604  35.337  26.843  1.00  0.00     0.000 A 
ENDBRANCH  60  73
ENDBRANCH  34  35
ENDBRANCH  27  29
ENDBRANCH  26  27
ENDBRANCH  25  26
ENDBRANCH  24  25
ENDBRANCH  23  24
ENDBRANCH   1  23
TORSDOF 17
ENDMDL
