MODEL 1
REMARK VINA RESULT:     -10.7      0.000      0.000
REMARK SMILES Cc1cc(C(=O)OCCOCCOC(=O)c2ccc(-c3c4nc(c(-c5ccccc5)c5ccc([nH]5)c(-c5ccccc5)c5nc(c(-c6ccccc6)c6ccc3[nH]6)C=C5)C=C4)cc2)ccc1NS(=O)(=O)c1ccc(C#N)cc1C
REMARK SMILES IDX 9 1 8 2 7 3 5 4 6 5 4 6 1 7 2 8 3 9 66 10 65 11 64 12 67 13
REMARK SMILES IDX 68 15 69 16 70 17 71 18 72 19 78 20 73 21 77 22 79 23 74 24
REMARK SMILES IDX 75 25 76 26 10 27 11 28 12 29 13 30 14 31 15 32 16 33 17 34
REMARK SMILES IDX 63 35 18 36 62 37 19 38 20 39 21 40 56 41 22 42 61 43 55 44
REMARK SMILES IDX 57 45 23 46 60 47 54 48 53 49 24 51 46 52 31 53 45 54 32 55
REMARK SMILES IDX 35 56 44 57 58 58 33 59 34 60 43 62 59 63 36 64 25 65 26 66
REMARK SMILES IDX 30 67 27 68 29 69 28 70 47 71 48 72 52 73 49 74 51 75 50 76
REMARK SMILES IDX 37 77 38 78 42 79 39 80 41 81 40 82
REMARK H PARENT 67 14 57 50 35 61
REMARK Flexibility Score: inf
ROOT
ATOM      1  C   UNL A   1      32.893  32.466  27.358  1.00  0.00     0.202 C 
ENDROOT
BRANCH   1   2
ATOM      2  C   UNL A   1      33.337  31.065  27.579  1.00  0.00     0.261 C 
BRANCH   2   3
ATOM      3  O   UNL A   1      32.277  30.097  27.447  1.00  0.00    -0.460 OA
BRANCH   3   4
ATOM      4  C   UNL A   1      32.562  28.904  26.856  1.00  0.00     0.338 C 
ATOM      5  O   UNL A   1      33.026  27.902  27.364  1.00  0.00    -0.246 OA
BRANCH   4   6
ATOM      6  C   UNL A   1      32.320  29.102  25.419  1.00  0.00     0.060 A 
ATOM      7  C   UNL A   1      29.485  29.357  22.977  1.00  0.00     0.046 C 
ATOM      8  C   UNL A   1      30.840  29.049  23.544  1.00  0.00    -0.026 A 
ATOM      9  C   UNL A   1      31.025  29.158  24.925  1.00  0.00     0.021 A 
ATOM     10  C   UNL A   1      31.954  28.768  22.723  1.00  0.00     0.052 A 
ATOM     11  C   UNL A   1      33.219  29.088  23.179  1.00  0.00     0.028 A 
ATOM     12  C   UNL A   1      33.407  29.202  24.542  1.00  0.00     0.018 A 
BRANCH  10  13
ATOM     13  N   UNL A   1      31.812  27.647  21.849  1.00  0.00    -0.279 N 
ATOM     14  H   UNL A   1      31.186  27.758  21.097  1.00  0.00     0.180 HD
BRANCH  13  15
ATOM     15  S   UNL A   1      32.585  26.165  21.951  1.00  0.00     0.262 S 
ATOM     16  O   UNL A   1      31.701  25.249  21.261  1.00  0.00    -0.201 OA
ATOM     17  O   UNL A   1      33.954  26.362  21.521  1.00  0.00    -0.201 OA
BRANCH  15  18
ATOM     18  C   UNL A   1      32.667  25.568  23.658  1.00  0.00     0.090 A 
ATOM     19  C   UNL A   1      33.885  25.364  24.320  1.00  0.00     0.024 A 
ATOM     20  C   UNL A   1      31.471  25.143  24.282  1.00  0.00    -0.029 A 
ATOM     21  C   UNL A   1      33.941  24.583  25.490  1.00  0.00     0.021 A 
ATOM     22  C   UNL A   1      31.543  24.379  25.466  1.00  0.00     0.024 A 
ATOM     23  C   UNL A   1      30.093  25.529  23.816  1.00  0.00     0.046 C 
ATOM     24  C   UNL A   1      32.772  24.061  26.045  1.00  0.00     0.052 A 
BRANCH  24  25
ATOM     25  C   UNL A   1      32.814  23.207  27.203  1.00  0.00     0.099 C 
ATOM     26  N   UNL A   1      32.832  22.534  28.141  1.00  0.00    -0.192 NA
ENDBRANCH  24  25
ENDBRANCH  15  18
ENDBRANCH  13  15
ENDBRANCH  10  13
ENDBRANCH   4   6
ENDBRANCH   3   4
ENDBRANCH   2   3
ENDBRANCH   1   2
BRANCH   1  27
ATOM     27  O   UNL A   1      33.803  33.254  28.102  1.00  0.00    -0.374 OA
BRANCH  27  28
ATOM     28  C   UNL A   1      33.401  34.582  28.342  1.00  0.00     0.202 C 
BRANCH  28  29
ATOM     29  C   UNL A   1      33.332  34.885  29.841  1.00  0.00     0.261 C 
BRANCH  29  30
ATOM     30  O   UNL A   1      33.865  33.762  30.587  1.00  0.00    -0.460 OA
BRANCH  30  31
ATOM     31  C   UNL A   1      34.001  33.916  31.938  1.00  0.00     0.338 C 
ATOM     32  O   UNL A   1      33.127  34.311  32.692  1.00  0.00    -0.246 OA
BRANCH  31  33
ATOM     33  C   UNL A   1      35.448  33.839  32.318  1.00  0.00     0.060 A 
ATOM     34  C   UNL A   1      36.449  34.281  31.429  1.00  0.00     0.016 A 
ATOM     35  C   UNL A   1      35.787  32.987  33.361  1.00  0.00     0.016 A 
ATOM     36  C   UNL A   1      37.735  33.709  31.468  1.00  0.00     0.010 A 
ATOM     37  C   UNL A   1      36.989  32.322  33.291  1.00  0.00     0.010 A 
ATOM     38  C   UNL A   1      37.964  32.643  32.329  1.00  0.00    -0.014 A 
BRANCH  38  39
ATOM     39  C   UNL A   1      39.112  31.724  32.326  1.00  0.00     0.031 A 
ATOM     40  C   UNL A   1      38.975  30.537  31.455  1.00  0.00     0.074 A 
ATOM     41  C   UNL A   1      40.331  32.087  32.813  1.00  0.00     0.049 A 
ATOM     42  N   UNL A   1      39.832  29.587  31.420  1.00  0.00    -0.248 NA
ATOM     43  C   UNL A   1      37.841  30.288  30.557  1.00  0.00     0.031 C 
ATOM     44  C   UNL A   1      41.677  31.619  32.456  1.00  0.00     0.029 A 
ATOM     45  N   UNL A   1      40.641  33.071  33.753  1.00  0.00    -0.354 N 
ATOM     46  C   UNL A   1      39.576  28.836  30.301  1.00  0.00     0.074 A 
ATOM     47  C   UNL A   1      38.262  29.222  29.872  1.00  0.00     0.031 C 
ATOM     48  C   UNL A   1      42.575  32.047  33.372  1.00  0.00     0.029 A 
ATOM     49  C   UNL A   1      41.833  32.750  34.408  1.00  0.00     0.049 A 
ATOM     50  H   UNL A   1      40.098  33.873  33.930  1.00  0.00     0.167 HD
ATOM     51  C   UNL A   1      40.592  28.076  29.812  1.00  0.00     0.031 A 
ATOM     52  C   UNL A   1      41.828  32.563  35.755  1.00  0.00     0.031 A 
ATOM     53  C   UNL A   1      41.747  28.137  30.721  1.00  0.00     0.049 A 
ATOM     54  C   UNL A   1      42.059  31.090  35.925  1.00  0.00     0.074 A 
ATOM     55  C   UNL A   1      42.967  28.787  30.661  1.00  0.00     0.029 A 
ATOM     56  N   UNL A   1      41.555  27.795  32.061  1.00  0.00    -0.354 N 
ATOM     57  N   UNL A   1      41.692  30.213  35.024  1.00  0.00    -0.248 NA
ATOM     58  C   UNL A   1      42.916  30.525  36.961  1.00  0.00     0.031 C 
ATOM     59  C   UNL A   1      43.452  28.917  32.002  1.00  0.00     0.029 A 
ATOM     60  C   UNL A   1      42.537  28.335  32.872  1.00  0.00     0.049 A 
ATOM     61  H   UNL A   1      40.812  27.239  32.388  1.00  0.00     0.167 HD
ATOM     62  C   UNL A   1      42.415  29.078  35.211  1.00  0.00     0.074 A 
ATOM     63  C   UNL A   1      43.099  29.282  36.482  1.00  0.00     0.031 C 
ATOM     64  C   UNL A   1      42.527  28.062  34.309  1.00  0.00     0.031 A 
BRANCH  51  65
ATOM     65  C   UNL A   1      40.621  27.432  28.449  1.00  0.00    -0.014 A 
ATOM     66  C   UNL A   1      39.880  26.255  28.243  1.00  0.00     0.009 A 
ATOM     67  C   UNL A   1      41.380  27.876  27.349  1.00  0.00     0.009 A 
ATOM     68  C   UNL A   1      39.891  25.570  27.019  1.00  0.00     0.001 A 
ATOM     69  C   UNL A   1      41.385  27.207  26.116  1.00  0.00     0.001 A 
ATOM     70  C   UNL A   1      40.639  26.050  25.951  1.00  0.00     0.000 A 
ENDBRANCH  51  65
BRANCH  52  71
ATOM     71  C   UNL A   1      40.855  33.494  36.429  1.00  0.00    -0.014 A 
ATOM     72  C   UNL A   1      39.767  32.900  37.118  1.00  0.00     0.009 A 
ATOM     73  C   UNL A   1      41.238  34.785  36.827  1.00  0.00     0.009 A 
ATOM     74  C   UNL A   1      39.202  33.498  38.258  1.00  0.00     0.001 A 
ATOM     75  C   UNL A   1      40.672  35.376  37.973  1.00  0.00     0.001 A 
ATOM     76  C   UNL A   1      39.694  34.715  38.716  1.00  0.00     0.000 A 
ENDBRANCH  52  71
BRANCH  64  77
ATOM     77  C   UNL A   1      42.624  26.644  34.786  1.00  0.00    -0.014 A 
ATOM     78  C   UNL A   1      41.589  26.016  35.495  1.00  0.00     0.009 A 
ATOM     79  C   UNL A   1      43.689  25.836  34.347  1.00  0.00     0.009 A 
ATOM     80  C   UNL A   1      41.656  24.664  35.823  1.00  0.00     0.001 A 
ATOM     81  C   UNL A   1      43.719  24.469  34.603  1.00  0.00     0.001 A 
ATOM     82  C   UNL A   1      42.715  23.890  35.367  1.00  0.00     0.000 A 
ENDBRANCH  64  77
ENDBRANCH  38  39
ENDBRANCH  31  33
ENDBRANCH  30  31
ENDBRANCH  29  30
ENDBRANCH  28  29
ENDBRANCH  27  28
ENDBRANCH   1  27
TORSDOF 18
ENDMDL
MODEL 2
REMARK VINA RESULT:     -10.6      2.866      4.979
REMARK SMILES Cc1cc(C(=O)OCCOCCOC(=O)c2ccc(-c3c4nc(c(-c5ccccc5)c5ccc([nH]5)c(-c5ccccc5)c5nc(c(-c6ccccc6)c6ccc3[nH]6)C=C5)C=C4)cc2)ccc1NS(=O)(=O)c1ccc(C#N)cc1C
REMARK SMILES IDX 9 1 8 2 7 3 5 4 6 5 4 6 1 7 2 8 3 9 66 10 65 11 64 12 67 13
REMARK SMILES IDX 68 15 69 16 70 17 71 18 72 19 78 20 73 21 77 22 79 23 74 24
REMARK SMILES IDX 75 25 76 26 10 27 11 28 12 29 13 30 14 31 15 32 16 33 17 34
REMARK SMILES IDX 63 35 18 36 62 37 19 38 20 39 21 40 56 41 22 42 61 43 55 44
REMARK SMILES IDX 57 45 23 46 60 47 54 48 53 49 24 51 46 52 31 53 45 54 32 55
REMARK SMILES IDX 35 56 44 57 58 58 33 59 34 60 43 62 59 63 36 64 25 65 26 66
REMARK SMILES IDX 30 67 27 68 29 69 28 70 47 71 48 72 52 73 49 74 51 75 50 76
REMARK SMILES IDX 37 77 38 78 42 79 39 80 41 81 40 82
REMARK H PARENT 67 14 57 50 35 61
REMARK Flexibility Score: inf
ROOT
ATOM      1  C   UNL A   1      33.723  29.000  25.866  1.00  0.00     0.202 C 
ENDROOT
BRANCH   1   2
ATOM      2  C   UNL A   1      32.346  28.446  25.934  1.00  0.00     0.261 C 
BRANCH   2   3
ATOM      3  O   UNL A   1      32.308  27.014  26.095  1.00  0.00    -0.460 OA
BRANCH   3   4
ATOM      4  C   UNL A   1      31.239  26.336  25.593  1.00  0.00     0.338 C 
ATOM      5  O   UNL A   1      30.331  26.760  24.907  1.00  0.00    -0.246 OA
BRANCH   4   6
ATOM      6  C   UNL A   1      31.322  24.982  26.162  1.00  0.00     0.060 A 
ATOM      7  C   UNL A   1      33.837  22.614  27.624  1.00  0.00     0.046 C 
ATOM      8  C   UNL A   1      32.632  23.118  26.885  1.00  0.00    -0.026 A 
ATOM      9  C   UNL A   1      32.530  24.490  26.633  1.00  0.00     0.021 A 
ATOM     10  C   UNL A   1      31.551  22.277  26.541  1.00  0.00     0.052 A 
ATOM     11  C   UNL A   1      30.284  22.821  26.442  1.00  0.00     0.028 A 
ATOM     12  C   UNL A   1      30.178  24.175  26.198  1.00  0.00     0.018 A 
BRANCH  10  13
ATOM     13  N   UNL A   1      31.875  21.160  25.712  1.00  0.00    -0.279 N 
ATOM     14  H   UNL A   1      31.635  20.272  26.064  1.00  0.00     0.180 HD
BRANCH  13  15
ATOM     15  S   UNL A   1      32.616  21.180  24.211  1.00  0.00     0.262 S 
ATOM     16  O   UNL A   1      32.335  19.873  23.652  1.00  0.00    -0.201 OA
ATOM     17  O   UNL A   1      32.200  22.394  23.540  1.00  0.00    -0.201 OA
BRANCH  15  18
ATOM     18  C   UNL A   1      34.419  21.268  24.354  1.00  0.00     0.090 A 
ATOM     19  C   UNL A   1      35.189  20.177  24.779  1.00  0.00     0.024 A 
ATOM     20  C   UNL A   1      35.048  22.524  24.186  1.00  0.00    -0.029 A 
ATOM     21  C   UNL A   1      36.514  20.364  25.215  1.00  0.00     0.021 A 
ATOM     22  C   UNL A   1      36.384  22.689  24.608  1.00  0.00     0.024 A 
ATOM     23  C   UNL A   1      34.414  23.699  23.493  1.00  0.00     0.046 C 
ATOM     24  C   UNL A   1      37.102  21.629  25.162  1.00  0.00     0.052 A 
BRANCH  24  25
ATOM     25  C   UNL A   1      38.433  21.853  25.662  1.00  0.00     0.099 C 
ATOM     26  N   UNL A   1      39.500  22.013  26.070  1.00  0.00    -0.192 NA
ENDBRANCH  24  25
ENDBRANCH  15  18
ENDBRANCH  13  15
ENDBRANCH  10  13
ENDBRANCH   4   6
ENDBRANCH   3   4
ENDBRANCH   2   3
ENDBRANCH   1   2
BRANCH   1  27
ATOM     27  O   UNL A   1      33.937  29.591  27.134  1.00  0.00    -0.374 OA
BRANCH  27  28
ATOM     28  C   UNL A   1      33.273  30.813  27.354  1.00  0.00     0.202 C 
BRANCH  28  29
ATOM     29  C   UNL A   1      34.228  31.880  27.896  1.00  0.00     0.261 C 
BRANCH  29  30
ATOM     30  O   UNL A   1      35.037  31.313  28.957  1.00  0.00    -0.460 OA
BRANCH  30  31
ATOM     31  C   UNL A   1      36.384  31.532  28.902  1.00  0.00     0.338 C 
ATOM     32  O   UNL A   1      36.914  32.600  28.645  1.00  0.00    -0.246 OA
BRANCH  31  33
ATOM     33  C   UNL A   1      37.115  30.223  28.884  1.00  0.00     0.060 A 
ATOM     34  C   UNL A   1      37.079  29.365  30.003  1.00  0.00     0.016 A 
ATOM     35  C   UNL A   1      38.115  30.066  27.934  1.00  0.00     0.016 A 
ATOM     36  C   UNL A   1      38.154  28.495  30.264  1.00  0.00     0.010 A 
ATOM     37  C   UNL A   1      39.228  29.335  28.278  1.00  0.00     0.010 A 
ATOM     38  C   UNL A   1      39.282  28.570  29.457  1.00  0.00    -0.014 A 
BRANCH  38  39
ATOM     39  C   UNL A   1      40.606  27.983  29.717  1.00  0.00     0.031 A 
ATOM     40  C   UNL A   1      40.881  26.704  29.029  1.00  0.00     0.074 A 
ATOM     41  C   UNL A   1      41.620  28.703  30.271  1.00  0.00     0.049 A 
ATOM     42  N   UNL A   1      41.938  26.010  29.231  1.00  0.00    -0.248 NA
ATOM     43  C   UNL A   1      39.980  26.065  28.063  1.00  0.00     0.031 C 
ATOM     44  C   UNL A   1      43.075  28.557  30.136  1.00  0.00     0.029 A 
ATOM     45  N   UNL A   1      41.548  29.840  31.078  1.00  0.00    -0.354 N 
ATOM     46  C   UNL A   1      42.030  25.088  28.219  1.00  0.00     0.074 A 
ATOM     47  C   UNL A   1      40.736  25.069  27.597  1.00  0.00     0.031 C 
ATOM     48  C   UNL A   1      43.705  29.309  31.067  1.00  0.00     0.029 A 
ATOM     49  C   UNL A   1      42.677  29.918  31.898  1.00  0.00     0.049 A 
ATOM     50  H   UNL A   1      40.810  30.490  31.071  1.00  0.00     0.167 HD
ATOM     51  C   UNL A   1      43.257  24.561  27.964  1.00  0.00     0.031 A 
ATOM     52  C   UNL A   1      42.526  29.900  33.249  1.00  0.00     0.031 A 
ATOM     53  C   UNL A   1      44.223  25.026  28.971  1.00  0.00     0.049 A 
ATOM     54  C   UNL A   1      43.077  28.568  33.666  1.00  0.00     0.074 A 
ATOM     55  C   UNL A   1      45.248  25.956  28.944  1.00  0.00     0.029 A 
ATOM     56  N   UNL A   1      43.930  24.811  30.320  1.00  0.00    -0.354 N 
ATOM     57  N   UNL A   1      43.062  27.523  32.875  1.00  0.00    -0.248 NA
ATOM     58  C   UNL A   1      43.888  28.372  34.862  1.00  0.00     0.031 C 
ATOM     59  C   UNL A   1      45.492  26.368  30.294  1.00  0.00     0.029 A 
ATOM     60  C   UNL A   1      44.628  25.679  31.139  1.00  0.00     0.049 A 
ATOM     61  H   UNL A   1      43.303  24.126  30.646  1.00  0.00     0.167 HD
ATOM     62  C   UNL A   1      44.001  26.643  33.310  1.00  0.00     0.074 A 
ATOM     63  C   UNL A   1      44.429  27.169  34.601  1.00  0.00     0.031 C 
ATOM     64  C   UNL A   1      44.480  25.590  32.591  1.00  0.00     0.031 A 
BRANCH  51  65
ATOM     65  C   UNL A   1      43.633  23.786  26.725  1.00  0.00    -0.014 A 
ATOM     66  C   UNL A   1      43.545  22.383  26.755  1.00  0.00     0.009 A 
ATOM     67  C   UNL A   1      44.128  24.342  25.530  1.00  0.00     0.009 A 
ATOM     68  C   UNL A   1      43.920  21.588  25.662  1.00  0.00     0.001 A 
ATOM     69  C   UNL A   1      44.490  23.555  24.426  1.00  0.00     0.001 A 
ATOM     70  C   UNL A   1      44.387  22.174  24.493  1.00  0.00     0.000 A 
ENDBRANCH  51  65
BRANCH  52  71
ATOM     71  C   UNL A   1      41.273  30.625  33.665  1.00  0.00    -0.014 A 
ATOM     72  C   UNL A   1      41.216  32.017  33.403  1.00  0.00     0.009 A 
ATOM     73  C   UNL A   1      40.051  29.948  33.801  1.00  0.00     0.009 A 
ATOM     74  C   UNL A   1      40.001  32.665  33.121  1.00  0.00     0.001 A 
ATOM     75  C   UNL A   1      38.837  30.601  33.513  1.00  0.00     0.001 A 
ATOM     76  C   UNL A   1      38.814  31.940  33.126  1.00  0.00     0.000 A 
ENDBRANCH  52  71
BRANCH  64  77
ATOM     77  C   UNL A   1      44.845  24.312  33.286  1.00  0.00    -0.014 A 
ATOM     78  C   UNL A   1      46.137  24.060  33.770  1.00  0.00     0.009 A 
ATOM     79  C   UNL A   1      43.831  23.409  33.656  1.00  0.00     0.009 A 
ATOM     80  C   UNL A   1      46.420  22.918  34.514  1.00  0.00     0.001 A 
ATOM     81  C   UNL A   1      44.094  22.310  34.467  1.00  0.00     0.001 A 
ATOM     82  C   UNL A   1      45.396  22.050  34.871  1.00  0.00     0.000 A 
ENDBRANCH  64  77
ENDBRANCH  38  39
ENDBRANCH  31  33
ENDBRANCH  30  31
ENDBRANCH  29  30
ENDBRANCH  28  29
ENDBRANCH  27  28
ENDBRANCH   1  27
TORSDOF 18
ENDMDL
MODEL 3
REMARK VINA RESULT:     -10.5      1.617      2.214
REMARK SMILES Cc1cc(C(=O)OCCOCCOC(=O)c2ccc(-c3c4nc(c(-c5ccccc5)c5ccc([nH]5)c(-c5ccccc5)c5nc(c(-c6ccccc6)c6ccc3[nH]6)C=C5)C=C4)cc2)ccc1NS(=O)(=O)c1ccc(C#N)cc1C
REMARK SMILES IDX 9 1 8 2 7 3 5 4 6 5 4 6 1 7 2 8 3 9 66 10 65 11 64 12 67 13
REMARK SMILES IDX 68 15 69 16 70 17 71 18 72 19 78 20 73 21 77 22 79 23 74 24
REMARK SMILES IDX 75 25 76 26 10 27 11 28 12 29 13 30 14 31 15 32 16 33 17 34
REMARK SMILES IDX 63 35 18 36 62 37 19 38 20 39 21 40 56 41 22 42 61 43 55 44
REMARK SMILES IDX 57 45 23 46 60 47 54 48 53 49 24 51 46 52 31 53 45 54 32 55
REMARK SMILES IDX 35 56 44 57 58 58 33 59 34 60 43 62 59 63 36 64 25 65 26 66
REMARK SMILES IDX 30 67 27 68 29 69 28 70 47 71 48 72 52 73 49 74 51 75 50 76
REMARK SMILES IDX 37 77 38 78 42 79 39 80 41 81 40 82
REMARK H PARENT 67 14 57 50 35 61
REMARK Flexibility Score: inf
ROOT
ATOM      1  C   UNL A   1      33.770  33.990  28.857  1.00  0.00     0.202 C 
ENDROOT
BRANCH   1   2
ATOM      2  C   UNL A   1      33.475  33.433  27.511  1.00  0.00     0.261 C 
BRANCH   2   3
ATOM      3  O   UNL A   1      33.238  32.011  27.516  1.00  0.00    -0.460 OA
BRANCH   3   4
ATOM      4  C   UNL A   1      32.125  31.540  26.888  1.00  0.00     0.338 C 
ATOM      5  O   UNL A   1      31.074  32.115  26.683  1.00  0.00    -0.246 OA
BRANCH   4   6
ATOM      6  C   UNL A   1      32.393  30.121  26.611  1.00  0.00     0.060 A 
ATOM      7  C   UNL A   1      33.997  27.938  24.018  1.00  0.00     0.046 C 
ATOM      8  C   UNL A   1      33.059  28.398  25.095  1.00  0.00    -0.026 A 
ATOM      9  C   UNL A   1      33.084  29.745  25.470  1.00  0.00     0.021 A 
ATOM     10  C   UNL A   1      32.242  27.502  25.817  1.00  0.00     0.052 A 
ATOM     11  C   UNL A   1      31.889  27.815  27.117  1.00  0.00     0.028 A 
ATOM     12  C   UNL A   1      31.917  29.142  27.493  1.00  0.00     0.018 A 
BRANCH  10  13
ATOM     13  N   UNL A   1      31.329  26.729  25.035  1.00  0.00    -0.279 N 
ATOM     14  H   UNL A   1      30.791  27.227  24.376  1.00  0.00     0.180 HD
BRANCH  13  15
ATOM     15  S   UNL A   1      31.063  25.078  25.106  1.00  0.00     0.262 S 
ATOM     16  O   UNL A   1      30.415  24.872  26.386  1.00  0.00    -0.201 OA
ATOM     17  O   UNL A   1      30.425  24.689  23.866  1.00  0.00    -0.201 OA
BRANCH  15  18
ATOM     18  C   UNL A   1      32.616  24.152  25.194  1.00  0.00     0.090 A 
ATOM     19  C   UNL A   1      33.015  23.470  26.351  1.00  0.00     0.024 A 
ATOM     20  C   UNL A   1      33.525  24.256  24.115  1.00  0.00    -0.029 A 
ATOM     21  C   UNL A   1      34.353  23.065  26.516  1.00  0.00     0.021 A 
ATOM     22  C   UNL A   1      34.857  23.825  24.289  1.00  0.00     0.024 A 
ATOM     23  C   UNL A   1      33.146  24.721  22.735  1.00  0.00     0.046 C 
ATOM     24  C   UNL A   1      35.284  23.273  25.497  1.00  0.00     0.052 A 
BRANCH  24  25
ATOM     25  C   UNL A   1      36.669  22.925  25.672  1.00  0.00     0.099 C 
ATOM     26  N   UNL A   1      37.778  22.630  25.796  1.00  0.00    -0.192 NA
ENDBRANCH  24  25
ENDBRANCH  15  18
ENDBRANCH  13  15
ENDBRANCH  10  13
ENDBRANCH   4   6
ENDBRANCH   3   4
ENDBRANCH   2   3
ENDBRANCH   1   2
BRANCH   1  27
ATOM     27  O   UNL A   1      33.685  35.394  28.692  1.00  0.00    -0.374 OA
BRANCH  27  28
ATOM     28  C   UNL A   1      32.906  36.071  29.650  1.00  0.00     0.202 C 
BRANCH  28  29
ATOM     29  C   UNL A   1      33.054  35.442  31.039  1.00  0.00     0.261 C 
BRANCH  29  30
ATOM     30  O   UNL A   1      34.205  36.013  31.709  1.00  0.00    -0.460 OA
BRANCH  30  31
ATOM     31  C   UNL A   1      34.730  35.313  32.757  1.00  0.00     0.338 C 
ATOM     32  O   UNL A   1      34.921  35.759  33.877  1.00  0.00    -0.246 OA
BRANCH  31  33
ATOM     33  C   UNL A   1      35.330  34.030  32.267  1.00  0.00     0.060 A 
ATOM     34  C   UNL A   1      35.212  32.846  33.022  1.00  0.00     0.016 A 
ATOM     35  C   UNL A   1      36.310  34.120  31.287  1.00  0.00     0.016 A 
ATOM     36  C   UNL A   1      36.198  31.845  32.932  1.00  0.00     0.010 A 
ATOM     37  C   UNL A   1      37.348  33.218  31.320  1.00  0.00     0.010 A 
ATOM     38  C   UNL A   1      37.327  32.091  32.162  1.00  0.00    -0.014 A 
BRANCH  38  39
ATOM     39  C   UNL A   1      38.588  31.332  32.159  1.00  0.00     0.031 A 
ATOM     40  C   UNL A   1      38.611  30.140  31.285  1.00  0.00     0.074 A 
ATOM     41  C   UNL A   1      39.746  31.853  32.651  1.00  0.00     0.049 A 
ATOM     42  N   UNL A   1      39.588  29.313  31.249  1.00  0.00    -0.248 NA
ATOM     43  C   UNL A   1      37.523  29.745  30.383  1.00  0.00     0.031 C 
ATOM     44  C   UNL A   1      41.143  31.569  32.296  1.00  0.00     0.029 A 
ATOM     45  N   UNL A   1      39.920  32.866  33.594  1.00  0.00    -0.354 N 
ATOM     46  C   UNL A   1      39.437  28.537  30.128  1.00  0.00     0.074 A 
ATOM     47  C   UNL A   1      38.084  28.747  29.696  1.00  0.00     0.031 C 
ATOM     48  C   UNL A   1      41.974  32.110  33.215  1.00  0.00     0.029 A 
ATOM     49  C   UNL A   1      41.143  32.706  34.251  1.00  0.00     0.049 A 
ATOM     50  H   UNL A   1      39.275  33.588  33.771  1.00  0.00     0.167 HD
ATOM     51  C   UNL A   1      40.546  27.921  29.640  1.00  0.00     0.031 A 
ATOM     52  C   UNL A   1      41.160  32.515  35.597  1.00  0.00     0.031 A 
ATOM     53  C   UNL A   1      41.681  28.132  30.552  1.00  0.00     0.049 A 
ATOM     54  C   UNL A   1      41.585  31.085  35.764  1.00  0.00     0.074 A 
ATOM     55  C   UNL A   1      42.803  28.940  30.497  1.00  0.00     0.029 A 
ATOM     56  N   UNL A   1      41.532  27.764  31.891  1.00  0.00    -0.354 N 
ATOM     57  N   UNL A   1      41.340  30.170  34.860  1.00  0.00    -0.248 NA
ATOM     58  C   UNL A   1      42.507  30.637  36.801  1.00  0.00     0.031 C 
ATOM     59  C   UNL A   1      43.263  29.129  31.840  1.00  0.00     0.029 A 
ATOM     60  C   UNL A   1      42.432  28.428  32.706  1.00  0.00     0.049 A 
ATOM     61  H   UNL A   1      40.869  27.113  32.214  1.00  0.00     0.167 HD
ATOM     62  C   UNL A   1      42.206  29.140  35.046  1.00  0.00     0.074 A 
ATOM     63  C   UNL A   1      42.855  29.430  36.320  1.00  0.00     0.031 C 
ATOM     64  C   UNL A   1      42.455  28.152  34.142  1.00  0.00     0.031 A 
BRANCH  51  65
ATOM     65  C   UNL A   1      40.663  27.291  28.274  1.00  0.00    -0.014 A 
ATOM     66  C   UNL A   1      40.134  26.003  28.078  1.00  0.00     0.009 A 
ATOM     67  C   UNL A   1      41.316  27.859  27.163  1.00  0.00     0.009 A 
ATOM     68  C   UNL A   1      40.244  25.329  26.853  1.00  0.00     0.001 A 
ATOM     69  C   UNL A   1      41.416  27.200  25.929  1.00  0.00     0.001 A 
ATOM     70  C   UNL A   1      40.879  25.930  25.774  1.00  0.00     0.000 A 
ENDBRANCH  51  65
BRANCH  52  71
ATOM     71  C   UNL A   1      40.070  33.306  36.272  1.00  0.00    -0.014 A 
ATOM     72  C   UNL A   1      39.005  32.571  36.851  1.00  0.00     0.009 A 
ATOM     73  C   UNL A   1      40.311  34.593  36.778  1.00  0.00     0.009 A 
ATOM     74  C   UNL A   1      38.325  33.034  37.992  1.00  0.00     0.001 A 
ATOM     75  C   UNL A   1      39.631  35.049  37.923  1.00  0.00     0.001 A 
ATOM     76  C   UNL A   1      38.678  34.253  38.559  1.00  0.00     0.000 A 
ENDBRANCH  52  71
BRANCH  64  77
ATOM     77  C   UNL A   1      42.738  26.758  34.615  1.00  0.00    -0.014 A 
ATOM     78  C   UNL A   1      44.008  26.170  34.511  1.00  0.00     0.009 A 
ATOM     79  C   UNL A   1      41.770  26.072  35.372  1.00  0.00     0.009 A 
ATOM     80  C   UNL A   1      44.272  24.920  35.063  1.00  0.00     0.001 A 
ATOM     81  C   UNL A   1      42.057  24.860  35.994  1.00  0.00     0.001 A 
ATOM     82  C   UNL A   1      43.300  24.272  35.814  1.00  0.00     0.000 A 
ENDBRANCH  64  77
ENDBRANCH  38  39
ENDBRANCH  31  33
ENDBRANCH  30  31
ENDBRANCH  29  30
ENDBRANCH  28  29
ENDBRANCH  27  28
ENDBRANCH   1  27
TORSDOF 18
ENDMDL
