MODEL 1
REMARK VINA RESULT:      -9.2      0.000      0.000
REMARK SMILES CC(C)(C(=O)OCCOCCOC(=O)c1ccc(-c2c3nc(c(-c4ccccc4)c4ccc([nH]4)c(-c4ccccc4)c4nc(c(-c5ccccc5)c5ccc2[nH]5)C=C4)C=C3)cc1)c1ccc(C(=O)CCCCl)cc1
REMARK SMILES IDX 7 1 6 2 4 3 5 4 2 5 1 6 3 7 63 8 64 9 74 10 65 11 73 12
REMARK SMILES IDX 66 13 67 14 68 15 69 16 70 17 71 18 72 19 8 20 9 21 10 22
REMARK SMILES IDX 11 23 12 24 13 25 14 26 15 27 16 28 62 29 17 30 61 31 18 32
REMARK SMILES IDX 19 33 20 34 55 35 21 36 60 37 54 38 56 39 22 40 59 41 53 42
REMARK SMILES IDX 52 43 23 45 45 46 30 47 44 48 31 49 34 50 43 51 57 52 32 53
REMARK SMILES IDX 33 54 42 56 58 57 35 58 24 59 25 60 29 61 26 62 28 63 27 64
REMARK SMILES IDX 46 65 47 66 51 67 48 68 50 69 49 70 36 71 37 72 41 73 38 74
REMARK SMILES IDX 40 75 39 76
REMARK H PARENT 56 44 34 55
REMARK Flexibility Score: inf
ROOT
ATOM      1  C   UNL A   1      33.925  27.623  25.222  1.00  0.00     0.261 C 
ENDROOT
BRANCH   1   2
ATOM      2  O   UNL A   1      33.755  26.629  24.199  1.00  0.00    -0.463 OA
BRANCH   2   3
ATOM      3  C   UNL A   1      33.124  27.048  23.067  1.00  0.00     0.316 C 
ATOM      4  O   UNL A   1      33.474  28.033  22.423  1.00  0.00    -0.251 OA
BRANCH   3   5
ATOM      5  C   UNL A   1      31.935  26.134  22.664  1.00  0.00     0.087 C 
ATOM      6  C   UNL A   1      30.602  26.714  23.201  1.00  0.00     0.028 C 
ATOM      7  C   UNL A   1      31.869  26.187  21.125  1.00  0.00     0.028 C 
BRANCH   5   8
ATOM      8  C   UNL A   1      32.136  24.659  23.099  1.00  0.00    -0.031 A 
ATOM      9  C   UNL A   1      31.393  24.085  24.146  1.00  0.00     0.005 A 
ATOM     10  C   UNL A   1      33.112  23.842  22.497  1.00  0.00     0.005 A 
ATOM     11  C   UNL A   1      31.557  22.741  24.511  1.00  0.00     0.012 A 
ATOM     12  C   UNL A   1      33.289  22.501  22.871  1.00  0.00     0.012 A 
ATOM     13  C   UNL A   1      32.484  21.927  23.853  1.00  0.00     0.018 A 
BRANCH  13  14
ATOM     14  C   UNL A   1      32.539  20.478  24.221  1.00  0.00     0.162 C 
ATOM     15  O   UNL A   1      32.186  19.636  23.394  1.00  0.00    -0.294 OA
BRANCH  14  16
ATOM     16  C   UNL A   1      33.094  20.038  25.565  1.00  0.00     0.082 C 
BRANCH  16  17
ATOM     17  C   UNL A   1      34.399  20.755  25.920  1.00  0.00     0.024 C 
BRANCH  17  18
ATOM     18  C   UNL A   1      34.319  21.731  27.091  1.00  0.00     0.110 C 
ATOM     19  Cl  UNL A   1      34.441  23.425  26.556  1.00  0.00    -0.127 Cl
ENDBRANCH  17  18
ENDBRANCH  16  17
ENDBRANCH  14  16
ENDBRANCH  13  14
ENDBRANCH   5   8
ENDBRANCH   3   5
ENDBRANCH   2   3
ENDBRANCH   1   2
BRANCH   1  20
ATOM     20  C   UNL A   1      32.827  27.528  26.287  1.00  0.00     0.202 C 
BRANCH  20  21
ATOM     21  O   UNL A   1      31.769  28.480  26.204  1.00  0.00    -0.374 OA
BRANCH  21  22
ATOM     22  C   UNL A   1      32.000  29.668  25.446  1.00  0.00     0.202 C 
BRANCH  22  23
ATOM     23  C   UNL A   1      31.842  31.007  26.182  1.00  0.00     0.261 C 
BRANCH  23  24
ATOM     24  O   UNL A   1      32.548  31.047  27.438  1.00  0.00    -0.460 OA
BRANCH  24  25
ATOM     25  C   UNL A   1      33.373  32.112  27.583  1.00  0.00     0.338 C 
ATOM     26  O   UNL A   1      33.057  33.295  27.620  1.00  0.00    -0.246 OA
BRANCH  25  27
ATOM     27  C   UNL A   1      34.749  31.676  27.880  1.00  0.00     0.060 A 
ATOM     28  C   UNL A   1      34.952  30.310  28.111  1.00  0.00     0.016 A 
ATOM     29  C   UNL A   1      35.792  32.587  28.057  1.00  0.00     0.016 A 
ATOM     30  C   UNL A   1      36.186  29.856  28.570  1.00  0.00     0.010 A 
ATOM     31  C   UNL A   1      37.031  32.128  28.526  1.00  0.00     0.010 A 
ATOM     32  C   UNL A   1      37.221  30.766  28.822  1.00  0.00    -0.014 A 
BRANCH  32  33
ATOM     33  C   UNL A   1      38.437  30.279  29.522  1.00  0.00     0.031 A 
ATOM     34  C   UNL A   1      38.639  30.614  30.976  1.00  0.00     0.074 A 
ATOM     35  C   UNL A   1      39.304  29.461  28.897  1.00  0.00     0.049 A 
ATOM     36  N   UNL A   1      39.565  30.194  31.801  1.00  0.00    -0.248 NA
ATOM     37  C   UNL A   1      37.667  31.538  31.580  1.00  0.00     0.031 C 
ATOM     38  C   UNL A   1      39.210  29.036  27.502  1.00  0.00     0.029 A 
ATOM     39  N   UNL A   1      40.426  28.828  29.369  1.00  0.00    -0.354 N 
ATOM     40  C   UNL A   1      39.277  30.787  33.025  1.00  0.00     0.074 A 
ATOM     41  C   UNL A   1      38.119  31.630  32.824  1.00  0.00     0.031 C 
ATOM     42  C   UNL A   1      40.229  28.203  27.231  1.00  0.00     0.029 A 
ATOM     43  C   UNL A   1      41.053  28.047  28.428  1.00  0.00     0.049 A 
ATOM     44  H   UNL A   1      40.752  28.925  30.292  1.00  0.00     0.167 HD
ATOM     45  C   UNL A   1      39.908  30.633  34.214  1.00  0.00     0.031 A 
ATOM     46  C   UNL A   1      42.162  27.290  28.522  1.00  0.00     0.031 A 
ATOM     47  C   UNL A   1      41.075  29.817  34.419  1.00  0.00     0.049 A 
ATOM     48  C   UNL A   1      42.879  27.180  29.840  1.00  0.00     0.074 A 
ATOM     49  C   UNL A   1      41.787  29.605  35.588  1.00  0.00     0.029 A 
ATOM     50  N   UNL A   1      41.704  29.080  33.429  1.00  0.00    -0.354 N 
ATOM     51  N   UNL A   1      42.575  27.724  30.994  1.00  0.00    -0.248 NA
ATOM     52  C   UNL A   1      44.082  26.337  29.870  1.00  0.00     0.031 C 
ATOM     53  C   UNL A   1      42.874  28.775  35.295  1.00  0.00     0.029 A 
ATOM     54  C   UNL A   1      42.808  28.428  33.954  1.00  0.00     0.049 A 
ATOM     55  H   UNL A   1      41.410  29.026  32.491  1.00  0.00     0.167 HD
ATOM     56  C   UNL A   1      43.538  27.274  31.889  1.00  0.00     0.074 A 
ATOM     57  C   UNL A   1      44.419  26.393  31.151  1.00  0.00     0.031 C 
ATOM     58  C   UNL A   1      43.683  27.567  33.205  1.00  0.00     0.031 A 
BRANCH  45  59
ATOM     59  C   UNL A   1      39.351  31.385  35.390  1.00  0.00    -0.014 A 
ATOM     60  C   UNL A   1      38.332  30.833  36.184  1.00  0.00     0.009 A 
ATOM     61  C   UNL A   1      39.875  32.641  35.732  1.00  0.00     0.009 A 
ATOM     62  C   UNL A   1      37.830  31.539  37.280  1.00  0.00     0.001 A 
ATOM     63  C   UNL A   1      39.388  33.332  36.842  1.00  0.00     0.001 A 
ATOM     64  C   UNL A   1      38.362  32.785  37.611  1.00  0.00     0.000 A 
ENDBRANCH  45  59
BRANCH  46  65
ATOM     65  C   UNL A   1      42.677  26.575  27.325  1.00  0.00    -0.014 A 
ATOM     66  C   UNL A   1      42.122  25.352  26.918  1.00  0.00     0.009 A 
ATOM     67  C   UNL A   1      43.754  27.108  26.597  1.00  0.00     0.009 A 
ATOM     68  C   UNL A   1      42.652  24.664  25.825  1.00  0.00     0.001 A 
ATOM     69  C   UNL A   1      44.264  26.431  25.488  1.00  0.00     0.001 A 
ATOM     70  C   UNL A   1      43.720  25.206  25.109  1.00  0.00     0.000 A 
ENDBRANCH  46  65
BRANCH  58  71
ATOM     71  C   UNL A   1      44.828  26.913  33.927  1.00  0.00    -0.014 A 
ATOM     72  C   UNL A   1      46.085  27.534  34.010  1.00  0.00     0.009 A 
ATOM     73  C   UNL A   1      44.645  25.667  34.545  1.00  0.00     0.009 A 
ATOM     74  C   UNL A   1      47.146  26.900  34.658  1.00  0.00     0.001 A 
ATOM     75  C   UNL A   1      45.700  25.046  35.217  1.00  0.00     0.001 A 
ATOM     76  C   UNL A   1      46.952  25.658  35.263  1.00  0.00     0.000 A 
ENDBRANCH  58  71
ENDBRANCH  32  33
ENDBRANCH  25  27
ENDBRANCH  24  25
ENDBRANCH  23  24
ENDBRANCH  22  23
ENDBRANCH  21  22
ENDBRANCH  20  21
ENDBRANCH   1  20
TORSDOF 19
ENDMDL
MODEL 2
REMARK VINA RESULT:      -9.2      2.006      3.049
REMARK SMILES CC(C)(C(=O)OCCOCCOC(=O)c1ccc(-c2c3nc(c(-c4ccccc4)c4ccc([nH]4)c(-c4ccccc4)c4nc(c(-c5ccccc5)c5ccc2[nH]5)C=C4)C=C3)cc1)c1ccc(C(=O)CCCCl)cc1
REMARK SMILES IDX 7 1 6 2 4 3 5 4 2 5 1 6 3 7 63 8 64 9 74 10 65 11 73 12
REMARK SMILES IDX 66 13 67 14 68 15 69 16 70 17 71 18 72 19 8 20 9 21 10 22
REMARK SMILES IDX 11 23 12 24 13 25 14 26 15 27 16 28 62 29 17 30 61 31 18 32
REMARK SMILES IDX 19 33 20 34 55 35 21 36 60 37 54 38 56 39 22 40 59 41 53 42
REMARK SMILES IDX 52 43 23 45 45 46 30 47 44 48 31 49 34 50 43 51 57 52 32 53
REMARK SMILES IDX 33 54 42 56 58 57 35 58 24 59 25 60 29 61 26 62 28 63 27 64
REMARK SMILES IDX 46 65 47 66 51 67 48 68 50 69 49 70 36 71 37 72 41 73 38 74
REMARK SMILES IDX 40 75 39 76
REMARK H PARENT 56 44 34 55
REMARK Flexibility Score: inf
ROOT
ATOM      1  C   UNL A   1      33.022  26.131  25.349  1.00  0.00     0.261 C 
ENDROOT
BRANCH   1   2
ATOM      2  O   UNL A   1      32.862  24.989  24.493  1.00  0.00    -0.463 OA
BRANCH   2   3
ATOM      3  C   UNL A   1      33.001  23.775  25.095  1.00  0.00     0.316 C 
ATOM      4  O   UNL A   1      32.432  23.470  26.140  1.00  0.00    -0.251 OA
BRANCH   3   5
ATOM      5  C   UNL A   1      33.929  22.812  24.308  1.00  0.00     0.087 C 
ATOM      6  C   UNL A   1      33.338  21.380  24.297  1.00  0.00     0.028 C 
ATOM      7  C   UNL A   1      33.921  23.320  22.852  1.00  0.00     0.028 C 
BRANCH   5   8
ATOM      8  C   UNL A   1      35.391  22.827  24.827  1.00  0.00    -0.031 A 
ATOM      9  C   UNL A   1      35.919  23.924  25.530  1.00  0.00     0.005 A 
ATOM     10  C   UNL A   1      36.272  21.759  24.570  1.00  0.00     0.005 A 
ATOM     11  C   UNL A   1      37.232  23.915  26.024  1.00  0.00     0.012 A 
ATOM     12  C   UNL A   1      37.591  21.755  25.050  1.00  0.00     0.012 A 
ATOM     13  C   UNL A   1      38.069  22.815  25.817  1.00  0.00     0.018 A 
BRANCH  13  14
ATOM     14  C   UNL A   1      39.421  22.826  26.456  1.00  0.00     0.162 C 
ATOM     15  O   UNL A   1      39.806  23.847  27.028  1.00  0.00    -0.294 OA
BRANCH  14  16
ATOM     16  C   UNL A   1      40.283  21.575  26.471  1.00  0.00     0.082 C 
BRANCH  16  17
ATOM     17  C   UNL A   1      41.016  21.388  27.803  1.00  0.00     0.024 C 
BRANCH  17  18
ATOM     18  C   UNL A   1      42.521  21.641  27.769  1.00  0.00     0.110 C 
ATOM     19  Cl  UNL A   1      43.078  22.535  29.203  1.00  0.00    -0.127 Cl
ENDBRANCH  17  18
ENDBRANCH  16  17
ENDBRANCH  14  16
ENDBRANCH  13  14
ENDBRANCH   5   8
ENDBRANCH   3   5
ENDBRANCH   2   3
ENDBRANCH   1   2
BRANCH   1  20
ATOM     20  C   UNL A   1      31.811  27.065  25.274  1.00  0.00     0.202 C 
BRANCH  20  21
ATOM     21  O   UNL A   1      31.887  28.277  26.022  1.00  0.00    -0.374 OA
BRANCH  21  22
ATOM     22  C   UNL A   1      31.730  29.508  25.315  1.00  0.00     0.202 C 
BRANCH  22  23
ATOM     23  C   UNL A   1      31.774  30.800  26.144  1.00  0.00     0.261 C 
BRANCH  23  24
ATOM     24  O   UNL A   1      32.677  30.720  27.266  1.00  0.00    -0.460 OA
BRANCH  24  25
ATOM     25  C   UNL A   1      33.447  31.820  27.445  1.00  0.00     0.338 C 
ATOM     26  O   UNL A   1      33.073  32.986  27.487  1.00  0.00    -0.246 OA
BRANCH  25  27
ATOM     27  C   UNL A   1      34.833  31.446  27.773  1.00  0.00     0.060 A 
ATOM     28  C   UNL A   1      35.090  30.092  28.018  1.00  0.00     0.016 A 
ATOM     29  C   UNL A   1      35.832  32.403  27.965  1.00  0.00     0.016 A 
ATOM     30  C   UNL A   1      36.333  29.695  28.507  1.00  0.00     0.010 A 
ATOM     31  C   UNL A   1      37.080  32.001  28.463  1.00  0.00     0.010 A 
ATOM     32  C   UNL A   1      37.322  30.651  28.774  1.00  0.00    -0.014 A 
BRANCH  32  33
ATOM     33  C   UNL A   1      38.543  30.222  29.501  1.00  0.00     0.031 A 
ATOM     34  C   UNL A   1      38.689  30.555  30.962  1.00  0.00     0.074 A 
ATOM     35  C   UNL A   1      39.467  29.454  28.895  1.00  0.00     0.049 A 
ATOM     36  N   UNL A   1      39.615  30.176  31.809  1.00  0.00    -0.248 NA
ATOM     37  C   UNL A   1      37.656  31.423  31.547  1.00  0.00     0.031 C 
ATOM     38  C   UNL A   1      39.431  29.035  27.495  1.00  0.00     0.029 A 
ATOM     39  N   UNL A   1      40.608  28.876  29.392  1.00  0.00    -0.354 N 
ATOM     40  C   UNL A   1      39.264  30.745  33.028  1.00  0.00     0.074 A 
ATOM     41  C   UNL A   1      38.070  31.529  32.802  1.00  0.00     0.031 C 
ATOM     42  C   UNL A   1      40.498  28.258  27.246  1.00  0.00     0.029 A 
ATOM     43  C   UNL A   1      41.298  28.135  28.463  1.00  0.00     0.049 A 
ATOM     44  H   UNL A   1      40.904  28.982  30.324  1.00  0.00     0.167 HD
ATOM     45  C   UNL A   1      39.871  30.614  34.233  1.00  0.00     0.031 A 
ATOM     46  C   UNL A   1      42.442  27.436  28.581  1.00  0.00     0.031 A 
ATOM     47  C   UNL A   1      41.073  29.857  34.464  1.00  0.00     0.049 A 
ATOM     48  C   UNL A   1      43.129  27.353  29.917  1.00  0.00     0.074 A 
ATOM     49  C   UNL A   1      41.764  29.674  35.649  1.00  0.00     0.029 A 
ATOM     50  N   UNL A   1      41.765  29.161  33.486  1.00  0.00    -0.354 N 
ATOM     51  N   UNL A   1      42.767  27.871  31.066  1.00  0.00    -0.248 NA
ATOM     52  C   UNL A   1      44.373  26.572  29.973  1.00  0.00     0.031 C 
ATOM     53  C   UNL A   1      42.900  28.902  35.380  1.00  0.00     0.029 A 
ATOM     54  C   UNL A   1      42.887  28.563  34.036  1.00  0.00     0.049 A 
ATOM     55  H   UNL A   1      41.499  29.100  32.540  1.00  0.00     0.167 HD
ATOM     56  C   UNL A   1      43.729  27.464  31.983  1.00  0.00     0.074 A 
ATOM     57  C   UNL A   1      44.673  26.635  31.263  1.00  0.00     0.031 C 
ATOM     58  C   UNL A   1      43.824  27.754  33.304  1.00  0.00     0.031 A 
BRANCH  45  59
ATOM     59  C   UNL A   1      39.246  31.328  35.399  1.00  0.00    -0.014 A 
ATOM     60  C   UNL A   1      38.269  30.701  36.190  1.00  0.00     0.009 A 
ATOM     61  C   UNL A   1      39.664  32.625  35.735  1.00  0.00     0.009 A 
ATOM     62  C   UNL A   1      37.703  31.372  37.277  1.00  0.00     0.001 A 
ATOM     63  C   UNL A   1      39.114  33.282  36.835  1.00  0.00     0.001 A 
ATOM     64  C   UNL A   1      38.129  32.659  37.601  1.00  0.00     0.000 A 
ENDBRANCH  45  59
BRANCH  46  65
ATOM     65  C   UNL A   1      43.024  26.757  27.394  1.00  0.00    -0.014 A 
ATOM     66  C   UNL A   1      42.782  25.397  27.146  1.00  0.00     0.009 A 
ATOM     67  C   UNL A   1      43.854  27.471  26.513  1.00  0.00     0.009 A 
ATOM     68  C   UNL A   1      43.380  24.760  26.057  1.00  0.00     0.001 A 
ATOM     69  C   UNL A   1      44.429  26.837  25.410  1.00  0.00     0.001 A 
ATOM     70  C   UNL A   1      44.199  25.481  25.188  1.00  0.00     0.000 A 
ENDBRANCH  46  65
BRANCH  58  71
ATOM     71  C   UNL A   1      44.982  27.154  34.052  1.00  0.00    -0.014 A 
ATOM     72  C   UNL A   1      46.213  27.824  34.145  1.00  0.00     0.009 A 
ATOM     73  C   UNL A   1      44.838  25.910  34.684  1.00  0.00     0.009 A 
ATOM     74  C   UNL A   1      47.288  27.240  34.818  1.00  0.00     0.001 A 
ATOM     75  C   UNL A   1      45.905  25.339  35.380  1.00  0.00     0.001 A 
ATOM     76  C   UNL A   1      47.132  25.999  35.436  1.00  0.00     0.000 A 
ENDBRANCH  58  71
ENDBRANCH  32  33
ENDBRANCH  25  27
ENDBRANCH  24  25
ENDBRANCH  23  24
ENDBRANCH  22  23
ENDBRANCH  21  22
ENDBRANCH  20  21
ENDBRANCH   1  20
TORSDOF 19
ENDMDL
MODEL 3
REMARK VINA RESULT:      -9.0      3.872      8.272
REMARK SMILES CC(C)(C(=O)OCCOCCOC(=O)c1ccc(-c2c3nc(c(-c4ccccc4)c4ccc([nH]4)c(-c4ccccc4)c4nc(c(-c5ccccc5)c5ccc2[nH]5)C=C4)C=C3)cc1)c1ccc(C(=O)CCCCl)cc1
REMARK SMILES IDX 7 1 6 2 4 3 5 4 2 5 1 6 3 7 63 8 64 9 74 10 65 11 73 12
REMARK SMILES IDX 66 13 67 14 68 15 69 16 70 17 71 18 72 19 8 20 9 21 10 22
REMARK SMILES IDX 11 23 12 24 13 25 14 26 15 27 16 28 62 29 17 30 61 31 18 32
REMARK SMILES IDX 19 33 20 34 55 35 21 36 60 37 54 38 56 39 22 40 59 41 53 42
REMARK SMILES IDX 52 43 23 45 45 46 30 47 44 48 31 49 34 50 43 51 57 52 32 53
REMARK SMILES IDX 33 54 42 56 58 57 35 58 24 59 25 60 29 61 26 62 28 63 27 64
REMARK SMILES IDX 46 65 47 66 51 67 48 68 50 69 49 70 36 71 37 72 41 73 38 74
REMARK SMILES IDX 40 75 39 76
REMARK H PARENT 56 44 34 55
REMARK Flexibility Score: inf
ROOT
ATOM      1  C   UNL A   1      36.347  23.573  24.855  1.00  0.00     0.261 C 
ENDROOT
BRANCH   1   2
ATOM      2  O   UNL A   1      35.196  24.265  25.365  1.00  0.00    -0.463 OA
BRANCH   2   3
ATOM      3  C   UNL A   1      34.261  24.618  24.439  1.00  0.00     0.316 C 
ATOM      4  O   UNL A   1      34.523  25.258  23.425  1.00  0.00    -0.251 OA
BRANCH   3   5
ATOM      5  C   UNL A   1      32.839  24.104  24.789  1.00  0.00     0.087 C 
ATOM      6  C   UNL A   1      32.378  24.678  26.153  1.00  0.00     0.028 C 
ATOM      7  C   UNL A   1      31.905  24.687  23.710  1.00  0.00     0.028 C 
BRANCH   5   8
ATOM      8  C   UNL A   1      32.732  22.558  24.751  1.00  0.00    -0.031 A 
ATOM      9  C   UNL A   1      32.403  21.864  23.573  1.00  0.00     0.005 A 
ATOM     10  C   UNL A   1      32.907  21.780  25.911  1.00  0.00     0.005 A 
ATOM     11  C   UNL A   1      32.340  20.464  23.539  1.00  0.00     0.012 A 
ATOM     12  C   UNL A   1      32.829  20.379  25.884  1.00  0.00     0.012 A 
ATOM     13  C   UNL A   1      32.586  19.707  24.688  1.00  0.00     0.018 A 
BRANCH  13  14
ATOM     14  C   UNL A   1      32.603  18.216  24.562  1.00  0.00     0.162 C 
ATOM     15  O   UNL A   1      31.813  17.549  25.230  1.00  0.00    -0.294 OA
BRANCH  14  16
ATOM     16  C   UNL A   1      33.527  17.532  23.570  1.00  0.00     0.082 C 
BRANCH  16  17
ATOM     17  C   UNL A   1      34.912  17.250  24.160  1.00  0.00     0.024 C 
BRANCH  17  18
ATOM     18  C   UNL A   1      34.950  16.227  25.293  1.00  0.00     0.110 C 
ATOM     19  Cl  UNL A   1      33.629  15.041  25.165  1.00  0.00    -0.127 Cl
ENDBRANCH  17  18
ENDBRANCH  16  17
ENDBRANCH  14  16
ENDBRANCH  13  14
ENDBRANCH   5   8
ENDBRANCH   3   5
ENDBRANCH   2   3
ENDBRANCH   1   2
BRANCH   1  20
ATOM     20  C   UNL A   1      36.534  22.214  25.539  1.00  0.00     0.202 C 
BRANCH  20  21
ATOM     21  O   UNL A   1      36.644  21.077  24.685  1.00  0.00    -0.374 OA
BRANCH  21  22
ATOM     22  C   UNL A   1      37.841  20.302  24.759  1.00  0.00     0.202 C 
BRANCH  22  23
ATOM     23  C   UNL A   1      39.020  20.911  25.534  1.00  0.00     0.261 C 
BRANCH  23  24
ATOM     24  O   UNL A   1      39.767  19.933  26.285  1.00  0.00    -0.460 OA
BRANCH  24  25
ATOM     25  C   UNL A   1      41.099  19.932  26.035  1.00  0.00     0.338 C 
ATOM     26  O   UNL A   1      41.720  19.140  25.336  1.00  0.00    -0.246 OA
BRANCH  25  27
ATOM     27  C   UNL A   1      41.738  21.143  26.578  1.00  0.00     0.060 A 
ATOM     28  C   UNL A   1      41.646  21.351  27.959  1.00  0.00     0.016 A 
ATOM     29  C   UNL A   1      42.301  22.117  25.751  1.00  0.00     0.016 A 
ATOM     30  C   UNL A   1      42.070  22.557  28.512  1.00  0.00     0.010 A 
ATOM     31  C   UNL A   1      42.721  23.333  26.309  1.00  0.00     0.010 A 
ATOM     32  C   UNL A   1      42.570  23.573  27.687  1.00  0.00    -0.014 A 
BRANCH  32  33
ATOM     33  C   UNL A   1      42.796  24.916  28.277  1.00  0.00     0.031 A 
ATOM     34  C   UNL A   1      44.196  25.345  28.626  1.00  0.00     0.074 A 
ATOM     35  C   UNL A   1      41.778  25.787  28.406  1.00  0.00     0.049 A 
ATOM     36  N   UNL A   1      44.627  26.512  29.039  1.00  0.00    -0.248 NA
ATOM     37  C   UNL A   1      45.251  24.329  28.488  1.00  0.00     0.031 C 
ATOM     38  C   UNL A   1      40.381  25.509  28.078  1.00  0.00     0.029 A 
ATOM     39  N   UNL A   1      41.772  27.091  28.834  1.00  0.00    -0.354 N 
ATOM     40  C   UNL A   1      46.001  26.374  29.191  1.00  0.00     0.074 A 
ATOM     41  C   UNL A   1      46.327  25.002  28.871  1.00  0.00     0.031 C 
ATOM     42  C   UNL A   1      39.652  26.614  28.308  1.00  0.00     0.029 A 
ATOM     43  C   UNL A   1      40.528  27.672  28.810  1.00  0.00     0.049 A 
ATOM     44  H   UNL A   1      42.582  27.566  29.129  1.00  0.00     0.167 HD
ATOM     45  C   UNL A   1      46.915  27.309  29.549  1.00  0.00     0.031 A 
ATOM     46  C   UNL A   1      40.138  28.914  29.152  1.00  0.00     0.031 A 
ATOM     47  C   UNL A   1      46.598  28.670  29.894  1.00  0.00     0.049 A 
ATOM     48  C   UNL A   1      41.164  29.918  29.602  1.00  0.00     0.074 A 
ATOM     49  C   UNL A   1      47.457  29.686  30.277  1.00  0.00     0.029 A 
ATOM     50  N   UNL A   1      45.320  29.203  29.903  1.00  0.00    -0.354 N 
ATOM     51  N   UNL A   1      42.464  29.780  29.711  1.00  0.00    -0.248 NA
ATOM     52  C   UNL A   1      40.668  31.255  29.960  1.00  0.00     0.031 C 
ATOM     53  C   UNL A   1      46.692  30.823  30.559  1.00  0.00     0.029 A 
ATOM     54  C   UNL A   1      45.362  30.528  30.303  1.00  0.00     0.049 A 
ATOM     55  H   UNL A   1      44.501  28.712  29.660  1.00  0.00     0.167 HD
ATOM     56  C   UNL A   1      42.941  31.016  30.132  1.00  0.00     0.074 A 
ATOM     57  C   UNL A   1      41.796  31.897  30.232  1.00  0.00     0.031 C 
ATOM     58  C   UNL A   1      44.214  31.388  30.412  1.00  0.00     0.031 A 
BRANCH  45  59
ATOM     59  C   UNL A   1      48.354  26.879  29.603  1.00  0.00    -0.014 A 
ATOM     60  C   UNL A   1      48.915  26.380  30.790  1.00  0.00     0.009 A 
ATOM     61  C   UNL A   1      49.148  26.937  28.448  1.00  0.00     0.009 A 
ATOM     62  C   UNL A   1      50.251  25.974  30.824  1.00  0.00     0.001 A 
ATOM     63  C   UNL A   1      50.475  26.508  28.479  1.00  0.00     0.001 A 
ATOM     64  C   UNL A   1      51.028  26.034  29.668  1.00  0.00     0.000 A 
ENDBRANCH  45  59
BRANCH  46  65
ATOM     65  C   UNL A   1      38.700  29.285  29.092  1.00  0.00    -0.014 A 
ATOM     66  C   UNL A   1      37.854  29.085  30.193  1.00  0.00     0.009 A 
ATOM     67  C   UNL A   1      38.161  29.819  27.910  1.00  0.00     0.009 A 
ATOM     68  C   UNL A   1      36.493  29.387  30.103  1.00  0.00     0.001 A 
ATOM     69  C   UNL A   1      36.806  30.146  27.832  1.00  0.00     0.001 A 
ATOM     70  C   UNL A   1      35.972  29.920  28.924  1.00  0.00     0.000 A 
ENDBRANCH  46  65
BRANCH  58  71
ATOM     71  C   UNL A   1      44.430  32.813  30.839  1.00  0.00    -0.014 A 
ATOM     72  C   UNL A   1      44.767  33.808  29.907  1.00  0.00     0.009 A 
ATOM     73  C   UNL A   1      44.281  33.169  32.188  1.00  0.00     0.009 A 
ATOM     74  C   UNL A   1      44.993  35.121  30.325  1.00  0.00     0.001 A 
ATOM     75  C   UNL A   1      44.481  34.488  32.600  1.00  0.00     0.001 A 
ATOM     76  C   UNL A   1      44.848  35.460  31.670  1.00  0.00     0.000 A 
ENDBRANCH  58  71
ENDBRANCH  32  33
ENDBRANCH  25  27
ENDBRANCH  24  25
ENDBRANCH  23  24
ENDBRANCH  22  23
ENDBRANCH  21  22
ENDBRANCH  20  21
ENDBRANCH   1  20
TORSDOF 19
ENDMDL
