MODEL 1
REMARK VINA RESULT:     -10.4      0.000      0.000
REMARK SMILES O=C(OCCOCCOC(=O)[C@H]1CC[C@@H](CNc2cc(C(F)(F)F)ccn2)O1)c1ccc(-c2c3nc(c(-c4ccccc4)c4ccc([nH]4)c(-c4ccccc4)c4nc(c(-c5ccccc5)c5ccc2[nH]5)C=C4)C=C3)cc1
REMARK SMILES IDX 7 1 6 2 5 3 4 4 3 5 2 6 1 7 29 8 30 9 76 10 31 11 75 12
REMARK SMILES IDX 32 13 33 14 34 15 69 16 35 17 74 18 68 19 70 20 36 21 73 22
REMARK SMILES IDX 67 23 66 24 37 26 59 27 44 28 58 29 45 30 48 31 57 32 71 33
REMARK SMILES IDX 46 34 47 35 56 37 72 38 49 39 38 40 39 41 43 42 40 43 42 44
REMARK SMILES IDX 41 45 60 46 61 47 65 48 62 49 64 50 63 51 50 52 51 53 55 54
REMARK SMILES IDX 52 55 54 56 53 57 8 58 9 59 10 60 11 61 12 62 13 63 28 64
REMARK SMILES IDX 14 65 15 66 16 67 17 68 18 70 19 71 27 72 20 73 26 74 25 75
REMARK SMILES IDX 21 76 22 77 23 78 24 79
REMARK H PARENT 70 25 48 36 17 69
REMARK Flexibility Score: inf
ROOT
ATOM      1  C   UNL A   1      32.282  29.691  26.218  1.00  0.00     0.202 C 
ENDROOT
BRANCH   1   2
ATOM      2  O   UNL A   1      31.358  30.662  25.711  1.00  0.00    -0.374 OA
BRANCH   2   3
ATOM      3  C   UNL A   1      31.260  31.913  26.395  1.00  0.00     0.202 C 
BRANCH   3   4
ATOM      4  C   UNL A   1      32.489  32.370  27.181  1.00  0.00     0.261 C 
BRANCH   4   5
ATOM      5  O   UNL A   1      32.331  33.733  27.602  1.00  0.00    -0.460 OA
BRANCH   5   6
ATOM      6  C   UNL A   1      33.046  34.386  28.547  1.00  0.00     0.338 C 
ATOM      7  O   UNL A   1      32.671  35.495  28.920  1.00  0.00    -0.246 OA
BRANCH   6   8
ATOM      8  C   UNL A   1      34.284  33.823  29.158  1.00  0.00     0.060 A 
ATOM      9  C   UNL A   1      34.299  32.889  30.197  1.00  0.00     0.016 A 
ATOM     10  C   UNL A   1      35.507  34.186  28.579  1.00  0.00     0.016 A 
ATOM     11  C   UNL A   1      35.471  32.362  30.692  1.00  0.00     0.010 A 
ATOM     12  C   UNL A   1      36.701  33.637  29.047  1.00  0.00     0.010 A 
ATOM     13  C   UNL A   1      36.674  32.730  30.112  1.00  0.00    -0.014 A 
BRANCH  13  14
ATOM     14  C   UNL A   1      37.891  32.222  30.745  1.00  0.00     0.031 A 
ATOM     15  C   UNL A   1      38.589  31.080  30.091  1.00  0.00     0.074 A 
ATOM     16  C   UNL A   1      38.409  32.887  31.789  1.00  0.00     0.049 A 
ATOM     17  N   UNL A   1      39.639  30.419  30.490  1.00  0.00    -0.248 NA
ATOM     18  C   UNL A   1      38.034  30.626  28.804  1.00  0.00     0.031 C 
ATOM     19  C   UNL A   1      37.854  34.115  32.370  1.00  0.00     0.029 A 
ATOM     20  N   UNL A   1      39.527  32.641  32.532  1.00  0.00    -0.354 N 
ATOM     21  C   UNL A   1      39.843  29.443  29.527  1.00  0.00     0.074 A 
ATOM     22  C   UNL A   1      38.819  29.600  28.521  1.00  0.00     0.031 C 
ATOM     23  C   UNL A   1      38.638  34.511  33.384  1.00  0.00     0.029 A 
ATOM     24  C   UNL A   1      39.697  33.525  33.567  1.00  0.00     0.049 A 
ATOM     25  H   UNL A   1      40.150  31.901  32.343  1.00  0.00     0.167 HD
ATOM     26  C   UNL A   1      40.799  28.487  29.512  1.00  0.00     0.031 A 
ATOM     27  C   UNL A   1      40.579  33.495  34.580  1.00  0.00     0.031 A 
ATOM     28  C   UNL A   1      41.779  28.358  30.554  1.00  0.00     0.049 A 
ATOM     29  C   UNL A   1      41.562  32.358  34.606  1.00  0.00     0.074 A 
ATOM     30  C   UNL A   1      42.764  27.403  30.707  1.00  0.00     0.029 A 
ATOM     31  N   UNL A   1      41.883  29.227  31.636  1.00  0.00    -0.354 N 
ATOM     32  N   UNL A   1      41.718  31.387  33.736  1.00  0.00    -0.248 NA
ATOM     33  C   UNL A   1      42.477  32.301  35.750  1.00  0.00     0.031 C 
ATOM     34  C   UNL A   1      43.425  27.660  31.913  1.00  0.00     0.029 A 
ATOM     35  C   UNL A   1      42.897  28.814  32.477  1.00  0.00     0.049 A 
ATOM     36  H   UNL A   1      41.317  30.019  31.780  1.00  0.00     0.167 HD
ATOM     37  C   UNL A   1      42.759  30.607  34.216  1.00  0.00     0.074 A 
ATOM     38  C   UNL A   1      43.206  31.233  35.449  1.00  0.00     0.031 C 
ATOM     39  C   UNL A   1      43.299  29.477  33.695  1.00  0.00     0.031 A 
BRANCH  26  40
ATOM     40  C   UNL A   1      40.718  27.471  28.410  1.00  0.00    -0.014 A 
ATOM     41  C   UNL A   1      41.354  27.663  27.173  1.00  0.00     0.009 A 
ATOM     42  C   UNL A   1      39.917  26.333  28.590  1.00  0.00     0.009 A 
ATOM     43  C   UNL A   1      41.141  26.765  26.122  1.00  0.00     0.001 A 
ATOM     44  C   UNL A   1      39.731  25.422  27.549  1.00  0.00     0.001 A 
ATOM     45  C   UNL A   1      40.329  25.647  26.311  1.00  0.00     0.000 A 
ENDBRANCH  26  40
BRANCH  27  46
ATOM     46  C   UNL A   1      40.500  34.509  35.663  1.00  0.00    -0.014 A 
ATOM     47  C   UNL A   1      41.249  35.692  35.608  1.00  0.00     0.009 A 
ATOM     48  C   UNL A   1      39.636  34.308  36.753  1.00  0.00     0.009 A 
ATOM     49  C   UNL A   1      41.143  36.644  36.627  1.00  0.00     0.001 A 
ATOM     50  C   UNL A   1      39.507  35.273  37.753  1.00  0.00     0.001 A 
ATOM     51  C   UNL A   1      40.268  36.439  37.694  1.00  0.00     0.000 A 
ENDBRANCH  27  46
BRANCH  39  52
ATOM     52  C   UNL A   1      44.451  28.872  34.443  1.00  0.00    -0.014 A 
ATOM     53  C   UNL A   1      45.769  29.289  34.210  1.00  0.00     0.009 A 
ATOM     54  C   UNL A   1      44.193  27.930  35.450  1.00  0.00     0.009 A 
ATOM     55  C   UNL A   1      46.814  28.756  34.964  1.00  0.00     0.001 A 
ATOM     56  C   UNL A   1      45.237  27.423  36.223  1.00  0.00     0.001 A 
ATOM     57  C   UNL A   1      46.547  27.833  35.975  1.00  0.00     0.000 A 
ENDBRANCH  39  52
ENDBRANCH  13  14
ENDBRANCH   6   8
ENDBRANCH   5   6
ENDBRANCH   4   5
ENDBRANCH   3   4
ENDBRANCH   2   3
ENDBRANCH   1   2
BRANCH   1  58
ATOM     58  C   UNL A   1      31.685  28.291  26.040  1.00  0.00     0.261 C 
BRANCH  58  59
ATOM     59  O   UNL A   1      32.699  27.345  26.400  1.00  0.00    -0.461 OA
BRANCH  59  60
ATOM     60  C   UNL A   1      32.735  26.239  25.600  1.00  0.00     0.335 C 
ATOM     61  O   UNL A   1      31.850  25.393  25.546  1.00  0.00    -0.249 OA
BRANCH  60  62
ATOM     62  C   UNL A   1      34.033  26.208  24.768  1.00  0.00     0.228 C 
ATOM     63  C   UNL A   1      34.441  24.829  24.268  1.00  0.00     0.047 C 
ATOM     64  O   UNL A   1      33.953  26.977  23.570  1.00  0.00    -0.361 OA
ATOM     65  C   UNL A   1      33.658  24.682  22.988  1.00  0.00     0.037 C 
ATOM     66  C   UNL A   1      33.360  26.120  22.568  1.00  0.00     0.138 C 
BRANCH  66  67
ATOM     67  C   UNL A   1      31.851  26.441  22.499  1.00  0.00     0.146 C 
BRANCH  67  68
ATOM     68  N   UNL A   1      31.652  27.883  22.474  1.00  0.00    -0.367 N 
ATOM     69  H   UNL A   1      32.406  28.511  22.386  1.00  0.00     0.162 HD
BRANCH  68  70
ATOM     70  C   UNL A   1      30.348  28.321  22.579  1.00  0.00     0.126 A 
ATOM     71  C   UNL A   1      29.989  29.604  22.191  1.00  0.00     0.059 A 
ATOM     72  N   UNL A   1      29.470  27.458  23.113  1.00  0.00    -0.240 NA
ATOM     73  C   UNL A   1      28.680  30.043  22.382  1.00  0.00     0.061 A 
ATOM     74  C   UNL A   1      28.205  27.889  23.296  1.00  0.00     0.114 A 
ATOM     75  C   UNL A   1      27.767  29.158  22.956  1.00  0.00     0.033 A 
BRANCH  73  76
ATOM     76  C   UNL A   1      28.269  31.428  21.973  1.00  0.00     0.416 C 
ATOM     77  F   UNL A   1      27.443  32.014  22.880  1.00  0.00    -0.166 F 
ATOM     78  F   UNL A   1      29.334  32.264  21.836  1.00  0.00    -0.166 F 
ATOM     79  F   UNL A   1      27.610  31.470  20.780  1.00  0.00    -0.166 F 
ENDBRANCH  73  76
ENDBRANCH  68  70
ENDBRANCH  67  68
ENDBRANCH  66  67
ENDBRANCH  60  62
ENDBRANCH  59  60
ENDBRANCH  58  59
ENDBRANCH   1  58
TORSDOF 18
ENDMDL
MODEL 2
REMARK VINA RESULT:     -10.3      6.031     10.217
REMARK SMILES O=C(OCCOCCOC(=O)[C@H]1CC[C@@H](CNc2cc(C(F)(F)F)ccn2)O1)c1ccc(-c2c3nc(c(-c4ccccc4)c4ccc([nH]4)c(-c4ccccc4)c4nc(c(-c5ccccc5)c5ccc2[nH]5)C=C4)C=C3)cc1
REMARK SMILES IDX 7 1 6 2 5 3 4 4 3 5 2 6 1 7 29 8 30 9 76 10 31 11 75 12
REMARK SMILES IDX 32 13 33 14 34 15 69 16 35 17 74 18 68 19 70 20 36 21 73 22
REMARK SMILES IDX 67 23 66 24 37 26 59 27 44 28 58 29 45 30 48 31 57 32 71 33
REMARK SMILES IDX 46 34 47 35 56 37 72 38 49 39 38 40 39 41 43 42 40 43 42 44
REMARK SMILES IDX 41 45 60 46 61 47 65 48 62 49 64 50 63 51 50 52 51 53 55 54
REMARK SMILES IDX 52 55 54 56 53 57 8 58 9 59 10 60 11 61 12 62 13 63 28 64
REMARK SMILES IDX 14 65 15 66 16 67 17 68 18 70 19 71 27 72 20 73 26 74 25 75
REMARK SMILES IDX 21 76 22 77 23 78 24 79
REMARK H PARENT 70 25 48 36 17 69
REMARK Flexibility Score: inf
ROOT
ATOM      1  C   UNL A   1      36.652  21.818  24.341  1.00  0.00     0.202 C 
ENDROOT
BRANCH   1   2
ATOM      2  O   UNL A   1      36.422  20.434  24.638  1.00  0.00    -0.374 OA
BRANCH   2   3
ATOM      3  C   UNL A   1      37.556  19.620  24.944  1.00  0.00     0.202 C 
BRANCH   3   4
ATOM      4  C   UNL A   1      38.835  20.343  25.366  1.00  0.00     0.261 C 
BRANCH   4   5
ATOM      5  O   UNL A   1      39.892  19.398  25.586  1.00  0.00    -0.460 OA
BRANCH   5   6
ATOM      6  C   UNL A   1      41.145  19.658  26.024  1.00  0.00     0.338 C 
ATOM      7  O   UNL A   1      41.978  18.754  26.022  1.00  0.00    -0.246 OA
BRANCH   6   8
ATOM      8  C   UNL A   1      41.566  20.999  26.521  1.00  0.00     0.060 A 
ATOM      9  C   UNL A   1      41.991  22.049  25.703  1.00  0.00     0.016 A 
ATOM     10  C   UNL A   1      41.429  21.245  27.894  1.00  0.00     0.016 A 
ATOM     11  C   UNL A   1      42.320  23.285  26.211  1.00  0.00     0.010 A 
ATOM     12  C   UNL A   1      41.729  22.502  28.420  1.00  0.00     0.010 A 
ATOM     13  C   UNL A   1      42.183  23.516  27.570  1.00  0.00    -0.014 A 
BRANCH  13  14
ATOM     14  C   UNL A   1      42.648  24.811  28.066  1.00  0.00     0.031 A 
ATOM     15  C   UNL A   1      41.620  25.841  28.387  1.00  0.00     0.074 A 
ATOM     16  C   UNL A   1      43.949  24.971  28.353  1.00  0.00     0.049 A 
ATOM     17  N   UNL A   1      41.783  27.073  28.778  1.00  0.00    -0.248 NA
ATOM     18  C   UNL A   1      40.213  25.420  28.263  1.00  0.00     0.031 C 
ATOM     19  C   UNL A   1      44.979  23.936  28.214  1.00  0.00     0.029 A 
ATOM     20  N   UNL A   1      44.623  26.052  28.841  1.00  0.00    -0.354 N 
ATOM     21  C   UNL A   1      40.502  27.590  28.901  1.00  0.00     0.074 A 
ATOM     22  C   UNL A   1      39.572  26.539  28.555  1.00  0.00     0.031 C 
ATOM     23  C   UNL A   1      46.159  24.440  28.607  1.00  0.00     0.029 A 
ATOM     24  C   UNL A   1      45.975  25.845  28.948  1.00  0.00     0.049 A 
ATOM     25  H   UNL A   1      44.183  26.897  29.092  1.00  0.00     0.167 HD
ATOM     26  C   UNL A   1      40.150  28.846  29.252  1.00  0.00     0.031 A 
ATOM     27  C   UNL A   1      46.953  26.721  29.234  1.00  0.00     0.031 A 
ATOM     28  C   UNL A   1      41.117  29.862  29.561  1.00  0.00     0.049 A 
ATOM     29  C   UNL A   1      46.549  28.141  29.511  1.00  0.00     0.074 A 
ATOM     30  C   UNL A   1      40.913  31.192  29.869  1.00  0.00     0.029 A 
ATOM     31  N   UNL A   1      42.491  29.644  29.590  1.00  0.00    -0.354 N 
ATOM     32  N   UNL A   1      45.342  28.658  29.561  1.00  0.00    -0.248 NA
ATOM     33  C   UNL A   1      47.629  29.101  29.758  1.00  0.00     0.031 C 
ATOM     34  C   UNL A   1      42.167  31.792  30.025  1.00  0.00     0.029 A 
ATOM     35  C   UNL A   1      43.150  30.822  29.882  1.00  0.00     0.049 A 
ATOM     36  H   UNL A   1      42.929  28.778  29.427  1.00  0.00     0.167 HD
ATOM     37  C   UNL A   1      45.513  30.001  29.858  1.00  0.00     0.074 A 
ATOM     38  C   UNL A   1      46.944  30.212  29.994  1.00  0.00     0.031 C 
ATOM     39  C   UNL A   1      44.581  30.975  30.005  1.00  0.00     0.031 A 
BRANCH  26  40
ATOM     40  C   UNL A   1      38.687  29.180  29.186  1.00  0.00    -0.014 A 
ATOM     41  C   UNL A   1      38.088  29.670  28.016  1.00  0.00     0.009 A 
ATOM     42  C   UNL A   1      37.913  29.077  30.352  1.00  0.00     0.009 A 
ATOM     43  C   UNL A   1      36.759  30.103  28.030  1.00  0.00     0.001 A 
ATOM     44  C   UNL A   1      36.577  29.481  30.356  1.00  0.00     0.001 A 
ATOM     45  C   UNL A   1      36.005  30.009  29.201  1.00  0.00     0.000 A 
ENDBRANCH  26  40
BRANCH  27  46
ATOM     46  C   UNL A   1      48.374  26.290  29.180  1.00  0.00    -0.014 A 
ATOM     47  C   UNL A   1      49.103  26.332  27.983  1.00  0.00     0.009 A 
ATOM     48  C   UNL A   1      49.025  25.862  30.350  1.00  0.00     0.009 A 
ATOM     49  C   UNL A   1      50.446  25.943  27.958  1.00  0.00     0.001 A 
ATOM     50  C   UNL A   1      50.374  25.504  30.330  1.00  0.00     0.001 A 
ATOM     51  C   UNL A   1      51.083  25.537  29.131  1.00  0.00     0.000 A 
ENDBRANCH  27  46
BRANCH  39  52
ATOM     52  C   UNL A   1      45.083  32.343  30.360  1.00  0.00    -0.014 A 
ATOM     53  C   UNL A   1      45.481  33.252  29.369  1.00  0.00     0.009 A 
ATOM     54  C   UNL A   1      45.079  32.747  31.703  1.00  0.00     0.009 A 
ATOM     55  C   UNL A   1      45.884  34.540  29.722  1.00  0.00     0.001 A 
ATOM     56  C   UNL A   1      45.452  34.045  32.050  1.00  0.00     0.001 A 
ATOM     57  C   UNL A   1      45.860  34.937  31.059  1.00  0.00     0.000 A 
ENDBRANCH  39  52
ENDBRANCH  13  14
ENDBRANCH   6   8
ENDBRANCH   5   6
ENDBRANCH   4   5
ENDBRANCH   3   4
ENDBRANCH   2   3
ENDBRANCH   1   2
BRANCH   1  58
ATOM     58  C   UNL A   1      35.435  22.379  23.598  1.00  0.00     0.261 C 
BRANCH  58  59
ATOM     59  O   UNL A   1      35.150  23.667  24.158  1.00  0.00    -0.461 OA
BRANCH  59  60
ATOM     60  C   UNL A   1      33.841  23.842  24.507  1.00  0.00     0.335 C 
ATOM     61  O   UNL A   1      32.888  23.549  23.795  1.00  0.00    -0.249 OA
BRANCH  60  62
ATOM     62  C   UNL A   1      33.729  24.447  25.921  1.00  0.00     0.228 C 
ATOM     63  C   UNL A   1      32.306  24.612  26.436  1.00  0.00     0.047 C 
ATOM     64  O   UNL A   1      34.348  23.648  26.927  1.00  0.00    -0.361 OA
ATOM     65  C   UNL A   1      31.996  23.260  27.029  1.00  0.00     0.037 C 
ATOM     66  C   UNL A   1      33.370  22.666  27.334  1.00  0.00     0.138 C 
BRANCH  66  67
ATOM     67  C   UNL A   1      33.659  21.358  26.565  1.00  0.00     0.146 C 
BRANCH  67  68
ATOM     68  N   UNL A   1      32.409  20.764  26.112  1.00  0.00    -0.367 N 
ATOM     69  H   UNL A   1      31.541  21.018  26.502  1.00  0.00     0.162 HD
BRANCH  68  70
ATOM     70  C   UNL A   1      32.509  19.826  25.105  1.00  0.00     0.126 A 
ATOM     71  C   UNL A   1      32.997  18.551  25.360  1.00  0.00     0.059 A 
ATOM     72  N   UNL A   1      32.156  20.229  23.876  1.00  0.00    -0.240 NA
ATOM     73  C   UNL A   1      33.160  17.652  24.308  1.00  0.00     0.061 A 
ATOM     74  C   UNL A   1      32.317  19.353  22.862  1.00  0.00     0.114 A 
ATOM     75  C   UNL A   1      32.813  18.071  23.023  1.00  0.00     0.033 A 
BRANCH  73  76
ATOM     76  C   UNL A   1      33.687  16.268  24.559  1.00  0.00     0.416 C 
ATOM     77  F   UNL A   1      34.559  15.862  23.597  1.00  0.00    -0.166 F 
ATOM     78  F   UNL A   1      34.357  16.176  25.740  1.00  0.00    -0.166 F 
ATOM     79  F   UNL A   1      32.714  15.315  24.610  1.00  0.00    -0.166 F 
ENDBRANCH  73  76
ENDBRANCH  68  70
ENDBRANCH  67  68
ENDBRANCH  66  67
ENDBRANCH  60  62
ENDBRANCH  59  60
ENDBRANCH  58  59
ENDBRANCH   1  58
TORSDOF 18
ENDMDL
MODEL 3
REMARK VINA RESULT:     -10.2      2.978      4.039
REMARK SMILES O=C(OCCOCCOC(=O)[C@H]1CC[C@@H](CNc2cc(C(F)(F)F)ccn2)O1)c1ccc(-c2c3nc(c(-c4ccccc4)c4ccc([nH]4)c(-c4ccccc4)c4nc(c(-c5ccccc5)c5ccc2[nH]5)C=C4)C=C3)cc1
REMARK SMILES IDX 7 1 6 2 5 3 4 4 3 5 2 6 1 7 29 8 30 9 76 10 31 11 75 12
REMARK SMILES IDX 32 13 33 14 34 15 69 16 35 17 74 18 68 19 70 20 36 21 73 22
REMARK SMILES IDX 67 23 66 24 37 26 59 27 44 28 58 29 45 30 48 31 57 32 71 33
REMARK SMILES IDX 46 34 47 35 56 37 72 38 49 39 38 40 39 41 43 42 40 43 42 44
REMARK SMILES IDX 41 45 60 46 61 47 65 48 62 49 64 50 63 51 50 52 51 53 55 54
REMARK SMILES IDX 52 55 54 56 53 57 8 58 9 59 10 60 11 61 12 62 13 63 28 64
REMARK SMILES IDX 14 65 15 66 16 67 17 68 18 70 19 71 27 72 20 73 26 74 25 75
REMARK SMILES IDX 21 76 22 77 23 78 24 79
REMARK H PARENT 70 25 48 36 17 69
REMARK Flexibility Score: inf
ROOT
ATOM      1  C   UNL A   1      32.786  30.122  26.646  1.00  0.00     0.202 C 
ENDROOT
BRANCH   1   2
ATOM      2  O   UNL A   1      31.646  30.849  26.169  1.00  0.00    -0.374 OA
BRANCH   2   3
ATOM      3  C   UNL A   1      31.377  32.126  26.749  1.00  0.00     0.202 C 
BRANCH   3   4
ATOM      4  C   UNL A   1      32.574  33.047  26.984  1.00  0.00     0.261 C 
BRANCH   4   5
ATOM      5  O   UNL A   1      32.188  34.172  27.786  1.00  0.00    -0.460 OA
BRANCH   5   6
ATOM      6  C   UNL A   1      32.920  34.784  28.745  1.00  0.00     0.338 C 
ATOM      7  O   UNL A   1      32.580  35.898  29.137  1.00  0.00    -0.246 OA
BRANCH   6   8
ATOM      8  C   UNL A   1      34.138  34.171  29.348  1.00  0.00     0.060 A 
ATOM      9  C   UNL A   1      34.123  33.253  30.402  1.00  0.00     0.016 A 
ATOM     10  C   UNL A   1      35.368  34.464  28.746  1.00  0.00     0.016 A 
ATOM     11  C   UNL A   1      35.275  32.678  30.889  1.00  0.00     0.010 A 
ATOM     12  C   UNL A   1      36.542  33.865  29.207  1.00  0.00     0.010 A 
ATOM     13  C   UNL A   1      36.486  32.978  30.286  1.00  0.00    -0.014 A 
BRANCH  13  14
ATOM     14  C   UNL A   1      37.685  32.420  30.912  1.00  0.00     0.031 A 
ATOM     15  C   UNL A   1      38.396  31.324  30.196  1.00  0.00     0.074 A 
ATOM     16  C   UNL A   1      38.179  33.007  32.013  1.00  0.00     0.049 A 
ATOM     17  N   UNL A   1      39.434  30.632  30.572  1.00  0.00    -0.248 NA
ATOM     18  C   UNL A   1      37.871  30.965  28.866  1.00  0.00     0.031 C 
ATOM     19  C   UNL A   1      37.614  34.193  32.665  1.00  0.00     0.029 A 
ATOM     20  N   UNL A   1      39.278  32.704  32.762  1.00  0.00    -0.354 N 
ATOM     21  C   UNL A   1      39.659  29.725  29.547  1.00  0.00     0.074 A 
ATOM     22  C   UNL A   1      38.660  29.958  28.530  1.00  0.00     0.031 C 
ATOM     23  C   UNL A   1      38.374  34.513  33.723  1.00  0.00     0.029 A 
ATOM     24  C   UNL A   1      39.425  33.512  33.861  1.00  0.00     0.049 A 
ATOM     25  H   UNL A   1      39.904  31.977  32.537  1.00  0.00     0.167 HD
ATOM     26  C   UNL A   1      40.612  28.769  29.488  1.00  0.00     0.031 A 
ATOM     27  C   UNL A   1      40.282  33.406  34.891  1.00  0.00     0.031 A 
ATOM     28  C   UNL A   1      41.566  28.562  30.541  1.00  0.00     0.049 A 
ATOM     29  C   UNL A   1      41.261  32.266  34.860  1.00  0.00     0.074 A 
ATOM     30  C   UNL A   1      42.545  27.594  30.650  1.00  0.00     0.029 A 
ATOM     31  N   UNL A   1      41.646  29.351  31.684  1.00  0.00    -0.354 N 
ATOM     32  N   UNL A   1      41.436  31.358  33.928  1.00  0.00    -0.248 NA
ATOM     33  C   UNL A   1      42.148  32.124  36.019  1.00  0.00     0.031 C 
ATOM     34  C   UNL A   1      43.176  27.763  31.886  1.00  0.00     0.029 A 
ATOM     35  C   UNL A   1      42.638  28.876  32.519  1.00  0.00     0.049 A 
ATOM     36  H   UNL A   1      41.079  30.134  31.870  1.00  0.00     0.167 HD
ATOM     37  C   UNL A   1      42.462  30.541  34.377  1.00  0.00     0.074 A 
ATOM     38  C   UNL A   1      42.880  31.077  35.661  1.00  0.00     0.031 C 
ATOM     39  C   UNL A   1      43.012  29.449  33.790  1.00  0.00     0.031 A 
BRANCH  26  40
ATOM     40  C   UNL A   1      40.556  27.834  28.314  1.00  0.00    -0.014 A 
ATOM     41  C   UNL A   1      39.860  26.616  28.365  1.00  0.00     0.009 A 
ATOM     42  C   UNL A   1      41.288  28.147  27.159  1.00  0.00     0.009 A 
ATOM     43  C   UNL A   1      39.946  25.707  27.306  1.00  0.00     0.001 A 
ATOM     44  C   UNL A   1      41.348  27.252  26.090  1.00  0.00     0.001 A 
ATOM     45  C   UNL A   1      40.692  26.026  26.171  1.00  0.00     0.000 A 
ENDBRANCH  26  40
BRANCH  27  46
ATOM     46  C   UNL A   1      40.180  34.341  36.041  1.00  0.00    -0.014 A 
ATOM     47  C   UNL A   1      40.858  35.568  36.045  1.00  0.00     0.009 A 
ATOM     48  C   UNL A   1      39.362  34.020  37.139  1.00  0.00     0.009 A 
ATOM     49  C   UNL A   1      40.730  36.444  37.127  1.00  0.00     0.001 A 
ATOM     50  C   UNL A   1      39.211  34.909  38.204  1.00  0.00     0.001 A 
ATOM     51  C   UNL A   1      39.901  36.118  38.202  1.00  0.00     0.000 A 
ENDBRANCH  27  46
BRANCH  39  52
ATOM     52  C   UNL A   1      44.143  28.788  34.520  1.00  0.00    -0.014 A 
ATOM     53  C   UNL A   1      45.469  29.205  34.339  1.00  0.00     0.009 A 
ATOM     54  C   UNL A   1      43.858  27.788  35.462  1.00  0.00     0.009 A 
ATOM     55  C   UNL A   1      46.495  28.616  35.078  1.00  0.00     0.001 A 
ATOM     56  C   UNL A   1      44.882  27.223  36.222  1.00  0.00     0.001 A 
ATOM     57  C   UNL A   1      46.199  27.634  36.024  1.00  0.00     0.000 A 
ENDBRANCH  39  52
ENDBRANCH  13  14
ENDBRANCH   6   8
ENDBRANCH   5   6
ENDBRANCH   4   5
ENDBRANCH   3   4
ENDBRANCH   2   3
ENDBRANCH   1   2
BRANCH   1  58
ATOM     58  C   UNL A   1      32.362  28.689  26.983  1.00  0.00     0.261 C 
BRANCH  58  59
ATOM     59  O   UNL A   1      32.526  27.905  25.796  1.00  0.00    -0.461 OA
BRANCH  59  60
ATOM     60  C   UNL A   1      31.351  27.477  25.248  1.00  0.00     0.335 C 
ATOM     61  O   UNL A   1      30.603  26.654  25.764  1.00  0.00    -0.249 OA
BRANCH  60  62
ATOM     62  C   UNL A   1      31.088  28.179  23.899  1.00  0.00     0.228 C 
ATOM     63  C   UNL A   1      32.339  28.618  23.152  1.00  0.00     0.047 C 
ATOM     64  O   UNL A   1      30.419  27.348  22.953  1.00  0.00    -0.361 OA
ATOM     65  C   UNL A   1      32.737  27.380  22.389  1.00  0.00     0.037 C 
ATOM     66  C   UNL A   1      31.442  26.577  22.285  1.00  0.00     0.138 C 
BRANCH  66  67
ATOM     67  C   UNL A   1      31.519  25.194  22.967  1.00  0.00     0.146 C 
BRANCH  67  68
ATOM     68  N   UNL A   1      32.262  24.267  22.126  1.00  0.00    -0.367 N 
ATOM     69  H   UNL A   1      32.114  24.214  21.153  1.00  0.00     0.162 HD
BRANCH  68  70
ATOM     70  C   UNL A   1      33.185  23.467  22.767  1.00  0.00     0.126 A 
ATOM     71  C   UNL A   1      32.794  22.311  23.429  1.00  0.00     0.059 A 
ATOM     72  N   UNL A   1      34.457  23.891  22.751  1.00  0.00    -0.240 NA
ATOM     73  C   UNL A   1      33.739  21.566  24.134  1.00  0.00     0.061 A 
ATOM     74  C   UNL A   1      35.366  23.166  23.435  1.00  0.00     0.114 A 
ATOM     75  C   UNL A   1      35.060  22.014  24.138  1.00  0.00     0.033 A 
BRANCH  73  76
ATOM     76  C   UNL A   1      33.339  20.314  24.859  1.00  0.00     0.416 C 
ATOM     77  F   UNL A   1      33.347  20.471  26.210  1.00  0.00    -0.166 F 
ATOM     78  F   UNL A   1      32.083  19.906  24.534  1.00  0.00    -0.166 F 
ATOM     79  F   UNL A   1      34.152  19.251  24.600  1.00  0.00    -0.166 F 
ENDBRANCH  73  76
ENDBRANCH  68  70
ENDBRANCH  67  68
ENDBRANCH  66  67
ENDBRANCH  60  62
ENDBRANCH  59  60
ENDBRANCH  58  59
ENDBRANCH   1  58
TORSDOF 18
ENDMDL
