MODEL 1
REMARK VINA RESULT:     -11.1      0.000      0.000
REMARK SMILES Cc1cccc(S(=O)(=O)Nc2cc(C(=O)OCCOCCOC(=O)c3ccc(-c4c5nc(c(-c6ccccc6)c6ccc([nH]6)c(-c6ccccc6)c6nc(c(-c7ccccc7)c7ccc4[nH]7)C=C6)C=C5)cc3)ccc2N2CCC[C@H](C[NH+]3CCCC3)C2)c1
REMARK SMILES IDX 18 1 17 2 16 3 14 4 15 5 13 6 11 7 12 8 75 9 74 10 73 11
REMARK SMILES IDX 10 12 7 14 8 15 9 16 6 17 1 18 2 19 3 20 88 21 4 22 5 23
REMARK SMILES IDX 76 24 77 25 87 26 78 27 80 28 79 29 81 30 82 31 83 32 86 33
REMARK SMILES IDX 84 35 85 36 19 37 20 38 21 39 22 40 23 41 24 42 25 43 26 44
REMARK SMILES IDX 72 45 27 46 71 47 28 48 29 49 30 50 65 51 31 52 70 53 64 54
REMARK SMILES IDX 66 55 32 56 69 57 63 58 62 59 33 61 55 62 40 63 54 64 41 65
REMARK SMILES IDX 44 66 53 67 67 68 42 69 43 70 52 72 68 73 45 74 34 75 35 76
REMARK SMILES IDX 39 77 36 78 38 79 37 80 56 81 57 82 61 83 58 84 60 85 59 86
REMARK SMILES IDX 46 87 47 88 51 89 48 90 50 91 49 92
REMARK H PARENT 10 13 82 34 66 60 44 71
REMARK Flexibility Score: inf
ROOT
ATOM      1  C   UNL A   1      36.002  23.006  23.762  1.00  0.00     0.202 C 
ENDROOT
BRANCH   1   2
ATOM      2  C   UNL A   1      34.856  23.911  23.941  1.00  0.00     0.261 C 
BRANCH   2   3
ATOM      3  O   UNL A   1      33.686  23.372  23.363  1.00  0.00    -0.460 OA
BRANCH   3   4
ATOM      4  C   UNL A   1      33.235  23.406  22.092  1.00  0.00     0.338 C 
ATOM      5  O   UNL A   1      33.642  22.896  21.069  1.00  0.00    -0.246 OA
BRANCH   4   6
ATOM      6  C   UNL A   1      32.279  24.512  22.165  1.00  0.00     0.062 A 
ATOM      7  C   UNL A   1      30.715  25.224  23.785  1.00  0.00     0.073 A 
ATOM      8  C   UNL A   1      31.117  24.265  22.921  1.00  0.00     0.044 A 
ATOM      9  C   UNL A   1      31.048  26.546  23.461  1.00  0.00     0.061 A 
ATOM     10  C   UNL A   1      32.072  26.819  22.523  1.00  0.00     0.029 A 
ATOM     11  C   UNL A   1      32.766  25.788  21.934  1.00  0.00     0.018 A 
BRANCH   7  12
ATOM     12  N   UNL A   1      29.941  24.803  24.920  1.00  0.00    -0.277 N 
ATOM     13  H   UNL A   1      28.959  24.841  24.856  1.00  0.00     0.180 HD
BRANCH  12  14
ATOM     14  S   UNL A   1      30.653  24.225  26.407  1.00  0.00     0.261 S 
ATOM     15  O   UNL A   1      29.523  23.747  27.183  1.00  0.00    -0.201 OA
ATOM     16  O   UNL A   1      31.436  25.344  26.893  1.00  0.00    -0.201 OA
BRANCH  14  17
ATOM     17  C   UNL A   1      31.809  22.795  26.309  1.00  0.00     0.088 A 
ATOM     18  C   UNL A   1      32.274  19.425  22.817  1.00  0.00     0.044 C 
ATOM     19  C   UNL A   1      32.664  20.011  24.140  1.00  0.00    -0.050 A 
ATOM     20  C   UNL A   1      34.538  20.151  25.185  1.00  0.00     0.003 A 
ATOM     21  C   UNL A   1      31.391  21.476  24.772  1.00  0.00     0.025 A 
ATOM     22  C   UNL A   1      35.015  21.356  26.772  1.00  0.00     0.002 A 
ATOM     23  C   UNL A   1      33.583  22.871  27.331  1.00  0.00     0.022 A 
ENDBRANCH  14  17
ENDBRANCH  12  14
ENDBRANCH   7  12
BRANCH   9  24
ATOM     24  N   UNL A   1      30.270  27.579  23.933  1.00  0.00    -0.369 N 
ATOM     25  C   UNL A   1      29.389  28.197  22.945  1.00  0.00     0.116 C 
ATOM     26  C   UNL A   1      30.669  28.255  25.154  1.00  0.00     0.126 C 
ATOM     27  C   UNL A   1      29.843  29.614  22.657  1.00  0.00     0.022 C 
ATOM     28  C   UNL A   1      31.045  29.722  24.894  1.00  0.00     0.064 C 
ATOM     29  C   UNL A   1      29.971  30.347  23.984  1.00  0.00     0.013 C 
BRANCH  28  30
ATOM     30  C   UNL A   1      32.513  29.847  24.399  1.00  0.00     0.267 C 
BRANCH  30  31
ATOM     31  N   UNL A   1      33.618  29.806  25.366  1.00  0.00    -0.335 N 
ATOM     32  C   UNL A   1      34.414  28.580  25.326  1.00  0.00     0.262 C 
ATOM     33  C   UNL A   1      33.263  30.035  26.766  1.00  0.00     0.262 C 
ATOM     34  H   UNL A   1      34.168  30.601  25.037  1.00  0.00     0.348 HD
ATOM     35  C   UNL A   1      33.841  27.706  26.424  1.00  0.00     0.067 C 
ATOM     36  C   UNL A   1      33.440  28.704  27.496  1.00  0.00     0.067 C 
ENDBRANCH  30  31
ENDBRANCH  28  30
ENDBRANCH   9  24
ENDBRANCH   4   6
ENDBRANCH   3   4
ENDBRANCH   2   3
ENDBRANCH   1   2
BRANCH   1  37
ATOM     37  O   UNL A   1      37.128  23.656  24.294  1.00  0.00    -0.374 OA
BRANCH  37  38
ATOM     38  C   UNL A   1      37.476  23.374  25.625  1.00  0.00     0.202 C 
BRANCH  38  39
ATOM     39  C   UNL A   1      38.386  22.159  25.594  1.00  0.00     0.261 C 
BRANCH  39  40
ATOM     40  O   UNL A   1      39.330  22.279  26.711  1.00  0.00    -0.460 OA
BRANCH  40  41
ATOM     41  C   UNL A   1      40.439  23.076  26.545  1.00  0.00     0.338 C 
ATOM     42  O   UNL A   1      41.583  22.645  26.494  1.00  0.00    -0.246 OA
BRANCH  41  43
ATOM     43  C   UNL A   1      40.125  24.556  26.793  1.00  0.00     0.060 A 
ATOM     44  C   UNL A   1      40.575  25.550  25.906  1.00  0.00     0.016 A 
ATOM     45  C   UNL A   1      39.894  24.962  28.095  1.00  0.00     0.016 A 
ATOM     46  C   UNL A   1      41.087  26.786  26.405  1.00  0.00     0.010 A 
ATOM     47  C   UNL A   1      40.593  26.090  28.578  1.00  0.00     0.010 A 
ATOM     48  C   UNL A   1      41.347  26.973  27.768  1.00  0.00    -0.014 A 
BRANCH  48  49
ATOM     49  C   UNL A   1      42.100  28.163  28.460  1.00  0.00     0.031 A 
ATOM     50  C   UNL A   1      40.865  29.331  28.595  1.00  0.00     0.074 A 
ATOM     51  C   UNL A   1      43.545  28.280  29.173  1.00  0.00     0.049 A 
ATOM     52  N   UNL A   1      40.869  30.461  29.244  1.00  0.00    -0.248 NA
ATOM     53  C   UNL A   1      39.489  29.119  28.059  1.00  0.00     0.031 C 
ATOM     54  C   UNL A   1      44.258  29.842  30.519  1.00  0.00     0.029 A 
ATOM     55  N   UNL A   1      44.485  27.584  29.480  1.00  0.00    -0.354 N 
ATOM     56  C   UNL A   1      39.557  30.870  29.519  1.00  0.00     0.074 A 
ATOM     57  C   UNL A   1      38.735  30.001  28.730  1.00  0.00     0.031 C 
ATOM     58  C   UNL A   1      45.178  29.743  31.486  1.00  0.00     0.029 A 
ATOM     59  C   UNL A   1      45.286  29.021  30.353  1.00  0.00     0.049 A 
ATOM     60  H   UNL A   1      44.729  26.643  29.330  1.00  0.00     0.167 HD
ATOM     61  C   UNL A   1      39.307  31.846  30.453  1.00  0.00     0.031 A 
ATOM     62  C   UNL A   1      45.776  29.483  29.355  1.00  0.00     0.031 A 
ATOM     63  C   UNL A   1      40.567  32.480  30.885  1.00  0.00     0.049 A 
ATOM     64  C   UNL A   1      46.063  31.263  29.319  1.00  0.00     0.074 A 
ATOM     65  C   UNL A   1      41.253  32.596  32.080  1.00  0.00     0.029 A 
ATOM     66  N   UNL A   1      41.444  32.937  29.912  1.00  0.00    -0.354 N 
ATOM     67  N   UNL A   1      45.329  32.071  30.072  1.00  0.00    -0.248 NA
ATOM     68  C   UNL A   1      46.646  32.011  28.194  1.00  0.00     0.031 C 
ATOM     69  C   UNL A   1      42.596  33.007  31.780  1.00  0.00     0.029 A 
ATOM     70  C   UNL A   1      42.695  33.268  30.424  1.00  0.00     0.049 A 
ATOM     71  H   UNL A   1      41.206  33.019  28.960  1.00  0.00     0.167 HD
ATOM     72  C   UNL A   1      44.878  33.096  29.276  1.00  0.00     0.074 A 
ATOM     73  C   UNL A   1      45.798  33.055  28.141  1.00  0.00     0.031 C 
ATOM     74  C   UNL A   1      43.699  33.784  29.474  1.00  0.00     0.031 A 
BRANCH  61  75
ATOM     75  C   UNL A   1      37.958  32.233  31.111  1.00  0.00    -0.014 A 
ATOM     76  C   UNL A   1      37.457  31.405  32.146  1.00  0.00     0.009 A 
ATOM     77  C   UNL A   1      37.110  33.310  30.778  1.00  0.00     0.009 A 
ATOM     78  C   UNL A   1      36.212  31.597  32.776  1.00  0.00     0.001 A 
ATOM     79  C   UNL A   1      35.862  33.525  31.422  1.00  0.00     0.001 A 
ATOM     80  C   UNL A   1      35.408  32.663  32.413  1.00  0.00     0.000 A 
ENDBRANCH  61  75
BRANCH  62  81
ATOM     81  C   UNL A   1      45.314  27.928  27.812  1.00  0.00    -0.014 A 
ATOM     82  C   UNL A   1      45.795  26.399  27.862  1.00  0.00     0.009 A 
ATOM     83  C   UNL A   1      44.734  28.022  26.420  1.00  0.00     0.009 A 
ATOM     84  C   UNL A   1      45.599  25.361  26.931  1.00  0.00     0.001 A 
ATOM     85  C   UNL A   1      44.591  26.952  25.485  1.00  0.00     0.001 A 
ATOM     86  C   UNL A   1      44.927  25.634  25.770  1.00  0.00     0.000 A 
ENDBRANCH  62  81
BRANCH  74  87
ATOM     87  C   UNL A   1      43.340  35.059  28.721  1.00  0.00    -0.014 A 
ATOM     88  C   UNL A   1      43.157  36.291  29.355  1.00  0.00     0.009 A 
ATOM     89  C   UNL A   1      42.977  35.019  27.351  1.00  0.00     0.009 A 
ATOM     90  C   UNL A   1      42.698  37.420  28.675  1.00  0.00     0.001 A 
ATOM     91  C   UNL A   1      42.483  36.134  26.671  1.00  0.00     0.001 A 
ATOM     92  C   UNL A   1      42.344  37.339  27.338  1.00  0.00     0.000 A 
ENDBRANCH  74  87
ENDBRANCH  48  49
ENDBRANCH  41  43
ENDBRANCH  40  41
ENDBRANCH  39  40
ENDBRANCH  38  39
ENDBRANCH  37  38
ENDBRANCH   1  37
TORSDOF 20
ENDMDL
MODEL 2
REMARK VINA RESULT:     -10.9      1.613      2.474
REMARK SMILES Cc1cccc(S(=O)(=O)Nc2cc(C(=O)OCCOCCOC(=O)c3ccc(-c4c5nc(c(-c6ccccc6)c6ccc([nH]6)c(-c6ccccc6)c6nc(c(-c7ccccc7)c7ccc4[nH]7)C=C6)C=C5)cc3)ccc2N2CCC[C@H](C[NH+]3CCCC3)C2)c1
REMARK SMILES IDX 18 1 17 2 16 3 14 4 15 5 13 6 11 7 12 8 75 9 74 10 73 11
REMARK SMILES IDX 10 12 7 14 8 15 9 16 6 17 1 18 2 19 3 20 88 21 4 22 5 23
REMARK SMILES IDX 76 24 77 25 87 26 78 27 80 28 79 29 81 30 82 31 83 32 86 33
REMARK SMILES IDX 84 35 85 36 19 37 20 38 21 39 22 40 23 41 24 42 25 43 26 44
REMARK SMILES IDX 72 45 27 46 71 47 28 48 29 49 30 50 65 51 31 52 70 53 64 54
REMARK SMILES IDX 66 55 32 56 69 57 63 58 62 59 33 61 55 62 40 63 54 64 41 65
REMARK SMILES IDX 44 66 53 67 67 68 42 69 43 70 52 72 68 73 45 74 34 75 35 76
REMARK SMILES IDX 39 77 36 78 38 79 37 80 56 81 57 82 61 83 58 84 60 85 59 86
REMARK SMILES IDX 46 87 47 88 51 89 48 90 50 91 49 92
REMARK H PARENT 10 13 82 34 66 60 44 71
REMARK Flexibility Score: inf
ROOT
ATOM      1  C   UNL A   1      35.972  23.121  23.753  1.00  0.00     0.202 C 
ENDROOT
BRANCH   1   2
ATOM      2  C   UNL A   1      34.788  23.949  24.031  1.00  0.00     0.261 C 
BRANCH   2   3
ATOM      3  O   UNL A   1      33.685  23.539  23.251  1.00  0.00    -0.460 OA
BRANCH   3   4
ATOM      4  C   UNL A   1      33.221  23.999  22.071  1.00  0.00     0.338 C 
ATOM      5  O   UNL A   1      33.496  23.722  20.923  1.00  0.00    -0.246 OA
BRANCH   4   6
ATOM      6  C   UNL A   1      32.503  25.199  22.504  1.00  0.00     0.062 A 
ATOM      7  C   UNL A   1      31.076  25.692  24.321  1.00  0.00     0.073 A 
ATOM      8  C   UNL A   1      31.298  24.972  23.197  1.00  0.00     0.044 A 
ATOM      9  C   UNL A   1      31.673  26.958  24.389  1.00  0.00     0.061 A 
ATOM     10  C   UNL A   1      32.751  27.289  23.535  1.00  0.00     0.029 A 
ATOM     11  C   UNL A   1      33.239  26.365  22.641  1.00  0.00     0.018 A 
BRANCH   7  12
ATOM     12  N   UNL A   1      30.209  25.113  25.309  1.00  0.00    -0.277 N 
ATOM     13  H   UNL A   1      29.237  25.239  25.209  1.00  0.00     0.180 HD
BRANCH  12  14
ATOM     14  S   UNL A   1      30.789  24.197  26.679  1.00  0.00     0.261 S 
ATOM     15  O   UNL A   1      29.586  23.656  27.284  1.00  0.00    -0.201 OA
ATOM     16  O   UNL A   1      31.607  25.136  27.422  1.00  0.00    -0.201 OA
BRANCH  14  17
ATOM     17  C   UNL A   1      31.860  22.737  26.346  1.00  0.00     0.088 A 
ATOM     18  C   UNL A   1      32.121  19.932  22.367  1.00  0.00     0.044 C 
ATOM     19  C   UNL A   1      32.547  20.281  23.761  1.00  0.00    -0.050 A 
ATOM     20  C   UNL A   1      34.429  20.150  24.792  1.00  0.00     0.003 A 
ATOM     21  C   UNL A   1      31.363  21.700  24.627  1.00  0.00     0.025 A 
ATOM     22  C   UNL A   1      34.980  21.064  26.542  1.00  0.00     0.002 A 
ATOM     23  C   UNL A   1      33.639  22.552  27.347  1.00  0.00     0.022 A 
ENDBRANCH  14  17
ENDBRANCH  12  14
ENDBRANCH   7  12
BRANCH   9  24
ATOM     24  N   UNL A   1      31.106  27.936  25.174  1.00  0.00    -0.369 N 
ATOM     25  C   UNL A   1      30.660  29.129  24.458  1.00  0.00     0.116 C 
ATOM     26  C   UNL A   1      31.384  27.939  26.598  1.00  0.00     0.126 C 
ATOM     27  C   UNL A   1      31.520  30.317  24.840  1.00  0.00     0.022 C 
ATOM     28  C   UNL A   1      32.176  29.185  27.019  1.00  0.00     0.064 C 
ATOM     29  C   UNL A   1      31.534  30.419  26.358  1.00  0.00     0.013 C 
BRANCH  28  30
ATOM     30  C   UNL A   1      33.699  28.995  26.769  1.00  0.00     0.267 C 
BRANCH  30  31
ATOM     31  N   UNL A   1      34.655  29.227  27.860  1.00  0.00    -0.335 N 
ATOM     32  C   UNL A   1      34.591  30.565  28.447  1.00  0.00     0.262 C 
ATOM     33  C   UNL A   1      36.061  28.964  27.557  1.00  0.00     0.262 C 
ATOM     34  H   UNL A   1      34.331  28.527  28.528  1.00  0.00     0.348 HD
ATOM     35  C   UNL A   1      35.683  31.351  27.749  1.00  0.00     0.067 C 
ATOM     36  C   UNL A   1      36.772  30.317  27.522  1.00  0.00     0.067 C 
ENDBRANCH  30  31
ENDBRANCH  28  30
ENDBRANCH   9  24
ENDBRANCH   4   6
ENDBRANCH   3   4
ENDBRANCH   2   3
ENDBRANCH   1   2
BRANCH   1  37
ATOM     37  O   UNL A   1      37.092  23.839  24.204  1.00  0.00    -0.374 OA
BRANCH  37  38
ATOM     38  C   UNL A   1      37.407  23.769  25.571  1.00  0.00     0.202 C 
BRANCH  38  39
ATOM     39  C   UNL A   1      38.158  22.467  25.783  1.00  0.00     0.261 C 
BRANCH  39  40
ATOM     40  O   UNL A   1      39.510  22.802  26.245  1.00  0.00    -0.460 OA
BRANCH  40  41
ATOM     41  C   UNL A   1      40.418  21.780  26.397  1.00  0.00     0.338 C 
ATOM     42  O   UNL A   1      40.101  20.607  26.545  1.00  0.00    -0.246 OA
BRANCH  41  43
ATOM     43  C   UNL A   1      41.823  22.302  26.723  1.00  0.00     0.060 A 
ATOM     44  C   UNL A   1      42.295  22.330  28.047  1.00  0.00     0.016 A 
ATOM     45  C   UNL A   1      42.396  23.211  25.853  1.00  0.00     0.016 A 
ATOM     46  C   UNL A   1      43.045  23.449  28.522  1.00  0.00     0.010 A 
ATOM     47  C   UNL A   1      42.949  24.394  26.389  1.00  0.00     0.010 A 
ATOM     48  C   UNL A   1      43.163  24.623  27.770  1.00  0.00    -0.014 A 
BRANCH  48  49
ATOM     49  C   UNL A   1      43.753  26.008  28.215  1.00  0.00     0.031 A 
ATOM     50  C   UNL A   1      42.368  27.002  28.203  1.00  0.00     0.074 A 
ATOM     51  C   UNL A   1      45.180  26.444  28.833  1.00  0.00     0.049 A 
ATOM     52  N   UNL A   1      42.224  28.218  28.649  1.00  0.00    -0.248 NA
ATOM     53  C   UNL A   1      41.026  26.514  27.772  1.00  0.00     0.031 C 
ATOM     54  C   UNL A   1      45.692  28.300  29.860  1.00  0.00     0.029 A 
ATOM     55  N   UNL A   1      46.216  25.947  29.212  1.00  0.00    -0.354 N 
ATOM     56  C   UNL A   1      40.873  28.486  28.908  1.00  0.00     0.074 A 
ATOM     57  C   UNL A   1      40.167  27.389  28.316  1.00  0.00     0.031 C 
ATOM     58  C   UNL A   1      46.636  28.498  30.789  1.00  0.00     0.029 A 
ATOM     59  C   UNL A   1      46.822  27.609  29.791  1.00  0.00     0.049 A 
ATOM     60  H   UNL A   1      46.587  25.036  29.214  1.00  0.00     0.167 HD
ATOM     61  C   UNL A   1      40.506  29.568  29.671  1.00  0.00     0.031 A 
ATOM     62  C   UNL A   1      47.222  27.952  28.709  1.00  0.00     0.031 A 
ATOM     63  C   UNL A   1      41.672  30.433  29.934  1.00  0.00     0.049 A 
ATOM     64  C   UNL A   1      47.253  29.720  28.357  1.00  0.00     0.074 A 
ATOM     65  C   UNL A   1      42.358  30.849  31.060  1.00  0.00     0.029 A 
ATOM     66  N   UNL A   1      42.456  30.828  28.859  1.00  0.00    -0.354 N 
ATOM     67  N   UNL A   1      46.427  30.541  28.993  1.00  0.00    -0.248 NA
ATOM     68  C   UNL A   1      47.702  30.333  27.097  1.00  0.00     0.031 C 
ATOM     69  C   UNL A   1      43.623  31.380  30.635  1.00  0.00     0.029 A 
ATOM     70  C   UNL A   1      43.657  31.410  29.251  1.00  0.00     0.049 A 
ATOM     71  H   UNL A   1      42.190  30.709  27.919  1.00  0.00     0.167 HD
ATOM     72  C   UNL A   1      45.819  31.339  28.055  1.00  0.00     0.074 A 
ATOM     73  C   UNL A   1      46.713  31.225  26.903  1.00  0.00     0.031 C 
ATOM     74  C   UNL A   1      44.559  31.884  28.184  1.00  0.00     0.031 A 
BRANCH  61  75
ATOM     75  C   UNL A   1      39.129  29.877  30.312  1.00  0.00    -0.014 A 
ATOM     76  C   UNL A   1      38.757  31.235  30.475  1.00  0.00     0.009 A 
ATOM     77  C   UNL A   1      38.183  28.960  30.814  1.00  0.00     0.009 A 
ATOM     78  C   UNL A   1      37.572  31.656  31.109  1.00  0.00     0.001 A 
ATOM     79  C   UNL A   1      36.974  29.375  31.436  1.00  0.00     0.001 A 
ATOM     80  C   UNL A   1      36.674  30.723  31.593  1.00  0.00     0.000 A 
ENDBRANCH  61  75
BRANCH  62  81
ATOM     81  C   UNL A   1      46.954  26.103  27.475  1.00  0.00    -0.014 A 
ATOM     82  C   UNL A   1      46.435  26.067  25.959  1.00  0.00     0.009 A 
ATOM     83  C   UNL A   1      46.957  24.636  27.834  1.00  0.00     0.009 A 
ATOM     84  C   UNL A   1      46.191  24.966  25.115  1.00  0.00     0.001 A 
ATOM     85  C   UNL A   1      46.661  23.546  26.959  1.00  0.00     0.001 A 
ATOM     86  C   UNL A   1      46.378  23.703  25.607  1.00  0.00     0.000 A 
ENDBRANCH  62  81
BRANCH  74  87
ATOM     87  C   UNL A   1      44.008  32.947  27.241  1.00  0.00    -0.014 A 
ATOM     88  C   UNL A   1      44.059  32.829  25.850  1.00  0.00     0.009 A 
ATOM     89  C   UNL A   1      43.588  34.209  27.731  1.00  0.00     0.009 A 
ATOM     90  C   UNL A   1      43.674  33.866  24.998  1.00  0.00     0.001 A 
ATOM     91  C   UNL A   1      43.235  35.264  26.888  1.00  0.00     0.001 A 
ATOM     92  C   UNL A   1      43.279  35.090  25.515  1.00  0.00     0.000 A 
ENDBRANCH  74  87
ENDBRANCH  48  49
ENDBRANCH  41  43
ENDBRANCH  40  41
ENDBRANCH  39  40
ENDBRANCH  38  39
ENDBRANCH  37  38
ENDBRANCH   1  37
TORSDOF 20
ENDMDL
MODEL 3
REMARK VINA RESULT:     -10.1      2.498      6.247
REMARK SMILES Cc1cccc(S(=O)(=O)Nc2cc(C(=O)OCCOCCOC(=O)c3ccc(-c4c5nc(c(-c6ccccc6)c6ccc([nH]6)c(-c6ccccc6)c6nc(c(-c7ccccc7)c7ccc4[nH]7)C=C6)C=C5)cc3)ccc2N2CCC[C@H](C[NH+]3CCCC3)C2)c1
REMARK SMILES IDX 18 1 17 2 16 3 14 4 15 5 13 6 11 7 12 8 75 9 74 10 73 11
REMARK SMILES IDX 10 12 7 14 8 15 9 16 6 17 1 18 2 19 3 20 88 21 4 22 5 23
REMARK SMILES IDX 76 24 77 25 87 26 78 27 80 28 79 29 81 30 82 31 83 32 86 33
REMARK SMILES IDX 84 35 85 36 19 37 20 38 21 39 22 40 23 41 24 42 25 43 26 44
REMARK SMILES IDX 72 45 27 46 71 47 28 48 29 49 30 50 65 51 31 52 70 53 64 54
REMARK SMILES IDX 66 55 32 56 69 57 63 58 62 59 33 61 55 62 40 63 54 64 41 65
REMARK SMILES IDX 44 66 53 67 67 68 42 69 43 70 52 72 68 73 45 74 34 75 35 76
REMARK SMILES IDX 39 77 36 78 38 79 37 80 56 81 57 82 61 83 58 84 60 85 59 86
REMARK SMILES IDX 46 87 47 88 51 89 48 90 50 91 49 92
REMARK H PARENT 10 13 82 34 66 60 44 71
REMARK Flexibility Score: inf
ROOT
ATOM      1  C   UNL A   1      35.998  23.044  23.270  1.00  0.00     0.202 C 
ENDROOT
BRANCH   1   2
ATOM      2  C   UNL A   1      34.858  23.822  23.777  1.00  0.00     0.261 C 
BRANCH   2   3
ATOM      3  O   UNL A   1      33.637  23.330  23.263  1.00  0.00    -0.460 OA
BRANCH   3   4
ATOM      4  C   UNL A   1      33.130  23.363  22.014  1.00  0.00     0.338 C 
ATOM      5  O   UNL A   1      33.492  22.855  20.974  1.00  0.00    -0.246 OA
BRANCH   4   6
ATOM      6  C   UNL A   1      32.176  24.467  22.129  1.00  0.00     0.062 A 
ATOM      7  C   UNL A   1      30.702  25.190  23.827  1.00  0.00     0.073 A 
ATOM      8  C   UNL A   1      31.059  24.223  22.951  1.00  0.00     0.044 A 
ATOM      9  C   UNL A   1      31.011  26.510  23.473  1.00  0.00     0.061 A 
ATOM     10  C   UNL A   1      31.980  26.776  22.477  1.00  0.00     0.029 A 
ATOM     11  C   UNL A   1      32.644  25.743  21.859  1.00  0.00     0.018 A 
BRANCH   7  12
ATOM     12  N   UNL A   1      29.994  24.777  25.008  1.00  0.00    -0.277 N 
ATOM     13  H   UNL A   1      29.010  24.829  25.004  1.00  0.00     0.180 HD
BRANCH  12  14
ATOM     14  S   UNL A   1      30.788  24.186  26.447  1.00  0.00     0.261 S 
ATOM     15  O   UNL A   1      29.706  23.685  27.274  1.00  0.00    -0.201 OA
ATOM     16  O   UNL A   1      31.584  25.308  26.908  1.00  0.00    -0.201 OA
BRANCH  14  17
ATOM     17  C   UNL A   1      31.953  22.771  26.268  1.00  0.00     0.088 A 
ATOM     18  C   UNL A   1      32.189  19.380  22.773  1.00  0.00     0.044 C 
ATOM     19  C   UNL A   1      32.674  19.981  24.058  1.00  0.00    -0.050 A 
ATOM     20  C   UNL A   1      34.622  20.155  24.950  1.00  0.00     0.003 A 
ATOM     21  C   UNL A   1      31.434  21.434  24.778  1.00  0.00     0.025 A 
ATOM     22  C   UNL A   1      35.206  21.379  26.486  1.00  0.00     0.002 A 
ATOM     23  C   UNL A   1      33.802  22.880  27.146  1.00  0.00     0.022 A 
ENDBRANCH  14  17
ENDBRANCH  12  14
ENDBRANCH   7  12
BRANCH   9  24
ATOM     24  N   UNL A   1      30.257  27.545  23.977  1.00  0.00    -0.369 N 
ATOM     25  C   UNL A   1      29.351  28.179  23.023  1.00  0.00     0.116 C 
ATOM     26  C   UNL A   1      30.699  28.207  25.191  1.00  0.00     0.126 C 
ATOM     27  C   UNL A   1      29.808  29.595  22.733  1.00  0.00     0.022 C 
ATOM     28  C   UNL A   1      31.079  29.672  24.932  1.00  0.00     0.064 C 
ATOM     29  C   UNL A   1      29.983  30.314  24.062  1.00  0.00     0.013 C 
BRANCH  28  30
ATOM     30  C   UNL A   1      32.532  29.790  24.393  1.00  0.00     0.267 C 
BRANCH  30  31
ATOM     31  N   UNL A   1      33.666  29.729  25.325  1.00  0.00    -0.335 N 
ATOM     32  C   UNL A   1      34.421  28.477  25.280  1.00  0.00     0.262 C 
ATOM     33  C   UNL A   1      33.365  29.992  26.732  1.00  0.00     0.262 C 
ATOM     34  H   UNL A   1      34.230  30.500  24.965  1.00  0.00     0.348 HD
ATOM     35  C   UNL A   1      33.857  27.640  26.411  1.00  0.00     0.067 C 
ATOM     36  C   UNL A   1      33.523  28.668  27.479  1.00  0.00     0.067 C 
ENDBRANCH  30  31
ENDBRANCH  28  30
ENDBRANCH   9  24
ENDBRANCH   4   6
ENDBRANCH   3   4
ENDBRANCH   2   3
ENDBRANCH   1   2
BRANCH   1  37
ATOM     37  O   UNL A   1      37.160  23.609  23.821  1.00  0.00    -0.374 OA
BRANCH  37  38
ATOM     38  C   UNL A   1      37.275  23.633  25.220  1.00  0.00     0.202 C 
BRANCH  38  39
ATOM     39  C   UNL A   1      38.422  22.707  25.583  1.00  0.00     0.261 C 
BRANCH  39  40
ATOM     40  O   UNL A   1      38.942  23.130  26.889  1.00  0.00    -0.460 OA
BRANCH  40  41
ATOM     41  C   UNL A   1      40.187  23.713  26.937  1.00  0.00     0.338 C 
ATOM     42  O   UNL A   1      41.229  23.080  27.040  1.00  0.00    -0.246 OA
BRANCH  41  43
ATOM     43  C   UNL A   1      40.105  25.219  27.213  1.00  0.00     0.060 A 
ATOM     44  C   UNL A   1      41.025  26.112  26.633  1.00  0.00     0.016 A 
ATOM     45  C   UNL A   1      39.519  25.633  28.395  1.00  0.00     0.016 A 
ATOM     46  C   UNL A   1      41.563  27.191  27.397  1.00  0.00     0.010 A 
ATOM     47  C   UNL A   1      40.213  26.566  29.196  1.00  0.00     0.010 A 
ATOM     48  C   UNL A   1      41.362  27.281  28.779  1.00  0.00    -0.014 A 
BRANCH  48  49
ATOM     49  C   UNL A   1      42.045  28.258  29.800  1.00  0.00     0.031 A 
ATOM     50  C   UNL A   1      43.290  27.284  30.440  1.00  0.00     0.074 A 
ATOM     51  C   UNL A   1      41.911  29.848  30.054  1.00  0.00     0.049 A 
ATOM     52  N   UNL A   1      44.285  27.623  31.211  1.00  0.00    -0.248 NA
ATOM     53  C   UNL A   1      43.477  25.856  30.056  1.00  0.00     0.031 C 
ATOM     54  C   UNL A   1      43.268  31.153  31.158  1.00  0.00     0.029 A 
ATOM     55  N   UNL A   1      41.354  30.816  29.591  1.00  0.00    -0.354 N 
ATOM     56  C   UNL A   1      45.324  26.688  31.103  1.00  0.00     0.074 A 
ATOM     57  C   UNL A   1      44.750  25.591  30.384  1.00  0.00     0.031 C 
ATOM     58  C   UNL A   1      43.482  32.462  30.980  1.00  0.00     0.029 A 
ATOM     59  C   UNL A   1      42.261  31.927  30.778  1.00  0.00     0.049 A 
ATOM     60  H   UNL A   1      40.692  30.959  28.877  1.00  0.00     0.167 HD
ATOM     61  C   UNL A   1      46.585  26.985  31.563  1.00  0.00     0.031 A 
ATOM     62  C   UNL A   1      41.493  31.749  31.688  1.00  0.00     0.031 A 
ATOM     63  C   UNL A   1      46.571  28.248  32.326  1.00  0.00     0.049 A 
ATOM     64  C   UNL A   1      42.139  31.910  33.363  1.00  0.00     0.074 A 
ATOM     65  C   UNL A   1      47.168  29.488  32.191  1.00  0.00     0.029 A 
ATOM     66  N   UNL A   1      45.628  28.402  33.332  1.00  0.00    -0.354 N 
ATOM     67  N   UNL A   1      43.428  31.712  33.602  1.00  0.00    -0.248 NA
ATOM     68  C   UNL A   1      41.362  31.728  34.600  1.00  0.00     0.031 C 
ATOM     69  C   UNL A   1      46.470  30.409  33.044  1.00  0.00     0.029 A 
ATOM     70  C   UNL A   1      45.538  29.711  33.794  1.00  0.00     0.049 A 
ATOM     71  H   UNL A   1      45.080  27.662  33.681  1.00  0.00     0.167 HD
ATOM     72  C   UNL A   1      43.532  30.857  34.673  1.00  0.00     0.074 A 
ATOM     73  C   UNL A   1      42.220  30.969  35.307  1.00  0.00     0.031 C 
ATOM     74  C   UNL A   1      44.577  29.980  34.880  1.00  0.00     0.031 A 
BRANCH  61  75
ATOM     75  C   UNL A   1      47.915  26.239  31.288  1.00  0.00    -0.014 A 
ATOM     76  C   UNL A   1      48.605  25.673  32.390  1.00  0.00     0.009 A 
ATOM     77  C   UNL A   1      48.578  26.079  30.054  1.00  0.00     0.009 A 
ATOM     78  C   UNL A   1      49.857  25.036  32.292  1.00  0.00     0.001 A 
ATOM     79  C   UNL A   1      49.832  25.419  29.943  1.00  0.00     0.001 A 
ATOM     80  C   UNL A   1      50.476  24.907  31.063  1.00  0.00     0.000 A 
ENDBRANCH  61  75
BRANCH  62  81
ATOM     81  C   UNL A   1      39.869  30.538  30.733  1.00  0.00    -0.014 A 
ATOM     82  C   UNL A   1      39.058  30.950  29.413  1.00  0.00     0.009 A 
ATOM     83  C   UNL A   1      39.093  29.332  31.207  1.00  0.00     0.009 A 
ATOM     84  C   UNL A   1      37.999  30.289  28.762  1.00  0.00     0.001 A 
ATOM     85  C   UNL A   1      37.992  28.713  30.538  1.00  0.00     0.001 A 
ATOM     86  C   UNL A   1      37.519  29.125  29.298  1.00  0.00     0.000 A 
ENDBRANCH  62  81
BRANCH  74  87
ATOM     87  C   UNL A   1      44.782  29.218  36.183  1.00  0.00    -0.014 A 
ATOM     88  C   UNL A   1      45.558  29.708  37.236  1.00  0.00     0.009 A 
ATOM     89  C   UNL A   1      44.351  27.874  36.317  1.00  0.00     0.009 A 
ATOM     90  C   UNL A   1      45.849  28.945  38.368  1.00  0.00     0.001 A 
ATOM     91  C   UNL A   1      44.666  27.090  37.430  1.00  0.00     0.001 A 
ATOM     92  C   UNL A   1      45.418  27.631  38.459  1.00  0.00     0.000 A 
ENDBRANCH  74  87
ENDBRANCH  48  49
ENDBRANCH  41  43
ENDBRANCH  40  41
ENDBRANCH  39  40
ENDBRANCH  38  39
ENDBRANCH  37  38
ENDBRANCH   1  37
TORSDOF 20
ENDMDL
