MODEL 1
REMARK VINA RESULT:     -11.1      0.000      0.000
REMARK SMILES Cc1ccc(C(=O)OCCOCCOC(=O)c2ccc(-c3c4nc(c(-c5ccccc5)c5ccc([nH]5)c(-c5ccccc5)c5nc(c(-c6ccccc6)c6ccc3[nH]6)C=C5)C=C4)cc2)c(Oc2cccc(F)c2C(N)=O)c1
REMARK SMILES IDX 10 1 9 2 8 3 6 4 7 5 5 6 1 7 2 8 3 9 77 10 4 11 65 12 66 13
REMARK SMILES IDX 67 14 68 15 73 16 69 17 71 18 70 19 72 20 74 21 75 22 76 23
REMARK SMILES IDX 11 26 12 27 13 28 14 29 15 30 16 31 17 32 18 33 64 34 19 35
REMARK SMILES IDX 63 36 20 37 21 38 22 39 57 40 23 41 62 42 56 43 58 44 24 45
REMARK SMILES IDX 61 46 55 47 54 48 25 50 47 51 32 52 46 53 33 54 36 55 45 56
REMARK SMILES IDX 59 57 34 58 35 59 44 61 60 62 37 63 26 64 27 65 31 66 28 67
REMARK SMILES IDX 30 68 29 69 48 70 49 71 53 72 50 73 52 74 51 75 38 76 39 77
REMARK SMILES IDX 43 78 40 79 42 80 41 81
REMARK H PARENT 75 24 75 25 58 49 36 60
REMARK Flexibility Score: inf
ROOT
ATOM      1  C   UNL A   1      37.367  23.258  25.702  1.00  0.00     0.202 C 
ENDROOT
BRANCH   1   2
ATOM      2  C   UNL A   1      36.021  23.767  25.327  1.00  0.00     0.261 C 
BRANCH   2   3
ATOM      3  O   UNL A   1      35.340  22.796  24.535  1.00  0.00    -0.460 OA
BRANCH   3   4
ATOM      4  C   UNL A   1      34.415  23.177  23.611  1.00  0.00     0.342 C 
ATOM      5  O   UNL A   1      34.583  23.378  22.429  1.00  0.00    -0.246 OA
BRANCH   4   6
ATOM      6  C   UNL A   1      33.090  23.105  24.284  1.00  0.00     0.102 A 
ATOM      7  C   UNL A   1      29.754  22.878  26.965  1.00  0.00     0.044 C 
ATOM      8  C   UNL A   1      30.877  22.951  25.972  1.00  0.00    -0.047 A 
ATOM      9  C   UNL A   1      31.628  21.802  25.688  1.00  0.00     0.004 A 
ATOM     10  C   UNL A   1      31.191  24.168  25.349  1.00  0.00     0.051 A 
ATOM     11  C   UNL A   1      32.729  21.873  24.837  1.00  0.00     0.020 A 
ATOM     12  C   UNL A   1      32.297  24.250  24.508  1.00  0.00     0.142 A 
BRANCH  12  13
ATOM     13  O   UNL A   1      32.683  25.392  23.846  1.00  0.00    -0.455 OA
BRANCH  13  14
ATOM     14  C   UNL A   1      32.633  26.641  24.396  1.00  0.00     0.143 A 
ATOM     15  C   UNL A   1      33.610  26.818  25.390  1.00  0.00     0.048 A 
ATOM     16  C   UNL A   1      31.653  27.625  24.187  1.00  0.00     0.117 A 
ATOM     17  C   UNL A   1      33.665  27.988  26.138  1.00  0.00     0.007 A 
ATOM     18  C   UNL A   1      31.735  28.802  24.941  1.00  0.00     0.139 A 
ATOM     19  C   UNL A   1      32.730  28.988  25.901  1.00  0.00     0.040 A 
ATOM     20  F   UNL A   1      30.825  29.779  24.810  1.00  0.00    -0.206 F 
BRANCH  16  21
ATOM     21  C   UNL A   1      30.497  27.508  23.264  1.00  0.00     0.255 C 
ATOM     22  N   UNL A   1      29.486  26.669  23.621  1.00  0.00    -0.365 N 
ATOM     23  O   UNL A   1      30.415  28.145  22.224  1.00  0.00    -0.269 OA
ATOM     24  H   UNL A   1      29.547  26.154  24.457  1.00  0.00     0.159 HD
ATOM     25  H   UNL A   1      28.695  26.579  23.042  1.00  0.00     0.159 HD
ENDBRANCH  16  21
ENDBRANCH  13  14
ENDBRANCH  12  13
ENDBRANCH   4   6
ENDBRANCH   3   4
ENDBRANCH   2   3
ENDBRANCH   1   2
BRANCH   1  26
ATOM     26  O   UNL A   1      37.246  21.846  25.698  1.00  0.00    -0.374 OA
BRANCH  26  27
ATOM     27  C   UNL A   1      38.431  21.153  25.365  1.00  0.00     0.202 C 
BRANCH  27  28
ATOM     28  C   UNL A   1      39.650  21.640  26.162  1.00  0.00     0.261 C 
BRANCH  28  29
ATOM     29  O   UNL A   1      40.471  20.506  26.527  1.00  0.00    -0.460 OA
BRANCH  29  30
ATOM     30  C   UNL A   1      41.766  20.512  26.096  1.00  0.00     0.338 C 
ATOM     31  O   UNL A   1      42.303  19.622  25.457  1.00  0.00    -0.246 OA
BRANCH  30  32
ATOM     32  C   UNL A   1      42.525  21.599  26.795  1.00  0.00     0.060 A 
ATOM     33  C   UNL A   1      42.363  21.802  28.182  1.00  0.00     0.016 A 
ATOM     34  C   UNL A   1      43.081  22.609  26.016  1.00  0.00     0.016 A 
ATOM     35  C   UNL A   1      42.608  23.066  28.749  1.00  0.00     0.010 A 
ATOM     36  C   UNL A   1      43.198  23.872  26.556  1.00  0.00     0.010 A 
ATOM     37  C   UNL A   1      42.938  24.129  27.915  1.00  0.00    -0.014 A 
BRANCH  37  38
ATOM     38  C   UNL A   1      42.913  25.560  28.260  1.00  0.00     0.031 A 
ATOM     39  C   UNL A   1      41.712  26.344  27.876  1.00  0.00     0.074 A 
ATOM     40  C   UNL A   1      43.762  26.073  29.191  1.00  0.00     0.049 A 
ATOM     41  N   UNL A   1      41.605  27.618  28.018  1.00  0.00    -0.248 NA
ATOM     42  C   UNL A   1      40.514  25.757  27.271  1.00  0.00     0.031 C 
ATOM     43  C   UNL A   1      43.550  27.216  30.083  1.00  0.00     0.029 A 
ATOM     44  N   UNL A   1      45.046  25.658  29.556  1.00  0.00    -0.354 N 
ATOM     45  C   UNL A   1      40.265  27.922  27.956  1.00  0.00     0.074 A 
ATOM     46  C   UNL A   1      39.654  26.775  27.338  1.00  0.00     0.031 C 
ATOM     47  C   UNL A   1      44.719  27.588  30.639  1.00  0.00     0.029 A 
ATOM     48  C   UNL A   1      45.754  26.769  30.037  1.00  0.00     0.049 A 
ATOM     49  H   UNL A   1      45.395  24.740  29.487  1.00  0.00     0.167 HD
ATOM     50  C   UNL A   1      39.824  29.037  28.603  1.00  0.00     0.031 A 
ATOM     51  C   UNL A   1      46.912  27.166  29.446  1.00  0.00     0.031 A 
ATOM     52  C   UNL A   1      40.954  29.815  29.142  1.00  0.00     0.049 A 
ATOM     53  C   UNL A   1      46.656  28.526  28.867  1.00  0.00     0.074 A 
ATOM     54  C   UNL A   1      41.407  30.072  30.425  1.00  0.00     0.029 A 
ATOM     55  N   UNL A   1      41.991  30.188  28.283  1.00  0.00    -0.354 N 
ATOM     56  N   UNL A   1      45.454  28.914  28.529  1.00  0.00    -0.248 NA
ATOM     57  C   UNL A   1      47.643  29.595  28.774  1.00  0.00     0.031 C 
ATOM     58  C   UNL A   1      42.762  30.507  30.329  1.00  0.00     0.029 A 
ATOM     59  C   UNL A   1      43.124  30.542  28.990  1.00  0.00     0.049 A 
ATOM     60  H   UNL A   1      41.924  30.195  27.301  1.00  0.00     0.167 HD
ATOM     61  C   UNL A   1      45.456  30.263  28.374  1.00  0.00     0.074 A 
ATOM     62  C   UNL A   1      46.860  30.639  28.439  1.00  0.00     0.031 C 
ATOM     63  C   UNL A   1      44.320  31.008  28.293  1.00  0.00     0.031 A 
BRANCH  50  64
ATOM     64  C   UNL A   1      38.375  29.307  28.965  1.00  0.00    -0.014 A 
ATOM     65  C   UNL A   1      37.461  29.651  27.952  1.00  0.00     0.009 A 
ATOM     66  C   UNL A   1      37.847  29.303  30.271  1.00  0.00     0.009 A 
ATOM     67  C   UNL A   1      36.127  29.996  28.226  1.00  0.00     0.001 A 
ATOM     68  C   UNL A   1      36.516  29.641  30.556  1.00  0.00     0.001 A 
ATOM     69  C   UNL A   1      35.653  29.994  29.531  1.00  0.00     0.000 A 
ENDBRANCH  50  64
BRANCH  51  70
ATOM     70  C   UNL A   1      47.668  25.995  28.896  1.00  0.00    -0.014 A 
ATOM     71  C   UNL A   1      47.526  25.757  27.505  1.00  0.00     0.009 A 
ATOM     72  C   UNL A   1      48.831  25.524  29.524  1.00  0.00     0.009 A 
ATOM     73  C   UNL A   1      48.582  25.233  26.745  1.00  0.00     0.001 A 
ATOM     74  C   UNL A   1      49.879  24.984  28.757  1.00  0.00     0.001 A 
ATOM     75  C   UNL A   1      49.775  24.889  27.368  1.00  0.00     0.000 A 
ENDBRANCH  51  70
BRANCH  63  76
ATOM     76  C   UNL A   1      44.268  32.308  27.556  1.00  0.00    -0.014 A 
ATOM     77  C   UNL A   1      44.392  32.389  26.162  1.00  0.00     0.009 A 
ATOM     78  C   UNL A   1      43.861  33.470  28.241  1.00  0.00     0.009 A 
ATOM     79  C   UNL A   1      44.166  33.590  25.488  1.00  0.00     0.001 A 
ATOM     80  C   UNL A   1      43.578  34.653  27.565  1.00  0.00     0.001 A 
ATOM     81  C   UNL A   1      43.746  34.715  26.188  1.00  0.00     0.000 A 
ENDBRANCH  63  76
ENDBRANCH  37  38
ENDBRANCH  30  32
ENDBRANCH  29  30
ENDBRANCH  28  29
ENDBRANCH  27  28
ENDBRANCH  26  27
ENDBRANCH   1  26
TORSDOF 17
ENDMDL
MODEL 2
REMARK VINA RESULT:     -10.9      4.275      9.051
REMARK SMILES Cc1ccc(C(=O)OCCOCCOC(=O)c2ccc(-c3c4nc(c(-c5ccccc5)c5ccc([nH]5)c(-c5ccccc5)c5nc(c(-c6ccccc6)c6ccc3[nH]6)C=C5)C=C4)cc2)c(Oc2cccc(F)c2C(N)=O)c1
REMARK SMILES IDX 10 1 9 2 8 3 6 4 7 5 5 6 1 7 2 8 3 9 77 10 4 11 65 12 66 13
REMARK SMILES IDX 67 14 68 15 73 16 69 17 71 18 70 19 72 20 74 21 75 22 76 23
REMARK SMILES IDX 11 26 12 27 13 28 14 29 15 30 16 31 17 32 18 33 64 34 19 35
REMARK SMILES IDX 63 36 20 37 21 38 22 39 57 40 23 41 62 42 56 43 58 44 24 45
REMARK SMILES IDX 61 46 55 47 54 48 25 50 47 51 32 52 46 53 33 54 36 55 45 56
REMARK SMILES IDX 59 57 34 58 35 59 44 61 60 62 37 63 26 64 27 65 31 66 28 67
REMARK SMILES IDX 30 68 29 69 48 70 49 71 53 72 50 73 52 74 51 75 38 76 39 77
REMARK SMILES IDX 43 78 40 79 42 80 41 81
REMARK H PARENT 75 24 75 25 58 49 36 60
REMARK Flexibility Score: inf
ROOT
ATOM      1  C   UNL A   1      34.063  29.066  26.633  1.00  0.00     0.202 C 
ENDROOT
BRANCH   1   2
ATOM      2  C   UNL A   1      33.037  28.175  27.235  1.00  0.00     0.261 C 
BRANCH   2   3
ATOM      3  O   UNL A   1      32.898  26.994  26.445  1.00  0.00    -0.460 OA
BRANCH   3   4
ATOM      4  C   UNL A   1      31.664  26.517  26.121  1.00  0.00     0.342 C 
ATOM      5  O   UNL A   1      30.661  26.524  26.798  1.00  0.00    -0.246 OA
BRANCH   4   6
ATOM      6  C   UNL A   1      31.716  26.159  24.677  1.00  0.00     0.102 A 
ATOM      7  C   UNL A   1      32.624  25.587  20.528  1.00  0.00     0.044 C 
ATOM      8  C   UNL A   1      32.244  25.755  21.969  1.00  0.00    -0.047 A 
ATOM      9  C   UNL A   1      31.726  26.981  22.412  1.00  0.00     0.004 A 
ATOM     10  C   UNL A   1      32.428  24.702  22.877  1.00  0.00     0.051 A 
ATOM     11  C   UNL A   1      31.453  27.183  23.763  1.00  0.00     0.020 A 
ATOM     12  C   UNL A   1      32.169  24.900  24.230  1.00  0.00     0.142 A 
BRANCH  12  13
ATOM     13  O   UNL A   1      32.311  23.931  25.195  1.00  0.00    -0.455 OA
BRANCH  13  14
ATOM     14  C   UNL A   1      33.433  23.165  25.342  1.00  0.00     0.143 A 
ATOM     15  C   UNL A   1      34.535  23.923  25.772  1.00  0.00     0.048 A 
ATOM     16  C   UNL A   1      33.604  21.824  24.963  1.00  0.00     0.117 A 
ATOM     17  C   UNL A   1      35.794  23.349  25.891  1.00  0.00     0.007 A 
ATOM     18  C   UNL A   1      34.879  21.261  25.105  1.00  0.00     0.139 A 
ATOM     19  C   UNL A   1      35.961  22.009  25.568  1.00  0.00     0.040 A 
ATOM     20  F   UNL A   1      35.123  19.992  24.747  1.00  0.00    -0.206 F 
BRANCH  16  21
ATOM     21  C   UNL A   1      32.556  20.954  24.374  1.00  0.00     0.255 C 
ATOM     22  N   UNL A   1      32.176  21.203  23.091  1.00  0.00    -0.365 N 
ATOM     23  O   UNL A   1      32.048  20.025  24.985  1.00  0.00    -0.269 OA
ATOM     24  H   UNL A   1      32.581  21.950  22.594  1.00  0.00     0.159 HD
ATOM     25  H   UNL A   1      31.496  20.636  22.661  1.00  0.00     0.159 HD
ENDBRANCH  16  21
ENDBRANCH  13  14
ENDBRANCH  12  13
ENDBRANCH   4   6
ENDBRANCH   3   4
ENDBRANCH   2   3
ENDBRANCH   1   2
BRANCH   1  26
ATOM     26  O   UNL A   1      34.804  29.576  27.728  1.00  0.00    -0.374 OA
BRANCH  26  27
ATOM     27  C   UNL A   1      35.103  30.954  27.649  1.00  0.00     0.202 C 
BRANCH  27  28
ATOM     28  C   UNL A   1      33.885  31.844  27.936  1.00  0.00     0.261 C 
BRANCH  28  29
ATOM     29  O   UNL A   1      34.321  33.212  28.121  1.00  0.00    -0.460 OA
BRANCH  29  30
ATOM     30  C   UNL A   1      34.271  33.713  29.389  1.00  0.00     0.338 C 
ATOM     31  O   UNL A   1      33.356  34.373  29.854  1.00  0.00    -0.246 OA
BRANCH  30  32
ATOM     32  C   UNL A   1      35.629  33.628  30.018  1.00  0.00     0.060 A 
ATOM     33  C   UNL A   1      36.785  33.905  29.258  1.00  0.00     0.016 A 
ATOM     34  C   UNL A   1      35.749  32.931  31.216  1.00  0.00     0.016 A 
ATOM     35  C   UNL A   1      38.024  33.345  29.617  1.00  0.00     0.010 A 
ATOM     36  C   UNL A   1      36.937  32.286  31.490  1.00  0.00     0.010 A 
ATOM     37  C   UNL A   1      38.080  32.457  30.686  1.00  0.00    -0.014 A 
BRANCH  37  38
ATOM     38  C   UNL A   1      39.183  31.535  31.010  1.00  0.00     0.031 A 
ATOM     39  C   UNL A   1      39.252  30.252  30.266  1.00  0.00     0.074 A 
ATOM     40  C   UNL A   1      40.284  31.967  31.681  1.00  0.00     0.049 A 
ATOM     41  N   UNL A   1      40.094  29.314  30.524  1.00  0.00    -0.248 NA
ATOM     42  C   UNL A   1      38.355  29.897  29.164  1.00  0.00     0.031 C 
ATOM     43  C   UNL A   1      41.657  31.463  31.593  1.00  0.00     0.029 A 
ATOM     44  N   UNL A   1      40.414  32.996  32.619  1.00  0.00    -0.354 N 
ATOM     45  C   UNL A   1      40.144  28.499  29.417  1.00  0.00     0.074 A 
ATOM     46  C   UNL A   1      38.947  28.805  28.678  1.00  0.00     0.031 C 
ATOM     47  C   UNL A   1      42.389  31.944  32.616  1.00  0.00     0.029 A 
ATOM     48  C   UNL A   1      41.484  32.688  33.472  1.00  0.00     0.049 A 
ATOM     49  H   UNL A   1      39.850  33.801  32.671  1.00  0.00     0.167 HD
ATOM     50  C   UNL A   1      41.288  27.799  29.180  1.00  0.00     0.031 A 
ATOM     51  C   UNL A   1      41.293  32.566  34.812  1.00  0.00     0.031 A 
ATOM     52  C   UNL A   1      42.237  27.947  30.297  1.00  0.00     0.049 A 
ATOM     53  C   UNL A   1      41.586  31.137  35.161  1.00  0.00     0.074 A 
ATOM     54  C   UNL A   1      43.458  28.587  30.431  1.00  0.00     0.029 A 
ATOM     55  N   UNL A   1      41.808  27.659  31.595  1.00  0.00    -0.354 N 
ATOM     56  N   UNL A   1      41.468  30.176  34.281  1.00  0.00    -0.248 NA
ATOM     57  C   UNL A   1      42.179  30.686  36.414  1.00  0.00     0.031 C 
ATOM     58  C   UNL A   1      43.704  28.768  31.825  1.00  0.00     0.029 A 
ATOM     59  C   UNL A   1      42.651  28.214  32.538  1.00  0.00     0.049 A 
ATOM     60  H   UNL A   1      41.005  27.129  31.809  1.00  0.00     0.167 HD
ATOM     61  C   UNL A   1      42.115  29.076  34.744  1.00  0.00     0.074 A 
ATOM     62  C   UNL A   1      42.461  29.403  36.118  1.00  0.00     0.031 C 
ATOM     63  C   UNL A   1      42.414  28.002  33.963  1.00  0.00     0.031 A 
BRANCH  50  64
ATOM     64  C   UNL A   1      41.660  27.180  27.845  1.00  0.00    -0.014 A 
ATOM     65  C   UNL A   1      40.703  26.422  27.143  1.00  0.00     0.009 A 
ATOM     66  C   UNL A   1      42.931  27.243  27.242  1.00  0.00     0.009 A 
ATOM     67  C   UNL A   1      41.003  25.752  25.946  1.00  0.00     0.001 A 
ATOM     68  C   UNL A   1      43.241  26.582  26.044  1.00  0.00     0.001 A 
ATOM     69  C   UNL A   1      42.276  25.829  25.396  1.00  0.00     0.000 A 
ENDBRANCH  50  64
BRANCH  51  70
ATOM     70  C   UNL A   1      40.213  33.488  35.291  1.00  0.00    -0.014 A 
ATOM     71  C   UNL A   1      39.092  32.872  35.904  1.00  0.00     0.009 A 
ATOM     72  C   UNL A   1      40.495  34.818  35.633  1.00  0.00     0.009 A 
ATOM     73  C   UNL A   1      38.397  33.500  36.947  1.00  0.00     0.001 A 
ATOM     74  C   UNL A   1      39.782  35.449  36.669  1.00  0.00     0.001 A 
ATOM     75  C   UNL A   1      38.773  34.772  37.358  1.00  0.00     0.000 A 
ENDBRANCH  51  70
BRANCH  63  76
ATOM     76  C   UNL A   1      42.557  26.623  34.523  1.00  0.00    -0.014 A 
ATOM     77  C   UNL A   1      41.535  25.996  35.250  1.00  0.00     0.009 A 
ATOM     78  C   UNL A   1      43.653  25.831  34.129  1.00  0.00     0.009 A 
ATOM     79  C   UNL A   1      41.626  24.651  35.609  1.00  0.00     0.001 A 
ATOM     80  C   UNL A   1      43.719  24.475  34.435  1.00  0.00     0.001 A 
ATOM     81  C   UNL A   1      42.711  23.889  35.189  1.00  0.00     0.000 A 
ENDBRANCH  63  76
ENDBRANCH  37  38
ENDBRANCH  30  32
ENDBRANCH  29  30
ENDBRANCH  28  29
ENDBRANCH  27  28
ENDBRANCH  26  27
ENDBRANCH   1  26
TORSDOF 17
ENDMDL
MODEL 3
REMARK VINA RESULT:     -10.7      3.438      8.214
REMARK SMILES Cc1ccc(C(=O)OCCOCCOC(=O)c2ccc(-c3c4nc(c(-c5ccccc5)c5ccc([nH]5)c(-c5ccccc5)c5nc(c(-c6ccccc6)c6ccc3[nH]6)C=C5)C=C4)cc2)c(Oc2cccc(F)c2C(N)=O)c1
REMARK SMILES IDX 10 1 9 2 8 3 6 4 7 5 5 6 1 7 2 8 3 9 77 10 4 11 65 12 66 13
REMARK SMILES IDX 67 14 68 15 73 16 69 17 71 18 70 19 72 20 74 21 75 22 76 23
REMARK SMILES IDX 11 26 12 27 13 28 14 29 15 30 16 31 17 32 18 33 64 34 19 35
REMARK SMILES IDX 63 36 20 37 21 38 22 39 57 40 23 41 62 42 56 43 58 44 24 45
REMARK SMILES IDX 61 46 55 47 54 48 25 50 47 51 32 52 46 53 33 54 36 55 45 56
REMARK SMILES IDX 59 57 34 58 35 59 44 61 60 62 37 63 26 64 27 65 31 66 28 67
REMARK SMILES IDX 30 68 29 69 48 70 49 71 53 72 50 73 52 74 51 75 38 76 39 77
REMARK SMILES IDX 43 78 40 79 42 80 41 81
REMARK H PARENT 75 24 75 25 58 49 36 60
REMARK Flexibility Score: inf
ROOT
ATOM      1  C   UNL A   1      32.912  28.700  24.591  1.00  0.00     0.202 C 
ENDROOT
BRANCH   1   2
ATOM      2  C   UNL A   1      33.789  27.810  23.785  1.00  0.00     0.261 C 
BRANCH   2   3
ATOM      3  O   UNL A   1      33.536  26.447  24.122  1.00  0.00    -0.460 OA
BRANCH   3   4
ATOM      4  C   UNL A   1      32.498  25.772  23.554  1.00  0.00     0.342 C 
ATOM      5  O   UNL A   1      32.195  25.721  22.384  1.00  0.00    -0.246 OA
BRANCH   4   6
ATOM      6  C   UNL A   1      31.910  24.922  24.626  1.00  0.00     0.102 A 
ATOM      7  C   UNL A   1      29.464  22.585  27.256  1.00  0.00     0.044 C 
ATOM      8  C   UNL A   1      30.374  23.395  26.381  1.00  0.00    -0.047 A 
ATOM      9  C   UNL A   1      30.318  24.796  26.431  1.00  0.00     0.004 A 
ATOM     10  C   UNL A   1      31.259  22.758  25.499  1.00  0.00     0.051 A 
ATOM     11  C   UNL A   1      31.091  25.561  25.561  1.00  0.00     0.020 A 
ATOM     12  C   UNL A   1      32.026  23.516  24.619  1.00  0.00     0.142 A 
BRANCH  12  13
ATOM     13  O   UNL A   1      32.925  22.988  23.723  1.00  0.00    -0.455 OA
BRANCH  13  14
ATOM     14  C   UNL A   1      34.166  22.535  24.073  1.00  0.00     0.143 A 
ATOM     15  C   UNL A   1      35.182  23.417  23.666  1.00  0.00     0.048 A 
ATOM     16  C   UNL A   1      34.495  21.280  24.609  1.00  0.00     0.117 A 
ATOM     17  C   UNL A   1      36.522  23.095  23.842  1.00  0.00     0.007 A 
ATOM     18  C   UNL A   1      35.851  20.981  24.792  1.00  0.00     0.139 A 
ATOM     19  C   UNL A   1      36.855  21.876  24.421  1.00  0.00     0.040 A 
ATOM     20  F   UNL A   1      36.243  19.795  25.282  1.00  0.00    -0.206 F 
BRANCH  16  21
ATOM     21  C   UNL A   1      33.527  20.211  24.958  1.00  0.00     0.255 C 
ATOM     22  N   UNL A   1      33.291  19.979  26.278  1.00  0.00    -0.365 N 
ATOM     23  O   UNL A   1      32.929  19.559  24.114  1.00  0.00    -0.269 OA
ATOM     24  H   UNL A   1      33.769  20.500  26.962  1.00  0.00     0.159 HD
ATOM     25  H   UNL A   1      32.642  19.290  26.548  1.00  0.00     0.159 HD
ENDBRANCH  16  21
ENDBRANCH  13  14
ENDBRANCH  12  13
ENDBRANCH   4   6
ENDBRANCH   3   4
ENDBRANCH   2   3
ENDBRANCH   1   2
BRANCH   1  26
ATOM     26  O   UNL A   1      33.735  29.190  25.635  1.00  0.00    -0.374 OA
BRANCH  26  27
ATOM     27  C   UNL A   1      33.034  29.663  26.767  1.00  0.00     0.202 C 
BRANCH  27  28
ATOM     28  C   UNL A   1      33.275  31.156  27.034  1.00  0.00     0.261 C 
BRANCH  28  29
ATOM     29  O   UNL A   1      34.041  31.309  28.252  1.00  0.00    -0.460 OA
BRANCH  29  30
ATOM     30  C   UNL A   1      35.368  31.601  28.119  1.00  0.00     0.338 C 
ATOM     31  O   UNL A   1      35.821  32.620  27.623  1.00  0.00    -0.246 OA
BRANCH  30  32
ATOM     32  C   UNL A   1      36.182  30.365  28.353  1.00  0.00     0.060 A 
ATOM     33  C   UNL A   1      36.181  29.741  29.619  1.00  0.00     0.016 A 
ATOM     34  C   UNL A   1      37.197  30.073  27.448  1.00  0.00     0.016 A 
ATOM     35  C   UNL A   1      37.275  28.957  30.026  1.00  0.00     0.010 A 
ATOM     36  C   UNL A   1      38.317  29.409  27.901  1.00  0.00     0.010 A 
ATOM     37  C   UNL A   1      38.389  28.867  29.198  1.00  0.00    -0.014 A 
BRANCH  37  38
ATOM     38  C   UNL A   1      39.728  28.382  29.572  1.00  0.00     0.031 A 
ATOM     39  C   UNL A   1      40.196  27.108  28.971  1.00  0.00     0.074 A 
ATOM     40  C   UNL A   1      40.641  29.213  30.144  1.00  0.00     0.049 A 
ATOM     41  N   UNL A   1      41.293  26.518  29.292  1.00  0.00    -0.248 NA
ATOM     42  C   UNL A   1      39.450  26.363  27.954  1.00  0.00     0.031 C 
ATOM     43  C   UNL A   1      42.103  29.159  30.052  1.00  0.00     0.029 A 
ATOM     44  N   UNL A   1      40.445  30.333  30.958  1.00  0.00    -0.354 N 
ATOM     45  C   UNL A   1      41.590  25.636  28.279  1.00  0.00     0.074 A 
ATOM     46  C   UNL A   1      40.354  25.463  27.564  1.00  0.00     0.031 C 
ATOM     47  C   UNL A   1      42.652  29.961  30.984  1.00  0.00     0.029 A 
ATOM     48  C   UNL A   1      41.563  30.478  31.792  1.00  0.00     0.049 A 
ATOM     49  H   UNL A   1      39.656  30.921  30.947  1.00  0.00     0.167 HD
ATOM     50  C   UNL A   1      42.896  25.307  28.071  1.00  0.00     0.031 A 
ATOM     51  C   UNL A   1      41.430  30.460  33.145  1.00  0.00     0.031 A 
ATOM     52  C   UNL A   1      43.757  25.876  29.123  1.00  0.00     0.049 A 
ATOM     53  C   UNL A   1      42.163  29.246  33.634  1.00  0.00     0.074 A 
ATOM     54  C   UNL A   1      44.713  26.877  29.133  1.00  0.00     0.029 A 
ATOM     55  N   UNL A   1      43.449  25.621  30.462  1.00  0.00    -0.354 N 
ATOM     56  N   UNL A   1      42.348  28.201  32.870  1.00  0.00    -0.248 NA
ATOM     57  C   UNL A   1      42.876  29.154  34.902  1.00  0.00     0.031 C 
ATOM     58  C   UNL A   1      44.899  27.287  30.487  1.00  0.00     0.029 A 
ATOM     59  C   UNL A   1      44.080  26.519  31.301  1.00  0.00     0.049 A 
ATOM     60  H   UNL A   1      42.857  24.895  30.767  1.00  0.00     0.167 HD
ATOM     61  C   UNL A   1      43.314  27.421  33.421  1.00  0.00     0.074 A 
ATOM     62  C   UNL A   1      43.548  27.998  34.736  1.00  0.00     0.031 C 
ATOM     63  C   UNL A   1      43.932  26.411  32.750  1.00  0.00     0.031 A 
BRANCH  50  64
ATOM     64  C   UNL A   1      43.436  24.684  26.796  1.00  0.00    -0.014 A 
ATOM     65  C   UNL A   1      42.744  23.610  26.204  1.00  0.00     0.009 A 
ATOM     66  C   UNL A   1      44.634  25.051  26.153  1.00  0.00     0.009 A 
ATOM     67  C   UNL A   1      43.230  22.933  25.074  1.00  0.00     0.001 A 
ATOM     68  C   UNL A   1      45.126  24.385  25.021  1.00  0.00     0.001 A 
ATOM     69  C   UNL A   1      44.426  23.318  24.482  1.00  0.00     0.000 A 
ENDBRANCH  50  64
BRANCH  51  70
ATOM     70  C   UNL A   1      40.116  31.046  33.567  1.00  0.00    -0.014 A 
ATOM     71  C   UNL A   1      39.934  32.427  33.303  1.00  0.00     0.009 A 
ATOM     72  C   UNL A   1      38.970  30.245  33.680  1.00  0.00     0.009 A 
ATOM     73  C   UNL A   1      38.671  32.947  32.987  1.00  0.00     0.001 A 
ATOM     74  C   UNL A   1      37.703  30.778  33.378  1.00  0.00     0.001 A 
ATOM     75  C   UNL A   1      37.563  32.109  32.981  1.00  0.00     0.000 A 
ENDBRANCH  51  70
BRANCH  63  76
ATOM     76  C   UNL A   1      44.507  25.222  33.450  1.00  0.00    -0.014 A 
ATOM     77  C   UNL A   1      43.709  24.183  33.949  1.00  0.00     0.009 A 
ATOM     78  C   UNL A   1      45.900  25.013  33.419  1.00  0.00     0.009 A 
ATOM     79  C   UNL A   1      44.279  23.008  34.439  1.00  0.00     0.001 A 
ATOM     80  C   UNL A   1      46.467  23.819  33.852  1.00  0.00     0.001 A 
ATOM     81  C   UNL A   1      45.656  22.822  34.378  1.00  0.00     0.000 A 
ENDBRANCH  63  76
ENDBRANCH  37  38
ENDBRANCH  30  32
ENDBRANCH  29  30
ENDBRANCH  28  29
ENDBRANCH  27  28
ENDBRANCH  26  27
ENDBRANCH   1  26
TORSDOF 17
ENDMDL
