MODEL 1
REMARK VINA RESULT:     -10.6      0.000      0.000
REMARK SMILES C[C@@H](C(=O)OCCOCCOC(=O)c1ccc(-c2c3nc(c(-c4ccccc4)c4ccc([nH]4)c(-c4ccccc4)c4nc(c(-c5ccccc5)c5ccc2[nH]5)C=C4)C=C3)cc1)N1C(=O)/C(=C/c2ccc(-c3ccc([N+](=O)[O-])cc3Cl)o2)SC1=S
REMARK SMILES IDX 7 1 6 2 5 3 3 4 4 5 2 6 1 7 62 8 63 9 83 10 64 11 65 12
REMARK SMILES IDX 82 13 84 14 66 15 67 16 68 17 81 18 69 19 70 20 71 21 72 22
REMARK SMILES IDX 79 23 73 24 78 25 80 26 74 27 75 28 76 29 77 30 8 31 9 32
REMARK SMILES IDX 10 33 11 34 12 35 13 36 14 37 15 38 61 39 16 40 60 41 17 42
REMARK SMILES IDX 18 43 19 44 54 45 20 46 59 47 53 48 55 49 21 50 58 51 52 52
REMARK SMILES IDX 51 53 22 55 44 56 29 57 43 58 30 59 33 60 42 61 56 62 31 63
REMARK SMILES IDX 32 64 41 66 57 67 34 68 23 69 24 70 28 71 25 72 27 73 26 74
REMARK SMILES IDX 45 75 46 76 50 77 47 78 49 79 48 80 35 81 36 82 40 83 37 84
REMARK SMILES IDX 39 85 38 86
REMARK H PARENT 55 54 33 65
REMARK Flexibility Score: inf
ROOT
ATOM      1  C   UNL A   1      31.902  29.244  27.135  1.00  0.00     0.202 C 
ENDROOT
BRANCH   1   2
ATOM      2  C   UNL A   1      32.088  28.059  26.183  1.00  0.00     0.261 C 
BRANCH   2   3
ATOM      3  O   UNL A   1      31.065  27.985  25.174  1.00  0.00    -0.462 OA
BRANCH   3   4
ATOM      4  C   UNL A   1      31.512  27.654  23.930  1.00  0.00     0.329 C 
ATOM      5  O   UNL A   1      32.433  28.227  23.356  1.00  0.00    -0.250 OA
BRANCH   4   6
ATOM      6  C   UNL A   1      30.689  26.525  23.286  1.00  0.00     0.199 C 
ATOM      7  C   UNL A   1      29.293  26.344  23.888  1.00  0.00     0.044 C 
BRANCH   6   8
ATOM      8  N   UNL A   1      31.549  25.312  23.322  1.00  0.00    -0.279 N 
ATOM      9  C   UNL A   1      31.714  24.575  24.484  1.00  0.00     0.267 C 
ATOM     10  C   UNL A   1      32.400  24.985  22.276  1.00  0.00     0.149 C 
ATOM     11  O   UNL A   1      31.153  24.764  25.556  1.00  0.00    -0.268 OA
ATOM     12  C   UNL A   1      32.746  23.520  24.297  1.00  0.00     0.084 C 
ATOM     13  S   UNL A   1      33.504  23.709  22.769  1.00  0.00    -0.054 SA
ATOM     14  S   UNL A   1      32.452  25.630  20.735  1.00  0.00    -0.052 S 
ATOM     15  C   UNL A   1      33.004  22.596  25.234  1.00  0.00     0.068 C 
BRANCH  15  16
ATOM     16  C   UNL A   1      34.103  21.701  25.132  1.00  0.00     0.128 A 
ATOM     17  C   UNL A   1      34.067  20.353  24.797  1.00  0.00     0.051 A 
ATOM     18  O   UNL A   1      35.421  22.045  25.350  1.00  0.00    -0.457 OA
ATOM     19  C   UNL A   1      35.387  19.860  24.843  1.00  0.00     0.051 A 
ATOM     20  C   UNL A   1      36.182  20.922  25.212  1.00  0.00     0.136 A 
BRANCH  20  21
ATOM     21  C   UNL A   1      37.616  21.035  25.445  1.00  0.00     0.036 A 
ATOM     22  C   UNL A   1      38.402  19.877  25.296  1.00  0.00     0.020 A 
ATOM     23  C   UNL A   1      38.235  22.211  25.911  1.00  0.00     0.058 A 
ATOM     24  C   UNL A   1      39.762  19.876  25.622  1.00  0.00     0.086 A 
ATOM     25  C   UNL A   1      39.598  22.219  26.241  1.00  0.00     0.106 A 
ATOM     26  Cl  UNL A   1      37.358  23.679  26.179  1.00  0.00    -0.083 Cl
ATOM     27  C   UNL A   1      40.352  21.046  26.106  1.00  0.00     0.270 A 
BRANCH  27  28
ATOM     28  N   UNL A   1      41.765  21.037  26.507  1.00  0.00     0.062 N 
ATOM     29  O   UNL A   1      42.028  21.299  27.689  1.00  0.00    -0.258 OA
ATOM     30  O   UNL A   1      42.608  20.777  25.638  1.00  0.00    -0.258 OA
ENDBRANCH  27  28
ENDBRANCH  20  21
ENDBRANCH  15  16
ENDBRANCH   6   8
ENDBRANCH   4   6
ENDBRANCH   3   4
ENDBRANCH   2   3
ENDBRANCH   1   2
BRANCH   1  31
ATOM     31  O   UNL A   1      32.008  30.549  26.570  1.00  0.00    -0.374 OA
BRANCH  31  32
ATOM     32  C   UNL A   1      32.954  31.442  27.158  1.00  0.00     0.202 C 
BRANCH  32  33
ATOM     33  C   UNL A   1      32.415  32.791  27.644  1.00  0.00     0.261 C 
BRANCH  33  34
ATOM     34  O   UNL A   1      33.422  33.819  27.581  1.00  0.00    -0.460 OA
BRANCH  34  35
ATOM     35  C   UNL A   1      33.469  34.634  28.659  1.00  0.00     0.338 C 
ATOM     36  O   UNL A   1      32.620  35.440  29.018  1.00  0.00    -0.246 OA
BRANCH  35  37
ATOM     37  C   UNL A   1      34.637  34.305  29.497  1.00  0.00     0.060 A 
ATOM     38  C   UNL A   1      35.902  34.422  28.908  1.00  0.00     0.016 A 
ATOM     39  C   UNL A   1      34.504  33.820  30.800  1.00  0.00     0.016 A 
ATOM     40  C   UNL A   1      37.036  33.994  29.595  1.00  0.00     0.010 A 
ATOM     41  C   UNL A   1      35.643  33.383  31.487  1.00  0.00     0.010 A 
ATOM     42  C   UNL A   1      36.907  33.430  30.870  1.00  0.00    -0.014 A 
BRANCH  42  43
ATOM     43  C   UNL A   1      38.071  32.743  31.479  1.00  0.00     0.031 A 
ATOM     44  C   UNL A   1      38.635  31.523  30.802  1.00  0.00     0.074 A 
ATOM     45  C   UNL A   1      38.653  33.224  32.593  1.00  0.00     0.049 A 
ATOM     46  N   UNL A   1      39.643  30.768  31.159  1.00  0.00    -0.248 NA
ATOM     47  C   UNL A   1      37.975  31.100  29.556  1.00  0.00     0.031 C 
ATOM     48  C   UNL A   1      38.235  34.423  33.316  1.00  0.00     0.029 A 
ATOM     49  N   UNL A   1      39.726  32.754  33.307  1.00  0.00    -0.354 N 
ATOM     50  C   UNL A   1      39.736  29.782  30.184  1.00  0.00     0.074 A 
ATOM     51  C   UNL A   1      38.665  30.015  29.240  1.00  0.00     0.031 C 
ATOM     52  C   UNL A   1      39.041  34.593  34.378  1.00  0.00     0.029 A 
ATOM     53  C   UNL A   1      40.010  33.499  34.424  1.00  0.00     0.049 A 
ATOM     54  H   UNL A   1      40.243  31.958  33.044  1.00  0.00     0.167 HD
ATOM     55  C   UNL A   1      40.637  28.775  30.080  1.00  0.00     0.031 A 
ATOM     56  C   UNL A   1      40.935  33.310  35.385  1.00  0.00     0.031 A 
ATOM     57  C   UNL A   1      41.693  28.531  31.024  1.00  0.00     0.049 A 
ATOM     58  C   UNL A   1      41.873  32.136  35.290  1.00  0.00     0.074 A 
ATOM     59  C   UNL A   1      42.658  27.539  31.000  1.00  0.00     0.029 A 
ATOM     60  N   UNL A   1      41.919  29.282  32.166  1.00  0.00    -0.354 N 
ATOM     61  N   UNL A   1      41.963  31.223  34.355  1.00  0.00    -0.248 NA
ATOM     62  C   UNL A   1      42.844  31.975  36.383  1.00  0.00     0.031 C 
ATOM     63  C   UNL A   1      43.437  27.660  32.156  1.00  0.00     0.029 A 
ATOM     64  C   UNL A   1      42.991  28.761  32.869  1.00  0.00     0.049 A 
ATOM     65  H   UNL A   1      41.393  30.070  32.437  1.00  0.00     0.167 HD
ATOM     66  C   UNL A   1      43.014  30.394  34.731  1.00  0.00     0.074 A 
ATOM     67  C   UNL A   1      43.540  30.923  35.973  1.00  0.00     0.031 C 
ATOM     68  C   UNL A   1      43.502  29.296  34.104  1.00  0.00     0.031 A 
BRANCH  55  69
ATOM     69  C   UNL A   1      40.492  27.841  28.912  1.00  0.00    -0.014 A 
ATOM     70  C   UNL A   1      39.829  26.610  29.041  1.00  0.00     0.009 A 
ATOM     71  C   UNL A   1      41.003  28.210  27.658  1.00  0.00     0.009 A 
ATOM     72  C   UNL A   1      39.708  25.754  27.944  1.00  0.00     0.001 A 
ATOM     73  C   UNL A   1      40.858  27.364  26.557  1.00  0.00     0.001 A 
ATOM     74  C   UNL A   1      40.220  26.133  26.703  1.00  0.00     0.000 A 
ENDBRANCH  55  69
BRANCH  56  75
ATOM     75  C   UNL A   1      41.007  34.241  36.541  1.00  0.00    -0.014 A 
ATOM     76  C   UNL A   1      41.701  35.455  36.442  1.00  0.00     0.009 A 
ATOM     77  C   UNL A   1      40.392  33.906  37.757  1.00  0.00     0.009 A 
ATOM     78  C   UNL A   1      41.798  36.305  37.548  1.00  0.00     0.001 A 
ATOM     79  C   UNL A   1      40.467  34.769  38.852  1.00  0.00     0.001 A 
ATOM     80  C   UNL A   1      41.178  35.964  38.749  1.00  0.00     0.000 A 
ENDBRANCH  56  75
BRANCH  68  81
ATOM     81  C   UNL A   1      44.682  28.611  34.732  1.00  0.00    -0.014 A 
ATOM     82  C   UNL A   1      44.514  27.560  35.647  1.00  0.00     0.009 A 
ATOM     83  C   UNL A   1      45.982  28.996  34.368  1.00  0.00     0.009 A 
ATOM     84  C   UNL A   1      45.627  26.930  36.209  1.00  0.00     0.001 A 
ATOM     85  C   UNL A   1      47.091  28.345  34.911  1.00  0.00     0.001 A 
ATOM     86  C   UNL A   1      46.913  27.319  35.836  1.00  0.00     0.000 A 
ENDBRANCH  68  81
ENDBRANCH  42  43
ENDBRANCH  35  37
ENDBRANCH  34  35
ENDBRANCH  33  34
ENDBRANCH  32  33
ENDBRANCH  31  32
ENDBRANCH   1  31
TORSDOF 18
ENDMDL
MODEL 2
REMARK VINA RESULT:     -10.3      6.284      9.259
REMARK SMILES C[C@@H](C(=O)OCCOCCOC(=O)c1ccc(-c2c3nc(c(-c4ccccc4)c4ccc([nH]4)c(-c4ccccc4)c4nc(c(-c5ccccc5)c5ccc2[nH]5)C=C4)C=C3)cc1)N1C(=O)/C(=C/c2ccc(-c3ccc([N+](=O)[O-])cc3Cl)o2)SC1=S
REMARK SMILES IDX 7 1 6 2 5 3 3 4 4 5 2 6 1 7 62 8 63 9 83 10 64 11 65 12
REMARK SMILES IDX 82 13 84 14 66 15 67 16 68 17 81 18 69 19 70 20 71 21 72 22
REMARK SMILES IDX 79 23 73 24 78 25 80 26 74 27 75 28 76 29 77 30 8 31 9 32
REMARK SMILES IDX 10 33 11 34 12 35 13 36 14 37 15 38 61 39 16 40 60 41 17 42
REMARK SMILES IDX 18 43 19 44 54 45 20 46 59 47 53 48 55 49 21 50 58 51 52 52
REMARK SMILES IDX 51 53 22 55 44 56 29 57 43 58 30 59 33 60 42 61 56 62 31 63
REMARK SMILES IDX 32 64 41 66 57 67 34 68 23 69 24 70 28 71 25 72 27 73 26 74
REMARK SMILES IDX 45 75 46 76 50 77 47 78 49 79 48 80 35 81 36 82 40 83 37 84
REMARK SMILES IDX 39 85 38 86
REMARK H PARENT 55 54 33 65
REMARK Flexibility Score: inf
ROOT
ATOM      1  C   UNL A   1      34.936  33.500  33.785  1.00  0.00     0.202 C 
ENDROOT
BRANCH   1   2
ATOM      2  C   UNL A   1      34.423  33.303  32.355  1.00  0.00     0.261 C 
BRANCH   2   3
ATOM      3  O   UNL A   1      34.988  34.239  31.422  1.00  0.00    -0.462 OA
BRANCH   3   4
ATOM      4  C   UNL A   1      34.123  34.694  30.472  1.00  0.00     0.329 C 
ATOM      5  O   UNL A   1      32.944  34.956  30.686  1.00  0.00    -0.250 OA
BRANCH   4   6
ATOM      6  C   UNL A   1      34.767  34.778  29.077  1.00  0.00     0.199 C 
ATOM      7  C   UNL A   1      34.325  35.991  28.254  1.00  0.00     0.044 C 
BRANCH   6   8
ATOM      8  N   UNL A   1      34.529  33.461  28.430  1.00  0.00    -0.279 N 
ATOM      9  C   UNL A   1      33.288  33.119  27.916  1.00  0.00     0.267 C 
ATOM     10  C   UNL A   1      35.453  32.428  28.505  1.00  0.00     0.149 C 
ATOM     11  O   UNL A   1      32.297  33.836  27.860  1.00  0.00    -0.268 OA
ATOM     12  C   UNL A   1      33.271  31.697  27.479  1.00  0.00     0.084 C 
ATOM     13  S   UNL A   1      34.734  30.927  27.941  1.00  0.00    -0.054 SA
ATOM     14  S   UNL A   1      37.041  32.487  29.026  1.00  0.00    -0.052 S 
ATOM     15  C   UNL A   1      32.225  31.157  26.836  1.00  0.00     0.068 C 
BRANCH  15  16
ATOM     16  C   UNL A   1      32.134  29.764  26.576  1.00  0.00     0.128 A 
ATOM     17  C   UNL A   1      31.717  28.766  27.447  1.00  0.00     0.051 A 
ATOM     18  O   UNL A   1      32.452  29.166  25.374  1.00  0.00    -0.457 OA
ATOM     19  C   UNL A   1      31.811  27.532  26.772  1.00  0.00     0.051 A 
ATOM     20  C   UNL A   1      32.291  27.819  25.514  1.00  0.00     0.136 A 
BRANCH  20  21
ATOM     21  C   UNL A   1      32.616  26.971  24.374  1.00  0.00     0.036 A 
ATOM     22  C   UNL A   1      32.832  27.592  23.129  1.00  0.00     0.020 A 
ATOM     23  C   UNL A   1      32.622  25.564  24.431  1.00  0.00     0.058 A 
ATOM     24  C   UNL A   1      33.025  26.841  21.966  1.00  0.00     0.086 A 
ATOM     25  C   UNL A   1      32.813  24.802  23.269  1.00  0.00     0.106 A 
ATOM     26  Cl  UNL A   1      32.319  24.692  25.895  1.00  0.00    -0.083 Cl
ATOM     27  C   UNL A   1      33.001  25.446  22.039  1.00  0.00     0.270 A 
BRANCH  27  28
ATOM     28  N   UNL A   1      33.144  24.650  20.813  1.00  0.00     0.062 N 
ATOM     29  O   UNL A   1      33.408  23.446  20.937  1.00  0.00    -0.258 OA
ATOM     30  O   UNL A   1      33.000  25.232  19.730  1.00  0.00    -0.258 OA
ENDBRANCH  27  28
ENDBRANCH  20  21
ENDBRANCH  15  16
ENDBRANCH   6   8
ENDBRANCH   4   6
ENDBRANCH   3   4
ENDBRANCH   2   3
ENDBRANCH   1   2
BRANCH   1  31
ATOM     31  O   UNL A   1      36.062  32.718  34.179  1.00  0.00    -0.374 OA
BRANCH  31  32
ATOM     32  C   UNL A   1      36.604  31.817  33.213  1.00  0.00     0.202 C 
BRANCH  32  33
ATOM     33  C   UNL A   1      37.315  30.575  33.756  1.00  0.00     0.261 C 
BRANCH  33  34
ATOM     34  O   UNL A   1      37.560  29.607  32.717  1.00  0.00    -0.460 OA
BRANCH  34  35
ATOM     35  C   UNL A   1      38.823  29.127  32.675  1.00  0.00     0.338 C 
ATOM     36  O   UNL A   1      39.196  27.992  32.947  1.00  0.00    -0.246 OA
BRANCH  35  37
ATOM     37  C   UNL A   1      39.727  30.120  32.067  1.00  0.00     0.060 A 
ATOM     38  C   UNL A   1      39.736  30.207  30.668  1.00  0.00     0.016 A 
ATOM     39  C   UNL A   1      40.603  30.895  32.830  1.00  0.00     0.016 A 
ATOM     40  C   UNL A   1      40.665  31.021  30.024  1.00  0.00     0.010 A 
ATOM     41  C   UNL A   1      41.540  31.707  32.181  1.00  0.00     0.010 A 
ATOM     42  C   UNL A   1      41.601  31.740  30.776  1.00  0.00    -0.014 A 
BRANCH  42  43
ATOM     43  C   UNL A   1      42.741  32.390  30.084  1.00  0.00     0.031 A 
ATOM     44  C   UNL A   1      44.016  31.614  29.891  1.00  0.00     0.074 A 
ATOM     45  C   UNL A   1      42.630  33.636  29.589  1.00  0.00     0.049 A 
ATOM     46  N   UNL A   1      45.133  31.983  29.319  1.00  0.00    -0.248 NA
ATOM     47  C   UNL A   1      44.030  30.236  30.411  1.00  0.00     0.031 C 
ATOM     48  C   UNL A   1      41.435  34.474  29.665  1.00  0.00     0.029 A 
ATOM     49  N   UNL A   1      43.545  34.409  28.920  1.00  0.00    -0.354 N 
ATOM     50  C   UNL A   1      45.983  30.888  29.412  1.00  0.00     0.074 A 
ATOM     51  C   UNL A   1      45.264  29.852  30.122  1.00  0.00     0.031 C 
ATOM     52  C   UNL A   1      41.692  35.652  29.070  1.00  0.00     0.029 A 
ATOM     53  C   UNL A   1      43.076  35.659  28.599  1.00  0.00     0.049 A 
ATOM     54  H   UNL A   1      44.451  34.098  28.692  1.00  0.00     0.167 HD
ATOM     55  C   UNL A   1      47.246  30.752  28.943  1.00  0.00     0.031 A 
ATOM     56  C   UNL A   1      43.699  36.697  28.009  1.00  0.00     0.031 A 
ATOM     57  C   UNL A   1      47.969  31.784  28.250  1.00  0.00     0.049 A 
ATOM     58  C   UNL A   1      45.131  36.549  27.568  1.00  0.00     0.074 A 
ATOM     59  C   UNL A   1      49.252  31.738  27.731  1.00  0.00     0.029 A 
ATOM     60  N   UNL A   1      47.475  33.051  27.985  1.00  0.00    -0.354 N 
ATOM     61  N   UNL A   1      45.916  35.503  27.646  1.00  0.00    -0.248 NA
ATOM     62  C   UNL A   1      45.758  37.728  26.951  1.00  0.00     0.031 C 
ATOM     63  C   UNL A   1      49.551  32.996  27.197  1.00  0.00     0.029 A 
ATOM     64  C   UNL A   1      48.435  33.805  27.333  1.00  0.00     0.049 A 
ATOM     65  H   UNL A   1      46.573  33.367  28.224  1.00  0.00     0.167 HD
ATOM     66  C   UNL A   1      47.120  35.887  27.065  1.00  0.00     0.074 A 
ATOM     67  C   UNL A   1      46.955  37.258  26.627  1.00  0.00     0.031 C 
ATOM     68  C   UNL A   1      48.257  35.168  26.905  1.00  0.00     0.031 A 
BRANCH  55  69
ATOM     69  C   UNL A   1      47.937  29.443  29.196  1.00  0.00    -0.014 A 
ATOM     70  C   UNL A   1      47.846  28.381  28.281  1.00  0.00     0.009 A 
ATOM     71  C   UNL A   1      48.714  29.277  30.354  1.00  0.00     0.009 A 
ATOM     72  C   UNL A   1      48.493  27.170  28.537  1.00  0.00     0.001 A 
ATOM     73  C   UNL A   1      49.380  28.075  30.594  1.00  0.00     0.001 A 
ATOM     74  C   UNL A   1      49.262  27.019  29.691  1.00  0.00     0.000 A 
ENDBRANCH  55  69
BRANCH  56  75
ATOM     75  C   UNL A   1      42.981  37.984  27.820  1.00  0.00    -0.014 A 
ATOM     76  C   UNL A   1      42.225  38.222  26.663  1.00  0.00     0.009 A 
ATOM     77  C   UNL A   1      43.066  38.991  28.795  1.00  0.00     0.009 A 
ATOM     78  C   UNL A   1      41.587  39.451  26.476  1.00  0.00     0.001 A 
ATOM     79  C   UNL A   1      42.405  40.208  28.618  1.00  0.00     0.001 A 
ATOM     80  C   UNL A   1      41.674  40.440  27.455  1.00  0.00     0.000 A 
ENDBRANCH  56  75
BRANCH  68  81
ATOM     81  C   UNL A   1      49.404  35.839  26.202  1.00  0.00    -0.014 A 
ATOM     82  C   UNL A   1      50.449  36.439  26.920  1.00  0.00     0.009 A 
ATOM     83  C   UNL A   1      49.457  35.829  24.799  1.00  0.00     0.009 A 
ATOM     84  C   UNL A   1      51.510  37.047  26.244  1.00  0.00     0.001 A 
ATOM     85  C   UNL A   1      50.533  36.412  24.128  1.00  0.00     0.001 A 
ATOM     86  C   UNL A   1      51.554  37.027  24.850  1.00  0.00     0.000 A 
ENDBRANCH  68  81
ENDBRANCH  42  43
ENDBRANCH  35  37
ENDBRANCH  34  35
ENDBRANCH  33  34
ENDBRANCH  32  33
ENDBRANCH  31  32
ENDBRANCH   1  31
TORSDOF 18
ENDMDL
MODEL 3
REMARK VINA RESULT:     -10.2      5.173      8.866
REMARK SMILES C[C@@H](C(=O)OCCOCCOC(=O)c1ccc(-c2c3nc(c(-c4ccccc4)c4ccc([nH]4)c(-c4ccccc4)c4nc(c(-c5ccccc5)c5ccc2[nH]5)C=C4)C=C3)cc1)N1C(=O)/C(=C/c2ccc(-c3ccc([N+](=O)[O-])cc3Cl)o2)SC1=S
REMARK SMILES IDX 7 1 6 2 5 3 3 4 4 5 2 6 1 7 62 8 63 9 83 10 64 11 65 12
REMARK SMILES IDX 82 13 84 14 66 15 67 16 68 17 81 18 69 19 70 20 71 21 72 22
REMARK SMILES IDX 79 23 73 24 78 25 80 26 74 27 75 28 76 29 77 30 8 31 9 32
REMARK SMILES IDX 10 33 11 34 12 35 13 36 14 37 15 38 61 39 16 40 60 41 17 42
REMARK SMILES IDX 18 43 19 44 54 45 20 46 59 47 53 48 55 49 21 50 58 51 52 52
REMARK SMILES IDX 51 53 22 55 44 56 29 57 43 58 30 59 33 60 42 61 56 62 31 63
REMARK SMILES IDX 32 64 41 66 57 67 34 68 23 69 24 70 28 71 25 72 27 73 26 74
REMARK SMILES IDX 45 75 46 76 50 77 47 78 49 79 48 80 35 81 36 82 40 83 37 84
REMARK SMILES IDX 39 85 38 86
REMARK H PARENT 55 54 33 65
REMARK Flexibility Score: inf
ROOT
ATOM      1  C   UNL A   1      34.926  34.323  34.006  1.00  0.00     0.202 C 
ENDROOT
BRANCH   1   2
ATOM      2  C   UNL A   1      35.188  33.312  32.886  1.00  0.00     0.261 C 
BRANCH   2   3
ATOM      3  O   UNL A   1      35.739  33.916  31.703  1.00  0.00    -0.462 OA
BRANCH   3   4
ATOM      4  C   UNL A   1      34.895  33.954  30.633  1.00  0.00     0.329 C 
ATOM      5  O   UNL A   1      33.689  33.735  30.702  1.00  0.00    -0.250 OA
BRANCH   4   6
ATOM      6  C   UNL A   1      35.628  34.233  29.310  1.00  0.00     0.199 C 
ATOM      7  C   UNL A   1      34.700  34.450  28.112  1.00  0.00     0.044 C 
BRANCH   6   8
ATOM      8  N   UNL A   1      36.618  33.136  29.145  1.00  0.00    -0.279 N 
ATOM      9  C   UNL A   1      36.222  31.837  28.869  1.00  0.00     0.267 C 
ATOM     10  C   UNL A   1      37.956  33.298  29.478  1.00  0.00     0.149 C 
ATOM     11  O   UNL A   1      35.079  31.450  28.661  1.00  0.00    -0.268 OA
ATOM     12  C   UNL A   1      37.384  30.909  28.918  1.00  0.00     0.084 C 
ATOM     13  S   UNL A   1      38.772  31.742  29.488  1.00  0.00    -0.054 SA
ATOM     14  S   UNL A   1      38.779  34.712  29.825  1.00  0.00    -0.052 S 
ATOM     15  C   UNL A   1      37.285  29.618  28.569  1.00  0.00     0.068 C 
BRANCH  15  16
ATOM     16  C   UNL A   1      38.343  28.694  28.782  1.00  0.00     0.128 A 
ATOM     17  C   UNL A   1      38.553  27.890  29.896  1.00  0.00     0.051 A 
ATOM     18  O   UNL A   1      39.357  28.438  27.882  1.00  0.00    -0.457 OA
ATOM     19  C   UNL A   1      39.735  27.153  29.682  1.00  0.00     0.051 A 
ATOM     20  C   UNL A   1      40.211  27.538  28.449  1.00  0.00     0.136 A 
BRANCH  20  21
ATOM     21  C   UNL A   1      41.394  27.150  27.692  1.00  0.00     0.036 A 
ATOM     22  C   UNL A   1      42.540  27.963  27.795  1.00  0.00     0.020 A 
ATOM     23  C   UNL A   1      41.417  26.071  26.789  1.00  0.00     0.058 A 
ATOM     24  C   UNL A   1      43.670  27.728  27.007  1.00  0.00     0.086 A 
ATOM     25  C   UNL A   1      42.546  25.828  25.993  1.00  0.00     0.106 A 
ATOM     26  Cl  UNL A   1      40.052  25.036  26.543  1.00  0.00    -0.083 Cl
ATOM     27  C   UNL A   1      43.663  26.666  26.098  1.00  0.00     0.270 A 
BRANCH  27  28
ATOM     28  N   UNL A   1      44.824  26.449  25.224  1.00  0.00     0.062 N 
ATOM     29  O   UNL A   1      44.988  25.312  24.760  1.00  0.00    -0.258 OA
ATOM     30  O   UNL A   1      45.572  27.412  25.011  1.00  0.00    -0.258 OA
ENDBRANCH  27  28
ENDBRANCH  20  21
ENDBRANCH  15  16
ENDBRANCH   6   8
ENDBRANCH   4   6
ENDBRANCH   3   4
ENDBRANCH   2   3
ENDBRANCH   1   2
BRANCH   1  31
ATOM     31  O   UNL A   1      35.486  34.029  35.285  1.00  0.00    -0.374 OA
BRANCH  31  32
ATOM     32  C   UNL A   1      36.897  34.186  35.434  1.00  0.00     0.202 C 
BRANCH  32  33
ATOM     33  C   UNL A   1      37.634  33.079  36.193  1.00  0.00     0.261 C 
BRANCH  33  34
ATOM     34  O   UNL A   1      37.456  31.795  35.564  1.00  0.00    -0.460 OA
BRANCH  34  35
ATOM     35  C   UNL A   1      38.351  30.852  35.934  1.00  0.00     0.338 C 
ATOM     36  O   UNL A   1      38.254  30.059  36.862  1.00  0.00    -0.246 OA
BRANCH  35  37
ATOM     37  C   UNL A   1      39.436  30.759  34.940  1.00  0.00     0.060 A 
ATOM     38  C   UNL A   1      39.190  29.994  33.792  1.00  0.00     0.016 A 
ATOM     39  C   UNL A   1      40.690  31.337  35.150  1.00  0.00     0.016 A 
ATOM     40  C   UNL A   1      40.216  29.749  32.882  1.00  0.00     0.010 A 
ATOM     41  C   UNL A   1      41.722  31.084  34.239  1.00  0.00     0.010 A 
ATOM     42  C   UNL A   1      41.499  30.254  33.125  1.00  0.00    -0.014 A 
BRANCH  42  43
ATOM     43  C   UNL A   1      42.634  29.776  32.299  1.00  0.00     0.031 A 
ATOM     44  C   UNL A   1      43.025  30.557  31.074  1.00  0.00     0.074 A 
ATOM     45  C   UNL A   1      43.341  28.689  32.658  1.00  0.00     0.049 A 
ATOM     46  N   UNL A   1      43.980  30.323  30.210  1.00  0.00    -0.248 NA
ATOM     47  C   UNL A   1      42.236  31.767  30.788  1.00  0.00     0.031 C 
ATOM     48  C   UNL A   1      43.096  27.874  33.846  1.00  0.00     0.029 A 
ATOM     49  N   UNL A   1      44.415  28.089  32.050  1.00  0.00    -0.354 N 
ATOM     50  C   UNL A   1      43.904  31.351  29.278  1.00  0.00     0.074 A 
ATOM     51  C   UNL A   1      42.793  32.193  29.664  1.00  0.00     0.031 C 
ATOM     52  C   UNL A   1      43.993  26.873  33.878  1.00  0.00     0.029 A 
ATOM     53  C   UNL A   1      44.852  26.961  32.699  1.00  0.00     0.049 A 
ATOM     54  H   UNL A   1      44.831  28.433  31.227  1.00  0.00     0.167 HD
ATOM     55  C   UNL A   1      44.693  31.578  28.201  1.00  0.00     0.031 A 
ATOM     56  C   UNL A   1      45.824  26.089  32.370  1.00  0.00     0.031 A 
ATOM     57  C   UNL A   1      45.788  30.736  27.805  1.00  0.00     0.049 A 
ATOM     58  C   UNL A   1      46.635  26.319  31.122  1.00  0.00     0.074 A 
ATOM     59  C   UNL A   1      46.649  30.888  26.732  1.00  0.00     0.029 A 
ATOM     60  N   UNL A   1      46.170  29.578  28.464  1.00  0.00    -0.354 N 
ATOM     61  N   UNL A   1      46.565  27.304  30.261  1.00  0.00    -0.248 NA
ATOM     62  C   UNL A   1      47.665  25.317  30.809  1.00  0.00     0.031 C 
ATOM     63  C   UNL A   1      47.521  29.794  26.713  1.00  0.00     0.029 A 
ATOM     64  C   UNL A   1      47.238  28.991  27.806  1.00  0.00     0.049 A 
ATOM     65  H   UNL A   1      45.745  29.226  29.280  1.00  0.00     0.167 HD
ATOM     66  C   UNL A   1      47.557  27.056  29.318  1.00  0.00     0.074 A 
ATOM     67  C   UNL A   1      48.223  25.835  29.722  1.00  0.00     0.031 C 
ATOM     68  C   UNL A   1      47.888  27.776  28.219  1.00  0.00     0.031 A 
BRANCH  55  69
ATOM     69  C   UNL A   1      44.372  32.777  27.354  1.00  0.00    -0.014 A 
ATOM     70  C   UNL A   1      44.471  34.080  27.869  1.00  0.00     0.009 A 
ATOM     71  C   UNL A   1      43.991  32.603  26.015  1.00  0.00     0.009 A 
ATOM     72  C   UNL A   1      44.164  35.182  27.066  1.00  0.00     0.001 A 
ATOM     73  C   UNL A   1      43.710  33.706  25.208  1.00  0.00     0.001 A 
ATOM     74  C   UNL A   1      43.788  34.994  25.737  1.00  0.00     0.000 A 
ENDBRANCH  55  69
BRANCH  56  75
ATOM     75  C   UNL A   1      46.072  24.896  33.221  1.00  0.00    -0.014 A 
ATOM     76  C   UNL A   1      47.164  24.856  34.101  1.00  0.00     0.009 A 
ATOM     77  C   UNL A   1      45.222  23.782  33.141  1.00  0.00     0.009 A 
ATOM     78  C   UNL A   1      47.412  23.714  34.867  1.00  0.00     0.001 A 
ATOM     79  C   UNL A   1      45.456  22.652  33.927  1.00  0.00     0.001 A 
ATOM     80  C   UNL A   1      46.557  22.616  34.783  1.00  0.00     0.000 A 
ENDBRANCH  56  75
BRANCH  68  81
ATOM     81  C   UNL A   1      49.041  27.280  27.392  1.00  0.00    -0.014 A 
ATOM     82  C   UNL A   1      48.840  26.423  26.299  1.00  0.00     0.009 A 
ATOM     83  C   UNL A   1      50.344  27.714  27.687  1.00  0.00     0.009 A 
ATOM     84  C   UNL A   1      49.926  25.985  25.538  1.00  0.00     0.001 A 
ATOM     85  C   UNL A   1      51.422  27.297  26.907  1.00  0.00     0.001 A 
ATOM     86  C   UNL A   1      51.214  26.426  25.839  1.00  0.00     0.000 A 
ENDBRANCH  68  81
ENDBRANCH  42  43
ENDBRANCH  35  37
ENDBRANCH  34  35
ENDBRANCH  33  34
ENDBRANCH  32  33
ENDBRANCH  31  32
ENDBRANCH   1  31
TORSDOF 18
ENDMDL
