MODEL 1
REMARK VINA RESULT:      -8.2      0.000      0.000
REMARK SMILES O=C(OCCOCCOC(=O)c1ccc(COc2cccc(Cl)c2Cl)o1)c1ccc(-c2c3nc(c(-c4ccccc4)c4ccc([nH]4)c(-c4ccccc4)c4nc(c(-c5ccccc5)c5ccc2[nH]5)C=C4)C=C3)cc1
REMARK SMILES IDX 7 1 6 2 5 3 4 4 3 5 2 6 1 7 27 8 28 9 74 10 29 11 73 12
REMARK SMILES IDX 30 13 31 14 32 15 67 16 33 17 72 18 66 19 68 20 34 21 71 22
REMARK SMILES IDX 65 23 64 24 35 26 57 27 42 28 56 29 43 30 46 31 55 32 69 33
REMARK SMILES IDX 44 34 45 35 54 37 70 38 47 39 36 40 37 41 41 42 38 43 40 44
REMARK SMILES IDX 39 45 58 46 59 47 63 48 60 49 62 50 61 51 48 52 49 53 53 54
REMARK SMILES IDX 50 55 52 56 51 57 8 58 9 59 10 60 11 61 12 62 13 63 26 64
REMARK SMILES IDX 14 65 15 66 16 67 17 68 18 69 19 70 24 71 20 72 22 73 25 74
REMARK SMILES IDX 21 75 23 76
REMARK H PARENT 68 25 46 36
REMARK Flexibility Score: inf
ROOT
ATOM      1  C   UNL A   1      44.579  21.151  24.790  1.00  0.00     0.202 C 
ENDROOT
BRANCH   1   2
ATOM      2  O   UNL A   1      44.155  19.895  24.243  1.00  0.00    -0.374 OA
BRANCH   2   3
ATOM      3  C   UNL A   1      44.340  18.759  25.093  1.00  0.00     0.202 C 
BRANCH   3   4
ATOM      4  C   UNL A   1      43.232  18.586  26.137  1.00  0.00     0.261 C 
BRANCH   4   5
ATOM      5  O   UNL A   1      41.960  18.957  25.576  1.00  0.00    -0.460 OA
BRANCH   5   6
ATOM      6  C   UNL A   1      41.059  19.861  26.022  1.00  0.00     0.338 C 
ATOM      7  O   UNL A   1      39.868  19.551  26.011  1.00  0.00    -0.246 OA
BRANCH   6   8
ATOM      8  C   UNL A   1      41.414  21.215  26.551  1.00  0.00     0.060 A 
ATOM      9  C   UNL A   1      41.612  22.361  25.777  1.00  0.00     0.016 A 
ATOM     10  C   UNL A   1      41.451  21.354  27.950  1.00  0.00     0.016 A 
ATOM     11  C   UNL A   1      41.909  23.588  26.363  1.00  0.00     0.010 A 
ATOM     12  C   UNL A   1      41.703  22.593  28.549  1.00  0.00     0.010 A 
ATOM     13  C   UNL A   1      41.954  23.712  27.751  1.00  0.00    -0.014 A 
BRANCH  13  14
ATOM     14  C   UNL A   1      42.322  25.016  28.332  1.00  0.00     0.031 A 
ATOM     15  C   UNL A   1      43.769  25.323  28.567  1.00  0.00     0.074 A 
ATOM     16  C   UNL A   1      41.369  25.942  28.540  1.00  0.00     0.049 A 
ATOM     17  N   UNL A   1      44.314  26.413  29.039  1.00  0.00    -0.248 NA
ATOM     18  C   UNL A   1      44.731  24.269  28.208  1.00  0.00     0.031 C 
ATOM     19  C   UNL A   1      39.943  25.766  28.256  1.00  0.00     0.029 A 
ATOM     20  N   UNL A   1      41.462  27.228  29.002  1.00  0.00    -0.354 N 
ATOM     21  C   UNL A   1      45.681  26.174  29.039  1.00  0.00     0.074 A 
ATOM     22  C   UNL A   1      45.883  24.833  28.538  1.00  0.00     0.031 C 
ATOM     23  C   UNL A   1      39.300  26.914  28.520  1.00  0.00     0.029 A 
ATOM     24  C   UNL A   1      40.258  27.887  29.036  1.00  0.00     0.049 A 
ATOM     25  H   UNL A   1      42.310  27.641  29.284  1.00  0.00     0.167 HD
ATOM     26  C   UNL A   1      46.678  27.001  29.430  1.00  0.00     0.031 A 
ATOM     27  C   UNL A   1      39.965  29.133  29.451  1.00  0.00     0.031 A 
ATOM     28  C   UNL A   1      46.463  28.320  29.955  1.00  0.00     0.049 A 
ATOM     29  C   UNL A   1      41.082  29.997  29.966  1.00  0.00     0.074 A 
ATOM     30  C   UNL A   1      47.388  29.220  30.449  1.00  0.00     0.029 A 
ATOM     31  N   UNL A   1      45.218  28.928  30.049  1.00  0.00    -0.354 N 
ATOM     32  N   UNL A   1      42.368  29.743  30.009  1.00  0.00    -0.248 NA
ATOM     33  C   UNL A   1      40.706  31.314  30.498  1.00  0.00     0.031 C 
ATOM     34  C   UNL A   1      46.699  30.359  30.879  1.00  0.00     0.029 A 
ATOM     35  C   UNL A   1      45.349  30.185  30.611  1.00  0.00     0.049 A 
ATOM     36  H   UNL A   1      44.368  28.524  29.760  1.00  0.00     0.167 HD
ATOM     37  C   UNL A   1      42.957  30.868  30.568  1.00  0.00     0.074 A 
ATOM     38  C   UNL A   1      41.890  31.816  30.823  1.00  0.00     0.031 C 
ATOM     39  C   UNL A   1      44.263  31.097  30.854  1.00  0.00     0.031 A 
BRANCH  26  40
ATOM     40  C   UNL A   1      48.074  26.457  29.353  1.00  0.00    -0.014 A 
ATOM     41  C   UNL A   1      48.627  25.718  30.410  1.00  0.00     0.009 A 
ATOM     42  C   UNL A   1      48.860  26.722  28.221  1.00  0.00     0.009 A 
ATOM     43  C   UNL A   1      49.954  25.285  30.349  1.00  0.00     0.001 A 
ATOM     44  C   UNL A   1      50.179  26.270  28.156  1.00  0.00     0.001 A 
ATOM     45  C   UNL A   1      50.728  25.561  29.223  1.00  0.00     0.000 A 
ENDBRANCH  26  40
BRANCH  27  46
ATOM     46  C   UNL A   1      38.561  29.619  29.433  1.00  0.00    -0.014 A 
ATOM     47  C   UNL A   1      37.710  29.399  30.527  1.00  0.00     0.009 A 
ATOM     48  C   UNL A   1      38.060  30.305  28.315  1.00  0.00     0.009 A 
ATOM     49  C   UNL A   1      36.384  29.840  30.492  1.00  0.00     0.001 A 
ATOM     50  C   UNL A   1      36.744  30.769  28.295  1.00  0.00     0.001 A 
ATOM     51  C   UNL A   1      35.904  30.529  29.379  1.00  0.00     0.000 A 
ENDBRANCH  27  46
BRANCH  39  52
ATOM     52  C   UNL A   1      44.596  32.427  31.461  1.00  0.00    -0.014 A 
ATOM     53  C   UNL A   1      44.857  33.542  30.649  1.00  0.00     0.009 A 
ATOM     54  C   UNL A   1      44.608  32.575  32.855  1.00  0.00     0.009 A 
ATOM     55  C   UNL A   1      45.149  34.778  31.227  1.00  0.00     0.001 A 
ATOM     56  C   UNL A   1      44.880  33.816  33.429  1.00  0.00     0.001 A 
ATOM     57  C   UNL A   1      45.156  34.914  32.615  1.00  0.00     0.000 A 
ENDBRANCH  39  52
ENDBRANCH  13  14
ENDBRANCH   6   8
ENDBRANCH   5   6
ENDBRANCH   4   5
ENDBRANCH   3   4
ENDBRANCH   2   3
ENDBRANCH   1   2
BRANCH   1  58
ATOM     58  C   UNL A   1      44.513  22.236  23.711  1.00  0.00     0.261 C 
BRANCH  58  59
ATOM     59  O   UNL A   1      45.081  23.443  24.246  1.00  0.00    -0.457 OA
BRANCH  59  60
ATOM     60  C   UNL A   1      46.433  23.380  24.408  1.00  0.00     0.374 C 
ATOM     61  O   UNL A   1      47.116  22.373  24.254  1.00  0.00    -0.242 OA
BRANCH  60  62
ATOM     62  C   UNL A   1      46.936  24.708  24.640  1.00  0.00     0.211 A 
ATOM     63  C   UNL A   1      48.189  25.229  24.896  1.00  0.00     0.058 A 
ATOM     64  O   UNL A   1      46.015  25.711  24.702  1.00  0.00    -0.450 OA
ATOM     65  C   UNL A   1      48.021  26.632  25.052  1.00  0.00     0.050 A 
ATOM     66  C   UNL A   1      46.672  26.883  24.909  1.00  0.00     0.142 A 
BRANCH  66  67
ATOM     67  C   UNL A   1      45.842  28.122  24.921  1.00  0.00     0.304 C 
BRANCH  67  68
ATOM     68  O   UNL A   1      45.357  28.383  26.253  1.00  0.00    -0.484 OA
BRANCH  68  69
ATOM     69  C   UNL A   1      45.627  29.667  26.664  1.00  0.00     0.140 A 
ATOM     70  C   UNL A   1      46.970  30.046  26.776  1.00  0.00     0.048 A 
ATOM     71  C   UNL A   1      44.608  30.604  26.879  1.00  0.00     0.101 A 
ATOM     72  C   UNL A   1      47.308  31.329  27.194  1.00  0.00     0.005 A 
ATOM     73  C   UNL A   1      44.956  31.902  27.276  1.00  0.00     0.063 A 
ATOM     74  Cl  UNL A   1      42.956  30.144  26.634  1.00  0.00    -0.079 Cl
ATOM     75  C   UNL A   1      46.301  32.256  27.449  1.00  0.00     0.022 A 
ATOM     76  Cl  UNL A   1      43.773  33.130  27.568  1.00  0.00    -0.083 Cl
ENDBRANCH  68  69
ENDBRANCH  67  68
ENDBRANCH  66  67
ENDBRANCH  60  62
ENDBRANCH  59  60
ENDBRANCH  58  59
ENDBRANCH   1  58
TORSDOF 17
ENDMDL
MODEL 2
REMARK VINA RESULT:      -8.1      4.675      9.374
REMARK SMILES O=C(OCCOCCOC(=O)c1ccc(COc2cccc(Cl)c2Cl)o1)c1ccc(-c2c3nc(c(-c4ccccc4)c4ccc([nH]4)c(-c4ccccc4)c4nc(c(-c5ccccc5)c5ccc2[nH]5)C=C4)C=C3)cc1
REMARK SMILES IDX 7 1 6 2 5 3 4 4 3 5 2 6 1 7 27 8 28 9 74 10 29 11 73 12
REMARK SMILES IDX 30 13 31 14 32 15 67 16 33 17 72 18 66 19 68 20 34 21 71 22
REMARK SMILES IDX 65 23 64 24 35 26 57 27 42 28 56 29 43 30 46 31 55 32 69 33
REMARK SMILES IDX 44 34 45 35 54 37 70 38 47 39 36 40 37 41 41 42 38 43 40 44
REMARK SMILES IDX 39 45 58 46 59 47 63 48 60 49 62 50 61 51 48 52 49 53 53 54
REMARK SMILES IDX 50 55 52 56 51 57 8 58 9 59 10 60 11 61 12 62 13 63 26 64
REMARK SMILES IDX 14 65 15 66 16 67 17 68 18 69 19 70 24 71 20 72 22 73 25 74
REMARK SMILES IDX 21 75 23 76
REMARK H PARENT 68 25 46 36
REMARK Flexibility Score: inf
ROOT
ATOM      1  C   UNL A   1      42.400  19.519  25.795  1.00  0.00     0.202 C 
ENDROOT
BRANCH   1   2
ATOM      2  O   UNL A   1      43.533  20.322  25.435  1.00  0.00    -0.374 OA
BRANCH   2   3
ATOM      3  C   UNL A   1      43.294  21.731  25.374  1.00  0.00     0.202 C 
BRANCH   3   4
ATOM      4  C   UNL A   1      44.208  22.466  24.388  1.00  0.00     0.261 C 
BRANCH   4   5
ATOM      5  O   UNL A   1      43.902  23.872  24.380  1.00  0.00    -0.460 OA
BRANCH   5   6
ATOM      6  C   UNL A   1      44.533  24.888  25.010  1.00  0.00     0.338 C 
ATOM      7  O   UNL A   1      45.660  25.200  24.626  1.00  0.00    -0.246 OA
BRANCH   6   8
ATOM      8  C   UNL A   1      43.945  25.679  26.135  1.00  0.00     0.060 A 
ATOM      9  C   UNL A   1      44.115  27.051  26.338  1.00  0.00     0.016 A 
ATOM     10  C   UNL A   1      43.072  24.992  26.998  1.00  0.00     0.016 A 
ATOM     11  C   UNL A   1      43.499  27.707  27.400  1.00  0.00     0.010 A 
ATOM     12  C   UNL A   1      42.413  25.653  28.039  1.00  0.00     0.010 A 
ATOM     13  C   UNL A   1      42.644  27.014  28.255  1.00  0.00    -0.014 A 
BRANCH  13  14
ATOM     14  C   UNL A   1      42.053  27.733  29.398  1.00  0.00     0.031 A 
ATOM     15  C   UNL A   1      40.709  28.374  29.236  1.00  0.00     0.074 A 
ATOM     16  C   UNL A   1      42.674  27.708  30.591  1.00  0.00     0.049 A 
ATOM     17  N   UNL A   1      39.995  29.027  30.114  1.00  0.00    -0.248 NA
ATOM     18  C   UNL A   1      40.078  28.251  27.912  1.00  0.00     0.031 C 
ATOM     19  C   UNL A   1      43.943  27.031  30.868  1.00  0.00     0.029 A 
ATOM     20  N   UNL A   1      42.304  28.234  31.799  1.00  0.00    -0.354 N 
ATOM     21  C   UNL A   1      38.835  29.398  29.449  1.00  0.00     0.074 A 
ATOM     22  C   UNL A   1      38.945  28.913  28.091  1.00  0.00     0.031 C 
ATOM     23  C   UNL A   1      44.228  27.156  32.173  1.00  0.00     0.029 A 
ATOM     24  C   UNL A   1      43.191  27.960  32.811  1.00  0.00     0.049 A 
ATOM     25  H   UNL A   1      41.481  28.759  31.932  1.00  0.00     0.167 HD
ATOM     26  C   UNL A   1      37.774  30.086  29.930  1.00  0.00     0.031 A 
ATOM     27  C   UNL A   1      43.170  28.332  34.104  1.00  0.00     0.031 A 
ATOM     28  C   UNL A   1      37.690  30.588  31.273  1.00  0.00     0.049 A 
ATOM     29  C   UNL A   1      42.023  29.175  34.588  1.00  0.00     0.074 A 
ATOM     30  C   UNL A   1      36.700  31.360  31.851  1.00  0.00     0.029 A 
ATOM     31  N   UNL A   1      38.647  30.360  32.252  1.00  0.00    -0.354 N 
ATOM     32  N   UNL A   1      40.953  29.563  33.937  1.00  0.00    -0.248 NA
ATOM     33  C   UNL A   1      42.087  29.639  35.980  1.00  0.00     0.031 C 
ATOM     34  C   UNL A   1      37.076  31.631  33.171  1.00  0.00     0.029 A 
ATOM     35  C   UNL A   1      38.280  30.991  33.427  1.00  0.00     0.049 A 
ATOM     36  H   UNL A   1      39.466  29.827  32.129  1.00  0.00     0.167 HD
ATOM     37  C   UNL A   1      40.213  30.313  34.839  1.00  0.00     0.074 A 
ATOM     38  C   UNL A   1      40.944  30.303  36.091  1.00  0.00     0.031 C 
ATOM     39  C   UNL A   1      39.037  30.962  34.651  1.00  0.00     0.031 A 
BRANCH  26  40
ATOM     40  C   UNL A   1      36.665  30.377  28.963  1.00  0.00    -0.014 A 
ATOM     41  C   UNL A   1      36.399  31.685  28.532  1.00  0.00     0.009 A 
ATOM     42  C   UNL A   1      35.850  29.329  28.508  1.00  0.00     0.009 A 
ATOM     43  C   UNL A   1      35.314  31.944  27.690  1.00  0.00     0.001 A 
ATOM     44  C   UNL A   1      34.779  29.589  27.651  1.00  0.00     0.001 A 
ATOM     45  C   UNL A   1      34.505  30.896  27.251  1.00  0.00     0.000 A 
ENDBRANCH  26  40
BRANCH  27  46
ATOM     46  C   UNL A   1      44.280  27.945  35.014  1.00  0.00    -0.014 A 
ATOM     47  C   UNL A   1      44.215  26.761  35.765  1.00  0.00     0.009 A 
ATOM     48  C   UNL A   1      45.414  28.764  35.139  1.00  0.00     0.009 A 
ATOM     49  C   UNL A   1      45.253  26.418  36.635  1.00  0.00     0.001 A 
ATOM     50  C   UNL A   1      46.462  28.403  35.988  1.00  0.00     0.001 A 
ATOM     51  C   UNL A   1      46.378  27.235  36.742  1.00  0.00     0.000 A 
ENDBRANCH  27  46
BRANCH  39  52
ATOM     52  C   UNL A   1      38.475  31.695  35.831  1.00  0.00    -0.014 A 
ATOM     53  C   UNL A   1      37.832  31.002  36.869  1.00  0.00     0.009 A 
ATOM     54  C   UNL A   1      38.627  33.086  35.925  1.00  0.00     0.009 A 
ATOM     55  C   UNL A   1      37.329  31.696  37.970  1.00  0.00     0.001 A 
ATOM     56  C   UNL A   1      38.142  33.773  37.037  1.00  0.00     0.001 A 
ATOM     57  C   UNL A   1      37.487  33.079  38.054  1.00  0.00     0.000 A 
ENDBRANCH  39  52
ENDBRANCH  13  14
ENDBRANCH   6   8
ENDBRANCH   5   6
ENDBRANCH   4   5
ENDBRANCH   3   4
ENDBRANCH   2   3
ENDBRANCH   1   2
BRANCH   1  58
ATOM     58  C   UNL A   1      42.054  19.743  27.271  1.00  0.00     0.261 C 
BRANCH  58  59
ATOM     59  O   UNL A   1      40.748  20.338  27.345  1.00  0.00    -0.457 OA
BRANCH  59  60
ATOM     60  C   UNL A   1      40.774  21.662  27.667  1.00  0.00     0.374 C 
ATOM     61  O   UNL A   1      41.628  22.203  28.361  1.00  0.00    -0.242 OA
BRANCH  60  62
ATOM     62  C   UNL A   1      39.729  22.338  26.945  1.00  0.00     0.211 A 
ATOM     63  C   UNL A   1      39.266  23.639  26.917  1.00  0.00     0.058 A 
ATOM     64  O   UNL A   1      38.939  21.568  26.144  1.00  0.00    -0.450 OA
ATOM     65  C   UNL A   1      38.182  23.665  25.997  1.00  0.00     0.050 A 
ATOM     66  C   UNL A   1      38.029  22.374  25.536  1.00  0.00     0.142 A 
BRANCH  66  67
ATOM     67  C   UNL A   1      37.120  21.729  24.545  1.00  0.00     0.304 C 
BRANCH  67  68
ATOM     68  O   UNL A   1      36.118  22.667  24.104  1.00  0.00    -0.484 OA
BRANCH  68  69
ATOM     69  C   UNL A   1      34.841  22.200  24.304  1.00  0.00     0.140 A 
ATOM     70  C   UNL A   1      34.686  20.846  24.625  1.00  0.00     0.048 A 
ATOM     71  C   UNL A   1      33.730  23.052  24.283  1.00  0.00     0.101 A 
ATOM     72  C   UNL A   1      33.419  20.312  24.833  1.00  0.00     0.005 A 
ATOM     73  C   UNL A   1      32.458  22.512  24.518  1.00  0.00     0.063 A 
ATOM     74  Cl  UNL A   1      33.955  24.744  23.986  1.00  0.00    -0.079 Cl
ATOM     75  C   UNL A   1      32.304  21.144  24.774  1.00  0.00     0.022 A 
ATOM     76  Cl  UNL A   1      31.025  23.481  24.511  1.00  0.00    -0.083 Cl
ENDBRANCH  68  69
ENDBRANCH  67  68
ENDBRANCH  66  67
ENDBRANCH  60  62
ENDBRANCH  59  60
ENDBRANCH  58  59
ENDBRANCH   1  58
TORSDOF 17
ENDMDL
MODEL 3
REMARK VINA RESULT:      -7.9      5.796     11.364
REMARK SMILES O=C(OCCOCCOC(=O)c1ccc(COc2cccc(Cl)c2Cl)o1)c1ccc(-c2c3nc(c(-c4ccccc4)c4ccc([nH]4)c(-c4ccccc4)c4nc(c(-c5ccccc5)c5ccc2[nH]5)C=C4)C=C3)cc1
REMARK SMILES IDX 7 1 6 2 5 3 4 4 3 5 2 6 1 7 27 8 28 9 74 10 29 11 73 12
REMARK SMILES IDX 30 13 31 14 32 15 67 16 33 17 72 18 66 19 68 20 34 21 71 22
REMARK SMILES IDX 65 23 64 24 35 26 57 27 42 28 56 29 43 30 46 31 55 32 69 33
REMARK SMILES IDX 44 34 45 35 54 37 70 38 47 39 36 40 37 41 41 42 38 43 40 44
REMARK SMILES IDX 39 45 58 46 59 47 63 48 60 49 62 50 61 51 48 52 49 53 53 54
REMARK SMILES IDX 50 55 52 56 51 57 8 58 9 59 10 60 11 61 12 62 13 63 26 64
REMARK SMILES IDX 14 65 15 66 16 67 17 68 18 69 19 70 24 71 20 72 22 73 25 74
REMARK SMILES IDX 21 75 23 76
REMARK H PARENT 68 25 46 36
REMARK Flexibility Score: inf
ROOT
ATOM      1  C   UNL A   1      32.944  29.020  27.123  1.00  0.00     0.202 C 
ENDROOT
BRANCH   1   2
ATOM      2  O   UNL A   1      33.075  30.440  27.263  1.00  0.00    -0.374 OA
BRANCH   2   3
ATOM      3  C   UNL A   1      32.180  31.224  26.468  1.00  0.00     0.202 C 
BRANCH   3   4
ATOM      4  C   UNL A   1      31.448  32.312  27.260  1.00  0.00     0.261 C 
BRANCH   4   5
ATOM      5  O   UNL A   1      32.194  33.541  27.222  1.00  0.00    -0.460 OA
BRANCH   5   6
ATOM      6  C   UNL A   1      32.964  34.105  28.181  1.00  0.00     0.338 C 
ATOM      7  O   UNL A   1      32.610  35.186  28.651  1.00  0.00    -0.246 OA
BRANCH   6   8
ATOM      8  C   UNL A   1      34.214  33.492  28.728  1.00  0.00     0.060 A 
ATOM      9  C   UNL A   1      34.275  32.582  29.786  1.00  0.00     0.016 A 
ATOM     10  C   UNL A   1      35.409  33.789  28.048  1.00  0.00     0.016 A 
ATOM     11  C   UNL A   1      35.486  32.039  30.205  1.00  0.00     0.010 A 
ATOM     12  C   UNL A   1      36.624  33.213  28.434  1.00  0.00     0.010 A 
ATOM     13  C   UNL A   1      36.666  32.349  29.531  1.00  0.00    -0.014 A 
BRANCH  13  14
ATOM     14  C   UNL A   1      37.935  31.796  30.037  1.00  0.00     0.031 A 
ATOM     15  C   UNL A   1      38.588  32.440  31.222  1.00  0.00     0.074 A 
ATOM     16  C   UNL A   1      38.427  30.665  29.500  1.00  0.00     0.049 A 
ATOM     17  N   UNL A   1      39.685  32.100  31.845  1.00  0.00    -0.248 NA
ATOM     18  C   UNL A   1      37.905  33.613  31.790  1.00  0.00     0.031 C 
ATOM     19  C   UNL A   1      37.813  29.915  28.401  1.00  0.00     0.029 A 
ATOM     20  N   UNL A   1      39.535  29.930  29.829  1.00  0.00    -0.354 N 
ATOM     21  C   UNL A   1      39.827  33.021  32.873  1.00  0.00     0.074 A 
ATOM     22  C   UNL A   1      38.717  33.942  32.783  1.00  0.00     0.031 C 
ATOM     23  C   UNL A   1      38.535  28.808  28.171  1.00  0.00     0.029 A 
ATOM     24  C   UNL A   1      39.686  28.796  29.069  1.00  0.00     0.049 A 
ATOM     25  H   UNL A   1      40.163  30.188  30.542  1.00  0.00     0.167 HD
ATOM     26  C   UNL A   1      40.804  33.091  33.808  1.00  0.00     0.031 A 
ATOM     27  C   UNL A   1      40.655  27.864  29.090  1.00  0.00     0.031 A 
ATOM     28  C   UNL A   1      41.918  32.188  33.869  1.00  0.00     0.049 A 
ATOM     29  C   UNL A   1      41.777  28.019  30.079  1.00  0.00     0.074 A 
ATOM     30  C   UNL A   1      43.004  32.206  34.724  1.00  0.00     0.029 A 
ATOM     31  N   UNL A   1      42.082  31.095  33.030  1.00  0.00    -0.354 N 
ATOM     32  N   UNL A   1      41.930  28.923  31.017  1.00  0.00    -0.248 NA
ATOM     33  C   UNL A   1      42.864  27.033  30.005  1.00  0.00     0.031 C 
ATOM     34  C   UNL A   1      43.846  31.144  34.377  1.00  0.00     0.029 A 
ATOM     35  C   UNL A   1      43.261  30.440  33.334  1.00  0.00     0.049 A 
ATOM     36  H   UNL A   1      41.453  30.825  32.323  1.00  0.00     0.167 HD
ATOM     37  C   UNL A   1      43.126  28.615  31.649  1.00  0.00     0.074 A 
ATOM     38  C   UNL A   1      43.644  27.424  31.005  1.00  0.00     0.031 C 
ATOM     39  C   UNL A   1      43.747  29.261  32.667  1.00  0.00     0.031 A 
BRANCH  26  40
ATOM     40  C   UNL A   1      40.720  34.226  34.785  1.00  0.00    -0.014 A 
ATOM     41  C   UNL A   1      39.937  34.132  35.946  1.00  0.00     0.009 A 
ATOM     42  C   UNL A   1      41.404  35.422  34.519  1.00  0.00     0.009 A 
ATOM     43  C   UNL A   1      39.812  35.227  36.804  1.00  0.00     0.001 A 
ATOM     44  C   UNL A   1      41.293  36.508  35.390  1.00  0.00     0.001 A 
ATOM     45  C   UNL A   1      40.490  36.414  36.526  1.00  0.00     0.000 A 
ENDBRANCH  26  40
BRANCH  27  46
ATOM     46  C   UNL A   1      40.629  26.732  28.128  1.00  0.00    -0.014 A 
ATOM     47  C   UNL A   1      41.257  26.836  26.877  1.00  0.00     0.009 A 
ATOM     48  C   UNL A   1      39.970  25.536  28.455  1.00  0.00     0.009 A 
ATOM     49  C   UNL A   1      41.207  25.774  25.969  1.00  0.00     0.001 A 
ATOM     50  C   UNL A   1      39.947  24.467  27.558  1.00  0.00     0.001 A 
ATOM     51  C   UNL A   1      40.558  24.589  26.312  1.00  0.00     0.000 A 
ENDBRANCH  27  46
BRANCH  39  52
ATOM     52  C   UNL A   1      45.044  28.678  33.143  1.00  0.00    -0.014 A 
ATOM     53  C   UNL A   1      46.265  29.096  32.592  1.00  0.00     0.009 A 
ATOM     54  C   UNL A   1      45.045  27.734  34.179  1.00  0.00     0.009 A 
ATOM     55  C   UNL A   1      47.465  28.558  33.057  1.00  0.00     0.001 A 
ATOM     56  C   UNL A   1      46.248  27.214  34.656  1.00  0.00     0.001 A 
ATOM     57  C   UNL A   1      47.456  27.622  34.090  1.00  0.00     0.000 A 
ENDBRANCH  39  52
ENDBRANCH  13  14
ENDBRANCH   6   8
ENDBRANCH   5   6
ENDBRANCH   4   5
ENDBRANCH   3   4
ENDBRANCH   2   3
ENDBRANCH   1   2
BRANCH   1  58
ATOM     58  C   UNL A   1      33.661  28.555  25.851  1.00  0.00     0.261 C 
BRANCH  58  59
ATOM     59  O   UNL A   1      32.827  27.593  25.185  1.00  0.00    -0.457 OA
BRANCH  59  60
ATOM     60  C   UNL A   1      32.547  27.920  23.892  1.00  0.00     0.374 C 
ATOM     61  O   UNL A   1      32.366  29.060  23.476  1.00  0.00    -0.242 OA
BRANCH  60  62
ATOM     62  C   UNL A   1      32.646  26.737  23.081  1.00  0.00     0.211 A 
ATOM     63  C   UNL A   1      32.989  26.502  21.764  1.00  0.00     0.058 A 
ATOM     64  O   UNL A   1      32.267  25.562  23.659  1.00  0.00    -0.450 OA
ATOM     65  C   UNL A   1      32.875  25.099  21.558  1.00  0.00     0.050 A 
ATOM     66  C   UNL A   1      32.444  24.563  22.754  1.00  0.00     0.142 A 
BRANCH  66  67
ATOM     67  C   UNL A   1      32.165  23.176  23.227  1.00  0.00     0.304 C 
BRANCH  67  68
ATOM     68  O   UNL A   1      32.525  23.042  24.616  1.00  0.00    -0.484 OA
BRANCH  68  69
ATOM     69  C   UNL A   1      33.636  22.251  24.794  1.00  0.00     0.140 A 
ATOM     70  C   UNL A   1      33.491  20.873  24.601  1.00  0.00     0.048 A 
ATOM     71  C   UNL A   1      34.896  22.798  25.068  1.00  0.00     0.101 A 
ATOM     72  C   UNL A   1      34.576  20.019  24.771  1.00  0.00     0.005 A 
ATOM     73  C   UNL A   1      35.990  21.935  25.214  1.00  0.00     0.063 A 
ATOM     74  Cl  UNL A   1      35.073  24.516  25.201  1.00  0.00    -0.079 Cl
ATOM     75  C   UNL A   1      35.825  20.550  25.084  1.00  0.00     0.022 A 
ATOM     76  Cl  UNL A   1      37.585  22.511  25.555  1.00  0.00    -0.083 Cl
ENDBRANCH  68  69
ENDBRANCH  67  68
ENDBRANCH  66  67
ENDBRANCH  60  62
ENDBRANCH  59  60
ENDBRANCH  58  59
ENDBRANCH   1  58
TORSDOF 17
ENDMDL
