MODEL 1
REMARK VINA RESULT:     -10.6      0.000      0.000
REMARK SMILES NS(=O)(=O)c1ccc(-n2nc(C(=O)NCCCC(=O)OCCOCCOC(=O)c3ccc(-c4c5nc(c(-c6ccccc6)c6ccc([nH]6)c(-c6ccccc6)c6nc(c(-c7ccccc7)c7ccc4[nH]7)C=C6)C=C5)cc3)cc2-c2ccccc2)cc1
REMARK SMILES IDX 21 1 20 2 18 3 19 4 17 5 16 6 15 7 14 8 12 9 13 10 11 12
REMARK SMILES IDX 9 13 10 14 78 15 77 16 8 17 5 18 6 19 86 20 7 21 85 22 2 23
REMARK SMILES IDX 3 24 4 25 1 26 79 29 80 30 84 31 81 32 83 33 82 34 22 35
REMARK SMILES IDX 23 36 24 37 25 38 26 39 27 40 28 41 29 42 30 43 76 44 31 45
REMARK SMILES IDX 75 46 32 47 33 48 34 49 69 50 35 51 74 52 68 53 70 54 36 55
REMARK SMILES IDX 73 56 67 57 66 58 37 60 59 61 44 62 58 63 45 64 48 65 57 66
REMARK SMILES IDX 71 67 46 68 47 69 56 71 72 72 49 73 38 74 39 75 43 76 40 77
REMARK SMILES IDX 42 78 41 79 60 80 61 81 65 82 62 83 64 84 63 85 50 86 51 87
REMARK SMILES IDX 55 88 52 89 54 90 53 91
REMARK H PARENT 14 11 1 27 1 28 70 59 48 70
REMARK Flexibility Score: inf
ROOT
ATOM      1  C   UNL A   1      37.278  32.220  32.664  1.00  0.00     0.261 C 
ENDROOT
BRANCH   1   2
ATOM      2  O   UNL A   1      36.373  31.103  32.697  1.00  0.00    -0.463 OA
BRANCH   2   3
ATOM      3  C   UNL A   1      36.618  30.077  31.848  1.00  0.00     0.305 C 
ATOM      4  O   UNL A   1      37.001  28.966  32.184  1.00  0.00    -0.252 OA
BRANCH   3   5
ATOM      5  C   UNL A   1      36.375  30.460  30.400  1.00  0.00     0.124 C 
BRANCH   5   6
ATOM      6  C   UNL A   1      36.824  29.474  29.313  1.00  0.00     0.033 C 
BRANCH   6   7
ATOM      7  C   UNL A   1      36.456  29.848  27.876  1.00  0.00     0.117 C 
BRANCH   7   8
ATOM      8  N   UNL A   1      35.273  30.684  27.811  1.00  0.00    -0.351 N 
ATOM      9  C   UNL A   1      34.019  30.554  27.256  1.00  0.00     0.271 C 
ATOM     10  O   UNL A   1      33.244  31.485  27.494  1.00  0.00    -0.267 OA
ATOM     11  H   UNL A   1      35.395  31.546  28.270  1.00  0.00     0.163 HD
BRANCH   9  12
ATOM     12  C   UNL A   1      33.607  29.378  26.459  1.00  0.00     0.151 A 
ATOM     13  N   UNL A   1      33.365  27.295  25.975  1.00  0.00    -0.232 N 
ATOM     14  N   UNL A   1      33.628  28.131  26.999  1.00  0.00    -0.162 NA
ATOM     15  C   UNL A   1      33.001  27.978  24.846  1.00  0.00     0.075 A 
ATOM     16  C   UNL A   1      33.131  29.311  25.133  1.00  0.00     0.065 A 
BRANCH  13  17
ATOM     17  C   UNL A   1      33.359  25.886  26.083  1.00  0.00     0.065 A 
ATOM     18  C   UNL A   1      33.103  23.151  25.694  1.00  0.00     0.082 A 
ATOM     19  C   UNL A   1      34.295  23.782  25.333  1.00  0.00     0.024 A 
ATOM     20  C   UNL A   1      32.046  23.877  26.263  1.00  0.00     0.024 A 
ATOM     21  C   UNL A   1      34.420  25.154  25.523  1.00  0.00     0.030 A 
ATOM     22  C   UNL A   1      32.178  25.253  26.471  1.00  0.00     0.030 A 
BRANCH  18  23
ATOM     23  S   UNL A   1      32.992  21.400  25.487  1.00  0.00     0.238 S 
ATOM     24  O   UNL A   1      34.053  20.984  24.582  1.00  0.00    -0.207 OA
ATOM     25  O   UNL A   1      31.619  21.045  25.290  1.00  0.00    -0.207 OA
BRANCH  23  26
ATOM     26  N   UNL A   1      33.443  20.802  26.988  1.00  0.00    -0.225 NA
ATOM     27  H   UNL A   1      34.021  19.970  26.863  1.00  0.00     0.137 HD
ATOM     28  H   UNL A   1      32.609  20.559  27.523  1.00  0.00     0.137 HD
ENDBRANCH  23  26
ENDBRANCH  18  23
ENDBRANCH  13  17
BRANCH  15  29
ATOM     29  C   UNL A   1      32.619  27.377  23.602  1.00  0.00     0.000 A 
ATOM     30  C   UNL A   1      33.562  26.964  22.660  1.00  0.00     0.010 A 
ATOM     31  C   UNL A   1      31.264  27.203  23.381  1.00  0.00     0.010 A 
ATOM     32  C   UNL A   1      33.146  26.235  21.557  1.00  0.00     0.001 A 
ATOM     33  C   UNL A   1      30.861  26.517  22.267  1.00  0.00     0.001 A 
ATOM     34  C   UNL A   1      31.801  25.947  21.413  1.00  0.00     0.000 A 
ENDBRANCH  15  29
ENDBRANCH   9  12
ENDBRANCH   7   8
ENDBRANCH   6   7
ENDBRANCH   5   6
ENDBRANCH   3   5
ENDBRANCH   2   3
ENDBRANCH   1   2
BRANCH   1  35
ATOM     35  C   UNL A   1      38.233  32.172  33.856  1.00  0.00     0.202 C 
BRANCH  35  36
ATOM     36  O   UNL A   1      38.770  33.426  34.279  1.00  0.00    -0.374 OA
BRANCH  36  37
ATOM     37  C   UNL A   1      40.179  33.543  34.442  1.00  0.00     0.202 C 
BRANCH  37  38
ATOM     38  C   UNL A   1      41.045  32.745  33.477  1.00  0.00     0.261 C 
BRANCH  38  39
ATOM     39  O   UNL A   1      41.577  33.568  32.444  1.00  0.00    -0.460 OA
BRANCH  39  40
ATOM     40  C   UNL A   1      40.787  33.686  31.348  1.00  0.00     0.338 C 
ATOM     41  O   UNL A   1      39.891  34.490  31.163  1.00  0.00    -0.246 OA
BRANCH  40  42
ATOM     42  C   UNL A   1      41.049  32.530  30.481  1.00  0.00     0.060 A 
ATOM     43  C   UNL A   1      40.001  31.625  30.317  1.00  0.00     0.016 A 
ATOM     44  C   UNL A   1      42.366  32.191  30.164  1.00  0.00     0.016 A 
ATOM     45  C   UNL A   1      40.315  30.296  30.112  1.00  0.00     0.010 A 
ATOM     46  C   UNL A   1      42.673  30.865  29.996  1.00  0.00     0.010 A 
ATOM     47  C   UNL A   1      41.660  29.915  30.073  1.00  0.00    -0.014 A 
BRANCH  47  48
ATOM     48  C   UNL A   1      41.991  28.514  29.875  1.00  0.00     0.031 A 
ATOM     49  C   UNL A   1      42.547  27.952  31.128  1.00  0.00     0.074 A 
ATOM     50  C   UNL A   1      41.730  27.798  28.758  1.00  0.00     0.049 A 
ATOM     51  N   UNL A   1      43.801  27.781  31.376  1.00  0.00    -0.248 NA
ATOM     52  C   UNL A   1      41.684  27.830  32.319  1.00  0.00     0.031 C 
ATOM     53  C   UNL A   1      40.949  28.193  27.578  1.00  0.00     0.029 A 
ATOM     54  N   UNL A   1      41.986  26.479  28.502  1.00  0.00    -0.354 N 
ATOM     55  C   UNL A   1      43.853  27.255  32.660  1.00  0.00     0.074 A 
ATOM     56  C   UNL A   1      42.586  27.561  33.266  1.00  0.00     0.031 C 
ATOM     57  C   UNL A   1      40.589  27.080  26.881  1.00  0.00     0.029 A 
ATOM     58  C   UNL A   1      41.210  25.905  27.483  1.00  0.00     0.049 A 
ATOM     59  H   UNL A   1      42.666  25.968  28.998  1.00  0.00     0.167 HD
ATOM     60  C   UNL A   1      44.764  26.289  32.954  1.00  0.00     0.031 A 
ATOM     61  C   UNL A   1      41.076  24.563  27.259  1.00  0.00     0.031 A 
ATOM     62  C   UNL A   1      45.728  26.168  31.884  1.00  0.00     0.049 A 
ATOM     63  C   UNL A   1      42.311  23.940  27.769  1.00  0.00     0.074 A 
ATOM     64  C   UNL A   1      46.772  26.908  31.376  1.00  0.00     0.029 A 
ATOM     65  N   UNL A   1      45.311  25.313  30.895  1.00  0.00    -0.354 N 
ATOM     66  N   UNL A   1      43.480  24.210  27.268  1.00  0.00    -0.248 NA
ATOM     67  C   UNL A   1      42.312  23.302  29.078  1.00  0.00     0.031 C 
ATOM     68  C   UNL A   1      46.836  26.593  29.983  1.00  0.00     0.029 A 
ATOM     69  C   UNL A   1      45.879  25.623  29.692  1.00  0.00     0.049 A 
ATOM     70  H   UNL A   1      44.683  24.569  31.035  1.00  0.00     0.167 HD
ATOM     71  C   UNL A   1      44.313  24.220  28.366  1.00  0.00     0.074 A 
ATOM     72  C   UNL A   1      43.602  23.459  29.391  1.00  0.00     0.031 C 
ATOM     73  C   UNL A   1      45.318  25.139  28.451  1.00  0.00     0.031 A 
BRANCH  60  74
ATOM     74  C   UNL A   1      44.457  25.092  33.835  1.00  0.00    -0.014 A 
ATOM     75  C   UNL A   1      44.771  25.186  35.204  1.00  0.00     0.009 A 
ATOM     76  C   UNL A   1      44.168  23.802  33.349  1.00  0.00     0.009 A 
ATOM     77  C   UNL A   1      44.866  24.049  36.014  1.00  0.00     0.001 A 
ATOM     78  C   UNL A   1      44.231  22.667  34.161  1.00  0.00     0.001 A 
ATOM     79  C   UNL A   1      44.605  22.788  35.490  1.00  0.00     0.000 A 
ENDBRANCH  60  74
BRANCH  61  80
ATOM     80  C   UNL A   1      39.941  23.674  26.881  1.00  0.00    -0.014 A 
ATOM     81  C   UNL A   1      38.671  24.160  26.540  1.00  0.00     0.009 A 
ATOM     82  C   UNL A   1      40.214  22.350  26.494  1.00  0.00     0.009 A 
ATOM     83  C   UNL A   1      37.713  23.334  25.912  1.00  0.00     0.001 A 
ATOM     84  C   UNL A   1      39.252  21.501  25.927  1.00  0.00     0.001 A 
ATOM     85  C   UNL A   1      37.996  21.998  25.628  1.00  0.00     0.000 A 
ENDBRANCH  61  80
BRANCH  73  86
ATOM     86  C   UNL A   1      45.751  25.826  27.183  1.00  0.00    -0.014 A 
ATOM     87  C   UNL A   1      46.654  25.278  26.252  1.00  0.00     0.009 A 
ATOM     88  C   UNL A   1      45.121  27.035  26.866  1.00  0.00     0.009 A 
ATOM     89  C   UNL A   1      46.918  25.932  25.043  1.00  0.00     0.001 A 
ATOM     90  C   UNL A   1      45.371  27.677  25.653  1.00  0.00     0.001 A 
ATOM     91  C   UNL A   1      46.270  27.127  24.742  1.00  0.00     0.000 A 
ENDBRANCH  73  86
ENDBRANCH  47  48
ENDBRANCH  40  42
ENDBRANCH  39  40
ENDBRANCH  38  39
ENDBRANCH  37  38
ENDBRANCH  36  37
ENDBRANCH  35  36
ENDBRANCH   1  35
TORSDOF 22
ENDMDL
MODEL 2
REMARK VINA RESULT:      -9.8      4.129      8.536
REMARK SMILES NS(=O)(=O)c1ccc(-n2nc(C(=O)NCCCC(=O)OCCOCCOC(=O)c3ccc(-c4c5nc(c(-c6ccccc6)c6ccc([nH]6)c(-c6ccccc6)c6nc(c(-c7ccccc7)c7ccc4[nH]7)C=C6)C=C5)cc3)cc2-c2ccccc2)cc1
REMARK SMILES IDX 21 1 20 2 18 3 19 4 17 5 16 6 15 7 14 8 12 9 13 10 11 12
REMARK SMILES IDX 9 13 10 14 78 15 77 16 8 17 5 18 6 19 86 20 7 21 85 22 2 23
REMARK SMILES IDX 3 24 4 25 1 26 79 29 80 30 84 31 81 32 83 33 82 34 22 35
REMARK SMILES IDX 23 36 24 37 25 38 26 39 27 40 28 41 29 42 30 43 76 44 31 45
REMARK SMILES IDX 75 46 32 47 33 48 34 49 69 50 35 51 74 52 68 53 70 54 36 55
REMARK SMILES IDX 73 56 67 57 66 58 37 60 59 61 44 62 58 63 45 64 48 65 57 66
REMARK SMILES IDX 71 67 46 68 47 69 56 71 72 72 49 73 38 74 39 75 43 76 40 77
REMARK SMILES IDX 42 78 41 79 60 80 61 81 65 82 62 83 64 84 63 85 50 86 51 87
REMARK SMILES IDX 55 88 52 89 54 90 53 91
REMARK H PARENT 14 11 1 27 1 28 70 59 48 70
REMARK Flexibility Score: inf
ROOT
ATOM      1  C   UNL A   1      40.398  21.198  26.874  1.00  0.00     0.261 C 
ENDROOT
BRANCH   1   2
ATOM      2  O   UNL A   1      39.559  21.672  25.806  1.00  0.00    -0.463 OA
BRANCH   2   3
ATOM      3  C   UNL A   1      38.590  20.839  25.358  1.00  0.00     0.305 C 
ATOM      4  O   UNL A   1      38.695  19.624  25.274  1.00  0.00    -0.252 OA
BRANCH   3   5
ATOM      5  C   UNL A   1      37.336  21.586  24.947  1.00  0.00     0.124 C 
BRANCH   5   6
ATOM      6  C   UNL A   1      36.079  21.407  25.811  1.00  0.00     0.033 C 
BRANCH   6   7
ATOM      7  C   UNL A   1      34.835  22.168  25.349  1.00  0.00     0.117 C 
BRANCH   7   8
ATOM      8  N   UNL A   1      34.841  22.417  23.921  1.00  0.00    -0.351 N 
ATOM      9  C   UNL A   1      34.380  23.429  23.107  1.00  0.00     0.271 C 
ATOM     10  O   UNL A   1      34.657  23.303  21.911  1.00  0.00    -0.267 OA
ATOM     11  H   UNL A   1      35.274  21.693  23.414  1.00  0.00     0.163 HD
BRANCH   9  12
ATOM     12  C   UNL A   1      33.637  24.600  23.619  1.00  0.00     0.151 A 
ATOM     13  N   UNL A   1      32.223  26.222  23.588  1.00  0.00    -0.232 N 
ATOM     14  N   UNL A   1      32.546  25.074  22.961  1.00  0.00    -0.162 NA
ATOM     15  C   UNL A   1      32.959  26.400  24.728  1.00  0.00     0.075 A 
ATOM     16  C   UNL A   1      33.858  25.370  24.781  1.00  0.00     0.065 A 
BRANCH  13  17
ATOM     17  C   UNL A   1      31.177  27.081  23.179  1.00  0.00     0.065 A 
ATOM     18  C   UNL A   1      29.258  29.069  22.937  1.00  0.00     0.082 A 
ATOM     19  C   UNL A   1      30.536  29.291  22.422  1.00  0.00     0.024 A 
ATOM     20  C   UNL A   1      28.930  27.854  23.556  1.00  0.00     0.024 A 
ATOM     21  C   UNL A   1      31.499  28.296  22.549  1.00  0.00     0.030 A 
ATOM     22  C   UNL A   1      29.892  26.847  23.668  1.00  0.00     0.030 A 
BRANCH  18  23
ATOM     23  S   UNL A   1      28.041  30.331  22.716  1.00  0.00     0.238 S 
ATOM     24  O   UNL A   1      26.788  29.854  23.284  1.00  0.00    -0.207 OA
ATOM     25  O   UNL A   1      28.144  30.843  21.383  1.00  0.00    -0.207 OA
BRANCH  23  26
ATOM     26  N   UNL A   1      28.550  31.549  23.751  1.00  0.00    -0.225 NA
ATOM     27  H   UNL A   1      29.162  31.154  24.466  1.00  0.00     0.137 HD
ATOM     28  H   UNL A   1      27.739  31.978  24.197  1.00  0.00     0.137 HD
ENDBRANCH  23  26
ENDBRANCH  18  23
ENDBRANCH  13  17
BRANCH  15  29
ATOM     29  C   UNL A   1      32.822  27.500  25.638  1.00  0.00     0.000 A 
ATOM     30  C   UNL A   1      33.613  28.646  25.536  1.00  0.00     0.010 A 
ATOM     31  C   UNL A   1      31.852  27.386  26.618  1.00  0.00     0.010 A 
ATOM     32  C   UNL A   1      33.322  29.744  26.329  1.00  0.00     0.001 A 
ATOM     33  C   UNL A   1      31.600  28.463  27.423  1.00  0.00     0.001 A 
ATOM     34  C   UNL A   1      32.261  29.670  27.213  1.00  0.00     0.000 A 
ENDBRANCH  15  29
ENDBRANCH   9  12
ENDBRANCH   7   8
ENDBRANCH   6   7
ENDBRANCH   5   6
ENDBRANCH   3   5
ENDBRANCH   2   3
ENDBRANCH   1   2
BRANCH   1  35
ATOM     35  C   UNL A   1      41.689  20.602  26.317  1.00  0.00     0.202 C 
BRANCH  35  36
ATOM     36  O   UNL A   1      42.891  21.309  26.628  1.00  0.00    -0.374 OA
BRANCH  36  37
ATOM     37  C   UNL A   1      43.699  21.780  25.556  1.00  0.00     0.202 C 
BRANCH  37  38
ATOM     38  C   UNL A   1      45.127  21.256  25.499  1.00  0.00     0.261 C 
BRANCH  38  39
ATOM     39  O   UNL A   1      46.066  22.236  25.928  1.00  0.00    -0.460 OA
BRANCH  39  40
ATOM     40  C   UNL A   1      46.389  23.162  24.991  1.00  0.00     0.338 C 
ATOM     41  O   UNL A   1      46.864  22.966  23.887  1.00  0.00    -0.246 OA
BRANCH  40  42
ATOM     42  C   UNL A   1      46.266  24.488  25.611  1.00  0.00     0.060 A 
ATOM     43  C   UNL A   1      46.635  24.584  26.953  1.00  0.00     0.016 A 
ATOM     44  C   UNL A   1      45.486  25.468  24.995  1.00  0.00     0.016 A 
ATOM     45  C   UNL A   1      45.983  25.509  27.743  1.00  0.00     0.010 A 
ATOM     46  C   UNL A   1      44.815  26.361  25.791  1.00  0.00     0.010 A 
ATOM     47  C   UNL A   1      44.988  26.309  27.170  1.00  0.00    -0.014 A 
BRANCH  47  48
ATOM     48  C   UNL A   1      44.288  27.270  28.005  1.00  0.00     0.031 A 
ATOM     49  C   UNL A   1      45.002  28.567  27.976  1.00  0.00     0.074 A 
ATOM     50  C   UNL A   1      43.106  27.054  28.627  1.00  0.00     0.049 A 
ATOM     51  N   UNL A   1      45.811  28.994  28.885  1.00  0.00    -0.248 NA
ATOM     52  C   UNL A   1      45.061  29.338  26.719  1.00  0.00     0.031 C 
ATOM     53  C   UNL A   1      42.201  25.904  28.499  1.00  0.00     0.029 A 
ATOM     54  N   UNL A   1      42.376  27.907  29.406  1.00  0.00    -0.354 N 
ATOM     55  C   UNL A   1      46.253  30.229  28.432  1.00  0.00     0.074 A 
ATOM     56  C   UNL A   1      45.985  30.255  27.021  1.00  0.00     0.031 C 
ATOM     57  C   UNL A   1      40.966  26.249  28.957  1.00  0.00     0.029 A 
ATOM     58  C   UNL A   1      41.014  27.592  29.526  1.00  0.00     0.049 A 
ATOM     59  H   UNL A   1      42.777  28.688  29.852  1.00  0.00     0.167 HD
ATOM     60  C   UNL A   1      46.427  31.247  29.319  1.00  0.00     0.031 A 
ATOM     61  C   UNL A   1      40.049  28.441  29.992  1.00  0.00     0.031 A 
ATOM     62  C   UNL A   1      46.359  30.748  30.674  1.00  0.00     0.049 A 
ATOM     63  C   UNL A   1      40.734  29.376  30.902  1.00  0.00     0.074 A 
ATOM     64  C   UNL A   1      47.137  29.976  31.506  1.00  0.00     0.029 A 
ATOM     65  N   UNL A   1      45.074  30.703  31.153  1.00  0.00    -0.354 N 
ATOM     66  N   UNL A   1      41.327  28.975  31.988  1.00  0.00    -0.248 NA
ATOM     67  C   UNL A   1      41.096  30.707  30.435  1.00  0.00     0.031 C 
ATOM     68  C   UNL A   1      46.230  29.314  32.390  1.00  0.00     0.029 A 
ATOM     69  C   UNL A   1      44.934  29.750  32.121  1.00  0.00     0.049 A 
ATOM     70  H   UNL A   1      44.345  31.285  30.839  1.00  0.00     0.167 HD
ATOM     71  C   UNL A   1      42.448  29.772  32.063  1.00  0.00     0.074 A 
ATOM     72  C   UNL A   1      42.148  30.933  31.228  1.00  0.00     0.031 C 
ATOM     73  C   UNL A   1      43.632  29.246  32.494  1.00  0.00     0.031 A 
BRANCH  60  74
ATOM     74  C   UNL A   1      46.048  32.686  29.021  1.00  0.00    -0.014 A 
ATOM     75  C   UNL A   1      44.689  33.040  29.115  1.00  0.00     0.009 A 
ATOM     76  C   UNL A   1      46.890  33.611  28.373  1.00  0.00     0.009 A 
ATOM     77  C   UNL A   1      44.194  34.210  28.528  1.00  0.00     0.001 A 
ATOM     78  C   UNL A   1      46.406  34.795  27.811  1.00  0.00     0.001 A 
ATOM     79  C   UNL A   1      45.051  35.083  27.867  1.00  0.00     0.000 A 
ENDBRANCH  60  74
BRANCH  61  80
ATOM     80  C   UNL A   1      38.642  28.740  29.601  1.00  0.00    -0.014 A 
ATOM     81  C   UNL A   1      37.639  29.041  30.534  1.00  0.00     0.009 A 
ATOM     82  C   UNL A   1      38.366  29.098  28.270  1.00  0.00     0.009 A 
ATOM     83  C   UNL A   1      36.406  29.602  30.131  1.00  0.00     0.001 A 
ATOM     84  C   UNL A   1      37.125  29.595  27.848  1.00  0.00     0.001 A 
ATOM     85  C   UNL A   1      36.141  29.855  28.786  1.00  0.00     0.000 A 
ENDBRANCH  61  80
BRANCH  73  86
ATOM     86  C   UNL A   1      43.585  27.953  33.264  1.00  0.00    -0.014 A 
ATOM     87  C   UNL A   1      43.149  27.838  34.597  1.00  0.00     0.009 A 
ATOM     88  C   UNL A   1      43.892  26.782  32.561  1.00  0.00     0.009 A 
ATOM     89  C   UNL A   1      43.031  26.582  35.205  1.00  0.00     0.001 A 
ATOM     90  C   UNL A   1      43.756  25.529  33.161  1.00  0.00     0.001 A 
ATOM     91  C   UNL A   1      43.327  25.429  34.482  1.00  0.00     0.000 A 
ENDBRANCH  73  86
ENDBRANCH  47  48
ENDBRANCH  40  42
ENDBRANCH  39  40
ENDBRANCH  38  39
ENDBRANCH  37  38
ENDBRANCH  36  37
ENDBRANCH  35  36
ENDBRANCH   1  35
TORSDOF 22
ENDMDL
MODEL 3
REMARK VINA RESULT:      -9.2      7.898     13.244
REMARK SMILES NS(=O)(=O)c1ccc(-n2nc(C(=O)NCCCC(=O)OCCOCCOC(=O)c3ccc(-c4c5nc(c(-c6ccccc6)c6ccc([nH]6)c(-c6ccccc6)c6nc(c(-c7ccccc7)c7ccc4[nH]7)C=C6)C=C5)cc3)cc2-c2ccccc2)cc1
REMARK SMILES IDX 21 1 20 2 18 3 19 4 17 5 16 6 15 7 14 8 12 9 13 10 11 12
REMARK SMILES IDX 9 13 10 14 78 15 77 16 8 17 5 18 6 19 86 20 7 21 85 22 2 23
REMARK SMILES IDX 3 24 4 25 1 26 79 29 80 30 84 31 81 32 83 33 82 34 22 35
REMARK SMILES IDX 23 36 24 37 25 38 26 39 27 40 28 41 29 42 30 43 76 44 31 45
REMARK SMILES IDX 75 46 32 47 33 48 34 49 69 50 35 51 74 52 68 53 70 54 36 55
REMARK SMILES IDX 73 56 67 57 66 58 37 60 59 61 44 62 58 63 45 64 48 65 57 66
REMARK SMILES IDX 71 67 46 68 47 69 56 71 72 72 49 73 38 74 39 75 43 76 40 77
REMARK SMILES IDX 42 78 41 79 60 80 61 81 65 82 62 83 64 84 63 85 50 86 51 87
REMARK SMILES IDX 55 88 52 89 54 90 53 91
REMARK H PARENT 14 11 1 27 1 28 70 59 48 70
REMARK Flexibility Score: inf
ROOT
ATOM      1  C   UNL A   1      42.499  34.582  36.215  1.00  0.00     0.261 C 
ENDROOT
BRANCH   1   2
ATOM      2  O   UNL A   1      41.748  35.763  36.548  1.00  0.00    -0.463 OA
BRANCH   2   3
ATOM      3  C   UNL A   1      40.399  35.685  36.476  1.00  0.00     0.305 C 
ATOM      4  O   UNL A   1      39.672  36.539  35.988  1.00  0.00    -0.252 OA
BRANCH   3   5
ATOM      5  C   UNL A   1      39.865  34.405  37.091  1.00  0.00     0.124 C 
BRANCH   5   6
ATOM      6  C   UNL A   1      38.441  34.424  37.665  1.00  0.00     0.033 C 
BRANCH   6   7
ATOM      7  C   UNL A   1      37.453  33.439  37.037  1.00  0.00     0.117 C 
BRANCH   7   8
ATOM      8  N   UNL A   1      37.966  32.083  37.018  1.00  0.00    -0.351 N 
ATOM      9  C   UNL A   1      38.156  31.128  36.042  1.00  0.00     0.271 C 
ATOM     10  O   UNL A   1      38.709  30.093  36.427  1.00  0.00    -0.267 OA
ATOM     11  H   UNL A   1      38.243  31.772  37.909  1.00  0.00     0.163 HD
BRANCH   9  12
ATOM     12  C   UNL A   1      37.762  31.327  34.631  1.00  0.00     0.151 A 
ATOM     13  N   UNL A   1      36.617  32.096  32.980  1.00  0.00    -0.232 N 
ATOM     14  N   UNL A   1      36.877  32.299  34.287  1.00  0.00    -0.162 NA
ATOM     15  C   UNL A   1      37.440  31.145  32.442  1.00  0.00     0.075 A 
ATOM     16  C   UNL A   1      38.194  30.649  33.472  1.00  0.00     0.065 A 
BRANCH  13  17
ATOM     17  C   UNL A   1      35.684  32.851  32.231  1.00  0.00     0.065 A 
ATOM     18  C   UNL A   1      34.328  34.330  30.316  1.00  0.00     0.082 A 
ATOM     19  C   UNL A   1      34.210  32.940  30.311  1.00  0.00     0.024 A 
ATOM     20  C   UNL A   1      35.105  34.985  31.283  1.00  0.00     0.024 A 
ATOM     21  C   UNL A   1      34.895  32.198  31.268  1.00  0.00     0.030 A 
ATOM     22  C   UNL A   1      35.779  34.242  32.256  1.00  0.00     0.030 A 
BRANCH  18  23
ATOM     23  S   UNL A   1      33.406  35.248  29.121  1.00  0.00     0.238 S 
ATOM     24  O   UNL A   1      32.838  36.412  29.785  1.00  0.00    -0.207 OA
ATOM     25  O   UNL A   1      32.621  34.337  28.345  1.00  0.00    -0.207 OA
BRANCH  23  26
ATOM     26  N   UNL A   1      34.591  35.864  28.105  1.00  0.00    -0.225 NA
ATOM     27  H   UNL A   1      34.939  36.746  28.484  1.00  0.00     0.137 HD
ATOM     28  H   UNL A   1      34.196  36.024  27.179  1.00  0.00     0.137 HD
ENDBRANCH  23  26
ENDBRANCH  18  23
ENDBRANCH  13  17
BRANCH  15  29
ATOM     29  C   UNL A   1      37.443  30.733  31.068  1.00  0.00     0.000 A 
ATOM     30  C   UNL A   1      36.802  29.568  30.645  1.00  0.00     0.010 A 
ATOM     31  C   UNL A   1      38.096  31.558  30.169  1.00  0.00     0.010 A 
ATOM     32  C   UNL A   1      36.689  29.310  29.288  1.00  0.00     0.001 A 
ATOM     33  C   UNL A   1      38.012  31.272  28.834  1.00  0.00     0.001 A 
ATOM     34  C   UNL A   1      37.227  30.212  28.388  1.00  0.00     0.000 A 
ENDBRANCH  15  29
ENDBRANCH   9  12
ENDBRANCH   7   8
ENDBRANCH   6   7
ENDBRANCH   5   6
ENDBRANCH   3   5
ENDBRANCH   2   3
ENDBRANCH   1   2
BRANCH   1  35
ATOM     35  C   UNL A   1      43.113  34.713  34.822  1.00  0.00     0.202 C 
BRANCH  35  36
ATOM     36  O   UNL A   1      42.190  34.764  33.733  1.00  0.00    -0.374 OA
BRANCH  36  37
ATOM     37  C   UNL A   1      41.553  33.559  33.323  1.00  0.00     0.202 C 
BRANCH  37  38
ATOM     38  C   UNL A   1      40.315  33.706  32.450  1.00  0.00     0.261 C 
BRANCH  38  39
ATOM     39  O   UNL A   1      40.611  33.485  31.075  1.00  0.00    -0.460 OA
BRANCH  39  40
ATOM     40  C   UNL A   1      40.111  34.421  30.229  1.00  0.00     0.338 C 
ATOM     41  O   UNL A   1      38.941  34.687  30.026  1.00  0.00    -0.246 OA
BRANCH  40  42
ATOM     42  C   UNL A   1      41.225  34.934  29.422  1.00  0.00     0.060 A 
ATOM     43  C   UNL A   1      42.373  35.315  30.116  1.00  0.00     0.016 A 
ATOM     44  C   UNL A   1      40.992  35.350  28.109  1.00  0.00     0.016 A 
ATOM     45  C   UNL A   1      43.137  36.342  29.597  1.00  0.00     0.010 A 
ATOM     46  C   UNL A   1      41.732  36.394  27.616  1.00  0.00     0.010 A 
ATOM     47  C   UNL A   1      42.733  36.951  28.404  1.00  0.00    -0.014 A 
BRANCH  47  48
ATOM     48  C   UNL A   1      43.527  38.044  27.867  1.00  0.00     0.031 A 
ATOM     49  C   UNL A   1      44.939  37.617  27.739  1.00  0.00     0.074 A 
ATOM     50  C   UNL A   1      43.039  39.232  27.444  1.00  0.00     0.049 A 
ATOM     51  N   UNL A   1      45.882  37.896  28.575  1.00  0.00    -0.248 NA
ATOM     52  C   UNL A   1      45.297  36.561  26.772  1.00  0.00     0.031 C 
ATOM     53  C   UNL A   1      41.637  39.643  27.284  1.00  0.00     0.029 A 
ATOM     54  N   UNL A   1      43.711  40.296  26.908  1.00  0.00    -0.354 N 
ATOM     55  C   UNL A   1      47.017  37.279  28.067  1.00  0.00     0.074 A 
ATOM     56  C   UNL A   1      46.548  36.282  27.144  1.00  0.00     0.031 C 
ATOM     57  C   UNL A   1      41.576  40.732  26.469  1.00  0.00     0.029 A 
ATOM     58  C   UNL A   1      42.928  41.178  26.148  1.00  0.00     0.049 A 
ATOM     59  H   UNL A   1      44.676  40.434  27.047  1.00  0.00     0.167 HD
ATOM     60  C   UNL A   1      48.220  37.909  28.153  1.00  0.00     0.031 A 
ATOM     61  C   UNL A   1      43.416  42.121  25.287  1.00  0.00     0.031 A 
ATOM     62  C   UNL A   1      48.124  39.052  29.033  1.00  0.00     0.049 A 
ATOM     63  C   UNL A   1      44.756  42.475  25.790  1.00  0.00     0.074 A 
ATOM     64  C   UNL A   1      47.981  39.277  30.384  1.00  0.00     0.029 A 
ATOM     65  N   UNL A   1      47.706  40.185  28.381  1.00  0.00    -0.354 N 
ATOM     66  N   UNL A   1      44.935  43.017  26.959  1.00  0.00    -0.248 NA
ATOM     67  C   UNL A   1      45.939  41.894  25.172  1.00  0.00     0.031 C 
ATOM     68  C   UNL A   1      47.283  40.518  30.503  1.00  0.00     0.029 A 
ATOM     69  C   UNL A   1      47.078  41.050  29.231  1.00  0.00     0.049 A 
ATOM     70  H   UNL A   1      47.843  40.353  27.421  1.00  0.00     0.167 HD
ATOM     71  C   UNL A   1      46.098  42.437  27.415  1.00  0.00     0.074 A 
ATOM     72  C   UNL A   1      46.770  41.935  26.219  1.00  0.00     0.031 C 
ATOM     73  C   UNL A   1      46.223  42.102  28.733  1.00  0.00     0.031 A 
BRANCH  60  74
ATOM     74  C   UNL A   1      49.251  37.895  27.039  1.00  0.00    -0.014 A 
ATOM     75  C   UNL A   1      48.958  37.148  25.883  1.00  0.00     0.009 A 
ATOM     76  C   UNL A   1      50.587  38.314  27.191  1.00  0.00     0.009 A 
ATOM     77  C   UNL A   1      49.959  36.779  24.976  1.00  0.00     0.001 A 
ATOM     78  C   UNL A   1      51.584  37.973  26.272  1.00  0.00     0.001 A 
ATOM     79  C   UNL A   1      51.274  37.183  25.177  1.00  0.00     0.000 A 
ENDBRANCH  60  74
BRANCH  61  80
ATOM     80  C   UNL A   1      43.016  42.616  23.940  1.00  0.00    -0.014 A 
ATOM     81  C   UNL A   1      43.794  43.513  23.194  1.00  0.00     0.009 A 
ATOM     82  C   UNL A   1      42.036  41.911  23.219  1.00  0.00     0.009 A 
ATOM     83  C   UNL A   1      43.545  43.735  21.822  1.00  0.00     0.001 A 
ATOM     84  C   UNL A   1      41.738  42.167  21.873  1.00  0.00     0.001 A 
ATOM     85  C   UNL A   1      42.503  43.080  21.168  1.00  0.00     0.000 A 
ENDBRANCH  61  80
BRANCH  73  86
ATOM     86  C   UNL A   1      45.280  42.749  29.713  1.00  0.00    -0.014 A 
ATOM     87  C   UNL A   1      45.446  44.044  30.237  1.00  0.00     0.009 A 
ATOM     88  C   UNL A   1      44.109  42.050  30.027  1.00  0.00     0.009 A 
ATOM     89  C   UNL A   1      44.465  44.614  31.058  1.00  0.00     0.001 A 
ATOM     90  C   UNL A   1      43.123  42.625  30.829  1.00  0.00     0.001 A 
ATOM     91  C   UNL A   1      43.301  43.906  31.345  1.00  0.00     0.000 A 
ENDBRANCH  73  86
ENDBRANCH  47  48
ENDBRANCH  40  42
ENDBRANCH  39  40
ENDBRANCH  38  39
ENDBRANCH  37  38
ENDBRANCH  36  37
ENDBRANCH  35  36
ENDBRANCH   1  35
TORSDOF 22
ENDMDL
