MODEL 1
REMARK VINA RESULT:     -11.8      0.000      0.000
REMARK SMILES O=C(OCCOCCOC(=O)c1ccc(-c2c3nc(c(-c4ccccc4)c4ccc([nH]4)c(-c4ccccc4)c4nc(c(-c5ccccc5)c5ccc2[nH]5)C=C4)C=C3)cc1)C1=Cc2cc(Cl)c(Cl)cc2O[C@@H]1C(F)(F)F
REMARK SMILES IDX 7 1 6 2 5 3 4 4 3 5 2 6 1 7 60 8 61 9 71 10 62 11 70 12
REMARK SMILES IDX 63 13 69 14 64 15 68 16 65 17 66 18 67 19 72 20 73 21 74 22
REMARK SMILES IDX 75 23 8 24 9 25 10 26 11 27 12 28 13 29 59 30 14 31 58 32
REMARK SMILES IDX 15 33 16 34 17 35 52 36 18 37 57 38 51 39 53 40 19 41 56 42
REMARK SMILES IDX 50 43 49 44 20 46 42 47 27 48 41 49 28 50 31 51 40 52 54 53
REMARK SMILES IDX 29 54 30 55 39 57 55 58 32 59 21 60 22 61 26 62 23 63 25 64
REMARK SMILES IDX 24 65 43 66 44 67 48 68 45 69 47 70 46 71 33 72 34 73 38 74
REMARK SMILES IDX 35 75 37 76 36 77
REMARK H PARENT 53 45 31 56
REMARK Flexibility Score: inf
ROOT
ATOM      1  C   UNL A   1      42.374  21.350  26.094  1.00  0.00     0.202 C 
ENDROOT
BRANCH   1   2
ATOM      2  O   UNL A   1      41.020  21.850  26.041  1.00  0.00    -0.374 OA
BRANCH   2   3
ATOM      3  C   UNL A   1      39.580  21.097  25.961  1.00  0.00     0.202 C 
BRANCH   3   4
ATOM      4  C   UNL A   1      37.580  21.926  25.659  1.00  0.00     0.261 C 
BRANCH   4   5
ATOM      5  O   UNL A   1      36.299  21.135  25.392  1.00  0.00    -0.460 OA
BRANCH   5   6
ATOM      6  C   UNL A   1      35.449  21.785  24.592  1.00  0.00     0.338 C 
ATOM      7  O   UNL A   1      35.680  22.564  23.704  1.00  0.00    -0.246 OA
BRANCH   6   8
ATOM      8  C   UNL A   1      34.270  21.550  25.398  1.00  0.00     0.087 C 
ATOM      9  C   UNL A   1      33.862  22.753  26.152  1.00  0.00     0.027 C 
ATOM     10  C   UNL A   1      33.235  20.726  23.987  1.00  0.00     0.316 C 
ATOM     11  C   UNL A   1      32.451  23.787  25.699  1.00  0.00     0.019 A 
ATOM     12  O   UNL A   1      31.760  21.852  23.435  1.00  0.00    -0.475 OA
ATOM     13  C   UNL A   1      32.282  24.980  26.344  1.00  0.00     0.034 A 
ATOM     14  C   UNL A   1      31.453  23.424  24.326  1.00  0.00     0.129 A 
ATOM     15  C   UNL A   1      31.347  25.849  25.757  1.00  0.00     0.060 A 
ATOM     16  C   UNL A   1      30.649  24.370  23.757  1.00  0.00     0.069 A 
ATOM     17  Cl  UNL A   1      31.129  27.354  26.616  1.00  0.00    -0.083 Cl
ATOM     18  C   UNL A   1      30.621  25.586  24.509  1.00  0.00     0.063 A 
ATOM     19  Cl  UNL A   1      29.717  26.907  23.829  1.00  0.00    -0.083 Cl
BRANCH  10  20
ATOM     20  C   UNL A   1      33.287  19.239  24.582  1.00  0.00     0.430 C 
ATOM     21  F   UNL A   1      32.893  19.107  25.861  1.00  0.00    -0.167 F 
ATOM     22  F   UNL A   1      32.394  18.489  23.868  1.00  0.00    -0.167 F 
ATOM     23  F   UNL A   1      34.467  18.598  24.427  1.00  0.00    -0.167 F 
ENDBRANCH  10  20
ENDBRANCH   6   8
ENDBRANCH   5   6
ENDBRANCH   4   5
ENDBRANCH   3   4
ENDBRANCH   2   3
ENDBRANCH   1   2
BRANCH   1  24
ATOM     24  C   UNL A   1      43.433  22.190  25.389  1.00  0.00     0.261 C 
BRANCH  24  25
ATOM     25  O   UNL A   1      42.899  23.404  24.885  1.00  0.00    -0.460 OA
BRANCH  25  26
ATOM     26  C   UNL A   1      43.691  24.470  25.126  1.00  0.00     0.338 C 
ATOM     27  O   UNL A   1      44.778  24.725  24.638  1.00  0.00    -0.246 OA
BRANCH  26  28
ATOM     28  C   UNL A   1      43.029  25.323  26.122  1.00  0.00     0.060 A 
ATOM     29  C   UNL A   1      43.598  26.573  26.370  1.00  0.00     0.016 A 
ATOM     30  C   UNL A   1      41.871  24.908  26.798  1.00  0.00     0.016 A 
ATOM     31  C   UNL A   1      42.998  27.422  27.286  1.00  0.00     0.010 A 
ATOM     32  C   UNL A   1      41.274  25.758  27.721  1.00  0.00     0.010 A 
ATOM     33  C   UNL A   1      41.845  27.012  27.965  1.00  0.00    -0.014 A 
BRANCH  33  34
ATOM     34  C   UNL A   1      41.381  27.823  29.097  1.00  0.00     0.031 A 
ATOM     35  C   UNL A   1      42.159  27.724  30.369  1.00  0.00     0.074 A 
ATOM     36  C   UNL A   1      40.342  28.662  28.964  1.00  0.00     0.049 A 
ATOM     37  N   UNL A   1      41.996  28.373  31.488  1.00  0.00    -0.248 NA
ATOM     38  C   UNL A   1      43.276  26.761  30.377  1.00  0.00     0.031 C 
ATOM     39  C   UNL A   1      39.556  28.848  27.747  1.00  0.00     0.029 A 
ATOM     40  N   UNL A   1      39.785  29.529  29.863  1.00  0.00    -0.354 N 
ATOM     41  C   UNL A   1      42.994  27.906  32.330  1.00  0.00     0.074 A 
ATOM     42  C   UNL A   1      43.735  26.896  31.609  1.00  0.00     0.031 C 
ATOM     43  C   UNL A   1      38.636  29.803  27.964  1.00  0.00     0.029 A 
ATOM     44  C   UNL A   1      38.730  30.244  29.353  1.00  0.00     0.049 A 
ATOM     45  H   UNL A   1      40.109  29.631  30.787  1.00  0.00     0.167 HD
ATOM     46  C   UNL A   1      43.263  28.291  33.595  1.00  0.00     0.031 A 
ATOM     47  C   UNL A   1      37.923  31.135  29.959  1.00  0.00     0.031 A 
ATOM     48  C   UNL A   1      42.478  29.256  34.312  1.00  0.00     0.049 A 
ATOM     49  C   UNL A   1      38.179  31.459  31.407  1.00  0.00     0.074 A 
ATOM     50  C   UNL A   1      42.640  29.707  35.607  1.00  0.00     0.029 A 
ATOM     51  N   UNL A   1      41.365  29.903  33.793  1.00  0.00    -0.354 N 
ATOM     52  N   UNL A   1      39.137  31.032  32.197  1.00  0.00    -0.248 NA
ATOM     53  C   UNL A   1      37.243  32.391  32.049  1.00  0.00     0.031 C 
ATOM     54  C   UNL A   1      41.578  30.567  35.899  1.00  0.00     0.029 A 
ATOM     55  C   UNL A   1      40.807  30.724  34.757  1.00  0.00     0.049 A 
ATOM     56  H   UNL A   1      41.023  29.794  32.877  1.00  0.00     0.167 HD
ATOM     57  C   UNL A   1      38.940  31.670  33.415  1.00  0.00     0.074 A 
ATOM     58  C   UNL A   1      37.782  32.526  33.252  1.00  0.00     0.031 C 
ATOM     59  C   UNL A   1      39.651  31.562  34.566  1.00  0.00     0.031 A 
BRANCH  46  60
ATOM     60  C   UNL A   1      44.406  27.608  34.288  1.00  0.00    -0.014 A 
ATOM     61  C   UNL A   1      45.710  28.131  34.248  1.00  0.00     0.009 A 
ATOM     62  C   UNL A   1      44.174  26.415  34.988  1.00  0.00     0.009 A 
ATOM     63  C   UNL A   1      46.762  27.451  34.863  1.00  0.00     0.001 A 
ATOM     64  C   UNL A   1      45.222  25.757  35.633  1.00  0.00     0.001 A 
ATOM     65  C   UNL A   1      46.516  26.269  35.560  1.00  0.00     0.000 A 
ENDBRANCH  46  60
BRANCH  47  66
ATOM     66  C   UNL A   1      36.784  31.747  29.224  1.00  0.00    -0.014 A 
ATOM     67  C   UNL A   1      36.888  33.028  28.664  1.00  0.00     0.009 A 
ATOM     68  C   UNL A   1      35.563  31.060  29.112  1.00  0.00     0.009 A 
ATOM     69  C   UNL A   1      35.785  33.625  28.045  1.00  0.00     0.001 A 
ATOM     70  C   UNL A   1      34.474  31.642  28.461  1.00  0.00     0.001 A 
ATOM     71  C   UNL A   1      34.581  32.929  27.941  1.00  0.00     0.000 A 
ENDBRANCH  47  66
BRANCH  59  72
ATOM     72  C   UNL A   1      39.226  32.429  35.720  1.00  0.00    -0.014 A 
ATOM     73  C   UNL A   1      39.744  33.720  35.906  1.00  0.00     0.009 A 
ATOM     74  C   UNL A   1      38.251  31.953  36.612  1.00  0.00     0.009 A 
ATOM     75  C   UNL A   1      39.324  34.499  36.986  1.00  0.00     0.001 A 
ATOM     76  C   UNL A   1      37.802  32.750  37.665  1.00  0.00     0.001 A 
ATOM     77  C   UNL A   1      38.351  34.016  37.859  1.00  0.00     0.000 A 
ENDBRANCH  59  72
ENDBRANCH  33  34
ENDBRANCH  26  28
ENDBRANCH  25  26
ENDBRANCH  24  25
ENDBRANCH   1  24
TORSDOF 15
ENDMDL
MODEL 2
REMARK VINA RESULT:     -11.6      4.770      9.141
REMARK SMILES O=C(OCCOCCOC(=O)c1ccc(-c2c3nc(c(-c4ccccc4)c4ccc([nH]4)c(-c4ccccc4)c4nc(c(-c5ccccc5)c5ccc2[nH]5)C=C4)C=C3)cc1)C1=Cc2cc(Cl)c(Cl)cc2O[C@@H]1C(F)(F)F
REMARK SMILES IDX 7 1 6 2 5 3 4 4 3 5 2 6 1 7 60 8 61 9 71 10 62 11 70 12
REMARK SMILES IDX 63 13 69 14 64 15 68 16 65 17 66 18 67 19 72 20 73 21 74 22
REMARK SMILES IDX 75 23 8 24 9 25 10 26 11 27 12 28 13 29 59 30 14 31 58 32
REMARK SMILES IDX 15 33 16 34 17 35 52 36 18 37 57 38 51 39 53 40 19 41 56 42
REMARK SMILES IDX 50 43 49 44 20 46 42 47 27 48 41 49 28 50 31 51 40 52 54 53
REMARK SMILES IDX 29 54 30 55 39 57 55 58 32 59 21 60 22 61 26 62 23 63 25 64
REMARK SMILES IDX 24 65 43 66 44 67 48 68 45 69 47 70 46 71 33 72 34 73 38 74
REMARK SMILES IDX 35 75 37 76 36 77
REMARK H PARENT 53 45 31 56
REMARK Flexibility Score: inf
ROOT
ATOM      1  C   UNL A   1      33.628  34.862  29.078  1.00  0.00     0.202 C 
ENDROOT
BRANCH   1   2
ATOM      2  O   UNL A   1      32.825  34.040  28.204  1.00  0.00    -0.374 OA
BRANCH   2   3
ATOM      3  C   UNL A   1      33.107  32.604  27.491  1.00  0.00     0.202 C 
BRANCH   3   4
ATOM      4  C   UNL A   1      31.705  31.174  26.617  1.00  0.00     0.261 C 
BRANCH   4   5
ATOM      5  O   UNL A   1      31.886  30.407  25.306  1.00  0.00    -0.460 OA
BRANCH   5   6
ATOM      6  C   UNL A   1      31.619  29.104  25.430  1.00  0.00     0.338 C 
ATOM      7  O   UNL A   1      31.604  28.418  26.420  1.00  0.00    -0.246 OA
BRANCH   6   8
ATOM      8  C   UNL A   1      31.763  28.784  24.026  1.00  0.00     0.087 C 
ATOM      9  C   UNL A   1      32.907  27.885  23.774  1.00  0.00     0.027 C 
ATOM     10  C   UNL A   1      29.906  28.317  23.745  1.00  0.00     0.316 C 
ATOM     11  C   UNL A   1      32.734  26.124  23.406  1.00  0.00     0.019 A 
ATOM     12  O   UNL A   1      29.690  26.420  23.422  1.00  0.00    -0.475 OA
ATOM     13  C   UNL A   1      33.857  25.347  23.386  1.00  0.00     0.034 A 
ATOM     14  C   UNL A   1      31.179  25.357  23.311  1.00  0.00     0.129 A 
ATOM     15  C   UNL A   1      33.626  23.961  23.375  1.00  0.00     0.060 A 
ATOM     16  C   UNL A   1      31.043  24.003  23.415  1.00  0.00     0.069 A 
ATOM     17  Cl  UNL A   1      35.078  22.992  23.320  1.00  0.00    -0.083 Cl
ATOM     18  C   UNL A   1      32.304  23.329  23.446  1.00  0.00     0.063 A 
ATOM     19  Cl  UNL A   1      32.266  21.606  23.687  1.00  0.00    -0.083 Cl
BRANCH  10  20
ATOM     20  C   UNL A   1      29.537  29.606  22.867  1.00  0.00     0.430 C 
ATOM     21  F   UNL A   1      30.405  29.915  21.888  1.00  0.00    -0.167 F 
ATOM     22  F   UNL A   1      28.368  29.325  22.214  1.00  0.00    -0.167 F 
ATOM     23  F   UNL A   1      29.268  30.726  23.574  1.00  0.00    -0.167 F 
ENDBRANCH  10  20
ENDBRANCH   6   8
ENDBRANCH   5   6
ENDBRANCH   4   5
ENDBRANCH   3   4
ENDBRANCH   2   3
ENDBRANCH   1   2
BRANCH   1  24
ATOM     24  C   UNL A   1      32.871  35.838  29.971  1.00  0.00     0.261 C 
BRANCH  24  25
ATOM     25  O   UNL A   1      32.361  35.207  31.135  1.00  0.00    -0.460 OA
BRANCH  25  26
ATOM     26  C   UNL A   1      32.833  35.746  32.279  1.00  0.00     0.338 C 
ATOM     27  O   UNL A   1      32.389  36.694  32.902  1.00  0.00    -0.246 OA
BRANCH  26  28
ATOM     28  C   UNL A   1      34.028  34.995  32.685  1.00  0.00     0.060 A 
ATOM     29  C   UNL A   1      35.264  35.619  32.507  1.00  0.00     0.016 A 
ATOM     30  C   UNL A   1      33.941  33.706  33.232  1.00  0.00     0.016 A 
ATOM     31  C   UNL A   1      36.419  34.959  32.894  1.00  0.00     0.010 A 
ATOM     32  C   UNL A   1      35.100  33.042  33.613  1.00  0.00     0.010 A 
ATOM     33  C   UNL A   1      36.337  33.672  33.437  1.00  0.00    -0.014 A 
BRANCH  33  34
ATOM     34  C   UNL A   1      37.581  32.909  33.604  1.00  0.00     0.031 A 
ATOM     35  C   UNL A   1      38.344  33.123  34.872  1.00  0.00     0.074 A 
ATOM     36  C   UNL A   1      37.970  32.015  32.683  1.00  0.00     0.049 A 
ATOM     37  N   UNL A   1      39.431  32.535  35.288  1.00  0.00    -0.248 NA
ATOM     38  C   UNL A   1      37.804  34.136  35.795  1.00  0.00     0.031 C 
ATOM     39  C   UNL A   1      37.262  31.718  31.440  1.00  0.00     0.029 A 
ATOM     40  N   UNL A   1      39.052  31.178  32.664  1.00  0.00    -0.354 N 
ATOM     41  C   UNL A   1      39.700  33.100  36.525  1.00  0.00     0.074 A 
ATOM     42  C   UNL A   1      38.687  34.099  36.778  1.00  0.00     0.031 C 
ATOM     43  C   UNL A   1      37.910  30.734  30.793  1.00  0.00     0.029 A 
ATOM     44  C   UNL A   1      39.110  30.384  31.547  1.00  0.00     0.049 A 
ATOM     45  H   UNL A   1      39.723  31.147  33.384  1.00  0.00     0.167 HD
ATOM     46  C   UNL A   1      40.709  32.805  37.373  1.00  0.00     0.031 A 
ATOM     47  C   UNL A   1      40.048  29.493  31.174  1.00  0.00     0.031 A 
ATOM     48  C   UNL A   1      41.737  31.848  37.076  1.00  0.00     0.049 A 
ATOM     49  C   UNL A   1      41.224  29.269  32.090  1.00  0.00     0.074 A 
ATOM     50  C   UNL A   1      42.824  31.485  37.847  1.00  0.00     0.029 A 
ATOM     51  N   UNL A   1      41.813  31.118  35.897  1.00  0.00    -0.354 N 
ATOM     52  N   UNL A   1      41.466  29.789  33.271  1.00  0.00    -0.248 NA
ATOM     53  C   UNL A   1      42.254  28.334  31.622  1.00  0.00     0.031 C 
ATOM     54  C   UNL A   1      43.601  30.594  37.102  1.00  0.00     0.029 A 
ATOM     55  C   UNL A   1      42.951  30.332  35.906  1.00  0.00     0.049 A 
ATOM     56  H   UNL A   1      41.157  31.155  35.166  1.00  0.00     0.167 HD
ATOM     57  C   UNL A   1      42.656  29.217  33.702  1.00  0.00     0.074 A 
ATOM     58  C   UNL A   1      43.074  28.298  32.662  1.00  0.00     0.031 C 
ATOM     59  C   UNL A   1      43.343  29.428  34.854  1.00  0.00     0.031 A 
BRANCH  46  60
ATOM     60  C   UNL A   1      40.772  33.583  38.655  1.00  0.00    -0.014 A 
ATOM     61  C   UNL A   1      41.475  34.796  38.745  1.00  0.00     0.009 A 
ATOM     62  C   UNL A   1      40.123  33.087  39.795  1.00  0.00     0.009 A 
ATOM     63  C   UNL A   1      41.555  35.476  39.963  1.00  0.00     0.001 A 
ATOM     64  C   UNL A   1      40.175  33.787  41.001  1.00  0.00     0.001 A 
ATOM     65  C   UNL A   1      40.900  34.975  41.086  1.00  0.00     0.000 A 
ENDBRANCH  46  60
BRANCH  47  66
ATOM     66  C   UNL A   1      39.945  28.784  29.871  1.00  0.00    -0.014 A 
ATOM     67  C   UNL A   1      39.420  27.485  29.793  1.00  0.00     0.009 A 
ATOM     68  C   UNL A   1      40.409  29.394  28.694  1.00  0.00     0.009 A 
ATOM     69  C   UNL A   1      39.401  26.799  28.575  1.00  0.00     0.001 A 
ATOM     70  C   UNL A   1      40.355  28.722  27.472  1.00  0.00     0.001 A 
ATOM     71  C   UNL A   1      39.864  27.419  27.416  1.00  0.00     0.000 A 
ENDBRANCH  47  66
BRANCH  59  72
ATOM     72  C   UNL A   1      44.590  28.613  35.070  1.00  0.00    -0.014 A 
ATOM     73  C   UNL A   1      44.550  27.348  35.675  1.00  0.00     0.009 A 
ATOM     74  C   UNL A   1      45.822  29.111  34.613  1.00  0.00     0.009 A 
ATOM     75  C   UNL A   1      45.726  26.617  35.857  1.00  0.00     0.001 A 
ATOM     76  C   UNL A   1      46.988  28.360  34.757  1.00  0.00     0.001 A 
ATOM     77  C   UNL A   1      46.941  27.120  35.392  1.00  0.00     0.000 A 
ENDBRANCH  59  72
ENDBRANCH  33  34
ENDBRANCH  26  28
ENDBRANCH  25  26
ENDBRANCH  24  25
ENDBRANCH   1  24
TORSDOF 15
ENDMDL
MODEL 3
REMARK VINA RESULT:     -11.5      4.329      6.621
REMARK SMILES O=C(OCCOCCOC(=O)c1ccc(-c2c3nc(c(-c4ccccc4)c4ccc([nH]4)c(-c4ccccc4)c4nc(c(-c5ccccc5)c5ccc2[nH]5)C=C4)C=C3)cc1)C1=Cc2cc(Cl)c(Cl)cc2O[C@@H]1C(F)(F)F
REMARK SMILES IDX 7 1 6 2 5 3 4 4 3 5 2 6 1 7 60 8 61 9 71 10 62 11 70 12
REMARK SMILES IDX 63 13 69 14 64 15 68 16 65 17 66 18 67 19 72 20 73 21 74 22
REMARK SMILES IDX 75 23 8 24 9 25 10 26 11 27 12 28 13 29 59 30 14 31 58 32
REMARK SMILES IDX 15 33 16 34 17 35 52 36 18 37 57 38 51 39 53 40 19 41 56 42
REMARK SMILES IDX 50 43 49 44 20 46 42 47 27 48 41 49 28 50 31 51 40 52 54 53
REMARK SMILES IDX 29 54 30 55 39 57 55 58 32 59 21 60 22 61 26 62 23 63 25 64
REMARK SMILES IDX 24 65 43 66 44 67 48 68 45 69 47 70 46 71 33 72 34 73 38 74
REMARK SMILES IDX 35 75 37 76 36 77
REMARK H PARENT 53 45 31 56
REMARK Flexibility Score: inf
ROOT
ATOM      1  C   UNL A   1      41.780  19.598  26.749  1.00  0.00     0.202 C 
ENDROOT
BRANCH   1   2
ATOM      2  O   UNL A   1      41.109  20.713  26.124  1.00  0.00    -0.374 OA
BRANCH   2   3
ATOM      3  C   UNL A   1      39.751  21.525  26.506  1.00  0.00     0.202 C 
BRANCH   3   4
ATOM      4  C   UNL A   1      37.984  21.950  25.292  1.00  0.00     0.261 C 
BRANCH   4   5
ATOM      5  O   UNL A   1      36.630  21.245  25.379  1.00  0.00    -0.460 OA
BRANCH   5   6
ATOM      6  C   UNL A   1      35.714  21.786  24.571  1.00  0.00     0.338 C 
ATOM      7  O   UNL A   1      35.865  22.523  23.630  1.00  0.00    -0.246 OA
BRANCH   6   8
ATOM      8  C   UNL A   1      34.578  21.523  25.429  1.00  0.00     0.087 C 
ATOM      9  C   UNL A   1      34.156  22.724  26.176  1.00  0.00     0.027 C 
ATOM     10  C   UNL A   1      33.519  20.633  24.076  1.00  0.00     0.316 C 
ATOM     11  C   UNL A   1      32.689  23.696  25.764  1.00  0.00     0.019 A 
ATOM     12  O   UNL A   1      31.981  21.692  23.565  1.00  0.00    -0.475 OA
ATOM     13  C   UNL A   1      32.500  24.894  26.393  1.00  0.00     0.034 A 
ATOM     14  C   UNL A   1      31.651  23.269  24.439  1.00  0.00     0.129 A 
ATOM     15  C   UNL A   1      31.509  25.715  25.829  1.00  0.00     0.060 A 
ATOM     16  C   UNL A   1      30.789  24.172  23.888  1.00  0.00     0.069 A 
ATOM     17  Cl  UNL A   1      31.269  27.228  26.669  1.00  0.00    -0.083 Cl
ATOM     18  C   UNL A   1      30.745  25.400  24.618  1.00  0.00     0.063 A 
ATOM     19  Cl  UNL A   1      29.764  26.673  23.951  1.00  0.00    -0.083 Cl
BRANCH  10  20
ATOM     20  C   UNL A   1      33.653  19.161  24.696  1.00  0.00     0.430 C 
ATOM     21  F   UNL A   1      33.209  19.015  25.957  1.00  0.00    -0.167 F 
ATOM     22  F   UNL A   1      32.852  18.338  23.953  1.00  0.00    -0.167 F 
ATOM     23  F   UNL A   1      34.883  18.608  24.605  1.00  0.00    -0.167 F 
ENDBRANCH  10  20
ENDBRANCH   6   8
ENDBRANCH   5   6
ENDBRANCH   4   5
ENDBRANCH   3   4
ENDBRANCH   2   3
ENDBRANCH   1   2
BRANCH   1  24
ATOM     24  C   UNL A   1      42.710  18.782  25.857  1.00  0.00     0.261 C 
BRANCH  24  25
ATOM     25  O   UNL A   1      43.060  19.483  24.674  1.00  0.00    -0.460 OA
BRANCH  25  26
ATOM     26  C   UNL A   1      44.386  19.710  24.567  1.00  0.00     0.338 C 
ATOM     27  O   UNL A   1      45.259  18.926  24.241  1.00  0.00    -0.246 OA
BRANCH  26  28
ATOM     28  C   UNL A   1      44.646  21.110  24.929  1.00  0.00     0.060 A 
ATOM     29  C   UNL A   1      45.285  21.346  26.148  1.00  0.00     0.016 A 
ATOM     30  C   UNL A   1      44.272  22.172  24.091  1.00  0.00     0.016 A 
ATOM     31  C   UNL A   1      45.570  22.648  26.523  1.00  0.00     0.010 A 
ATOM     32  C   UNL A   1      44.552  23.478  24.472  1.00  0.00     0.010 A 
ATOM     33  C   UNL A   1      45.197  23.711  25.692  1.00  0.00    -0.014 A 
BRANCH  33  34
ATOM     34  C   UNL A   1      45.288  25.075  26.227  1.00  0.00     0.031 A 
ATOM     35  C   UNL A   1      46.617  25.755  26.134  1.00  0.00     0.074 A 
ATOM     36  C   UNL A   1      44.205  25.698  26.716  1.00  0.00     0.049 A 
ATOM     37  N   UNL A   1      46.946  26.969  26.474  1.00  0.00    -0.248 NA
ATOM     38  C   UNL A   1      47.721  24.953  25.577  1.00  0.00     0.031 C 
ATOM     39  C   UNL A   1      42.866  25.121  26.805  1.00  0.00     0.029 A 
ATOM     40  N   UNL A   1      44.061  26.964  27.212  1.00  0.00    -0.354 N 
ATOM     41  C   UNL A   1      48.293  27.082  26.164  1.00  0.00     0.074 A 
ATOM     42  C   UNL A   1      48.729  25.806  25.643  1.00  0.00     0.031 C 
ATOM     43  C   UNL A   1      42.023  26.047  27.293  1.00  0.00     0.029 A 
ATOM     44  C   UNL A   1      42.780  27.255  27.608  1.00  0.00     0.049 A 
ATOM     45  H   UNL A   1      44.805  27.606  27.277  1.00  0.00     0.167 HD
ATOM     46  C   UNL A   1      49.092  28.161  26.306  1.00  0.00     0.031 A 
ATOM     47  C   UNL A   1      42.291  28.369  28.184  1.00  0.00     0.031 A 
ATOM     48  C   UNL A   1      48.652  29.400  26.881  1.00  0.00     0.049 A 
ATOM     49  C   UNL A   1      43.235  29.516  28.435  1.00  0.00     0.074 A 
ATOM     50  C   UNL A   1      49.379  30.554  27.099  1.00  0.00     0.029 A 
ATOM     51  N   UNL A   1      47.366  29.636  27.348  1.00  0.00    -0.354 N 
ATOM     52  N   UNL A   1      44.505  29.629  28.121  1.00  0.00    -0.248 NA
ATOM     53  C   UNL A   1      42.678  30.690  29.116  1.00  0.00     0.031 C 
ATOM     54  C   UNL A   1      48.555  31.461  27.771  1.00  0.00     0.029 A 
ATOM     55  C   UNL A   1      47.289  30.907  27.888  1.00  0.00     0.049 A 
ATOM     56  H   UNL A   1      46.621  28.995  27.303  1.00  0.00     0.167 HD
ATOM     57  C   UNL A   1      44.888  30.898  28.535  1.00  0.00     0.074 A 
ATOM     58  C   UNL A   1      43.710  31.522  29.104  1.00  0.00     0.031 C 
ATOM     59  C   UNL A   1      46.102  31.499  28.452  1.00  0.00     0.031 A 
BRANCH  46  60
ATOM     60  C   UNL A   1      50.528  28.005  25.899  1.00  0.00    -0.014 A 
ATOM     61  C   UNL A   1      50.949  28.249  24.580  1.00  0.00     0.009 A 
ATOM     62  C   UNL A   1      51.475  27.599  26.850  1.00  0.00     0.009 A 
ATOM     63  C   UNL A   1      52.284  28.052  24.218  1.00  0.00     0.001 A 
ATOM     64  C   UNL A   1      52.814  27.438  26.493  1.00  0.00     0.001 A 
ATOM     65  C   UNL A   1      53.215  27.653  25.176  1.00  0.00     0.000 A 
ENDBRANCH  46  60
BRANCH  47  66
ATOM     66  C   UNL A   1      40.865  28.443  28.600  1.00  0.00    -0.014 A 
ATOM     67  C   UNL A   1      40.449  27.961  29.850  1.00  0.00     0.009 A 
ATOM     68  C   UNL A   1      39.898  28.967  27.725  1.00  0.00     0.009 A 
ATOM     69  C   UNL A   1      39.094  27.964  30.197  1.00  0.00     0.001 A 
ATOM     70  C   UNL A   1      38.551  29.003  28.088  1.00  0.00     0.001 A 
ATOM     71  C   UNL A   1      38.148  28.489  29.318  1.00  0.00     0.000 A 
ENDBRANCH  47  66
BRANCH  59  72
ATOM     72  C   UNL A   1      46.202  32.919  28.941  1.00  0.00    -0.014 A 
ATOM     73  C   UNL A   1      45.883  34.009  28.118  1.00  0.00     0.009 A 
ATOM     74  C   UNL A   1      46.581  33.160  30.272  1.00  0.00     0.009 A 
ATOM     75  C   UNL A   1      45.983  35.313  28.606  1.00  0.00     0.001 A 
ATOM     76  C   UNL A   1      46.638  34.461  30.770  1.00  0.00     0.001 A 
ATOM     77  C   UNL A   1      46.354  35.537  29.932  1.00  0.00     0.000 A 
ENDBRANCH  59  72
ENDBRANCH  33  34
ENDBRANCH  26  28
ENDBRANCH  25  26
ENDBRANCH  24  25
ENDBRANCH   1  24
TORSDOF 15
ENDMDL
