MODEL 1
REMARK VINA RESULT:      -9.6      0.000      0.000
REMARK SMILES CC(C)(C#N)Nc1ccccc1C(=O)OCCOCCOC(=O)c1ccc(-c2c3nc(c(-c4ccccc4)c4ccc([nH]4)c(-c4ccccc4)c4nc(c(-c5ccccc5)c5ccc2[nH]5)C=C4)C=C3)cc1
REMARK SMILES IDX 17 1 16 2 15 3 13 4 14 5 12 6 7 7 8 8 9 9 11 10 10 11 6 12
REMARK SMILES IDX 2 14 1 15 3 16 4 17 5 18 18 19 19 20 20 21 21 22 22 23 23 24
REMARK SMILES IDX 24 25 25 26 71 27 26 28 70 29 27 30 28 31 29 32 64 33 30 34
REMARK SMILES IDX 69 35 63 36 65 37 31 38 68 39 62 40 61 41 32 43 54 44 39 45
REMARK SMILES IDX 53 46 40 47 43 48 52 49 66 50 41 51 42 52 51 54 67 55 44 56
REMARK SMILES IDX 33 57 34 58 38 59 35 60 37 61 36 62 55 63 56 64 60 65 57 66
REMARK SMILES IDX 59 67 58 68 45 69 46 70 50 71 47 72 49 73 48 74
REMARK H PARENT 6 13 65 42 43 53
REMARK Flexibility Score: inf
ROOT
ATOM      1  C   UNL A   1      31.287  28.150  25.276  1.00  0.00     0.202 C 
ENDROOT
BRANCH   1   2
ATOM      2  C   UNL A   1      31.017  26.900  26.106  1.00  0.00     0.261 C 
BRANCH   2   3
ATOM      3  O   UNL A   1      31.646  25.742  25.530  1.00  0.00    -0.460 OA
BRANCH   3   4
ATOM      4  C   UNL A   1      31.075  24.555  25.835  1.00  0.00     0.340 C 
ATOM      5  O   UNL A   1      30.228  24.376  26.698  1.00  0.00    -0.246 OA
BRANCH   4   6
ATOM      6  C   UNL A   1      31.500  23.479  24.911  1.00  0.00     0.083 A 
ATOM      7  C   UNL A   1      31.631  23.541  23.510  1.00  0.00     0.050 A 
ATOM      8  C   UNL A   1      32.099  22.351  22.889  1.00  0.00     0.026 A 
ATOM      9  C   UNL A   1      32.390  21.172  23.584  1.00  0.00     0.002 A 
ATOM     10  C   UNL A   1      31.770  22.269  25.606  1.00  0.00     0.018 A 
ATOM     11  C   UNL A   1      32.210  21.125  24.952  1.00  0.00     0.001 A 
BRANCH   7  12
ATOM     12  N   UNL A   1      31.449  24.585  22.626  1.00  0.00    -0.367 N 
ATOM     13  H   UNL A   1      30.572  24.534  22.183  1.00  0.00     0.162 HD
BRANCH  12  14
ATOM     14  C   UNL A   1      32.219  25.756  22.169  1.00  0.00     0.119 C 
ATOM     15  C   UNL A   1      31.290  26.986  22.174  1.00  0.00     0.051 C 
ATOM     16  C   UNL A   1      33.542  25.973  22.908  1.00  0.00     0.051 C 
BRANCH  14  17
ATOM     17  C   UNL A   1      32.606  25.532  20.733  1.00  0.00     0.090 C 
ATOM     18  N   UNL A   1      32.924  25.359  19.632  1.00  0.00    -0.196 NA
ENDBRANCH  14  17
ENDBRANCH  12  14
ENDBRANCH   7  12
ENDBRANCH   4   6
ENDBRANCH   3   4
ENDBRANCH   2   3
ENDBRANCH   1   2
BRANCH   1  19
ATOM     19  O   UNL A   1      31.487  29.375  25.972  1.00  0.00    -0.374 OA
BRANCH  19  20
ATOM     20  C   UNL A   1      32.110  29.337  27.252  1.00  0.00     0.202 C 
BRANCH  20  21
ATOM     21  C   UNL A   1      33.638  29.484  27.331  1.00  0.00     0.261 C 
BRANCH  21  22
ATOM     22  O   UNL A   1      34.131  30.832  27.338  1.00  0.00    -0.460 OA
BRANCH  22  23
ATOM     23  C   UNL A   1      34.865  31.145  28.435  1.00  0.00     0.338 C 
ATOM     24  O   UNL A   1      34.576  31.925  29.326  1.00  0.00    -0.246 OA
BRANCH  23  25
ATOM     25  C   UNL A   1      36.077  30.312  28.489  1.00  0.00     0.060 A 
ATOM     26  C   UNL A   1      36.388  29.658  29.687  1.00  0.00     0.016 A 
ATOM     27  C   UNL A   1      36.971  30.301  27.418  1.00  0.00     0.016 A 
ATOM     28  C   UNL A   1      37.625  29.033  29.837  1.00  0.00     0.010 A 
ATOM     29  C   UNL A   1      38.211  29.674  27.571  1.00  0.00     0.010 A 
ATOM     30  C   UNL A   1      38.562  29.075  28.795  1.00  0.00    -0.014 A 
BRANCH  30  31
ATOM     31  C   UNL A   1      39.956  28.621  29.029  1.00  0.00     0.031 A 
ATOM     32  C   UNL A   1      40.941  29.564  29.668  1.00  0.00     0.074 A 
ATOM     33  C   UNL A   1      40.339  27.377  28.693  1.00  0.00     0.049 A 
ATOM     34  N   UNL A   1      42.217  29.394  29.911  1.00  0.00    -0.248 NA
ATOM     35  C   UNL A   1      40.421  30.878  30.084  1.00  0.00     0.031 C 
ATOM     36  C   UNL A   1      39.473  26.351  28.112  1.00  0.00     0.029 A 
ATOM     37  N   UNL A   1      41.565  26.768  28.789  1.00  0.00    -0.354 N 
ATOM     38  C   UNL A   1      42.653  30.577  30.496  1.00  0.00     0.074 A 
ATOM     39  C   UNL A   1      41.516  31.472  30.534  1.00  0.00     0.031 C 
ATOM     40  C   UNL A   1      40.196  25.237  27.905  1.00  0.00     0.029 A 
ATOM     41  C   UNL A   1      41.582  25.486  28.295  1.00  0.00     0.049 A 
ATOM     42  H   UNL A   1      42.357  27.206  29.176  1.00  0.00     0.167 HD
ATOM     43  C   UNL A   1      43.883  30.888  30.970  1.00  0.00     0.031 A 
ATOM     44  C   UNL A   1      42.605  24.621  28.152  1.00  0.00     0.031 A 
ATOM     45  C   UNL A   1      45.018  30.004  30.917  1.00  0.00     0.049 A 
ATOM     46  C   UNL A   1      43.986  25.031  28.593  1.00  0.00     0.074 A 
ATOM     47  C   UNL A   1      46.306  30.225  31.376  1.00  0.00     0.029 A 
ATOM     48  N   UNL A   1      45.004  28.733  30.366  1.00  0.00    -0.354 N 
ATOM     49  N   UNL A   1      44.380  26.142  29.166  1.00  0.00    -0.248 NA
ATOM     50  C   UNL A   1      45.064  24.055  28.374  1.00  0.00     0.031 C 
ATOM     51  C   UNL A   1      47.086  29.116  31.039  1.00  0.00     0.029 A 
ATOM     52  C   UNL A   1      46.267  28.169  30.447  1.00  0.00     0.049 A 
ATOM     53  H   UNL A   1      44.214  28.295  29.974  1.00  0.00     0.167 HD
ATOM     54  C   UNL A   1      45.739  25.981  29.415  1.00  0.00     0.074 A 
ATOM     55  C   UNL A   1      46.096  24.660  28.944  1.00  0.00     0.031 C 
ATOM     56  C   UNL A   1      46.611  26.848  29.986  1.00  0.00     0.031 A 
BRANCH  43  57
ATOM     57  C   UNL A   1      44.075  32.259  31.563  1.00  0.00    -0.014 A 
ATOM     58  C   UNL A   1      43.715  32.538  32.891  1.00  0.00     0.009 A 
ATOM     59  C   UNL A   1      44.664  33.275  30.795  1.00  0.00     0.009 A 
ATOM     60  C   UNL A   1      43.905  33.816  33.423  1.00  0.00     0.001 A 
ATOM     61  C   UNL A   1      44.888  34.541  31.340  1.00  0.00     0.001 A 
ATOM     62  C   UNL A   1      44.497  34.814  32.650  1.00  0.00     0.000 A 
ENDBRANCH  43  57
BRANCH  44  63
ATOM     63  C   UNL A   1      42.376  23.279  27.550  1.00  0.00    -0.014 A 
ATOM     64  C   UNL A   1      42.601  23.063  26.181  1.00  0.00     0.009 A 
ATOM     65  C   UNL A   1      41.889  22.218  28.330  1.00  0.00     0.009 A 
ATOM     66  C   UNL A   1      42.303  21.827  25.600  1.00  0.00     0.001 A 
ATOM     67  C   UNL A   1      41.628  20.973  27.754  1.00  0.00     0.001 A 
ATOM     68  C   UNL A   1      41.820  20.784  26.387  1.00  0.00     0.000 A 
ENDBRANCH  44  63
BRANCH  56  69
ATOM     69  C   UNL A   1      48.025  26.374  30.197  1.00  0.00    -0.014 A 
ATOM     70  C   UNL A   1      49.007  26.502  29.202  1.00  0.00     0.009 A 
ATOM     71  C   UNL A   1      48.388  25.822  31.437  1.00  0.00     0.009 A 
ATOM     72  C   UNL A   1      50.308  26.047  29.429  1.00  0.00     0.001 A 
ATOM     73  C   UNL A   1      49.697  25.404  31.675  1.00  0.00     0.001 A 
ATOM     74  C   UNL A   1      50.653  25.505  30.667  1.00  0.00     0.000 A 
ENDBRANCH  56  69
ENDBRANCH  30  31
ENDBRANCH  23  25
ENDBRANCH  22  23
ENDBRANCH  21  22
ENDBRANCH  20  21
ENDBRANCH  19  20
ENDBRANCH   1  19
TORSDOF 17
ENDMDL
MODEL 2
REMARK VINA RESULT:      -9.5      2.724      7.631
REMARK SMILES CC(C)(C#N)Nc1ccccc1C(=O)OCCOCCOC(=O)c1ccc(-c2c3nc(c(-c4ccccc4)c4ccc([nH]4)c(-c4ccccc4)c4nc(c(-c5ccccc5)c5ccc2[nH]5)C=C4)C=C3)cc1
REMARK SMILES IDX 17 1 16 2 15 3 13 4 14 5 12 6 7 7 8 8 9 9 11 10 10 11 6 12
REMARK SMILES IDX 2 14 1 15 3 16 4 17 5 18 18 19 19 20 20 21 21 22 22 23 23 24
REMARK SMILES IDX 24 25 25 26 71 27 26 28 70 29 27 30 28 31 29 32 64 33 30 34
REMARK SMILES IDX 69 35 63 36 65 37 31 38 68 39 62 40 61 41 32 43 54 44 39 45
REMARK SMILES IDX 53 46 40 47 43 48 52 49 66 50 41 51 42 52 51 54 67 55 44 56
REMARK SMILES IDX 33 57 34 58 38 59 35 60 37 61 36 62 55 63 56 64 60 65 57 66
REMARK SMILES IDX 59 67 58 68 45 69 46 70 50 71 47 72 49 73 48 74
REMARK H PARENT 6 13 65 42 43 53
REMARK Flexibility Score: inf
ROOT
ATOM      1  C   UNL A   1      36.612  22.446  25.374  1.00  0.00     0.202 C 
ENDROOT
BRANCH   1   2
ATOM      2  C   UNL A   1      35.689  23.658  25.440  1.00  0.00     0.261 C 
BRANCH   2   3
ATOM      3  O   UNL A   1      34.610  23.547  24.496  1.00  0.00    -0.460 OA
BRANCH   3   4
ATOM      4  C   UNL A   1      34.292  24.683  23.837  1.00  0.00     0.340 C 
ATOM      5  O   UNL A   1      34.412  24.863  22.633  1.00  0.00    -0.246 OA
BRANCH   4   6
ATOM      6  C   UNL A   1      33.650  25.680  24.723  1.00  0.00     0.083 A 
ATOM      7  C   UNL A   1      32.741  25.448  25.774  1.00  0.00     0.050 A 
ATOM      8  C   UNL A   1      32.318  26.608  26.479  1.00  0.00     0.026 A 
ATOM      9  C   UNL A   1      32.731  27.906  26.164  1.00  0.00     0.002 A 
ATOM     10  C   UNL A   1      34.043  27.005  24.390  1.00  0.00     0.018 A 
ATOM     11  C   UNL A   1      33.589  28.109  25.101  1.00  0.00     0.001 A 
BRANCH   7  12
ATOM     12  N   UNL A   1      32.231  24.275  26.290  1.00  0.00    -0.367 N 
ATOM     13  H   UNL A   1      32.560  24.110  27.204  1.00  0.00     0.162 HD
BRANCH  12  14
ATOM     14  C   UNL A   1      31.326  23.203  25.839  1.00  0.00     0.119 C 
ATOM     15  C   UNL A   1      30.652  23.649  24.528  1.00  0.00     0.051 C 
ATOM     16  C   UNL A   1      31.973  21.816  25.767  1.00  0.00     0.051 C 
BRANCH  14  17
ATOM     17  C   UNL A   1      30.221  23.065  26.851  1.00  0.00     0.090 C 
ATOM     18  N   UNL A   1      29.365  22.941  27.623  1.00  0.00    -0.196 NA
ENDBRANCH  14  17
ENDBRANCH  12  14
ENDBRANCH   7  12
ENDBRANCH   4   6
ENDBRANCH   3   4
ENDBRANCH   2   3
ENDBRANCH   1   2
BRANCH   1  19
ATOM     19  O   UNL A   1      38.012  22.686  25.278  1.00  0.00    -0.374 OA
BRANCH  19  20
ATOM     20  C   UNL A   1      38.887  21.955  26.130  1.00  0.00     0.202 C 
BRANCH  20  21
ATOM     21  C   UNL A   1      39.365  20.566  25.677  1.00  0.00     0.261 C 
BRANCH  21  22
ATOM     22  O   UNL A   1      40.321  19.929  26.538  1.00  0.00    -0.460 OA
BRANCH  22  23
ATOM     23  C   UNL A   1      41.607  20.056  26.125  1.00  0.00     0.338 C 
ATOM     24  O   UNL A   1      42.232  19.304  25.397  1.00  0.00    -0.246 OA
BRANCH  23  25
ATOM     25  C   UNL A   1      42.167  21.333  26.596  1.00  0.00     0.060 A 
ATOM     26  C   UNL A   1      42.139  21.611  27.967  1.00  0.00     0.016 A 
ATOM     27  C   UNL A   1      42.573  22.303  25.679  1.00  0.00     0.016 A 
ATOM     28  C   UNL A   1      42.468  22.886  28.425  1.00  0.00     0.010 A 
ATOM     29  C   UNL A   1      42.902  23.581  26.141  1.00  0.00     0.010 A 
ATOM     30  C   UNL A   1      42.809  23.892  27.510  1.00  0.00    -0.014 A 
BRANCH  30  31
ATOM     31  C   UNL A   1      42.931  25.301  27.963  1.00  0.00     0.031 A 
ATOM     32  C   UNL A   1      44.292  25.855  28.292  1.00  0.00     0.074 A 
ATOM     33  C   UNL A   1      41.844  26.086  28.063  1.00  0.00     0.049 A 
ATOM     34  N   UNL A   1      44.617  27.035  28.756  1.00  0.00    -0.248 NA
ATOM     35  C   UNL A   1      45.439  24.958  28.074  1.00  0.00     0.031 C 
ATOM     36  C   UNL A   1      40.476  25.687  27.729  1.00  0.00     0.029 A 
ATOM     37  N   UNL A   1      41.722  27.386  28.482  1.00  0.00    -0.354 N 
ATOM     38  C   UNL A   1      46.000  27.019  28.896  1.00  0.00     0.074 A 
ATOM     39  C   UNL A   1      46.448  25.700  28.506  1.00  0.00     0.031 C 
ATOM     40  C   UNL A   1      39.653  26.724  27.956  1.00  0.00     0.029 A 
ATOM     41  C   UNL A   1      40.426  27.843  28.492  1.00  0.00     0.049 A 
ATOM     42  H   UNL A   1      42.491  27.941  28.750  1.00  0.00     0.167 HD
ATOM     43  C   UNL A   1      46.826  28.015  29.300  1.00  0.00     0.031 A 
ATOM     44  C   UNL A   1      39.920  29.019  28.910  1.00  0.00     0.031 A 
ATOM     45  C   UNL A   1      46.379  29.322  29.702  1.00  0.00     0.049 A 
ATOM     46  C   UNL A   1      40.850  30.073  29.452  1.00  0.00     0.074 A 
ATOM     47  C   UNL A   1      47.139  30.401  30.123  1.00  0.00     0.029 A 
ATOM     48  N   UNL A   1      45.055  29.727  29.744  1.00  0.00    -0.354 N 
ATOM     49  N   UNL A   1      42.157  30.054  29.557  1.00  0.00    -0.248 NA
ATOM     50  C   UNL A   1      40.229  31.319  29.926  1.00  0.00     0.031 C 
ATOM     51  C   UNL A   1      46.269  31.434  30.485  1.00  0.00     0.029 A 
ATOM     52  C   UNL A   1      44.973  31.030  30.209  1.00  0.00     0.049 A 
ATOM     53  H   UNL A   1      44.285  29.172  29.481  1.00  0.00     0.167 HD
ATOM     54  C   UNL A   1      42.516  31.298  30.066  1.00  0.00     0.074 A 
ATOM     55  C   UNL A   1      41.291  32.050  30.234  1.00  0.00     0.031 C 
ATOM     56  C   UNL A   1      43.750  31.775  30.362  1.00  0.00     0.031 A 
BRANCH  43  57
ATOM     57  C   UNL A   1      48.301  27.718  29.355  1.00  0.00    -0.014 A 
ATOM     58  C   UNL A   1      49.141  27.978  28.260  1.00  0.00     0.009 A 
ATOM     59  C   UNL A   1      48.867  27.208  30.534  1.00  0.00     0.009 A 
ATOM     60  C   UNL A   1      50.508  27.698  28.334  1.00  0.00     0.001 A 
ATOM     61  C   UNL A   1      50.239  26.964  30.618  1.00  0.00     0.001 A 
ATOM     62  C   UNL A   1      51.056  27.198  29.514  1.00  0.00     0.000 A 
ENDBRANCH  43  57
BRANCH  44  63
ATOM     63  C   UNL A   1      38.454  29.270  28.851  1.00  0.00    -0.014 A 
ATOM     64  C   UNL A   1      37.851  29.707  27.661  1.00  0.00     0.009 A 
ATOM     65  C   UNL A   1      37.656  29.119  29.997  1.00  0.00     0.009 A 
ATOM     66  C   UNL A   1      36.491  30.026  27.631  1.00  0.00     0.001 A 
ATOM     67  C   UNL A   1      36.290  29.402  29.954  1.00  0.00     0.001 A 
ATOM     68  C   UNL A   1      35.712  29.870  28.775  1.00  0.00     0.000 A 
ENDBRANCH  44  63
BRANCH  56  69
ATOM     69  C   UNL A   1      43.848  33.201  30.838  1.00  0.00    -0.014 A 
ATOM     70  C   UNL A   1      43.960  34.275  29.942  1.00  0.00     0.009 A 
ATOM     71  C   UNL A   1      43.790  33.472  32.215  1.00  0.00     0.009 A 
ATOM     72  C   UNL A   1      44.054  35.586  30.417  1.00  0.00     0.001 A 
ATOM     73  C   UNL A   1      43.845  34.784  32.686  1.00  0.00     0.001 A 
ATOM     74  C   UNL A   1      43.990  35.839  31.788  1.00  0.00     0.000 A 
ENDBRANCH  56  69
ENDBRANCH  30  31
ENDBRANCH  23  25
ENDBRANCH  22  23
ENDBRANCH  21  22
ENDBRANCH  20  21
ENDBRANCH  19  20
ENDBRANCH   1  19
TORSDOF 17
ENDMDL
MODEL 3
REMARK VINA RESULT:      -9.4      2.072      3.216
REMARK SMILES CC(C)(C#N)Nc1ccccc1C(=O)OCCOCCOC(=O)c1ccc(-c2c3nc(c(-c4ccccc4)c4ccc([nH]4)c(-c4ccccc4)c4nc(c(-c5ccccc5)c5ccc2[nH]5)C=C4)C=C3)cc1
REMARK SMILES IDX 17 1 16 2 15 3 13 4 14 5 12 6 7 7 8 8 9 9 11 10 10 11 6 12
REMARK SMILES IDX 2 14 1 15 3 16 4 17 5 18 18 19 19 20 20 21 21 22 22 23 23 24
REMARK SMILES IDX 24 25 25 26 71 27 26 28 70 29 27 30 28 31 29 32 64 33 30 34
REMARK SMILES IDX 69 35 63 36 65 37 31 38 68 39 62 40 61 41 32 43 54 44 39 45
REMARK SMILES IDX 53 46 40 47 43 48 52 49 66 50 41 51 42 52 51 54 67 55 44 56
REMARK SMILES IDX 33 57 34 58 38 59 35 60 37 61 36 62 55 63 56 64 60 65 57 66
REMARK SMILES IDX 59 67 58 68 45 69 46 70 50 71 47 72 49 73 48 74
REMARK H PARENT 6 13 65 42 43 53
REMARK Flexibility Score: inf
ROOT
ATOM      1  C   UNL A   1      33.765  25.906  24.470  1.00  0.00     0.202 C 
ENDROOT
BRANCH   1   2
ATOM      2  C   UNL A   1      32.701  24.832  24.671  1.00  0.00     0.261 C 
BRANCH   2   3
ATOM      3  O   UNL A   1      33.270  23.625  25.208  1.00  0.00    -0.460 OA
BRANCH   3   4
ATOM      4  C   UNL A   1      33.450  22.620  24.322  1.00  0.00     0.340 C 
ATOM      5  O   UNL A   1      32.703  22.352  23.391  1.00  0.00    -0.246 OA
BRANCH   4   6
ATOM      6  C   UNL A   1      34.743  21.927  24.520  1.00  0.00     0.083 A 
ATOM      7  C   UNL A   1      34.959  20.584  24.885  1.00  0.00     0.050 A 
ATOM      8  C   UNL A   1      36.322  20.187  24.965  1.00  0.00     0.026 A 
ATOM      9  C   UNL A   1      37.400  21.049  24.734  1.00  0.00     0.002 A 
ATOM     10  C   UNL A   1      35.843  22.803  24.316  1.00  0.00     0.018 A 
ATOM     11  C   UNL A   1      37.159  22.372  24.421  1.00  0.00     0.001 A 
BRANCH   7  12
ATOM     12  N   UNL A   1      34.073  19.552  25.117  1.00  0.00    -0.367 N 
ATOM     13  H   UNL A   1      33.710  19.587  26.031  1.00  0.00     0.162 HD
BRANCH  12  14
ATOM     14  C   UNL A   1      33.527  18.411  24.361  1.00  0.00     0.119 C 
ATOM     15  C   UNL A   1      32.550  18.950  23.298  1.00  0.00     0.051 C 
ATOM     16  C   UNL A   1      34.585  17.453  23.805  1.00  0.00     0.051 C 
BRANCH  14  17
ATOM     17  C   UNL A   1      32.701  17.577  25.301  1.00  0.00     0.090 C 
ATOM     18  N   UNL A   1      32.081  16.926  26.034  1.00  0.00    -0.196 NA
ENDBRANCH  14  17
ENDBRANCH  12  14
ENDBRANCH   7  12
ENDBRANCH   4   6
ENDBRANCH   3   4
ENDBRANCH   2   3
ENDBRANCH   1   2
BRANCH   1  19
ATOM     19  O   UNL A   1      33.868  26.925  25.459  1.00  0.00    -0.374 OA
BRANCH  19  20
ATOM     20  C   UNL A   1      32.790  27.844  25.604  1.00  0.00     0.202 C 
BRANCH  20  21
ATOM     21  C   UNL A   1      32.826  28.841  26.773  1.00  0.00     0.261 C 
BRANCH  21  22
ATOM     22  O   UNL A   1      34.023  28.824  27.566  1.00  0.00    -0.460 OA
BRANCH  22  23
ATOM     23  C   UNL A   1      34.505  30.057  27.865  1.00  0.00     0.338 C 
ATOM     24  O   UNL A   1      33.890  31.109  27.896  1.00  0.00    -0.246 OA
BRANCH  23  25
ATOM     25  C   UNL A   1      35.916  29.964  28.273  1.00  0.00     0.060 A 
ATOM     26  C   UNL A   1      36.907  30.130  27.300  1.00  0.00     0.016 A 
ATOM     27  C   UNL A   1      36.247  29.566  29.569  1.00  0.00     0.016 A 
ATOM     28  C   UNL A   1      38.237  29.846  27.607  1.00  0.00     0.010 A 
ATOM     29  C   UNL A   1      37.581  29.281  29.874  1.00  0.00     0.010 A 
ATOM     30  C   UNL A   1      38.577  29.377  28.884  1.00  0.00    -0.014 A 
BRANCH  30  31
ATOM     31  C   UNL A   1      39.940  28.852  29.146  1.00  0.00     0.031 A 
ATOM     32  C   UNL A   1      40.952  29.734  29.829  1.00  0.00     0.074 A 
ATOM     33  C   UNL A   1      40.271  27.596  28.798  1.00  0.00     0.049 A 
ATOM     34  N   UNL A   1      42.210  29.497  30.103  1.00  0.00    -0.248 NA
ATOM     35  C   UNL A   1      40.485  31.064  30.255  1.00  0.00     0.031 C 
ATOM     36  C   UNL A   1      39.373  26.624  28.175  1.00  0.00     0.029 A 
ATOM     37  N   UNL A   1      41.462  26.926  28.916  1.00  0.00    -0.354 N 
ATOM     38  C   UNL A   1      42.687  30.647  30.721  1.00  0.00     0.074 A 
ATOM     39  C   UNL A   1      41.595  31.596  30.745  1.00  0.00     0.031 C 
ATOM     40  C   UNL A   1      40.046  25.480  27.967  1.00  0.00     0.029 A 
ATOM     41  C   UNL A   1      41.431  25.653  28.399  1.00  0.00     0.049 A 
ATOM     42  H   UNL A   1      42.264  27.318  29.332  1.00  0.00     0.167 HD
ATOM     43  C   UNL A   1      43.917  30.890  31.234  1.00  0.00     0.031 A 
ATOM     44  C   UNL A   1      42.414  24.741  28.268  1.00  0.00     0.031 A 
ATOM     45  C   UNL A   1      45.008  29.952  31.196  1.00  0.00     0.049 A 
ATOM     46  C   UNL A   1      43.801  25.076  28.753  1.00  0.00     0.074 A 
ATOM     47  C   UNL A   1      46.293  30.102  31.693  1.00  0.00     0.029 A 
ATOM     48  N   UNL A   1      44.948  28.693  30.620  1.00  0.00    -0.354 N 
ATOM     49  N   UNL A   1      44.232  26.157  29.357  1.00  0.00    -0.248 NA
ATOM     50  C   UNL A   1      44.836  24.052  28.546  1.00  0.00     0.031 C 
ATOM     51  C   UNL A   1      47.027  28.961  31.356  1.00  0.00     0.029 A 
ATOM     52  C   UNL A   1      46.179  28.066  30.725  1.00  0.00     0.049 A 
ATOM     53  H   UNL A   1      44.149  28.300  30.199  1.00  0.00     0.167 HD
ATOM     54  C   UNL A   1      45.575  25.925  29.640  1.00  0.00     0.074 A 
ATOM     55  C   UNL A   1      45.880  24.595  29.154  1.00  0.00     0.031 C 
ATOM     56  C   UNL A   1      46.472  26.738  30.250  1.00  0.00     0.031 A 
BRANCH  43  57
ATOM     57  C   UNL A   1      44.159  32.239  31.857  1.00  0.00    -0.014 A 
ATOM     58  C   UNL A   1      44.624  33.323  31.096  1.00  0.00     0.009 A 
ATOM     59  C   UNL A   1      43.878  32.440  33.217  1.00  0.00     0.009 A 
ATOM     60  C   UNL A   1      44.838  34.568  31.693  1.00  0.00     0.001 A 
ATOM     61  C   UNL A   1      44.057  33.694  33.804  1.00  0.00     0.001 A 
ATOM     62  C   UNL A   1      44.548  34.754  33.044  1.00  0.00     0.000 A 
ENDBRANCH  43  57
BRANCH  44  63
ATOM     63  C   UNL A   1      42.138  23.423  27.635  1.00  0.00    -0.014 A 
ATOM     64  C   UNL A   1      42.372  23.225  26.265  1.00  0.00     0.009 A 
ATOM     65  C   UNL A   1      41.596  22.368  28.387  1.00  0.00     0.009 A 
ATOM     66  C   UNL A   1      42.029  22.016  25.655  1.00  0.00     0.001 A 
ATOM     67  C   UNL A   1      41.291  21.147  27.782  1.00  0.00     0.001 A 
ATOM     68  C   UNL A   1      41.492  20.978  26.414  1.00  0.00     0.000 A 
ENDBRANCH  44  63
BRANCH  56  69
ATOM     69  C   UNL A   1      47.855  26.192  30.490  1.00  0.00    -0.014 A 
ATOM     70  C   UNL A   1      48.252  25.702  31.743  1.00  0.00     0.009 A 
ATOM     71  C   UNL A   1      48.766  26.134  29.422  1.00  0.00     0.009 A 
ATOM     72  C   UNL A   1      49.545  25.207  31.933  1.00  0.00     0.001 A 
ATOM     73  C   UNL A   1      50.043  25.603  29.603  1.00  0.00     0.001 A 
ATOM     74  C   UNL A   1      50.436  25.152  30.861  1.00  0.00     0.000 A 
ENDBRANCH  56  69
ENDBRANCH  30  31
ENDBRANCH  23  25
ENDBRANCH  22  23
ENDBRANCH  21  22
ENDBRANCH  20  21
ENDBRANCH  19  20
ENDBRANCH   1  19
TORSDOF 17
ENDMDL
