MODEL 1
REMARK VINA RESULT:      -9.8      0.000      0.000
REMARK SMILES C[C@H](Oc1ccc(C(=O)NCc2ccccc2)cc1)C(=O)OCCOCCOC(=O)c1ccc(-c2c3nc(c(-c4ccccc4)c4ccc([nH]4)c(-c4ccccc4)c4nc(c(-c5ccccc5)c5ccc2[nH]5)C=C4)C=C3)cc1
REMARK SMILES IDX 23 1 22 2 20 3 21 4 2 5 1 6 3 7 4 8 5 9 19 10 6 11 18 12
REMARK SMILES IDX 7 13 8 14 9 15 10 16 11 18 12 19 13 20 17 21 14 22 16 23
REMARK SMILES IDX 15 24 24 25 25 26 26 27 27 28 28 29 29 30 30 31 31 32 32 33
REMARK SMILES IDX 78 34 33 35 77 36 34 37 35 38 36 39 71 40 37 41 76 42 70 43
REMARK SMILES IDX 72 44 38 45 75 46 69 47 68 48 39 50 61 51 46 52 60 53 47 54
REMARK SMILES IDX 50 55 59 56 73 57 48 58 49 59 58 61 74 62 51 63 40 64 41 65
REMARK SMILES IDX 45 66 42 67 44 68 43 69 62 70 63 71 67 72 64 73 66 74 65 75
REMARK SMILES IDX 52 76 53 77 57 78 54 79 56 80 55 81
REMARK H PARENT 10 17 72 49 50 60
REMARK Flexibility Score: inf
ROOT
ATOM      1  C   UNL A   1      40.860  22.085  28.028  1.00  0.00     0.261 C 
ENDROOT
BRANCH   1   2
ATOM      2  O   UNL A   1      40.373  23.032  27.064  1.00  0.00    -0.461 OA
BRANCH   2   3
ATOM      3  C   UNL A   1      39.226  22.692  26.405  1.00  0.00     0.347 C 
ATOM      4  O   UNL A   1      38.947  21.566  26.011  1.00  0.00    -0.248 OA
BRANCH   3   5
ATOM      5  C   UNL A   1      38.353  23.919  26.139  1.00  0.00     0.279 C 
ATOM      6  C   UNL A   1      38.983  25.068  26.930  1.00  0.00     0.066 C 
BRANCH   5   7
ATOM      7  O   UNL A   1      36.998  23.608  26.492  1.00  0.00    -0.479 OA
BRANCH   7   8
ATOM      8  C   UNL A   1      35.999  23.753  25.574  1.00  0.00     0.120 A 
ATOM      9  C   UNL A   1      35.896  23.086  24.361  1.00  0.00     0.047 A 
ATOM     10  C   UNL A   1      35.036  24.713  25.896  1.00  0.00     0.047 A 
ATOM     11  C   UNL A   1      34.935  23.484  23.424  1.00  0.00     0.017 A 
ATOM     12  C   UNL A   1      34.056  25.096  24.966  1.00  0.00     0.017 A 
ATOM     13  C   UNL A   1      34.022  24.516  23.699  1.00  0.00     0.040 A 
BRANCH  13  14
ATOM     14  C   UNL A   1      33.209  24.998  22.544  1.00  0.00     0.251 C 
ATOM     15  O   UNL A   1      33.780  25.651  21.667  1.00  0.00    -0.269 OA
ATOM     16  N   UNL A   1      31.869  24.800  22.381  1.00  0.00    -0.348 N 
ATOM     17  H   UNL A   1      31.501  25.297  21.617  1.00  0.00     0.164 HD
BRANCH  16  18
ATOM     18  C   UNL A   1      30.870  24.022  23.078  1.00  0.00     0.152 C 
BRANCH  18  19
ATOM     19  C   UNL A   1      31.419  22.663  23.444  1.00  0.00    -0.029 A 
ATOM     20  C   UNL A   1      31.598  22.303  24.788  1.00  0.00     0.005 A 
ATOM     21  C   UNL A   1      31.790  21.743  22.452  1.00  0.00     0.005 A 
ATOM     22  C   UNL A   1      32.123  21.053  25.126  1.00  0.00     0.000 A 
ATOM     23  C   UNL A   1      32.303  20.490  22.790  1.00  0.00     0.000 A 
ATOM     24  C   UNL A   1      32.469  20.144  24.128  1.00  0.00     0.000 A 
ENDBRANCH  18  19
ENDBRANCH  16  18
ENDBRANCH  13  14
ENDBRANCH   7   8
ENDBRANCH   5   7
ENDBRANCH   3   5
ENDBRANCH   2   3
ENDBRANCH   1   2
BRANCH   1  25
ATOM     25  C   UNL A   1      42.163  21.430  27.568  1.00  0.00     0.202 C 
BRANCH  25  26
ATOM     26  O   UNL A   1      42.067  20.626  26.395  1.00  0.00    -0.374 OA
BRANCH  26  27
ATOM     27  C   UNL A   1      42.301  19.226  26.552  1.00  0.00     0.202 C 
BRANCH  27  28
ATOM     28  C   UNL A   1      43.287  18.604  25.555  1.00  0.00     0.261 C 
BRANCH  28  29
ATOM     29  O   UNL A   1      43.572  19.493  24.458  1.00  0.00    -0.460 OA
BRANCH  29  30
ATOM     30  C   UNL A   1      44.887  19.694  24.211  1.00  0.00     0.338 C 
ATOM     31  O   UNL A   1      45.661  18.932  23.646  1.00  0.00    -0.246 OA
BRANCH  30  32
ATOM     32  C   UNL A   1      45.269  21.069  24.577  1.00  0.00     0.060 A 
ATOM     33  C   UNL A   1      45.622  21.311  25.911  1.00  0.00     0.016 A 
ATOM     34  C   UNL A   1      45.206  22.120  23.660  1.00  0.00     0.016 A 
ATOM     35  C   UNL A   1      45.861  22.613  26.346  1.00  0.00     0.010 A 
ATOM     36  C   UNL A   1      45.437  23.428  24.100  1.00  0.00     0.010 A 
ATOM     37  C   UNL A   1      45.729  23.683  25.452  1.00  0.00    -0.014 A 
BRANCH  37  38
ATOM     38  C   UNL A   1      45.749  25.074  25.966  1.00  0.00     0.031 A 
ATOM     39  C   UNL A   1      47.042  25.842  25.946  1.00  0.00     0.074 A 
ATOM     40  C   UNL A   1      44.625  25.656  26.419  1.00  0.00     0.049 A 
ATOM     41  N   UNL A   1      47.291  27.055  26.369  1.00  0.00    -0.248 NA
ATOM     42  C   UNL A   1      48.208  25.149  25.375  1.00  0.00     0.031 C 
ATOM     43  C   UNL A   1      43.301  25.037  26.448  1.00  0.00     0.029 A 
ATOM     44  N   UNL A   1      44.424  26.908  26.945  1.00  0.00    -0.354 N 
ATOM     45  C   UNL A   1      48.642  27.269  26.122  1.00  0.00     0.074 A 
ATOM     46  C   UNL A   1      49.165  26.052  25.539  1.00  0.00     0.031 C 
ATOM     47  C   UNL A   1      42.424  25.912  26.972  1.00  0.00     0.029 A 
ATOM     48  C   UNL A   1      43.130  27.135  27.344  1.00  0.00     0.049 A 
ATOM     49  H   UNL A   1      45.140  27.579  27.030  1.00  0.00     0.167 HD
ATOM     50  C   UNL A   1      49.381  28.379  26.354  1.00  0.00     0.031 A 
ATOM     51  C   UNL A   1      42.583  28.203  27.955  1.00  0.00     0.031 A 
ATOM     52  C   UNL A   1      48.868  29.586  26.944  1.00  0.00     0.049 A 
ATOM     53  C   UNL A   1      43.442  29.397  28.274  1.00  0.00     0.074 A 
ATOM     54  C   UNL A   1      49.537  30.769  27.207  1.00  0.00     0.029 A 
ATOM     55  N   UNL A   1      47.561  29.762  27.368  1.00  0.00    -0.354 N 
ATOM     56  N   UNL A   1      44.712  29.594  28.014  1.00  0.00    -0.248 NA
ATOM     57  C   UNL A   1      42.789  30.519  28.963  1.00  0.00     0.031 C 
ATOM     58  C   UNL A   1      48.645  31.643  27.838  1.00  0.00     0.029 A 
ATOM     59  C   UNL A   1      47.408  31.024  27.915  1.00  0.00     0.049 A 
ATOM     60  H   UNL A   1      46.846  29.088  27.291  1.00  0.00     0.167 HD
ATOM     61  C   UNL A   1      45.002  30.871  28.481  1.00  0.00     0.074 A 
ATOM     62  C   UNL A   1      43.772  31.406  29.029  1.00  0.00     0.031 C 
ATOM     63  C   UNL A   1      46.179  31.543  28.454  1.00  0.00     0.031 A 
BRANCH  50  64
ATOM     64  C   UNL A   1      50.841  28.325  25.999  1.00  0.00    -0.014 A 
ATOM     65  C   UNL A   1      51.285  28.601  24.696  1.00  0.00     0.009 A 
ATOM     66  C   UNL A   1      51.787  28.025  26.991  1.00  0.00     0.009 A 
ATOM     67  C   UNL A   1      52.646  28.546  24.388  1.00  0.00     0.001 A 
ATOM     68  C   UNL A   1      53.148  27.997  26.686  1.00  0.00     0.001 A 
ATOM     69  C   UNL A   1      53.576  28.249  25.383  1.00  0.00     0.000 A 
ENDBRANCH  50  64
BRANCH  51  70
ATOM     70  C   UNL A   1      41.145  28.190  28.329  1.00  0.00    -0.014 A 
ATOM     71  C   UNL A   1      40.715  27.552  29.502  1.00  0.00     0.009 A 
ATOM     72  C   UNL A   1      40.191  28.799  27.499  1.00  0.00     0.009 A 
ATOM     73  C   UNL A   1      39.356  27.504  29.824  1.00  0.00     0.001 A 
ATOM     74  C   UNL A   1      38.836  28.774  27.837  1.00  0.00     0.001 A 
ATOM     75  C   UNL A   1      38.419  28.118  28.994  1.00  0.00     0.000 A 
ENDBRANCH  51  70
BRANCH  63  76
ATOM     76  C   UNL A   1      46.187  32.945  28.996  1.00  0.00    -0.014 A 
ATOM     77  C   UNL A   1      46.431  33.202  30.353  1.00  0.00     0.009 A 
ATOM     78  C   UNL A   1      45.992  34.026  28.122  1.00  0.00     0.009 A 
ATOM     79  C   UNL A   1      46.450  34.516  30.829  1.00  0.00     0.001 A 
ATOM     80  C   UNL A   1      46.038  35.337  28.595  1.00  0.00     0.001 A 
ATOM     81  C   UNL A   1      46.259  35.581  29.950  1.00  0.00     0.000 A 
ENDBRANCH  63  76
ENDBRANCH  37  38
ENDBRANCH  30  32
ENDBRANCH  29  30
ENDBRANCH  28  29
ENDBRANCH  27  28
ENDBRANCH  26  27
ENDBRANCH  25  26
ENDBRANCH   1  25
TORSDOF 19
ENDMDL
MODEL 2
REMARK VINA RESULT:      -9.8      4.526      6.871
REMARK SMILES C[C@H](Oc1ccc(C(=O)NCc2ccccc2)cc1)C(=O)OCCOCCOC(=O)c1ccc(-c2c3nc(c(-c4ccccc4)c4ccc([nH]4)c(-c4ccccc4)c4nc(c(-c5ccccc5)c5ccc2[nH]5)C=C4)C=C3)cc1
REMARK SMILES IDX 23 1 22 2 20 3 21 4 2 5 1 6 3 7 4 8 5 9 19 10 6 11 18 12
REMARK SMILES IDX 7 13 8 14 9 15 10 16 11 18 12 19 13 20 17 21 14 22 16 23
REMARK SMILES IDX 15 24 24 25 25 26 26 27 27 28 28 29 29 30 30 31 31 32 32 33
REMARK SMILES IDX 78 34 33 35 77 36 34 37 35 38 36 39 71 40 37 41 76 42 70 43
REMARK SMILES IDX 72 44 38 45 75 46 69 47 68 48 39 50 61 51 46 52 60 53 47 54
REMARK SMILES IDX 50 55 59 56 73 57 48 58 49 59 58 61 74 62 51 63 40 64 41 65
REMARK SMILES IDX 45 66 42 67 44 68 43 69 62 70 63 71 67 72 64 73 66 74 65 75
REMARK SMILES IDX 52 76 53 77 57 78 54 79 56 80 55 81
REMARK H PARENT 10 17 72 49 50 60
REMARK Flexibility Score: inf
ROOT
ATOM      1  C   UNL A   1      40.404  21.055  27.108  1.00  0.00     0.261 C 
ENDROOT
BRANCH   1   2
ATOM      2  O   UNL A   1      39.948  22.008  26.135  1.00  0.00    -0.461 OA
BRANCH   2   3
ATOM      3  C   UNL A   1      38.642  21.904  25.749  1.00  0.00     0.347 C 
ATOM      4  O   UNL A   1      38.096  20.871  25.380  1.00  0.00    -0.248 OA
BRANCH   3   5
ATOM      5  C   UNL A   1      37.950  23.268  25.753  1.00  0.00     0.279 C 
ATOM      6  C   UNL A   1      38.690  24.116  26.791  1.00  0.00     0.066 C 
BRANCH   5   7
ATOM      7  O   UNL A   1      36.552  23.077  26.009  1.00  0.00    -0.479 OA
BRANCH   7   8
ATOM      8  C   UNL A   1      35.624  23.508  25.106  1.00  0.00     0.120 A 
ATOM      9  C   UNL A   1      35.254  22.859  23.936  1.00  0.00     0.047 A 
ATOM     10  C   UNL A   1      35.054  24.751  25.393  1.00  0.00     0.047 A 
ATOM     11  C   UNL A   1      34.446  23.514  22.999  1.00  0.00     0.017 A 
ATOM     12  C   UNL A   1      34.223  25.399  24.465  1.00  0.00     0.017 A 
ATOM     13  C   UNL A   1      33.945  24.805  23.234  1.00  0.00     0.040 A 
BRANCH  13  14
ATOM     14  C   UNL A   1      33.296  25.480  22.071  1.00  0.00     0.251 C 
ATOM     15  O   UNL A   1      32.611  24.791  21.312  1.00  0.00    -0.269 OA
ATOM     16  N   UNL A   1      33.413  26.802  21.757  1.00  0.00    -0.348 N 
ATOM     17  H   UNL A   1      33.007  27.024  20.889  1.00  0.00     0.164 HD
BRANCH  16  18
ATOM     18  C   UNL A   1      33.997  27.949  22.413  1.00  0.00     0.152 C 
BRANCH  18  19
ATOM     19  C   UNL A   1      32.983  28.618  23.311  1.00  0.00    -0.029 A 
ATOM     20  C   UNL A   1      33.343  29.054  24.595  1.00  0.00     0.005 A 
ATOM     21  C   UNL A   1      31.655  28.792  22.896  1.00  0.00     0.005 A 
ATOM     22  C   UNL A   1      32.400  29.657  25.431  1.00  0.00     0.000 A 
ATOM     23  C   UNL A   1      30.715  29.405  23.727  1.00  0.00     0.000 A 
ATOM     24  C   UNL A   1      31.088  29.838  24.996  1.00  0.00     0.000 A 
ENDBRANCH  18  19
ENDBRANCH  16  18
ENDBRANCH  13  14
ENDBRANCH   7   8
ENDBRANCH   5   7
ENDBRANCH   3   5
ENDBRANCH   2   3
ENDBRANCH   1   2
BRANCH   1  25
ATOM     25  C   UNL A   1      41.686  20.355  26.656  1.00  0.00     0.202 C 
BRANCH  25  26
ATOM     26  O   UNL A   1      42.483  21.075  25.718  1.00  0.00    -0.374 OA
BRANCH  26  27
ATOM     27  C   UNL A   1      43.734  20.492  25.353  1.00  0.00     0.202 C 
BRANCH  27  28
ATOM     28  C   UNL A   1      44.901  21.474  25.197  1.00  0.00     0.261 C 
BRANCH  28  29
ATOM     29  O   UNL A   1      44.764  22.612  26.070  1.00  0.00    -0.460 OA
BRANCH  29  30
ATOM     30  C   UNL A   1      44.550  23.791  25.444  1.00  0.00     0.338 C 
ATOM     31  O   UNL A   1      44.850  24.087  24.293  1.00  0.00    -0.246 OA
BRANCH  30  32
ATOM     32  C   UNL A   1      43.733  24.676  26.292  1.00  0.00     0.060 A 
ATOM     33  C   UNL A   1      44.064  26.037  26.317  1.00  0.00     0.016 A 
ATOM     34  C   UNL A   1      42.716  24.179  27.110  1.00  0.00     0.016 A 
ATOM     35  C   UNL A   1      43.416  26.898  27.201  1.00  0.00     0.010 A 
ATOM     36  C   UNL A   1      42.073  25.043  28.003  1.00  0.00     0.010 A 
ATOM     37  C   UNL A   1      42.446  26.397  28.078  1.00  0.00    -0.014 A 
BRANCH  37  38
ATOM     38  C   UNL A   1      41.933  27.257  29.172  1.00  0.00     0.031 A 
ATOM     39  C   UNL A   1      42.676  27.299  30.479  1.00  0.00     0.074 A 
ATOM     40  C   UNL A   1      40.835  28.015  28.995  1.00  0.00     0.049 A 
ATOM     41  N   UNL A   1      42.392  27.958  31.573  1.00  0.00    -0.248 NA
ATOM     42  C   UNL A   1      43.901  26.488  30.563  1.00  0.00     0.031 C 
ATOM     43  C   UNL A   1      40.054  28.100  27.763  1.00  0.00     0.029 A 
ATOM     44  N   UNL A   1      40.190  28.858  29.865  1.00  0.00    -0.354 N 
ATOM     45  C   UNL A   1      43.396  27.637  32.477  1.00  0.00     0.074 A 
ATOM     46  C   UNL A   1      44.281  26.703  31.815  1.00  0.00     0.031 C 
ATOM     47  C   UNL A   1      39.027  28.947  27.958  1.00  0.00     0.029 A 
ATOM     48  C   UNL A   1      39.063  29.435  29.335  1.00  0.00     0.049 A 
ATOM     49  H   UNL A   1      40.505  29.033  30.781  1.00  0.00     0.167 HD
ATOM     50  C   UNL A   1      43.571  28.082  33.744  1.00  0.00     0.031 A 
ATOM     51  C   UNL A   1      38.153  30.250  29.903  1.00  0.00     0.031 A 
ATOM     52  C   UNL A   1      42.688  29.001  34.410  1.00  0.00     0.049 A 
ATOM     53  C   UNL A   1      38.327  30.670  31.338  1.00  0.00     0.074 A 
ATOM     54  C   UNL A   1      42.789  29.521  35.689  1.00  0.00     0.029 A 
ATOM     55  N   UNL A   1      41.537  29.531  33.851  1.00  0.00    -0.354 N 
ATOM     56  N   UNL A   1      39.294  30.377  32.173  1.00  0.00    -0.248 NA
ATOM     57  C   UNL A   1      37.287  31.540  31.904  1.00  0.00     0.031 C 
ATOM     58  C   UNL A   1      41.670  30.327  35.922  1.00  0.00     0.029 A 
ATOM     59  C   UNL A   1      40.903  30.353  34.768  1.00  0.00     0.049 A 
ATOM     60  H   UNL A   1      41.217  29.351  32.937  1.00  0.00     0.167 HD
ATOM     61  C   UNL A   1      38.994  31.049  33.352  1.00  0.00     0.074 A 
ATOM     62  C   UNL A   1      37.762  31.775  33.120  1.00  0.00     0.031 C 
ATOM     63  C   UNL A   1      39.680  31.069  34.522  1.00  0.00     0.031 A 
BRANCH  50  64
ATOM     64  C   UNL A   1      44.752  27.550  34.507  1.00  0.00    -0.014 A 
ATOM     65  C   UNL A   1      44.661  26.371  35.263  1.00  0.00     0.009 A 
ATOM     66  C   UNL A   1      45.983  28.222  34.440  1.00  0.00     0.009 A 
ATOM     67  C   UNL A   1      45.771  25.893  35.963  1.00  0.00     0.001 A 
ATOM     68  C   UNL A   1      47.097  27.727  35.119  1.00  0.00     0.001 A 
ATOM     69  C   UNL A   1      46.989  26.568  35.886  1.00  0.00     0.000 A 
ENDBRANCH  50  64
BRANCH  51  70
ATOM     70  C   UNL A   1      36.977  30.712  29.120  1.00  0.00    -0.014 A 
ATOM     71  C   UNL A   1      35.952  29.820  28.774  1.00  0.00     0.009 A 
ATOM     72  C   UNL A   1      36.887  32.047  28.698  1.00  0.00     0.009 A 
ATOM     73  C   UNL A   1      34.871  30.251  28.000  1.00  0.00     0.001 A 
ATOM     74  C   UNL A   1      35.793  32.482  27.947  1.00  0.00     0.001 A 
ATOM     75  C   UNL A   1      34.791  31.581  27.590  1.00  0.00     0.000 A 
ENDBRANCH  51  70
BRANCH  63  76
ATOM     76  C   UNL A   1      39.137  31.932  35.626  1.00  0.00    -0.014 A 
ATOM     77  C   UNL A   1      39.401  33.309  35.674  1.00  0.00     0.009 A 
ATOM     78  C   UNL A   1      38.312  31.362  36.608  1.00  0.00     0.009 A 
ATOM     79  C   UNL A   1      38.872  34.093  36.702  1.00  0.00     0.001 A 
ATOM     80  C   UNL A   1      37.762  32.152  37.618  1.00  0.00     0.001 A 
ATOM     81  C   UNL A   1      38.049  33.516  37.669  1.00  0.00     0.000 A 
ENDBRANCH  63  76
ENDBRANCH  37  38
ENDBRANCH  30  32
ENDBRANCH  29  30
ENDBRANCH  28  29
ENDBRANCH  27  28
ENDBRANCH  26  27
ENDBRANCH  25  26
ENDBRANCH   1  25
TORSDOF 19
ENDMDL
MODEL 3
REMARK VINA RESULT:      -9.5      4.531      8.379
REMARK SMILES C[C@H](Oc1ccc(C(=O)NCc2ccccc2)cc1)C(=O)OCCOCCOC(=O)c1ccc(-c2c3nc(c(-c4ccccc4)c4ccc([nH]4)c(-c4ccccc4)c4nc(c(-c5ccccc5)c5ccc2[nH]5)C=C4)C=C3)cc1
REMARK SMILES IDX 23 1 22 2 20 3 21 4 2 5 1 6 3 7 4 8 5 9 19 10 6 11 18 12
REMARK SMILES IDX 7 13 8 14 9 15 10 16 11 18 12 19 13 20 17 21 14 22 16 23
REMARK SMILES IDX 15 24 24 25 25 26 26 27 27 28 28 29 29 30 30 31 31 32 32 33
REMARK SMILES IDX 78 34 33 35 77 36 34 37 35 38 36 39 71 40 37 41 76 42 70 43
REMARK SMILES IDX 72 44 38 45 75 46 69 47 68 48 39 50 61 51 46 52 60 53 47 54
REMARK SMILES IDX 50 55 59 56 73 57 48 58 49 59 58 61 74 62 51 63 40 64 41 65
REMARK SMILES IDX 45 66 42 67 44 68 43 69 62 70 63 71 67 72 64 73 66 74 65 75
REMARK SMILES IDX 52 76 53 77 57 78 54 79 56 80 55 81
REMARK H PARENT 10 17 72 49 50 60
REMARK Flexibility Score: inf
ROOT
ATOM      1  C   UNL A   1      41.460  20.534  27.084  1.00  0.00     0.261 C 
ENDROOT
BRANCH   1   2
ATOM      2  O   UNL A   1      40.647  21.591  26.550  1.00  0.00    -0.461 OA
BRANCH   2   3
ATOM      3  C   UNL A   1      39.436  21.224  26.035  1.00  0.00     0.347 C 
ATOM      4  O   UNL A   1      39.115  20.080  25.736  1.00  0.00    -0.248 OA
BRANCH   3   5
ATOM      5  C   UNL A   1      38.542  22.441  25.793  1.00  0.00     0.279 C 
ATOM      6  C   UNL A   1      39.168  23.591  26.588  1.00  0.00     0.066 C 
BRANCH   5   7
ATOM      7  O   UNL A   1      37.197  22.108  26.162  1.00  0.00    -0.479 OA
BRANCH   7   8
ATOM      8  C   UNL A   1      36.151  22.527  25.393  1.00  0.00     0.120 A 
ATOM      9  C   UNL A   1      34.834  22.670  25.808  1.00  0.00     0.047 A 
ATOM     10  C   UNL A   1      36.463  22.772  24.053  1.00  0.00     0.047 A 
ATOM     11  C   UNL A   1      33.826  22.904  24.865  1.00  0.00     0.017 A 
ATOM     12  C   UNL A   1      35.456  23.031  23.110  1.00  0.00     0.017 A 
ATOM     13  C   UNL A   1      34.117  23.056  23.499  1.00  0.00     0.040 A 
BRANCH  13  14
ATOM     14  C   UNL A   1      32.945  23.069  22.575  1.00  0.00     0.251 C 
ATOM     15  O   UNL A   1      32.371  21.999  22.354  1.00  0.00    -0.269 OA
ATOM     16  N   UNL A   1      32.459  24.166  21.928  1.00  0.00    -0.348 N 
ATOM     17  H   UNL A   1      31.758  23.944  21.275  1.00  0.00     0.164 HD
BRANCH  16  18
ATOM     18  C   UNL A   1      32.741  25.583  21.986  1.00  0.00     0.152 C 
BRANCH  18  19
ATOM     19  C   UNL A   1      32.685  26.074  23.414  1.00  0.00    -0.029 A 
ATOM     20  C   UNL A   1      31.471  26.096  24.115  1.00  0.00     0.005 A 
ATOM     21  C   UNL A   1      33.837  26.547  24.060  1.00  0.00     0.005 A 
ATOM     22  C   UNL A   1      31.417  26.567  25.429  1.00  0.00     0.000 A 
ATOM     23  C   UNL A   1      33.785  27.007  25.377  1.00  0.00     0.000 A 
ATOM     24  C   UNL A   1      32.574  27.017  26.062  1.00  0.00     0.000 A 
ENDBRANCH  18  19
ENDBRANCH  16  18
ENDBRANCH  13  14
ENDBRANCH   7   8
ENDBRANCH   5   7
ENDBRANCH   3   5
ENDBRANCH   2   3
ENDBRANCH   1   2
BRANCH   1  25
ATOM     25  C   UNL A   1      42.641  20.211  26.168  1.00  0.00     0.202 C 
BRANCH  25  26
ATOM     26  O   UNL A   1      43.125  21.297  25.381  1.00  0.00    -0.374 OA
BRANCH  26  27
ATOM     27  C   UNL A   1      44.432  21.157  24.824  1.00  0.00     0.202 C 
BRANCH  27  28
ATOM     28  C   UNL A   1      45.245  22.453  24.712  1.00  0.00     0.261 C 
BRANCH  28  29
ATOM     29  O   UNL A   1      45.036  23.317  25.845  1.00  0.00    -0.460 OA
BRANCH  29  30
ATOM     30  C   UNL A   1      45.025  24.639  25.563  1.00  0.00     0.338 C 
ATOM     31  O   UNL A   1      45.564  25.202  24.618  1.00  0.00    -0.246 OA
BRANCH  30  32
ATOM     32  C   UNL A   1      44.114  25.347  26.480  1.00  0.00     0.060 A 
ATOM     33  C   UNL A   1      44.247  26.738  26.580  1.00  0.00     0.016 A 
ATOM     34  C   UNL A   1      43.204  24.662  27.288  1.00  0.00     0.016 A 
ATOM     35  C   UNL A   1      43.509  27.444  27.528  1.00  0.00     0.010 A 
ATOM     36  C   UNL A   1      42.470  25.372  28.244  1.00  0.00     0.010 A 
ATOM     37  C   UNL A   1      42.647  26.759  28.393  1.00  0.00    -0.014 A 
BRANCH  37  38
ATOM     38  C   UNL A   1      42.048  27.473  29.547  1.00  0.00     0.031 A 
ATOM     39  C   UNL A   1      40.721  28.160  29.372  1.00  0.00     0.074 A 
ATOM     40  C   UNL A   1      42.663  27.487  30.743  1.00  0.00     0.049 A 
ATOM     41  N   UNL A   1      40.032  28.862  30.235  1.00  0.00    -0.248 NA
ATOM     42  C   UNL A   1      40.089  28.041  28.049  1.00  0.00     0.031 C 
ATOM     43  C   UNL A   1      43.926  26.821  31.054  1.00  0.00     0.029 A 
ATOM     44  N   UNL A   1      42.299  28.090  31.921  1.00  0.00    -0.354 N 
ATOM     45  C   UNL A   1      38.890  29.274  29.559  1.00  0.00     0.074 A 
ATOM     46  C   UNL A   1      38.992  28.768  28.207  1.00  0.00     0.031 C 
ATOM     47  C   UNL A   1      44.236  27.058  32.341  1.00  0.00     0.029 A 
ATOM     48  C   UNL A   1      43.212  27.916  32.931  1.00  0.00     0.049 A 
ATOM     49  H   UNL A   1      41.463  28.599  32.031  1.00  0.00     0.167 HD
ATOM     50  C   UNL A   1      37.847  30.003  30.022  1.00  0.00     0.031 A 
ATOM     51  C   UNL A   1      43.227  28.410  34.184  1.00  0.00     0.031 A 
ATOM     52  C   UNL A   1      37.747  30.516  31.361  1.00  0.00     0.049 A 
ATOM     53  C   UNL A   1      42.093  29.283  34.652  1.00  0.00     0.074 A 
ATOM     54  C   UNL A   1      36.722  31.256  31.927  1.00  0.00     0.029 A 
ATOM     55  N   UNL A   1      38.711  30.351  32.342  1.00  0.00    -0.354 N 
ATOM     56  N   UNL A   1      41.009  29.645  34.009  1.00  0.00    -0.248 NA
ATOM     57  C   UNL A   1      42.183  29.808  36.022  1.00  0.00     0.031 C 
ATOM     58  C   UNL A   1      37.091  31.580  33.237  1.00  0.00     0.029 A 
ATOM     59  C   UNL A   1      38.318  30.995  33.503  1.00  0.00     0.049 A 
ATOM     60  H   UNL A   1      39.551  29.849  32.230  1.00  0.00     0.167 HD
ATOM     61  C   UNL A   1      40.276  30.414  34.904  1.00  0.00     0.074 A 
ATOM     62  C   UNL A   1      41.032  30.456  36.139  1.00  0.00     0.031 C 
ATOM     63  C   UNL A   1      39.080  31.027  34.723  1.00  0.00     0.031 A 
BRANCH  50  64
ATOM     64  C   UNL A   1      36.740  30.317  29.054  1.00  0.00    -0.014 A 
ATOM     65  C   UNL A   1      35.861  29.321  28.602  1.00  0.00     0.009 A 
ATOM     66  C   UNL A   1      36.556  31.637  28.614  1.00  0.00     0.009 A 
ATOM     67  C   UNL A   1      34.839  29.636  27.703  1.00  0.00     0.001 A 
ATOM     68  C   UNL A   1      35.518  31.953  27.737  1.00  0.00     0.001 A 
ATOM     69  C   UNL A   1      34.665  30.951  27.276  1.00  0.00     0.000 A 
ENDBRANCH  50  64
BRANCH  51  70
ATOM     70  C   UNL A   1      44.367  28.108  35.088  1.00  0.00    -0.014 A 
ATOM     71  C   UNL A   1      44.333  26.991  35.936  1.00  0.00     0.009 A 
ATOM     72  C   UNL A   1      45.489  28.951  35.121  1.00  0.00     0.009 A 
ATOM     73  C   UNL A   1      45.389  26.738  36.815  1.00  0.00     0.001 A 
ATOM     74  C   UNL A   1      46.555  28.681  35.982  1.00  0.00     0.001 A 
ATOM     75  C   UNL A   1      46.500  27.580  36.835  1.00  0.00     0.000 A 
ENDBRANCH  51  70
BRANCH  63  76
ATOM     76  C   UNL A   1      38.495  31.762  35.896  1.00  0.00    -0.014 A 
ATOM     77  C   UNL A   1      37.884  31.076  36.957  1.00  0.00     0.009 A 
ATOM     78  C   UNL A   1      38.599  33.160  35.959  1.00  0.00     0.009 A 
ATOM     79  C   UNL A   1      37.363  31.780  38.045  1.00  0.00     0.001 A 
ATOM     80  C   UNL A   1      38.101  33.859  37.059  1.00  0.00     0.001 A 
ATOM     81  C   UNL A   1      37.476  33.169  38.097  1.00  0.00     0.000 A 
ENDBRANCH  63  76
ENDBRANCH  37  38
ENDBRANCH  30  32
ENDBRANCH  29  30
ENDBRANCH  28  29
ENDBRANCH  27  28
ENDBRANCH  26  27
ENDBRANCH  25  26
ENDBRANCH   1  25
TORSDOF 19
ENDMDL
