MODEL 1
REMARK VINA RESULT:     -11.0      0.000      0.000
REMARK SMILES COc1cccc(NC(=O)NC2(C(=O)OCCOCCOC(=O)c3ccc(-c4c5nc(c(-c6ccccc6)c6ccc([nH]6)c(-c6ccccc6)c6nc(c(-c7ccccc7)c7ccc4[nH]7)C=C6)C=C5)cc3)CCCCC2)c1
REMARK SMILES IDX 17 1 16 2 15 3 13 4 14 5 12 6 72 7 76 8 73 9 75 10 74 11
REMARK SMILES IDX 11 12 8 13 9 14 10 16 7 18 3 19 4 20 77 21 5 22 6 23 2 24
REMARK SMILES IDX 1 25 18 26 19 27 20 28 21 29 22 30 23 31 24 32 25 33 71 34
REMARK SMILES IDX 26 35 70 36 27 37 28 38 29 39 64 40 30 41 69 42 63 43 65 44
REMARK SMILES IDX 31 45 68 46 62 47 61 48 32 50 54 51 39 52 53 53 40 54 43 55
REMARK SMILES IDX 52 56 66 57 41 58 42 59 51 61 67 62 44 63 33 64 34 65 38 66
REMARK SMILES IDX 35 67 37 68 36 69 55 70 56 71 60 72 57 73 59 74 58 75 45 76
REMARK SMILES IDX 46 77 50 78 47 79 49 80 48 81
REMARK H PARENT 8 15 11 17 65 49 43 60
REMARK Flexibility Score: inf
ROOT
ATOM      1  C   UNL A   1      33.414  19.763  25.068  1.00  0.00     0.202 C 
ENDROOT
BRANCH   1   2
ATOM      2  C   UNL A   1      32.561  20.819  24.388  1.00  0.00     0.261 C 
BRANCH   2   3
ATOM      3  O   UNL A   1      33.127  21.822  23.525  1.00  0.00    -0.461 OA
BRANCH   3   4
ATOM      4  C   UNL A   1      32.254  22.828  23.309  1.00  0.00     0.331 C 
ATOM      5  O   UNL A   1      31.046  22.624  23.181  1.00  0.00    -0.249 OA
BRANCH   4   6
ATOM      6  C   UNL A   1      32.807  24.271  23.272  1.00  0.00     0.139 C 
ATOM      7  C   UNL A   1      34.150  24.833  23.736  1.00  0.00     0.040 C 
ATOM      8  C   UNL A   1      31.755  25.046  24.139  1.00  0.00     0.040 C 
ATOM      9  C   UNL A   1      34.493  24.694  25.201  1.00  0.00     0.003 C 
ATOM     10  C   UNL A   1      32.026  24.875  25.652  1.00  0.00     0.003 C 
ATOM     11  C   UNL A   1      33.421  25.336  26.061  1.00  0.00     0.000 C 
BRANCH   6  12
ATOM     12  N   UNL A   1      32.706  24.596  21.807  1.00  0.00    -0.322 N 
ATOM     13  N   UNL A   1      33.057  26.969  21.526  1.00  0.00    -0.308 N 
ATOM     14  C   UNL A   1      32.793  25.724  21.057  1.00  0.00     0.320 C 
ATOM     15  H   UNL A   1      33.759  27.416  21.000  1.00  0.00     0.171 HD
ATOM     16  O   UNL A   1      32.854  25.551  19.834  1.00  0.00    -0.248 OA
ATOM     17  H   UNL A   1      32.537  23.796  21.260  1.00  0.00     0.166 HD
BRANCH  13  18
ATOM     18  C   UNL A   1      32.586  27.788  22.572  1.00  0.00     0.046 A 
ATOM     19  C   UNL A   1      33.064  28.874  24.694  1.00  0.00     0.120 A 
ATOM     20  C   UNL A   1      31.703  28.986  24.955  1.00  0.00     0.046 A 
ATOM     21  C   UNL A   1      33.514  28.324  23.482  1.00  0.00     0.072 A 
ATOM     22  C   UNL A   1      30.795  28.650  23.958  1.00  0.00     0.006 A 
ATOM     23  C   UNL A   1      31.249  28.099  22.753  1.00  0.00     0.026 A 
BRANCH  19  24
ATOM     24  O   UNL A   1      33.912  28.988  25.766  1.00  0.00    -0.497 OA
ATOM     25  C   UNL A   1      33.234  28.847  27.007  1.00  0.00     0.278 C 
ENDBRANCH  19  24
ENDBRANCH  13  18
ENDBRANCH   6  12
ENDBRANCH   4   6
ENDBRANCH   3   4
ENDBRANCH   2   3
ENDBRANCH   1   2
BRANCH   1  26
ATOM     26  O   UNL A   1      34.763  19.546  24.680  1.00  0.00    -0.374 OA
BRANCH  26  27
ATOM     27  C   UNL A   1      35.773  20.459  25.066  1.00  0.00     0.202 C 
BRANCH  27  28
ATOM     28  C   UNL A   1      37.248  20.023  25.007  1.00  0.00     0.261 C 
BRANCH  28  29
ATOM     29  O   UNL A   1      38.214  21.078  25.099  1.00  0.00    -0.460 OA
BRANCH  29  30
ATOM     30  C   UNL A   1      39.248  20.813  25.940  1.00  0.00     0.338 C 
ATOM     31  O   UNL A   1      39.840  19.758  26.077  1.00  0.00    -0.246 OA
BRANCH  30  32
ATOM     32  C   UNL A   1      39.691  22.069  26.584  1.00  0.00     0.060 A 
ATOM     33  C   UNL A   1      39.055  23.260  26.206  1.00  0.00     0.016 A 
ATOM     34  C   UNL A   1      40.751  22.086  27.490  1.00  0.00     0.016 A 
ATOM     35  C   UNL A   1      39.508  24.481  26.697  1.00  0.00     0.010 A 
ATOM     36  C   UNL A   1      41.233  23.315  27.949  1.00  0.00     0.010 A 
ATOM     37  C   UNL A   1      40.642  24.517  27.516  1.00  0.00    -0.014 A 
BRANCH  37  38
ATOM     38  C   UNL A   1      41.348  25.807  27.692  1.00  0.00     0.031 A 
ATOM     39  C   UNL A   1      40.685  26.861  28.540  1.00  0.00     0.074 A 
ATOM     40  C   UNL A   1      42.566  26.026  27.169  1.00  0.00     0.049 A 
ATOM     41  N   UNL A   1      41.091  28.071  28.829  1.00  0.00    -0.248 NA
ATOM     42  C   UNL A   1      39.393  26.498  29.146  1.00  0.00     0.031 C 
ATOM     43  C   UNL A   1      43.344  25.062  26.394  1.00  0.00     0.029 A 
ATOM     44  N   UNL A   1      43.360  27.143  27.219  1.00  0.00    -0.354 N 
ATOM     45  C   UNL A   1      40.101  28.613  29.640  1.00  0.00     0.074 A 
ATOM     46  C   UNL A   1      39.068  27.612  29.784  1.00  0.00     0.031 C 
ATOM     47  C   UNL A   1      44.506  25.637  26.031  1.00  0.00     0.029 A 
ATOM     48  C   UNL A   1      44.536  27.014  26.521  1.00  0.00     0.049 A 
ATOM     49  H   UNL A   1      43.112  27.960  27.709  1.00  0.00     0.167 HD
ATOM     50  C   UNL A   1      40.054  29.838  30.215  1.00  0.00     0.031 A 
ATOM     51  C   UNL A   1      45.510  27.915  26.288  1.00  0.00     0.031 A 
ATOM     52  C   UNL A   1      41.074  30.838  30.069  1.00  0.00     0.049 A 
ATOM     53  C   UNL A   1      45.390  29.302  26.863  1.00  0.00     0.074 A 
ATOM     54  C   UNL A   1      41.123  32.106  30.623  1.00  0.00     0.029 A 
ATOM     55  N   UNL A   1      42.220  30.687  29.306  1.00  0.00    -0.354 N 
ATOM     56  N   UNL A   1      44.459  29.799  27.640  1.00  0.00    -0.248 NA
ATOM     57  C   UNL A   1      46.461  30.253  26.527  1.00  0.00     0.031 C 
ATOM     58  C   UNL A   1      42.275  32.742  30.148  1.00  0.00     0.029 A 
ATOM     59  C   UNL A   1      42.969  31.850  29.347  1.00  0.00     0.049 A 
ATOM     60  H   UNL A   1      42.466  29.872  28.810  1.00  0.00     0.167 HD
ATOM     61  C   UNL A   1      44.846  31.107  27.910  1.00  0.00     0.074 A 
ATOM     62  C   UNL A   1      46.101  31.322  27.224  1.00  0.00     0.031 C 
ATOM     63  C   UNL A   1      44.218  32.045  28.660  1.00  0.00     0.031 A 
BRANCH  50  64
ATOM     64  C   UNL A   1      38.831  30.177  31.017  1.00  0.00    -0.014 A 
ATOM     65  C   UNL A   1      38.765  29.923  32.396  1.00  0.00     0.009 A 
ATOM     66  C   UNL A   1      37.738  30.789  30.382  1.00  0.00     0.009 A 
ATOM     67  C   UNL A   1      37.615  30.251  33.118  1.00  0.00     0.001 A 
ATOM     68  C   UNL A   1      36.602  31.138  31.112  1.00  0.00     0.001 A 
ATOM     69  C   UNL A   1      36.537  30.863  32.476  1.00  0.00     0.000 A 
ENDBRANCH  50  64
BRANCH  51  70
ATOM     70  C   UNL A   1      46.675  27.554  25.437  1.00  0.00    -0.014 A 
ATOM     71  C   UNL A   1      47.799  26.921  25.988  1.00  0.00     0.009 A 
ATOM     72  C   UNL A   1      46.682  27.880  24.071  1.00  0.00     0.009 A 
ATOM     73  C   UNL A   1      48.917  26.647  25.195  1.00  0.00     0.001 A 
ATOM     74  C   UNL A   1      47.790  27.580  23.275  1.00  0.00     0.001 A 
ATOM     75  C   UNL A   1      48.909  26.974  23.840  1.00  0.00     0.000 A 
ENDBRANCH  51  70
BRANCH  63  76
ATOM     76  C   UNL A   1      44.898  33.377  28.812  1.00  0.00    -0.014 A 
ATOM     77  C   UNL A   1      44.540  34.473  28.013  1.00  0.00     0.009 A 
ATOM     78  C   UNL A   1      45.879  33.547  29.802  1.00  0.00     0.009 A 
ATOM     79  C   UNL A   1      45.173  35.706  28.184  1.00  0.00     0.001 A 
ATOM     80  C   UNL A   1      46.490  34.787  29.989  1.00  0.00     0.001 A 
ATOM     81  C   UNL A   1      46.143  35.863  29.174  1.00  0.00     0.000 A 
ENDBRANCH  63  76
ENDBRANCH  37  38
ENDBRANCH  30  32
ENDBRANCH  29  30
ENDBRANCH  28  29
ENDBRANCH  27  28
ENDBRANCH  26  27
ENDBRANCH   1  26
TORSDOF 17
ENDMDL
MODEL 2
REMARK VINA RESULT:     -11.0      0.508      5.864
REMARK SMILES COc1cccc(NC(=O)NC2(C(=O)OCCOCCOC(=O)c3ccc(-c4c5nc(c(-c6ccccc6)c6ccc([nH]6)c(-c6ccccc6)c6nc(c(-c7ccccc7)c7ccc4[nH]7)C=C6)C=C5)cc3)CCCCC2)c1
REMARK SMILES IDX 17 1 16 2 15 3 13 4 14 5 12 6 72 7 76 8 73 9 75 10 74 11
REMARK SMILES IDX 11 12 8 13 9 14 10 16 7 18 3 19 4 20 77 21 5 22 6 23 2 24
REMARK SMILES IDX 1 25 18 26 19 27 20 28 21 29 22 30 23 31 24 32 25 33 71 34
REMARK SMILES IDX 26 35 70 36 27 37 28 38 29 39 64 40 30 41 69 42 63 43 65 44
REMARK SMILES IDX 31 45 68 46 62 47 61 48 32 50 54 51 39 52 53 53 40 54 43 55
REMARK SMILES IDX 52 56 66 57 41 58 42 59 51 61 67 62 44 63 33 64 34 65 38 66
REMARK SMILES IDX 35 67 37 68 36 69 55 70 56 71 60 72 57 73 59 74 58 75 45 76
REMARK SMILES IDX 46 77 50 78 47 79 49 80 48 81
REMARK H PARENT 8 15 11 17 65 49 43 60
REMARK Flexibility Score: inf
ROOT
ATOM      1  C   UNL A   1      33.813  19.797  24.968  1.00  0.00     0.202 C 
ENDROOT
BRANCH   1   2
ATOM      2  C   UNL A   1      33.076  21.091  24.673  1.00  0.00     0.261 C 
BRANCH   2   3
ATOM      3  O   UNL A   1      33.372  21.895  23.517  1.00  0.00    -0.461 OA
BRANCH   3   4
ATOM      4  C   UNL A   1      32.412  22.821  23.307  1.00  0.00     0.331 C 
ATOM      5  O   UNL A   1      31.229  22.508  23.170  1.00  0.00    -0.249 OA
BRANCH   4   6
ATOM      6  C   UNL A   1      32.831  24.309  23.290  1.00  0.00     0.139 C 
ATOM      7  C   UNL A   1      34.101  24.989  23.798  1.00  0.00     0.040 C 
ATOM      8  C   UNL A   1      31.684  24.981  24.122  1.00  0.00     0.040 C 
ATOM      9  C   UNL A   1      34.407  24.876  25.275  1.00  0.00     0.003 C 
ATOM     10  C   UNL A   1      31.920  24.829  25.643  1.00  0.00     0.003 C 
ATOM     11  C   UNL A   1      33.252  25.415  26.098  1.00  0.00     0.000 C 
BRANCH   6  12
ATOM     12  N   UNL A   1      32.750  24.628  21.823  1.00  0.00    -0.322 N 
ATOM     13  N   UNL A   1      33.021  27.012  21.545  1.00  0.00    -0.308 N 
ATOM     14  C   UNL A   1      32.811  25.758  21.073  1.00  0.00     0.320 C 
ATOM     15  H   UNL A   1      33.718  27.483  21.034  1.00  0.00     0.171 HD
ATOM     16  O   UNL A   1      32.904  25.586  19.852  1.00  0.00    -0.248 OA
ATOM     17  H   UNL A   1      32.621  23.822  21.273  1.00  0.00     0.166 HD
BRANCH  13  18
ATOM     18  C   UNL A   1      32.499  27.815  22.580  1.00  0.00     0.046 A 
ATOM     19  C   UNL A   1      32.901  28.938  24.697  1.00  0.00     0.120 A 
ATOM     20  C   UNL A   1      31.533  28.985  24.944  1.00  0.00     0.046 A 
ATOM     21  C   UNL A   1      33.390  28.402  23.495  1.00  0.00     0.072 A 
ATOM     22  C   UNL A   1      30.653  28.597  23.941  1.00  0.00     0.006 A 
ATOM     23  C   UNL A   1      31.146  28.060  22.745  1.00  0.00     0.026 A 
BRANCH  19  24
ATOM     24  O   UNL A   1      33.731  29.102  25.777  1.00  0.00    -0.497 OA
ATOM     25  C   UNL A   1      33.034  29.010  27.012  1.00  0.00     0.278 C 
ENDBRANCH  19  24
ENDBRANCH  13  18
ENDBRANCH   6  12
ENDBRANCH   4   6
ENDBRANCH   3   4
ENDBRANCH   2   3
ENDBRANCH   1   2
BRANCH   1  26
ATOM     26  O   UNL A   1      35.190  19.650  24.658  1.00  0.00    -0.374 OA
BRANCH  26  27
ATOM     27  C   UNL A   1      36.122  20.640  25.050  1.00  0.00     0.202 C 
BRANCH  27  28
ATOM     28  C   UNL A   1      37.628  20.328  24.989  1.00  0.00     0.261 C 
BRANCH  28  29
ATOM     29  O   UNL A   1      38.505  21.443  25.203  1.00  0.00    -0.460 OA
BRANCH  29  30
ATOM     30  C   UNL A   1      39.474  21.217  26.128  1.00  0.00     0.338 C 
ATOM     31  O   UNL A   1      40.104  20.191  26.306  1.00  0.00    -0.246 OA
BRANCH  30  32
ATOM     32  C   UNL A   1      39.796  22.484  26.820  1.00  0.00     0.060 A 
ATOM     33  C   UNL A   1      39.040  23.620  26.495  1.00  0.00     0.016 A 
ATOM     34  C   UNL A   1      40.859  22.570  27.719  1.00  0.00     0.016 A 
ATOM     35  C   UNL A   1      39.374  24.860  27.033  1.00  0.00     0.010 A 
ATOM     36  C   UNL A   1      41.221  23.823  28.225  1.00  0.00     0.010 A 
ATOM     37  C   UNL A   1      40.508  24.976  27.846  1.00  0.00    -0.014 A 
BRANCH  37  38
ATOM     38  C   UNL A   1      41.084  26.322  28.070  1.00  0.00     0.031 A 
ATOM     39  C   UNL A   1      42.412  26.632  27.431  1.00  0.00     0.074 A 
ATOM     40  C   UNL A   1      40.431  27.266  28.768  1.00  0.00     0.049 A 
ATOM     41  N   UNL A   1      43.127  27.727  27.492  1.00  0.00    -0.248 NA
ATOM     42  C   UNL A   1      43.010  25.566  26.610  1.00  0.00     0.031 C 
ATOM     43  C   UNL A   1      39.108  27.115  29.372  1.00  0.00     0.029 A 
ATOM     44  N   UNL A   1      40.803  28.548  29.082  1.00  0.00    -0.354 N 
ATOM     45  C   UNL A   1      44.260  27.475  26.727  1.00  0.00     0.074 A 
ATOM     46  C   UNL A   1      44.149  26.123  26.228  1.00  0.00     0.031 C 
ATOM     47  C   UNL A   1      38.784  28.263  29.994  1.00  0.00     0.029 A 
ATOM     48  C   UNL A   1      39.887  29.213  29.858  1.00  0.00     0.049 A 
ATOM     49  H   UNL A   1      41.647  28.954  28.778  1.00  0.00     0.167 HD
ATOM     50  C   UNL A   1      45.303  28.296  26.464  1.00  0.00     0.031 A 
ATOM     51  C   UNL A   1      39.947  30.439  30.414  1.00  0.00     0.031 A 
ATOM     52  C   UNL A   1      45.422  29.637  26.964  1.00  0.00     0.049 A 
ATOM     53  C   UNL A   1      41.162  31.300  30.181  1.00  0.00     0.074 A 
ATOM     54  C   UNL A   1      46.436  30.552  26.743  1.00  0.00     0.029 A 
ATOM     55  N   UNL A   1      44.499  30.250  27.795  1.00  0.00    -0.354 N 
ATOM     56  N   UNL A   1      42.219  31.059  29.445  1.00  0.00    -0.248 NA
ATOM     57  C   UNL A   1      41.187  32.606  30.858  1.00  0.00     0.031 C 
ATOM     58  C   UNL A   1      46.152  31.702  27.487  1.00  0.00     0.029 A 
ATOM     59  C   UNL A   1      44.935  31.522  28.123  1.00  0.00     0.049 A 
ATOM     60  H   UNL A   1      43.658  29.843  28.105  1.00  0.00     0.167 HD
ATOM     61  C   UNL A   1      43.019  32.191  29.546  1.00  0.00     0.074 A 
ATOM     62  C   UNL A   1      42.320  33.123  30.404  1.00  0.00     0.031 C 
ATOM     63  C   UNL A   1      44.224  32.437  28.977  1.00  0.00     0.031 A 
BRANCH  50  64
ATOM     64  C   UNL A   1      46.424  27.742  25.632  1.00  0.00    -0.014 A 
ATOM     65  C   UNL A   1      46.498  27.981  24.250  1.00  0.00     0.009 A 
ATOM     66  C   UNL A   1      47.438  26.994  26.251  1.00  0.00     0.009 A 
ATOM     67  C   UNL A   1      47.554  27.456  23.501  1.00  0.00     0.001 A 
ATOM     68  C   UNL A   1      48.504  26.494  25.503  1.00  0.00     0.001 A 
ATOM     69  C   UNL A   1      48.557  26.718  24.129  1.00  0.00     0.000 A 
ENDBRANCH  50  64
BRANCH  51  70
ATOM     70  C   UNL A   1      38.840  30.923  31.281  1.00  0.00    -0.014 A 
ATOM     71  C   UNL A   1      38.813  30.619  32.650  1.00  0.00     0.009 A 
ATOM     72  C   UNL A   1      37.781  31.662  30.729  1.00  0.00     0.009 A 
ATOM     73  C   UNL A   1      37.734  31.021  33.443  1.00  0.00     0.001 A 
ATOM     74  C   UNL A   1      36.718  32.085  31.530  1.00  0.00     0.001 A 
ATOM     75  C   UNL A   1      36.691  31.756  32.883  1.00  0.00     0.000 A 
ENDBRANCH  51  70
BRANCH  63  76
ATOM     76  C   UNL A   1      44.847  33.781  29.231  1.00  0.00    -0.014 A 
ATOM     77  C   UNL A   1      45.733  33.984  30.300  1.00  0.00     0.009 A 
ATOM     78  C   UNL A   1      44.577  34.848  28.359  1.00  0.00     0.009 A 
ATOM     79  C   UNL A   1      46.313  35.238  30.507  1.00  0.00     0.001 A 
ATOM     80  C   UNL A   1      45.179  36.091  28.550  1.00  0.00     0.001 A 
ATOM     81  C   UNL A   1      46.039  36.288  29.630  1.00  0.00     0.000 A 
ENDBRANCH  63  76
ENDBRANCH  37  38
ENDBRANCH  30  32
ENDBRANCH  29  30
ENDBRANCH  28  29
ENDBRANCH  27  28
ENDBRANCH  26  27
ENDBRANCH   1  26
TORSDOF 17
ENDMDL
MODEL 3
REMARK VINA RESULT:     -11.0      2.228      5.940
REMARK SMILES COc1cccc(NC(=O)NC2(C(=O)OCCOCCOC(=O)c3ccc(-c4c5nc(c(-c6ccccc6)c6ccc([nH]6)c(-c6ccccc6)c6nc(c(-c7ccccc7)c7ccc4[nH]7)C=C6)C=C5)cc3)CCCCC2)c1
REMARK SMILES IDX 17 1 16 2 15 3 13 4 14 5 12 6 72 7 76 8 73 9 75 10 74 11
REMARK SMILES IDX 11 12 8 13 9 14 10 16 7 18 3 19 4 20 77 21 5 22 6 23 2 24
REMARK SMILES IDX 1 25 18 26 19 27 20 28 21 29 22 30 23 31 24 32 25 33 71 34
REMARK SMILES IDX 26 35 70 36 27 37 28 38 29 39 64 40 30 41 69 42 63 43 65 44
REMARK SMILES IDX 31 45 68 46 62 47 61 48 32 50 54 51 39 52 53 53 40 54 43 55
REMARK SMILES IDX 52 56 66 57 41 58 42 59 51 61 67 62 44 63 33 64 34 65 38 66
REMARK SMILES IDX 35 67 37 68 36 69 55 70 56 71 60 72 57 73 59 74 58 75 45 76
REMARK SMILES IDX 46 77 50 78 47 79 49 80 48 81
REMARK H PARENT 8 15 11 17 65 49 43 60
REMARK Flexibility Score: inf
ROOT
ATOM      1  C   UNL A   1      36.258  21.994  24.358  1.00  0.00     0.202 C 
ENDROOT
BRANCH   1   2
ATOM      2  C   UNL A   1      36.200  23.327  23.632  1.00  0.00     0.261 C 
BRANCH   2   3
ATOM      3  O   UNL A   1      35.103  23.684  22.773  1.00  0.00    -0.461 OA
BRANCH   3   4
ATOM      4  C   UNL A   1      34.126  24.309  23.464  1.00  0.00     0.331 C 
ATOM      5  O   UNL A   1      34.379  25.127  24.350  1.00  0.00    -0.249 OA
BRANCH   4   6
ATOM      6  C   UNL A   1      32.660  24.008  23.080  1.00  0.00     0.139 C 
ATOM      7  C   UNL A   1      31.350  24.542  23.659  1.00  0.00     0.040 C 
ATOM      8  C   UNL A   1      32.572  22.460  23.314  1.00  0.00     0.040 C 
ATOM      9  C   UNL A   1      31.071  24.261  25.118  1.00  0.00     0.003 C 
ATOM     10  C   UNL A   1      32.355  22.121  24.807  1.00  0.00     0.003 C 
ATOM     11  C   UNL A   1      31.100  22.768  25.386  1.00  0.00     0.000 C 
BRANCH   6  12
ATOM     12  N   UNL A   1      32.648  24.378  21.622  1.00  0.00    -0.322 N 
ATOM     13  N   UNL A   1      33.018  26.757  21.437  1.00  0.00    -0.308 N 
ATOM     14  C   UNL A   1      32.780  25.528  20.914  1.00  0.00     0.320 C 
ATOM     15  H   UNL A   1      33.751  27.218  20.968  1.00  0.00     0.171 HD
ATOM     16  O   UNL A   1      32.915  25.394  19.692  1.00  0.00    -0.248 OA
ATOM     17  H   UNL A   1      32.510  23.596  21.041  1.00  0.00     0.166 HD
BRANCH  13  18
ATOM     18  C   UNL A   1      32.485  27.545  22.477  1.00  0.00     0.046 A 
ATOM     19  C   UNL A   1      32.901  28.754  24.545  1.00  0.00     0.120 A 
ATOM     20  C   UNL A   1      31.548  28.702  24.860  1.00  0.00     0.046 A 
ATOM     21  C   UNL A   1      33.372  28.225  23.332  1.00  0.00     0.072 A 
ATOM     22  C   UNL A   1      30.653  28.219  23.912  1.00  0.00     0.006 A 
ATOM     23  C   UNL A   1      31.127  27.690  22.705  1.00  0.00     0.026 A 
BRANCH  19  24
ATOM     24  O   UNL A   1      33.768  29.011  25.577  1.00  0.00    -0.497 OA
ATOM     25  C   UNL A   1      33.773  27.973  26.548  1.00  0.00     0.278 C 
ENDBRANCH  19  24
ENDBRANCH  13  18
ENDBRANCH   6  12
ENDBRANCH   4   6
ENDBRANCH   3   4
ENDBRANCH   2   3
ENDBRANCH   1   2
BRANCH   1  26
ATOM     26  O   UNL A   1      37.496  21.351  24.617  1.00  0.00    -0.374 OA
BRANCH  26  27
ATOM     27  C   UNL A   1      37.567  19.941  24.700  1.00  0.00     0.202 C 
BRANCH  27  28
ATOM     28  C   UNL A   1      38.795  19.282  25.355  1.00  0.00     0.261 C 
BRANCH  28  29
ATOM     29  O   UNL A   1      39.566  20.124  26.222  1.00  0.00    -0.460 OA
BRANCH  29  30
ATOM     30  C   UNL A   1      40.907  19.926  26.140  1.00  0.00     0.338 C 
ATOM     31  O   UNL A   1      41.488  18.983  25.634  1.00  0.00    -0.246 OA
BRANCH  30  32
ATOM     32  C   UNL A   1      41.612  21.134  26.623  1.00  0.00     0.060 A 
ATOM     33  C   UNL A   1      41.641  21.368  28.005  1.00  0.00     0.016 A 
ATOM     34  C   UNL A   1      42.175  22.050  25.735  1.00  0.00     0.016 A 
ATOM     35  C   UNL A   1      42.192  22.545  28.504  1.00  0.00     0.010 A 
ATOM     36  C   UNL A   1      42.689  23.251  26.233  1.00  0.00     0.010 A 
ATOM     37  C   UNL A   1      42.656  23.520  27.614  1.00  0.00    -0.014 A 
BRANCH  37  38
ATOM     38  C   UNL A   1      42.851  24.901  28.115  1.00  0.00     0.031 A 
ATOM     39  C   UNL A   1      44.251  25.328  28.470  1.00  0.00     0.074 A 
ATOM     40  C   UNL A   1      41.834  25.775  28.200  1.00  0.00     0.049 A 
ATOM     41  N   UNL A   1      44.676  26.472  28.943  1.00  0.00    -0.248 NA
ATOM     42  C   UNL A   1      45.314  24.330  28.259  1.00  0.00     0.031 C 
ATOM     43  C   UNL A   1      40.449  25.508  27.817  1.00  0.00     0.029 A 
ATOM     44  N   UNL A   1      41.821  27.074  28.641  1.00  0.00    -0.354 N 
ATOM     45  C   UNL A   1      46.050  26.326  29.094  1.00  0.00     0.074 A 
ATOM     46  C   UNL A   1      46.387  24.983  28.681  1.00  0.00     0.031 C 
ATOM     47  C   UNL A   1      39.716  26.612  28.049  1.00  0.00     0.029 A 
ATOM     48  C   UNL A   1      40.574  27.647  28.626  1.00  0.00     0.049 A 
ATOM     49  H   UNL A   1      42.629  27.550  28.938  1.00  0.00     0.167 HD
ATOM     50  C   UNL A   1      46.953  27.231  29.538  1.00  0.00     0.031 A 
ATOM     51  C   UNL A   1      40.171  28.860  29.052  1.00  0.00     0.031 A 
ATOM     52  C   UNL A   1      46.622  28.564  29.956  1.00  0.00     0.049 A 
ATOM     53  C   UNL A   1      41.183  29.817  29.628  1.00  0.00     0.074 A 
ATOM     54  C   UNL A   1      47.469  29.560  30.410  1.00  0.00     0.029 A 
ATOM     55  N   UNL A   1      45.339  29.085  29.980  1.00  0.00    -0.354 N 
ATOM     56  N   UNL A   1      42.480  29.675  29.751  1.00  0.00    -0.248 NA
ATOM     57  C   UNL A   1      40.670  31.104  30.123  1.00  0.00     0.031 C 
ATOM     58  C   UNL A   1      46.689  30.666  30.762  1.00  0.00     0.029 A 
ATOM     59  C   UNL A   1      45.365  30.378  30.472  1.00  0.00     0.049 A 
ATOM     60  H   UNL A   1      44.529  28.607  29.688  1.00  0.00     0.167 HD
ATOM     61  C   UNL A   1      42.941  30.863  30.309  1.00  0.00     0.074 A 
ATOM     62  C   UNL A   1      41.787  31.717  30.487  1.00  0.00     0.031 C 
ATOM     63  C   UNL A   1      44.207  31.215  30.640  1.00  0.00     0.031 A 
BRANCH  50  64
ATOM     64  C   UNL A   1      48.383  26.785  29.638  1.00  0.00    -0.014 A 
ATOM     65  C   UNL A   1      49.296  27.010  28.596  1.00  0.00     0.009 A 
ATOM     66  C   UNL A   1      48.829  26.156  30.812  1.00  0.00     0.009 A 
ATOM     67  C   UNL A   1      50.622  26.588  28.717  1.00  0.00     0.001 A 
ATOM     68  C   UNL A   1      50.160  25.758  30.939  1.00  0.00     0.001 A 
ATOM     69  C   UNL A   1      51.053  25.967  29.890  1.00  0.00     0.000 A 
ENDBRANCH  50  64
BRANCH  51  70
ATOM     70  C   UNL A   1      38.734  29.237  28.989  1.00  0.00    -0.014 A 
ATOM     71  C   UNL A   1      38.188  29.798  27.825  1.00  0.00     0.009 A 
ATOM     72  C   UNL A   1      37.909  29.071  30.113  1.00  0.00     0.009 A 
ATOM     73  C   UNL A   1      36.853  30.212  27.798  1.00  0.00     0.001 A 
ATOM     74  C   UNL A   1      36.569  29.460  30.074  1.00  0.00     0.001 A 
ATOM     75  C   UNL A   1      36.045  30.039  28.921  1.00  0.00     0.000 A 
ENDBRANCH  51  70
BRANCH  63  76
ATOM     76  C   UNL A   1      44.418  32.596  31.194  1.00  0.00    -0.014 A 
ATOM     77  C   UNL A   1      44.697  33.684  30.353  1.00  0.00     0.009 A 
ATOM     78  C   UNL A   1      44.288  32.818  32.574  1.00  0.00     0.009 A 
ATOM     79  C   UNL A   1      44.871  34.962  30.889  1.00  0.00     0.001 A 
ATOM     80  C   UNL A   1      44.434  34.100  33.103  1.00  0.00     0.001 A 
ATOM     81  C   UNL A   1      44.735  35.170  32.262  1.00  0.00     0.000 A 
ENDBRANCH  63  76
ENDBRANCH  37  38
ENDBRANCH  30  32
ENDBRANCH  29  30
ENDBRANCH  28  29
ENDBRANCH  27  28
ENDBRANCH  26  27
ENDBRANCH   1  26
TORSDOF 17
ENDMDL
