MODEL 1
REMARK VINA RESULT:      -9.3      0.000      0.000
REMARK SMILES O=C(Cn1nc(-c2ccco2)ccc1=O)OCCOCCOC(=O)c1ccc(-c2c3nc(c(-c4ccccc4)c4ccc([nH]4)c(-c4ccccc4)c4nc(c(-c5ccccc5)c5ccc2[nH]5)C=C4)C=C3)cc1
REMARK SMILES IDX 19 1 18 2 17 3 16 4 2 5 1 6 3 7 4 8 5 9 14 10 6 11 13 12
REMARK SMILES IDX 15 13 12 14 7 15 8 16 11 17 9 18 10 19 20 20 21 21 22 22
REMARK SMILES IDX 23 23 24 24 25 25 26 26 72 27 27 28 71 29 28 30 29 31 30 32
REMARK SMILES IDX 65 33 31 34 70 35 64 36 66 37 32 38 69 39 63 40 62 41 33 43
REMARK SMILES IDX 55 44 40 45 54 46 41 47 44 48 53 49 67 50 42 51 43 52 52 54
REMARK SMILES IDX 68 55 45 56 34 57 35 58 39 59 36 60 38 61 37 62 56 63 57 64
REMARK SMILES IDX 61 65 58 66 60 67 59 68 46 69 47 70 51 71 48 72 50 73 49 74
REMARK H PARENT 66 42 44 53
REMARK Flexibility Score: inf
ROOT
ATOM      1  O   UNL A   1      34.038  35.514  28.508  1.00  0.00    -0.374 OA
ENDROOT
BRANCH   1   2
ATOM      2  C   UNL A   1      33.191  35.345  29.640  1.00  0.00     0.202 C 
BRANCH   2   3
ATOM      3  C   UNL A   1      32.928  36.594  30.481  1.00  0.00     0.261 C 
BRANCH   3   4
ATOM      4  O   UNL A   1      32.791  36.358  31.891  1.00  0.00    -0.462 OA
BRANCH   4   5
ATOM      5  C   UNL A   1      33.676  36.768  32.832  1.00  0.00     0.328 C 
ATOM      6  O   UNL A   1      33.904  37.978  32.931  1.00  0.00    -0.250 OA
BRANCH   5   7
ATOM      7  C   UNL A   1      34.472  35.771  33.672  1.00  0.00     0.270 C 
BRANCH   7   8
ATOM      8  N   UNL A   1      35.093  34.674  32.949  1.00  0.00    -0.218 N 
ATOM      9  N   UNL A   1      36.370  34.873  32.447  1.00  0.00    -0.166 NA
ATOM     10  C   UNL A   1      34.373  33.497  32.809  1.00  0.00     0.267 A 
ATOM     11  C   UNL A   1      36.846  33.965  31.650  1.00  0.00     0.126 A 
ATOM     12  C   UNL A   1      34.969  32.482  31.921  1.00  0.00     0.076 A 
ATOM     13  O   UNL A   1      33.276  33.285  33.314  1.00  0.00    -0.268 OA
ATOM     14  C   UNL A   1      36.139  32.707  31.321  1.00  0.00     0.040 A 
BRANCH  11  15
ATOM     15  C   UNL A   1      38.115  34.194  31.004  1.00  0.00     0.154 A 
ATOM     16  C   UNL A   1      38.499  34.183  29.677  1.00  0.00     0.052 A 
ATOM     17  O   UNL A   1      39.211  34.433  31.792  1.00  0.00    -0.463 OA
ATOM     18  C   UNL A   1      39.892  34.446  29.654  1.00  0.00     0.043 A 
ATOM     19  C   UNL A   1      40.280  34.561  30.967  1.00  0.00     0.196 A 
ENDBRANCH  11  15
ENDBRANCH   7   8
ENDBRANCH   5   7
ENDBRANCH   4   5
ENDBRANCH   3   4
ENDBRANCH   2   3
ENDBRANCH   1   2
BRANCH   1  20
ATOM     20  C   UNL A   1      34.831  34.368  28.165  1.00  0.00     0.202 C 
BRANCH  20  21
ATOM     21  C   UNL A   1      34.118  33.019  28.321  1.00  0.00     0.261 C 
BRANCH  21  22
ATOM     22  O   UNL A   1      34.599  32.084  27.339  1.00  0.00    -0.460 OA
BRANCH  22  23
ATOM     23  C   UNL A   1      34.527  30.776  27.679  1.00  0.00     0.338 C 
ATOM     24  O   UNL A   1      33.692  29.962  27.319  1.00  0.00    -0.246 OA
BRANCH  23  25
ATOM     25  C   UNL A   1      35.775  30.406  28.382  1.00  0.00     0.060 A 
ATOM     26  C   UNL A   1      35.771  29.578  29.508  1.00  0.00     0.016 A 
ATOM     27  C   UNL A   1      36.977  30.949  27.907  1.00  0.00     0.016 A 
ATOM     28  C   UNL A   1      36.979  29.259  30.132  1.00  0.00     0.010 A 
ATOM     29  C   UNL A   1      38.183  30.629  28.530  1.00  0.00     0.010 A 
ATOM     30  C   UNL A   1      38.193  29.760  29.629  1.00  0.00    -0.014 A 
BRANCH  30  31
ATOM     31  C   UNL A   1      39.479  29.220  30.124  1.00  0.00     0.031 A 
ATOM     32  C   UNL A   1      40.180  29.801  31.311  1.00  0.00     0.074 A 
ATOM     33  C   UNL A   1      40.025  28.196  29.442  1.00  0.00     0.049 A 
ATOM     34  N   UNL A   1      41.290  29.401  31.878  1.00  0.00    -0.248 NA
ATOM     35  C   UNL A   1      39.569  30.979  31.943  1.00  0.00     0.031 C 
ATOM     36  C   UNL A   1      39.431  27.574  28.255  1.00  0.00     0.029 A 
ATOM     37  N   UNL A   1      41.186  27.495  29.641  1.00  0.00    -0.354 N 
ATOM     38  C   UNL A   1      41.506  30.265  32.942  1.00  0.00     0.074 A 
ATOM     39  C   UNL A   1      40.432  31.238  32.919  1.00  0.00     0.031 C 
ATOM     40  C   UNL A   1      40.215  26.565  27.851  1.00  0.00     0.029 A 
ATOM     41  C   UNL A   1      41.384  26.493  28.722  1.00  0.00     0.049 A 
ATOM     42  H   UNL A   1      41.816  27.689  30.372  1.00  0.00     0.167 HD
ATOM     43  C   UNL A   1      42.504  30.233  33.857  1.00  0.00     0.031 A 
ATOM     44  C   UNL A   1      42.393  25.611  28.589  1.00  0.00     0.031 A 
ATOM     45  C   UNL A   1      43.574  29.266  33.850  1.00  0.00     0.049 A 
ATOM     46  C   UNL A   1      43.513  25.632  29.586  1.00  0.00     0.074 A 
ATOM     47  C   UNL A   1      44.602  29.124  34.767  1.00  0.00     0.029 A 
ATOM     48  N   UNL A   1      43.765  28.295  32.879  1.00  0.00    -0.354 N 
ATOM     49  N   UNL A   1      43.661  26.403  30.636  1.00  0.00    -0.248 NA
ATOM     50  C   UNL A   1      44.600  24.662  29.392  1.00  0.00     0.031 C 
ATOM     51  C   UNL A   1      45.458  28.121  34.308  1.00  0.00     0.029 A 
ATOM     52  C   UNL A   1      44.920  27.581  33.151  1.00  0.00     0.049 A 
ATOM     53  H   UNL A   1      43.169  28.137  32.112  1.00  0.00     0.167 HD
ATOM     54  C   UNL A   1      44.845  26.001  31.239  1.00  0.00     0.074 A 
ATOM     55  C   UNL A   1      45.369  24.907  30.446  1.00  0.00     0.031 C 
ATOM     56  C   UNL A   1      45.439  26.499  32.350  1.00  0.00     0.031 A 
BRANCH  43  57
ATOM     57  C   UNL A   1      42.505  31.263  34.953  1.00  0.00    -0.014 A 
ATOM     58  C   UNL A   1      41.790  31.026  36.139  1.00  0.00     0.009 A 
ATOM     59  C   UNL A   1      43.100  32.521  34.763  1.00  0.00     0.009 A 
ATOM     60  C   UNL A   1      41.655  32.028  37.101  1.00  0.00     0.001 A 
ATOM     61  C   UNL A   1      42.988  33.512  35.740  1.00  0.00     0.001 A 
ATOM     62  C   UNL A   1      42.255  33.269  36.902  1.00  0.00     0.000 A 
ENDBRANCH  43  57
BRANCH  44  63
ATOM     63  C   UNL A   1      42.344  24.624  27.479  1.00  0.00    -0.014 A 
ATOM     64  C   UNL A   1      41.706  23.385  27.652  1.00  0.00     0.009 A 
ATOM     65  C   UNL A   1      43.012  24.878  26.272  1.00  0.00     0.009 A 
ATOM     66  C   UNL A   1      41.767  22.407  26.657  1.00  0.00     0.001 A 
ATOM     67  C   UNL A   1      43.045  23.909  25.264  1.00  0.00     0.001 A 
ATOM     68  C   UNL A   1      42.434  22.671  25.463  1.00  0.00     0.000 A 
ENDBRANCH  44  63
BRANCH  56  69
ATOM     69  C   UNL A   1      46.734  25.877  32.798  1.00  0.00    -0.014 A 
ATOM     70  C   UNL A   1      46.720  24.861  33.768  1.00  0.00     0.009 A 
ATOM     71  C   UNL A   1      47.966  26.389  32.367  1.00  0.00     0.009 A 
ATOM     72  C   UNL A   1      47.913  24.392  34.320  1.00  0.00     0.001 A 
ATOM     73  C   UNL A   1      49.159  25.896  32.898  1.00  0.00     0.001 A 
ATOM     74  C   UNL A   1      49.131  24.909  33.884  1.00  0.00     0.000 A 
ENDBRANCH  56  69
ENDBRANCH  30  31
ENDBRANCH  23  25
ENDBRANCH  22  23
ENDBRANCH  21  22
ENDBRANCH  20  21
ENDBRANCH   1  20
TORSDOF 16
ENDMDL
MODEL 2
REMARK VINA RESULT:      -8.9      6.237     11.440
REMARK SMILES O=C(Cn1nc(-c2ccco2)ccc1=O)OCCOCCOC(=O)c1ccc(-c2c3nc(c(-c4ccccc4)c4ccc([nH]4)c(-c4ccccc4)c4nc(c(-c5ccccc5)c5ccc2[nH]5)C=C4)C=C3)cc1
REMARK SMILES IDX 19 1 18 2 17 3 16 4 2 5 1 6 3 7 4 8 5 9 14 10 6 11 13 12
REMARK SMILES IDX 15 13 12 14 7 15 8 16 11 17 9 18 10 19 20 20 21 21 22 22
REMARK SMILES IDX 23 23 24 24 25 25 26 26 72 27 27 28 71 29 28 30 29 31 30 32
REMARK SMILES IDX 65 33 31 34 70 35 64 36 66 37 32 38 69 39 63 40 62 41 33 43
REMARK SMILES IDX 55 44 40 45 54 46 41 47 44 48 53 49 67 50 42 51 43 52 52 54
REMARK SMILES IDX 68 55 45 56 34 57 35 58 39 59 36 60 38 61 37 62 56 63 57 64
REMARK SMILES IDX 61 65 58 66 60 67 59 68 46 69 47 70 51 71 48 72 50 73 49 74
REMARK H PARENT 66 42 44 53
REMARK Flexibility Score: inf
ROOT
ATOM      1  O   UNL A   1      35.231  21.609  25.597  1.00  0.00    -0.374 OA
ENDROOT
BRANCH   1   2
ATOM      2  C   UNL A   1      34.546  21.498  26.841  1.00  0.00     0.202 C 
BRANCH   2   3
ATOM      3  C   UNL A   1      34.051  22.806  27.459  1.00  0.00     0.261 C 
BRANCH   3   4
ATOM      4  O   UNL A   1      32.660  22.821  27.815  1.00  0.00    -0.462 OA
BRANCH   4   5
ATOM      5  C   UNL A   1      31.686  23.433  27.099  1.00  0.00     0.328 C 
ATOM      6  O   UNL A   1      31.514  24.644  27.265  1.00  0.00    -0.250 OA
BRANCH   5   7
ATOM      7  C   UNL A   1      30.735  22.643  26.201  1.00  0.00     0.270 C 
BRANCH   7   8
ATOM      8  N   UNL A   1      31.342  21.953  25.074  1.00  0.00    -0.218 N 
ATOM      9  N   UNL A   1      31.613  20.602  25.216  1.00  0.00    -0.166 NA
ATOM     10  C   UNL A   1      31.607  22.688  23.929  1.00  0.00     0.267 A 
ATOM     11  C   UNL A   1      32.317  20.034  24.283  1.00  0.00     0.126 A 
ATOM     12  C   UNL A   1      32.379  21.992  22.884  1.00  0.00     0.076 A 
ATOM     13  O   UNL A   1      31.300  23.864  23.766  1.00  0.00    -0.268 OA
ATOM     14  C   UNL A   1      32.766  20.727  23.054  1.00  0.00     0.040 A 
BRANCH  11  15
ATOM     15  C   UNL A   1      32.732  18.663  24.454  1.00  0.00     0.154 A 
ATOM     16  C   UNL A   1      33.605  17.860  23.746  1.00  0.00     0.052 A 
ATOM     17  O   UNL A   1      32.165  17.934  25.467  1.00  0.00    -0.463 OA
ATOM     18  C   UNL A   1      33.581  16.587  24.367  1.00  0.00     0.043 A 
ATOM     19  C   UNL A   1      32.668  16.677  25.389  1.00  0.00     0.196 A 
ENDBRANCH  11  15
ENDBRANCH   7   8
ENDBRANCH   5   7
ENDBRANCH   4   5
ENDBRANCH   3   4
ENDBRANCH   2   3
ENDBRANCH   1   2
BRANCH   1  20
ATOM     20  C   UNL A   1      35.891  20.412  25.159  1.00  0.00     0.202 C 
BRANCH  20  21
ATOM     21  C   UNL A   1      37.363  20.592  24.768  1.00  0.00     0.261 C 
BRANCH  21  22
ATOM     22  O   UNL A   1      37.947  21.677  25.510  1.00  0.00    -0.460 OA
BRANCH  22  23
ATOM     23  C   UNL A   1      39.093  21.394  26.172  1.00  0.00     0.338 C 
ATOM     24  O   UNL A   1      39.681  20.325  26.214  1.00  0.00    -0.246 OA
BRANCH  23  25
ATOM     25  C   UNL A   1      39.676  22.664  26.660  1.00  0.00     0.060 A 
ATOM     26  C   UNL A   1      40.729  22.688  27.580  1.00  0.00     0.016 A 
ATOM     27  C   UNL A   1      39.111  23.861  26.200  1.00  0.00     0.016 A 
ATOM     28  C   UNL A   1      41.242  23.915  28.005  1.00  0.00     0.010 A 
ATOM     29  C   UNL A   1      39.625  25.085  26.624  1.00  0.00     0.010 A 
ATOM     30  C   UNL A   1      40.712  25.119  27.508  1.00  0.00    -0.014 A 
BRANCH  30  31
ATOM     31  C   UNL A   1      41.418  26.397  27.754  1.00  0.00     0.031 A 
ATOM     32  C   UNL A   1      42.762  26.688  27.167  1.00  0.00     0.074 A 
ATOM     33  C   UNL A   1      40.817  27.289  28.564  1.00  0.00     0.049 A 
ATOM     34  N   UNL A   1      43.474  27.781  27.266  1.00  0.00    -0.248 NA
ATOM     35  C   UNL A   1      43.394  25.624  26.373  1.00  0.00     0.031 C 
ATOM     36  C   UNL A   1      39.516  27.089  29.206  1.00  0.00     0.029 A 
ATOM     37  N   UNL A   1      41.208  28.535  28.983  1.00  0.00    -0.354 N 
ATOM     38  C   UNL A   1      44.632  27.548  26.537  1.00  0.00     0.074 A 
ATOM     39  C   UNL A   1      44.545  26.193  26.032  1.00  0.00     0.031 C 
ATOM     40  C   UNL A   1      39.202  28.184  29.911  1.00  0.00     0.029 A 
ATOM     41  C   UNL A   1      40.294  29.146  29.805  1.00  0.00     0.049 A 
ATOM     42  H   UNL A   1      42.061  28.950  28.719  1.00  0.00     0.167 HD
ATOM     43  C   UNL A   1      45.660  28.399  26.303  1.00  0.00     0.031 A 
ATOM     44  C   UNL A   1      40.326  30.348  30.411  1.00  0.00     0.031 A 
ATOM     45  C   UNL A   1      45.734  29.738  26.831  1.00  0.00     0.049 A 
ATOM     46  C   UNL A   1      41.502  31.250  30.178  1.00  0.00     0.074 A 
ATOM     47  C   UNL A   1      46.713  30.691  26.607  1.00  0.00     0.029 A 
ATOM     48  N   UNL A   1      44.811  30.307  27.696  1.00  0.00    -0.354 N 
ATOM     49  N   UNL A   1      42.552  31.047  29.418  1.00  0.00    -0.248 NA
ATOM     50  C   UNL A   1      41.500  32.545  30.871  1.00  0.00     0.031 C 
ATOM     51  C   UNL A   1      46.425  31.805  27.397  1.00  0.00     0.029 A 
ATOM     52  C   UNL A   1      45.223  31.581  28.050  1.00  0.00     0.049 A 
ATOM     53  H   UNL A   1      43.987  29.871  28.010  1.00  0.00     0.167 HD
ATOM     54  C   UNL A   1      43.326  32.194  29.527  1.00  0.00     0.074 A 
ATOM     55  C   UNL A   1      42.619  33.095  30.414  1.00  0.00     0.031 C 
ATOM     56  C   UNL A   1      44.516  32.468  28.941  1.00  0.00     0.031 A 
BRANCH  43  57
ATOM     57  C   UNL A   1      46.798  27.927  25.442  1.00  0.00    -0.014 A 
ATOM     58  C   UNL A   1      47.999  27.505  26.037  1.00  0.00     0.009 A 
ATOM     59  C   UNL A   1      46.735  28.022  24.042  1.00  0.00     0.009 A 
ATOM     60  C   UNL A   1      49.116  27.208  25.253  1.00  0.00     0.001 A 
ATOM     61  C   UNL A   1      47.845  27.697  23.259  1.00  0.00     0.001 A 
ATOM     62  C   UNL A   1      49.037  27.301  23.865  1.00  0.00     0.000 A 
ENDBRANCH  43  57
BRANCH  44  63
ATOM     63  C   UNL A   1      39.177  30.756  31.262  1.00  0.00    -0.014 A 
ATOM     64  C   UNL A   1      38.117  31.503  30.722  1.00  0.00     0.009 A 
ATOM     65  C   UNL A   1      39.177  30.478  32.637  1.00  0.00     0.009 A 
ATOM     66  C   UNL A   1      37.101  31.994  31.545  1.00  0.00     0.001 A 
ATOM     67  C   UNL A   1      38.142  30.944  33.453  1.00  0.00     0.001 A 
ATOM     68  C   UNL A   1      37.113  31.712  32.908  1.00  0.00     0.000 A 
ENDBRANCH  44  63
BRANCH  56  69
ATOM     69  C   UNL A   1      45.155  33.800  29.228  1.00  0.00    -0.014 A 
ATOM     70  C   UNL A   1      44.906  34.889  28.376  1.00  0.00     0.009 A 
ATOM     71  C   UNL A   1      46.103  33.940  30.251  1.00  0.00     0.009 A 
ATOM     72  C   UNL A   1      45.618  36.081  28.523  1.00  0.00     0.001 A 
ATOM     73  C   UNL A   1      46.791  35.144  30.415  1.00  0.00     0.001 A 
ATOM     74  C   UNL A   1      46.559  36.207  29.543  1.00  0.00     0.000 A 
ENDBRANCH  56  69
ENDBRANCH  30  31
ENDBRANCH  23  25
ENDBRANCH  22  23
ENDBRANCH  21  22
ENDBRANCH  20  21
ENDBRANCH   1  20
TORSDOF 16
ENDMDL
MODEL 3
REMARK VINA RESULT:      -8.8      6.248     10.461
REMARK SMILES O=C(Cn1nc(-c2ccco2)ccc1=O)OCCOCCOC(=O)c1ccc(-c2c3nc(c(-c4ccccc4)c4ccc([nH]4)c(-c4ccccc4)c4nc(c(-c5ccccc5)c5ccc2[nH]5)C=C4)C=C3)cc1
REMARK SMILES IDX 19 1 18 2 17 3 16 4 2 5 1 6 3 7 4 8 5 9 14 10 6 11 13 12
REMARK SMILES IDX 15 13 12 14 7 15 8 16 11 17 9 18 10 19 20 20 21 21 22 22
REMARK SMILES IDX 23 23 24 24 25 25 26 26 72 27 27 28 71 29 28 30 29 31 30 32
REMARK SMILES IDX 65 33 31 34 70 35 64 36 66 37 32 38 69 39 63 40 62 41 33 43
REMARK SMILES IDX 55 44 40 45 54 46 41 47 44 48 53 49 67 50 42 51 43 52 52 54
REMARK SMILES IDX 68 55 45 56 34 57 35 58 39 59 36 60 38 61 37 62 56 63 57 64
REMARK SMILES IDX 61 65 58 66 60 67 59 68 46 69 47 70 51 71 48 72 50 73 49 74
REMARK H PARENT 66 42 44 53
REMARK Flexibility Score: inf
ROOT
ATOM      1  O   UNL A   1      35.400  21.466  25.482  1.00  0.00    -0.374 OA
ENDROOT
BRANCH   1   2
ATOM      2  C   UNL A   1      34.534  21.499  26.611  1.00  0.00     0.202 C 
BRANCH   2   3
ATOM      3  C   UNL A   1      34.116  22.884  27.103  1.00  0.00     0.261 C 
BRANCH   3   4
ATOM      4  O   UNL A   1      32.805  22.952  27.685  1.00  0.00    -0.462 OA
BRANCH   4   5
ATOM      5  C   UNL A   1      31.704  23.429  27.055  1.00  0.00     0.328 C 
ATOM      6  O   UNL A   1      31.402  24.614  27.225  1.00  0.00    -0.250 OA
BRANCH   5   7
ATOM      7  C   UNL A   1      30.780  22.514  26.254  1.00  0.00     0.270 C 
BRANCH   7   8
ATOM      8  N   UNL A   1      31.376  21.839  25.113  1.00  0.00    -0.218 N 
ATOM      9  N   UNL A   1      31.637  20.483  25.230  1.00  0.00    -0.166 NA
ATOM     10  C   UNL A   1      31.643  22.591  23.979  1.00  0.00     0.267 A 
ATOM     11  C   UNL A   1      32.333  19.926  24.284  1.00  0.00     0.126 A 
ATOM     12  C   UNL A   1      32.406  21.907  22.920  1.00  0.00     0.076 A 
ATOM     13  O   UNL A   1      31.346  23.773  23.839  1.00  0.00    -0.268 OA
ATOM     14  C   UNL A   1      32.783  20.636  23.066  1.00  0.00     0.040 A 
BRANCH  11  15
ATOM     15  C   UNL A   1      32.737  18.549  24.430  1.00  0.00     0.154 A 
ATOM     16  C   UNL A   1      33.608  17.754  23.710  1.00  0.00     0.052 A 
ATOM     17  O   UNL A   1      32.159  17.803  25.424  1.00  0.00    -0.463 OA
ATOM     18  C   UNL A   1      33.572  16.468  24.305  1.00  0.00     0.043 A 
ATOM     19  C   UNL A   1      32.654  16.544  25.323  1.00  0.00     0.196 A 
ENDBRANCH  11  15
ENDBRANCH   7   8
ENDBRANCH   5   7
ENDBRANCH   4   5
ENDBRANCH   3   4
ENDBRANCH   2   3
ENDBRANCH   1   2
BRANCH   1  20
ATOM     20  C   UNL A   1      36.036  20.202  25.240  1.00  0.00     0.202 C 
BRANCH  20  21
ATOM     21  C   UNL A   1      37.470  20.291  24.705  1.00  0.00     0.261 C 
BRANCH  21  22
ATOM     22  O   UNL A   1      38.137  21.442  25.254  1.00  0.00    -0.460 OA
BRANCH  22  23
ATOM     23  C   UNL A   1      39.209  21.188  26.039  1.00  0.00     0.338 C 
ATOM     24  O   UNL A   1      39.793  20.125  26.176  1.00  0.00    -0.246 OA
BRANCH  23  25
ATOM     25  C   UNL A   1      39.734  22.476  26.545  1.00  0.00     0.060 A 
ATOM     26  C   UNL A   1      40.784  22.537  27.466  1.00  0.00     0.016 A 
ATOM     27  C   UNL A   1      39.115  23.653  26.099  1.00  0.00     0.016 A 
ATOM     28  C   UNL A   1      41.241  23.779  27.907  1.00  0.00     0.010 A 
ATOM     29  C   UNL A   1      39.573  24.893  26.540  1.00  0.00     0.010 A 
ATOM     30  C   UNL A   1      40.657  24.964  27.425  1.00  0.00    -0.014 A 
BRANCH  30  31
ATOM     31  C   UNL A   1      41.304  26.270  27.689  1.00  0.00     0.031 A 
ATOM     32  C   UNL A   1      40.645  27.331  28.511  1.00  0.00     0.074 A 
ATOM     33  C   UNL A   1      42.507  26.489  27.127  1.00  0.00     0.049 A 
ATOM     34  N   UNL A   1      41.114  28.503  28.856  1.00  0.00    -0.248 NA
ATOM     35  C   UNL A   1      39.290  27.052  29.009  1.00  0.00     0.031 C 
ATOM     36  C   UNL A   1      43.223  25.526  26.286  1.00  0.00     0.029 A 
ATOM     37  N   UNL A   1      43.342  27.575  27.176  1.00  0.00    -0.354 N 
ATOM     38  C   UNL A   1      40.123  29.098  29.624  1.00  0.00     0.074 A 
ATOM     39  C   UNL A   1      39.008  28.174  29.661  1.00  0.00     0.031 C 
ATOM     40  C   UNL A   1      44.402  26.051  25.925  1.00  0.00     0.029 A 
ATOM     41  C   UNL A   1      44.509  27.400  26.472  1.00  0.00     0.049 A 
ATOM     42  H   UNL A   1      43.127  28.400  27.668  1.00  0.00     0.167 HD
ATOM     43  C   UNL A   1      40.156  30.301  30.247  1.00  0.00     0.031 A 
ATOM     44  C   UNL A   1      45.553  28.229  26.284  1.00  0.00     0.031 A 
ATOM     45  C   UNL A   1      41.269  31.214  30.180  1.00  0.00     0.049 A 
ATOM     46  C   UNL A   1      45.540  29.576  26.943  1.00  0.00     0.074 A 
ATOM     47  C   UNL A   1      41.414  32.432  30.821  1.00  0.00     0.029 A 
ATOM     48  N   UNL A   1      42.415  31.020  29.423  1.00  0.00    -0.354 N 
ATOM     49  N   UNL A   1      44.630  30.093  27.734  1.00  0.00    -0.248 NA
ATOM     50  C   UNL A   1      46.693  30.453  26.697  1.00  0.00     0.031 C 
ATOM     51  C   UNL A   1      42.608  33.012  30.389  1.00  0.00     0.029 A 
ATOM     52  C   UNL A   1      43.249  32.120  29.544  1.00  0.00     0.049 A 
ATOM     53  H   UNL A   1      42.606  30.222  28.880  1.00  0.00     0.167 HD
ATOM     54  C   UNL A   1      45.107  31.345  28.095  1.00  0.00     0.074 A 
ATOM     55  C   UNL A   1      46.394  31.506  27.449  1.00  0.00     0.031 C 
ATOM     56  C   UNL A   1      44.525  32.274  28.890  1.00  0.00     0.031 A 
BRANCH  43  57
ATOM     57  C   UNL A   1      38.962  30.718  31.061  1.00  0.00    -0.014 A 
ATOM     58  C   UNL A   1      38.845  30.300  32.398  1.00  0.00     0.009 A 
ATOM     59  C   UNL A   1      37.892  31.411  30.474  1.00  0.00     0.009 A 
ATOM     60  C   UNL A   1      37.677  30.550  33.122  1.00  0.00     0.001 A 
ATOM     61  C   UNL A   1      36.736  31.684  31.209  1.00  0.00     0.001 A 
ATOM     62  C   UNL A   1      36.625  31.243  32.528  1.00  0.00     0.000 A 
ENDBRANCH  43  57
BRANCH  44  63
ATOM     63  C   UNL A   1      46.700  27.767  25.458  1.00  0.00    -0.014 A 
ATOM     64  C   UNL A   1      47.782  27.096  26.051  1.00  0.00     0.009 A 
ATOM     65  C   UNL A   1      46.759  28.072  24.091  1.00  0.00     0.009 A 
ATOM     66  C   UNL A   1      48.915  26.773  25.301  1.00  0.00     0.001 A 
ATOM     67  C   UNL A   1      47.881  27.719  23.336  1.00  0.00     0.001 A 
ATOM     68  C   UNL A   1      48.963  27.082  23.944  1.00  0.00     0.000 A 
ENDBRANCH  44  63
BRANCH  56  69
ATOM     69  C   UNL A   1      45.261  33.566  29.124  1.00  0.00    -0.014 A 
ATOM     70  C   UNL A   1      45.071  34.644  28.244  1.00  0.00     0.009 A 
ATOM     71  C   UNL A   1      46.238  33.668  30.124  1.00  0.00     0.009 A 
ATOM     72  C   UNL A   1      45.867  35.787  28.342  1.00  0.00     0.001 A 
ATOM     73  C   UNL A   1      47.011  34.825  30.239  1.00  0.00     0.001 A 
ATOM     74  C   UNL A   1      46.835  35.876  29.339  1.00  0.00     0.000 A 
ENDBRANCH  56  69
ENDBRANCH  30  31
ENDBRANCH  23  25
ENDBRANCH  22  23
ENDBRANCH  21  22
ENDBRANCH  20  21
ENDBRANCH   1  20
TORSDOF 16
ENDMDL
