MODEL 1
REMARK VINA RESULT:     -11.1      0.000      0.000
REMARK SMILES O=C(OCCOCCOC(=O)[C@H]1CC2=c3ccccc3=N[C@H]2[C@@H](c2ccccc2)[NH2+]1)c1ccc(-c2c3nc(c(-c4ccccc4)c4ccc([nH]4)c(-c4ccccc4)c4nc(c(-c5ccccc5)c5ccc2[nH]5)C=C4)C=C3)cc1
REMARK SMILES IDX 5 1 4 2 3 3 2 4 1 5 31 6 32 7 78 8 33 9 77 10 34 11 35 12
REMARK SMILES IDX 36 13 71 14 37 15 76 16 70 17 72 18 38 19 75 20 69 21 68 22
REMARK SMILES IDX 39 24 61 25 46 26 60 27 47 28 50 29 59 30 73 31 48 32 49 33
REMARK SMILES IDX 58 35 74 36 51 37 40 38 41 39 45 40 42 41 44 42 43 43 62 44
REMARK SMILES IDX 63 45 67 46 64 47 66 48 65 49 52 50 53 51 57 52 54 53 56 54
REMARK SMILES IDX 55 55 6 56 7 57 8 58 9 59 10 60 11 61 12 62 13 63 30 64
REMARK SMILES IDX 14 65 23 66 15 69 22 70 16 71 20 72 21 73 17 74 19 75 18 76
REMARK SMILES IDX 24 77 25 78 29 79 26 80 28 81 27 82
REMARK H PARENT 72 23 50 34 30 67 30 68
REMARK Flexibility Score: inf
ROOT
ATOM      1  C   UNL A   1      33.962  27.872  26.219  1.00  0.00     0.202 C 
ENDROOT
BRANCH   1   2
ATOM      2  C   UNL A   1      33.455  29.318  26.336  1.00  0.00     0.261 C 
BRANCH   2   3
ATOM      3  O   UNL A   1      33.603  29.938  27.617  1.00  0.00    -0.460 OA
BRANCH   3   4
ATOM      4  C   UNL A   1      34.595  30.814  27.928  1.00  0.00     0.338 C 
ATOM      5  O   UNL A   1      34.478  32.004  27.658  1.00  0.00    -0.246 OA
BRANCH   4   6
ATOM      6  C   UNL A   1      35.925  30.283  28.338  1.00  0.00     0.060 A 
ATOM      7  C   UNL A   1      36.933  30.245  27.361  1.00  0.00     0.016 A 
ATOM      8  C   UNL A   1      36.202  29.786  29.611  1.00  0.00     0.016 A 
ATOM      9  C   UNL A   1      38.167  29.654  27.645  1.00  0.00     0.010 A 
ATOM     10  C   UNL A   1      37.360  29.074  29.855  1.00  0.00     0.010 A 
ATOM     11  C   UNL A   1      38.366  29.047  28.889  1.00  0.00    -0.014 A 
BRANCH  11  12
ATOM     12  C   UNL A   1      39.698  28.668  29.375  1.00  0.00     0.031 A 
ATOM     13  C   UNL A   1      40.599  29.632  30.063  1.00  0.00     0.074 A 
ATOM     14  C   UNL A   1      40.127  27.460  28.969  1.00  0.00     0.049 A 
ATOM     15  N   UNL A   1      41.769  29.400  30.592  1.00  0.00    -0.248 NA
ATOM     16  C   UNL A   1      40.151  31.029  30.157  1.00  0.00     0.031 C 
ATOM     17  C   UNL A   1      39.336  26.526  28.157  1.00  0.00     0.029 A 
ATOM     18  N   UNL A   1      41.329  26.836  29.119  1.00  0.00    -0.354 N 
ATOM     19  C   UNL A   1      42.180  30.607  31.137  1.00  0.00     0.074 A 
ATOM     20  C   UNL A   1      41.166  31.588  30.806  1.00  0.00     0.031 C 
ATOM     21  C   UNL A   1      40.086  25.463  27.853  1.00  0.00     0.029 A 
ATOM     22  C   UNL A   1      41.386  25.619  28.488  1.00  0.00     0.049 A 
ATOM     23  H   UNL A   1      42.079  27.219  29.630  1.00  0.00     0.167 HD
ATOM     24  C   UNL A   1      43.295  30.840  31.868  1.00  0.00     0.031 A 
ATOM     25  C   UNL A   1      42.366  24.705  28.463  1.00  0.00     0.031 A 
ATOM     26  C   UNL A   1      44.313  29.839  32.089  1.00  0.00     0.049 A 
ATOM     27  C   UNL A   1      43.571  24.962  29.309  1.00  0.00     0.074 A 
ATOM     28  C   UNL A   1      45.450  29.918  32.872  1.00  0.00     0.029 A 
ATOM     29  N   UNL A   1      44.326  28.581  31.494  1.00  0.00    -0.354 N 
ATOM     30  N   UNL A   1      43.874  26.039  29.993  1.00  0.00    -0.248 NA
ATOM     31  C   UNL A   1      44.535  23.867  29.433  1.00  0.00     0.031 C 
ATOM     32  C   UNL A   1      46.183  28.740  32.693  1.00  0.00     0.029 A 
ATOM     33  C   UNL A   1      45.468  27.891  31.862  1.00  0.00     0.049 A 
ATOM     34  H   UNL A   1      43.624  28.233  30.897  1.00  0.00     0.167 HD
ATOM     35  C   UNL A   1      45.063  25.754  30.643  1.00  0.00     0.074 A 
ATOM     36  C   UNL A   1      45.401  24.384  30.293  1.00  0.00     0.031 C 
ATOM     37  C   UNL A   1      45.807  26.548  31.452  1.00  0.00     0.031 A 
BRANCH  24  38
ATOM     38  C   UNL A   1      43.462  32.194  32.508  1.00  0.00    -0.014 A 
ATOM     39  C   UNL A   1      42.889  32.472  33.758  1.00  0.00     0.009 A 
ATOM     40  C   UNL A   1      44.093  33.240  31.812  1.00  0.00     0.009 A 
ATOM     41  C   UNL A   1      42.927  33.765  34.289  1.00  0.00     0.001 A 
ATOM     42  C   UNL A   1      44.156  34.526  32.356  1.00  0.00     0.001 A 
ATOM     43  C   UNL A   1      43.562  34.790  33.589  1.00  0.00     0.000 A 
ENDBRANCH  24  38
BRANCH  25  44
ATOM     44  C   UNL A   1      42.116  23.431  27.747  1.00  0.00    -0.014 A 
ATOM     45  C   UNL A   1      42.501  23.279  26.404  1.00  0.00     0.009 A 
ATOM     46  C   UNL A   1      41.326  22.439  28.344  1.00  0.00     0.009 A 
ATOM     47  C   UNL A   1      42.073  22.173  25.666  1.00  0.00     0.001 A 
ATOM     48  C   UNL A   1      40.923  21.321  27.612  1.00  0.00     0.001 A 
ATOM     49  C   UNL A   1      41.285  21.196  26.271  1.00  0.00     0.000 A 
ENDBRANCH  25  44
BRANCH  37  50
ATOM     50  C   UNL A   1      47.093  25.965  31.967  1.00  0.00    -0.014 A 
ATOM     51  C   UNL A   1      47.127  25.322  33.213  1.00  0.00     0.009 A 
ATOM     52  C   UNL A   1      48.286  26.099  31.237  1.00  0.00     0.009 A 
ATOM     53  C   UNL A   1      48.329  24.830  33.721  1.00  0.00     0.001 A 
ATOM     54  C   UNL A   1      49.479  25.570  31.729  1.00  0.00     0.001 A 
ATOM     55  C   UNL A   1      49.500  24.944  32.974  1.00  0.00     0.000 A 
ENDBRANCH  37  50
ENDBRANCH  11  12
ENDBRANCH   4   6
ENDBRANCH   3   4
ENDBRANCH   2   3
ENDBRANCH   1   2
BRANCH   1  56
ATOM     56  O   UNL A   1      33.054  26.789  26.088  1.00  0.00    -0.374 OA
BRANCH  56  57
ATOM     57  C   UNL A   1      31.661  27.087  26.183  1.00  0.00     0.202 C 
BRANCH  57  58
ATOM     58  C   UNL A   1      30.723  25.911  26.482  1.00  0.00     0.261 C 
BRANCH  58  59
ATOM     59  O   UNL A   1      31.399  24.772  27.039  1.00  0.00    -0.459 OA
BRANCH  59  60
ATOM     60  C   UNL A   1      30.833  23.561  26.731  1.00  0.00     0.365 C 
ATOM     61  O   UNL A   1      29.856  23.085  27.281  1.00  0.00    -0.245 OA
BRANCH  60  62
ATOM     62  C   UNL A   1      31.592  22.868  25.584  1.00  0.00     0.298 C 
ATOM     63  C   UNL A   1      31.052  23.158  24.149  1.00  0.00     0.111 C 
ATOM     64  N   UNL A   1      33.028  23.181  25.774  1.00  0.00    -0.326 N 
ATOM     65  C   UNL A   1      32.011  24.012  23.394  1.00  0.00    -0.024 C 
ATOM     66  C   UNL A   1      33.825  22.758  24.599  1.00  0.00     0.243 C 
ATOM     67  H   UNL A   1      33.368  22.693  26.602  1.00  0.00     0.347 HD
ATOM     68  H   UNL A   1      33.127  24.191  25.887  1.00  0.00     0.347 HD
ATOM     69  C   UNL A   1      31.920  25.269  22.971  1.00  0.00     0.002 A 
ATOM     70  C   UNL A   1      33.414  23.479  23.273  1.00  0.00     0.196 C 
ATOM     71  C   UNL A   1      30.899  26.264  22.901  1.00  0.00     0.010 A 
ATOM     72  C   UNL A   1      33.335  25.597  22.711  1.00  0.00     0.066 A 
ATOM     73  N   UNL A   1      34.221  24.671  22.908  1.00  0.00    -0.270 NA
ATOM     74  C   UNL A   1      31.235  27.512  22.534  1.00  0.00     0.001 A 
ATOM     75  C   UNL A   1      33.624  26.990  22.311  1.00  0.00     0.028 A 
ATOM     76  C   UNL A   1      32.612  27.871  22.237  1.00  0.00     0.002 A 
BRANCH  66  77
ATOM     77  C   UNL A   1      35.297  22.810  24.938  1.00  0.00     0.012 A 
ATOM     78  C   UNL A   1      35.829  23.847  25.721  1.00  0.00     0.010 A 
ATOM     79  C   UNL A   1      36.146  21.781  24.511  1.00  0.00     0.010 A 
ATOM     80  C   UNL A   1      37.169  23.838  26.099  1.00  0.00     0.001 A 
ATOM     81  C   UNL A   1      37.489  21.778  24.881  1.00  0.00     0.001 A 
ATOM     82  C   UNL A   1      37.997  22.800  25.681  1.00  0.00     0.000 A 
ENDBRANCH  66  77
ENDBRANCH  60  62
ENDBRANCH  59  60
ENDBRANCH  58  59
ENDBRANCH  57  58
ENDBRANCH  56  57
ENDBRANCH   1  56
TORSDOF 15
ENDMDL
MODEL 2
REMARK VINA RESULT:     -10.8      2.586      7.484
REMARK SMILES O=C(OCCOCCOC(=O)[C@H]1CC2=c3ccccc3=N[C@H]2[C@@H](c2ccccc2)[NH2+]1)c1ccc(-c2c3nc(c(-c4ccccc4)c4ccc([nH]4)c(-c4ccccc4)c4nc(c(-c5ccccc5)c5ccc2[nH]5)C=C4)C=C3)cc1
REMARK SMILES IDX 5 1 4 2 3 3 2 4 1 5 31 6 32 7 78 8 33 9 77 10 34 11 35 12
REMARK SMILES IDX 36 13 71 14 37 15 76 16 70 17 72 18 38 19 75 20 69 21 68 22
REMARK SMILES IDX 39 24 61 25 46 26 60 27 47 28 50 29 59 30 73 31 48 32 49 33
REMARK SMILES IDX 58 35 74 36 51 37 40 38 41 39 45 40 42 41 44 42 43 43 62 44
REMARK SMILES IDX 63 45 67 46 64 47 66 48 65 49 52 50 53 51 57 52 54 53 56 54
REMARK SMILES IDX 55 55 6 56 7 57 8 58 9 59 10 60 11 61 12 62 13 63 30 64
REMARK SMILES IDX 14 65 23 66 15 69 22 70 16 71 20 72 21 73 17 74 19 75 18 76
REMARK SMILES IDX 24 77 25 78 29 79 26 80 28 81 27 82
REMARK H PARENT 72 23 50 34 30 67 30 68
REMARK Flexibility Score: inf
ROOT
ATOM      1  C   UNL A   1      35.274  21.964  26.099  1.00  0.00     0.202 C 
ENDROOT
BRANCH   1   2
ATOM      2  C   UNL A   1      36.694  21.860  25.520  1.00  0.00     0.261 C 
BRANCH   2   3
ATOM      3  O   UNL A   1      37.506  23.034  25.623  1.00  0.00    -0.460 OA
BRANCH   3   4
ATOM      4  C   UNL A   1      38.743  23.056  26.189  1.00  0.00     0.338 C 
ATOM      5  O   UNL A   1      39.362  22.013  26.365  1.00  0.00    -0.246 OA
BRANCH   4   6
ATOM      6  C   UNL A   1      39.214  24.308  26.843  1.00  0.00     0.060 A 
ATOM      7  C   UNL A   1      40.078  25.135  26.104  1.00  0.00     0.016 A 
ATOM      8  C   UNL A   1      38.886  24.673  28.148  1.00  0.00     0.016 A 
ATOM      9  C   UNL A   1      40.648  26.265  26.697  1.00  0.00     0.010 A 
ATOM     10  C   UNL A   1      39.555  25.700  28.784  1.00  0.00     0.010 A 
ATOM     11  C   UNL A   1      40.402  26.528  28.048  1.00  0.00    -0.014 A 
BRANCH  11  12
ATOM     12  C   UNL A   1      40.712  27.823  28.666  1.00  0.00     0.031 A 
ATOM     13  C   UNL A   1      39.727  28.936  28.721  1.00  0.00     0.074 A 
ATOM     14  C   UNL A   1      42.007  28.003  28.984  1.00  0.00     0.049 A 
ATOM     15  N   UNL A   1      39.863  30.101  29.294  1.00  0.00    -0.248 NA
ATOM     16  C   UNL A   1      38.441  28.737  28.038  1.00  0.00     0.031 C 
ATOM     17  C   UNL A   1      43.055  26.988  28.809  1.00  0.00     0.029 A 
ATOM     18  N   UNL A   1      42.674  29.094  29.453  1.00  0.00    -0.354 N 
ATOM     19  C   UNL A   1      38.659  30.759  29.096  1.00  0.00     0.074 A 
ATOM     20  C   UNL A   1      37.832  29.892  28.281  1.00  0.00     0.031 C 
ATOM     21  C   UNL A   1      44.238  27.518  29.134  1.00  0.00     0.029 A 
ATOM     22  C   UNL A   1      44.022  28.885  29.586  1.00  0.00     0.049 A 
ATOM     23  H   UNL A   1      42.232  29.946  29.675  1.00  0.00     0.167 HD
ATOM     24  C   UNL A   1      38.294  31.967  29.585  1.00  0.00     0.031 A 
ATOM     25  C   UNL A   1      44.979  29.693  30.066  1.00  0.00     0.031 A 
ATOM     26  C   UNL A   1      39.197  32.823  30.319  1.00  0.00     0.049 A 
ATOM     27  C   UNL A   1      44.550  31.004  30.639  1.00  0.00     0.074 A 
ATOM     28  C   UNL A   1      38.934  34.032  30.936  1.00  0.00     0.029 A 
ATOM     29  N   UNL A   1      40.551  32.567  30.504  1.00  0.00    -0.354 N 
ATOM     30  N   UNL A   1      43.356  31.550  30.628  1.00  0.00    -0.248 NA
ATOM     31  C   UNL A   1      45.571  31.782  31.341  1.00  0.00     0.031 C 
ATOM     32  C   UNL A   1      40.141  34.539  31.429  1.00  0.00     0.029 A 
ATOM     33  C   UNL A   1      41.145  33.612  31.192  1.00  0.00     0.049 A 
ATOM     34  H   UNL A   1      41.020  31.759  30.191  1.00  0.00     0.167 HD
ATOM     35  C   UNL A   1      43.476  32.736  31.331  1.00  0.00     0.074 A 
ATOM     36  C   UNL A   1      44.855  32.806  31.785  1.00  0.00     0.031 C 
ATOM     37  C   UNL A   1      42.535  33.681  31.580  1.00  0.00     0.031 A 
BRANCH  24  38
ATOM     38  C   UNL A   1      36.870  32.419  29.386  1.00  0.00    -0.014 A 
ATOM     39  C   UNL A   1      36.524  33.241  28.302  1.00  0.00     0.009 A 
ATOM     40  C   UNL A   1      35.887  32.124  30.345  1.00  0.00     0.009 A 
ATOM     41  C   UNL A   1      35.234  33.771  28.193  1.00  0.00     0.001 A 
ATOM     42  C   UNL A   1      34.590  32.631  30.220  1.00  0.00     0.001 A 
ATOM     43  C   UNL A   1      34.268  33.463  29.150  1.00  0.00     0.000 A 
ENDBRANCH  24  38
BRANCH  25  44
ATOM     44  C   UNL A   1      46.360  29.163  30.157  1.00  0.00    -0.014 A 
ATOM     45  C   UNL A   1      47.251  29.301  29.079  1.00  0.00     0.009 A 
ATOM     46  C   UNL A   1      46.728  28.357  31.244  1.00  0.00     0.009 A 
ATOM     47  C   UNL A   1      48.469  28.617  29.076  1.00  0.00     0.001 A 
ATOM     48  C   UNL A   1      47.958  27.697  31.250  1.00  0.00     0.001 A 
ATOM     49  C   UNL A   1      48.820  27.815  30.161  1.00  0.00     0.000 A 
ENDBRANCH  25  44
BRANCH  37  50
ATOM     50  C   UNL A   1      42.989  34.899  32.333  1.00  0.00    -0.014 A 
ATOM     51  C   UNL A   1      42.813  34.976  33.722  1.00  0.00     0.009 A 
ATOM     52  C   UNL A   1      43.547  35.996  31.656  1.00  0.00     0.009 A 
ATOM     53  C   UNL A   1      43.181  36.128  34.418  1.00  0.00     0.001 A 
ATOM     54  C   UNL A   1      43.951  37.131  32.359  1.00  0.00     0.001 A 
ATOM     55  C   UNL A   1      43.759  37.198  33.738  1.00  0.00     0.000 A 
ENDBRANCH  37  50
ENDBRANCH  11  12
ENDBRANCH   4   6
ENDBRANCH   3   4
ENDBRANCH   2   3
ENDBRANCH   1   2
BRANCH   1  56
ATOM     56  O   UNL A   1      34.271  22.720  25.439  1.00  0.00    -0.374 OA
BRANCH  56  57
ATOM     57  C   UNL A   1      33.894  22.304  24.126  1.00  0.00     0.202 C 
BRANCH  57  58
ATOM     58  C   UNL A   1      34.281  23.235  22.969  1.00  0.00     0.261 C 
BRANCH  58  59
ATOM     59  O   UNL A   1      34.438  24.605  23.372  1.00  0.00    -0.459 OA
BRANCH  59  60
ATOM     60  C   UNL A   1      33.596  25.488  22.744  1.00  0.00     0.365 C 
ATOM     61  O   UNL A   1      33.843  26.070  21.702  1.00  0.00    -0.245 OA
BRANCH  60  62
ATOM     62  C   UNL A   1      32.280  25.652  23.525  1.00  0.00     0.298 C 
ATOM     63  C   UNL A   1      32.416  25.652  25.080  1.00  0.00     0.111 C 
ATOM     64  N   UNL A   1      31.601  26.846  22.969  1.00  0.00    -0.326 N 
ATOM     65  C   UNL A   1      32.149  27.012  25.626  1.00  0.00    -0.024 C 
ATOM     66  C   UNL A   1      30.437  27.232  23.800  1.00  0.00     0.243 C 
ATOM     67  H   UNL A   1      31.282  26.637  22.024  1.00  0.00     0.347 HD
ATOM     68  H   UNL A   1      32.265  27.621  22.960  1.00  0.00     0.347 HD
ATOM     69  C   UNL A   1      32.953  27.894  26.212  1.00  0.00     0.002 A 
ATOM     70  C   UNL A   1      30.817  27.616  25.268  1.00  0.00     0.196 C 
ATOM     71  C   UNL A   1      34.294  27.905  26.699  1.00  0.00     0.010 A 
ATOM     72  C   UNL A   1      32.167  29.136  26.091  1.00  0.00     0.066 A 
ATOM     73  N   UNL A   1      30.999  29.067  25.531  1.00  0.00    -0.270 NA
ATOM     74  C   UNL A   1      34.825  29.070  27.107  1.00  0.00     0.001 A 
ATOM     75  C   UNL A   1      32.818  30.376  26.563  1.00  0.00     0.028 A 
ATOM     76  C   UNL A   1      34.075  30.312  27.036  1.00  0.00     0.002 A 
BRANCH  66  77
ATOM     77  C   UNL A   1      29.598  28.247  23.059  1.00  0.00     0.012 A 
ATOM     78  C   UNL A   1      28.206  28.310  23.235  1.00  0.00     0.010 A 
ATOM     79  C   UNL A   1      30.216  29.181  22.217  1.00  0.00     0.010 A 
ATOM     80  C   UNL A   1      27.455  29.305  22.615  1.00  0.00     0.001 A 
ATOM     81  C   UNL A   1      29.462  30.170  21.589  1.00  0.00     0.001 A 
ATOM     82  C   UNL A   1      28.086  30.236  21.795  1.00  0.00     0.000 A 
ENDBRANCH  66  77
ENDBRANCH  60  62
ENDBRANCH  59  60
ENDBRANCH  58  59
ENDBRANCH  57  58
ENDBRANCH  56  57
ENDBRANCH   1  56
TORSDOF 15
ENDMDL
MODEL 3
REMARK VINA RESULT:     -10.7      0.800      5.910
REMARK SMILES O=C(OCCOCCOC(=O)[C@H]1CC2=c3ccccc3=N[C@H]2[C@@H](c2ccccc2)[NH2+]1)c1ccc(-c2c3nc(c(-c4ccccc4)c4ccc([nH]4)c(-c4ccccc4)c4nc(c(-c5ccccc5)c5ccc2[nH]5)C=C4)C=C3)cc1
REMARK SMILES IDX 5 1 4 2 3 3 2 4 1 5 31 6 32 7 78 8 33 9 77 10 34 11 35 12
REMARK SMILES IDX 36 13 71 14 37 15 76 16 70 17 72 18 38 19 75 20 69 21 68 22
REMARK SMILES IDX 39 24 61 25 46 26 60 27 47 28 50 29 59 30 73 31 48 32 49 33
REMARK SMILES IDX 58 35 74 36 51 37 40 38 41 39 45 40 42 41 44 42 43 43 62 44
REMARK SMILES IDX 63 45 67 46 64 47 66 48 65 49 52 50 53 51 57 52 54 53 56 54
REMARK SMILES IDX 55 55 6 56 7 57 8 58 9 59 10 60 11 61 12 62 13 63 30 64
REMARK SMILES IDX 14 65 23 66 15 69 22 70 16 71 20 72 21 73 17 74 19 75 18 76
REMARK SMILES IDX 24 77 25 78 29 79 26 80 28 81 27 82
REMARK H PARENT 72 23 50 34 30 67 30 68
REMARK Flexibility Score: inf
ROOT
ATOM      1  C   UNL A   1      31.927  29.053  26.842  1.00  0.00     0.202 C 
ENDROOT
BRANCH   1   2
ATOM      2  C   UNL A   1      33.327  29.195  27.461  1.00  0.00     0.261 C 
BRANCH   2   3
ATOM      3  O   UNL A   1      33.885  30.512  27.468  1.00  0.00    -0.460 OA
BRANCH   3   4
ATOM      4  C   UNL A   1      34.708  30.985  28.442  1.00  0.00     0.338 C 
ATOM      5  O   UNL A   1      34.443  32.033  29.022  1.00  0.00    -0.246 OA
BRANCH   4   6
ATOM      6  C   UNL A   1      36.058  30.379  28.604  1.00  0.00     0.060 A 
ATOM      7  C   UNL A   1      36.896  30.360  27.476  1.00  0.00     0.016 A 
ATOM      8  C   UNL A   1      36.510  29.794  29.787  1.00  0.00     0.016 A 
ATOM      9  C   UNL A   1      38.130  29.706  27.526  1.00  0.00     0.010 A 
ATOM     10  C   UNL A   1      37.657  29.025  29.802  1.00  0.00     0.010 A 
ATOM     11  C   UNL A   1      38.494  29.017  28.687  1.00  0.00    -0.014 A 
BRANCH  11  12
ATOM     12  C   UNL A   1      39.866  28.559  28.932  1.00  0.00     0.031 A 
ATOM     13  C   UNL A   1      40.303  27.165  28.650  1.00  0.00     0.074 A 
ATOM     14  C   UNL A   1      40.636  29.419  29.622  1.00  0.00     0.049 A 
ATOM     15  N   UNL A   1      41.501  26.659  28.766  1.00  0.00    -0.248 NA
ATOM     16  C   UNL A   1      39.277  26.211  28.203  1.00  0.00     0.031 C 
ATOM     17  C   UNL A   1      40.205  30.753  30.062  1.00  0.00     0.029 A 
ATOM     18  N   UNL A   1      41.896  29.292  30.128  1.00  0.00    -0.354 N 
ATOM     19  C   UNL A   1      41.393  25.341  28.351  1.00  0.00     0.074 A 
ATOM     20  C   UNL A   1      39.996  25.103  28.054  1.00  0.00     0.031 C 
ATOM     21  C   UNL A   1      41.172  31.307  30.799  1.00  0.00     0.029 A 
ATOM     22  C   UNL A   1      42.303  30.391  30.840  1.00  0.00     0.049 A 
ATOM     23  H   UNL A   1      42.456  28.493  29.993  1.00  0.00     0.167 HD
ATOM     24  C   UNL A   1      42.394  24.440  28.213  1.00  0.00     0.031 A 
ATOM     25  C   UNL A   1      43.481  30.653  31.425  1.00  0.00     0.031 A 
ATOM     26  C   UNL A   1      43.756  24.712  28.610  1.00  0.00     0.049 A 
ATOM     27  C   UNL A   1      44.583  29.665  31.226  1.00  0.00     0.074 A 
ATOM     28  C   UNL A   1      44.879  23.920  28.453  1.00  0.00     0.029 A 
ATOM     29  N   UNL A   1      44.171  25.862  29.274  1.00  0.00    -0.354 N 
ATOM     30  N   UNL A   1      44.532  28.487  30.652  1.00  0.00    -0.248 NA
ATOM     31  C   UNL A   1      45.913  30.060  31.693  1.00  0.00     0.031 C 
ATOM     32  C   UNL A   1      45.952  24.556  29.085  1.00  0.00     0.029 A 
ATOM     33  C   UNL A   1      45.521  25.784  29.568  1.00  0.00     0.049 A 
ATOM     34  H   UNL A   1      43.587  26.622  29.503  1.00  0.00     0.167 HD
ATOM     35  C   UNL A   1      45.826  27.996  30.677  1.00  0.00     0.074 A 
ATOM     36  C   UNL A   1      46.643  29.028  31.293  1.00  0.00     0.031 C 
ATOM     37  C   UNL A   1      46.297  26.804  30.234  1.00  0.00     0.031 A 
BRANCH  24  38
ATOM     38  C   UNL A   1      42.077  23.109  27.583  1.00  0.00    -0.014 A 
ATOM     39  C   UNL A   1      42.249  22.908  26.205  1.00  0.00     0.009 A 
ATOM     40  C   UNL A   1      41.491  22.081  28.343  1.00  0.00     0.009 A 
ATOM     41  C   UNL A   1      41.826  21.720  25.599  1.00  0.00     0.001 A 
ATOM     42  C   UNL A   1      41.096  20.882  27.742  1.00  0.00     0.001 A 
ATOM     43  C   UNL A   1      41.254  20.708  26.369  1.00  0.00     0.000 A 
ENDBRANCH  24  38
BRANCH  25  44
ATOM     44  C   UNL A   1      43.660  31.974  32.073  1.00  0.00    -0.014 A 
ATOM     45  C   UNL A   1      44.167  33.064  31.346  1.00  0.00     0.009 A 
ATOM     46  C   UNL A   1      43.504  32.096  33.461  1.00  0.00     0.009 A 
ATOM     47  C   UNL A   1      44.543  34.239  32.002  1.00  0.00     0.001 A 
ATOM     48  C   UNL A   1      43.854  33.282  34.110  1.00  0.00     0.001 A 
ATOM     49  C   UNL A   1      44.386  34.346  33.383  1.00  0.00     0.000 A 
ENDBRANCH  25  44
BRANCH  37  50
ATOM     50  C   UNL A   1      47.759  26.535  30.455  1.00  0.00    -0.014 A 
ATOM     51  C   UNL A   1      48.692  26.841  29.453  1.00  0.00     0.009 A 
ATOM     52  C   UNL A   1      48.207  25.929  31.640  1.00  0.00     0.009 A 
ATOM     53  C   UNL A   1      50.043  26.542  29.631  1.00  0.00     0.001 A 
ATOM     54  C   UNL A   1      49.564  25.667  31.832  1.00  0.00     0.001 A 
ATOM     55  C   UNL A   1      50.478  25.965  30.823  1.00  0.00     0.000 A 
ENDBRANCH  37  50
ENDBRANCH  11  12
ENDBRANCH   4   6
ENDBRANCH   3   4
ENDBRANCH   2   3
ENDBRANCH   1   2
BRANCH   1  56
ATOM     56  O   UNL A   1      31.650  28.036  25.892  1.00  0.00    -0.374 OA
BRANCH  56  57
ATOM     57  C   UNL A   1      32.129  26.722  26.180  1.00  0.00     0.202 C 
BRANCH  57  58
ATOM     58  C   UNL A   1      31.080  25.676  26.576  1.00  0.00     0.261 C 
BRANCH  58  59
ATOM     59  O   UNL A   1      31.645  24.516  27.208  1.00  0.00    -0.459 OA
BRANCH  59  60
ATOM     60  C   UNL A   1      31.025  23.333  26.897  1.00  0.00     0.365 C 
ATOM     61  O   UNL A   1      30.005  22.918  27.420  1.00  0.00    -0.245 OA
BRANCH  60  62
ATOM     62  C   UNL A   1      31.782  22.584  25.785  1.00  0.00     0.298 C 
ATOM     63  C   UNL A   1      31.204  22.753  24.345  1.00  0.00     0.111 C 
ATOM     64  N   UNL A   1      33.210  22.953  25.920  1.00  0.00    -0.326 N 
ATOM     65  C   UNL A   1      32.120  23.580  23.510  1.00  0.00    -0.024 C 
ATOM     66  C   UNL A   1      33.997  22.471  24.761  1.00  0.00     0.243 C 
ATOM     67  H   UNL A   1      33.582  22.536  26.773  1.00  0.00     0.347 HD
ATOM     68  H   UNL A   1      33.279  23.970  25.959  1.00  0.00     0.347 HD
ATOM     69  C   UNL A   1      31.980  24.800  23.002  1.00  0.00     0.002 A 
ATOM     70  C   UNL A   1      33.537  23.082  23.397  1.00  0.00     0.196 C 
ATOM     71  C   UNL A   1      30.927  25.755  22.884  1.00  0.00     0.010 A 
ATOM     72  C   UNL A   1      33.378  25.152  22.687  1.00  0.00     0.066 A 
ATOM     73  N   UNL A   1      34.298  24.270  22.930  1.00  0.00    -0.270 NA
ATOM     74  C   UNL A   1      31.215  26.984  22.422  1.00  0.00     0.001 A 
ATOM     75  C   UNL A   1      33.615  26.520  22.183  1.00  0.00     0.028 A 
ATOM     76  C   UNL A   1      32.573  27.362  22.070  1.00  0.00     0.002 A 
BRANCH  66  77
ATOM     77  C   UNL A   1      35.473  22.592  25.063  1.00  0.00     0.012 A 
ATOM     78  C   UNL A   1      35.988  23.701  25.754  1.00  0.00     0.010 A 
ATOM     79  C   UNL A   1      36.345  21.559  24.695  1.00  0.00     0.010 A 
ATOM     80  C   UNL A   1      37.335  23.759  26.101  1.00  0.00     0.001 A 
ATOM     81  C   UNL A   1      37.695  21.624  25.035  1.00  0.00     0.001 A 
ATOM     82  C   UNL A   1      38.186  22.718  25.744  1.00  0.00     0.000 A 
ENDBRANCH  66  77
ENDBRANCH  60  62
ENDBRANCH  59  60
ENDBRANCH  58  59
ENDBRANCH  57  58
ENDBRANCH  56  57
ENDBRANCH   1  56
TORSDOF 15
ENDMDL
