MODEL 1
REMARK VINA RESULT:     -10.5      0.000      0.000
REMARK SMILES CCc1c(Cl)ccc2c1C=C(C(=O)OCCOCCOC(=O)c1ccc(-c3c4nc(c(-c5ccccc5)c5ccc([nH]5)c(-c5ccccc5)c5nc(c(-c6ccccc6)c6ccc3[nH]6)C=C5)C=C4)cc1)[C@@H](C(F)(F)F)O2
REMARK SMILES IDX 18 1 17 2 16 3 15 4 14 5 12 6 13 7 11 8 3 9 4 10 9 11 5 12
REMARK SMILES IDX 6 13 8 14 10 15 7 16 76 17 71 18 2 19 1 20 72 21 73 22 74 23
REMARK SMILES IDX 75 24 19 25 20 26 21 27 22 28 23 29 24 30 70 31 25 32 69 33
REMARK SMILES IDX 26 34 27 35 28 36 63 37 29 38 68 39 62 40 64 41 30 42 67 43
REMARK SMILES IDX 61 44 60 45 31 47 53 48 38 49 52 50 39 51 42 52 51 53 65 54
REMARK SMILES IDX 40 55 41 56 50 58 66 59 43 60 32 61 33 62 37 63 34 64 36 65
REMARK SMILES IDX 35 66 54 67 55 68 59 69 56 70 58 71 57 72 44 73 45 74 49 75
REMARK SMILES IDX 46 76 48 77 47 78
REMARK H PARENT 64 46 42 57
REMARK Flexibility Score: inf
ROOT
ATOM      1  C   UNL A   1      38.399  19.848  25.035  1.00  0.00     0.202 C 
ENDROOT
BRANCH   1   2
ATOM      2  O   UNL A   1      37.762  21.124  25.035  1.00  0.00    -0.374 OA
BRANCH   2   3
ATOM      3  C   UNL A   1      38.315  22.171  25.826  1.00  0.00     0.202 C 
BRANCH   3   4
ATOM      4  C   UNL A   1      37.611  23.531  25.828  1.00  0.00     0.261 C 
BRANCH   4   5
ATOM      5  O   UNL A   1      36.610  23.638  24.805  1.00  0.00    -0.460 OA
BRANCH   5   6
ATOM      6  C   UNL A   1      35.352  23.748  25.290  1.00  0.00     0.338 C 
ATOM      7  O   UNL A   1      34.956  23.392  26.388  1.00  0.00    -0.246 OA
BRANCH   6   8
ATOM      8  C   UNL A   1      34.499  24.495  24.351  1.00  0.00     0.087 C 
ATOM      9  C   UNL A   1      32.503  27.632  24.596  1.00  0.00    -0.019 A 
ATOM     10  C   UNL A   1      31.433  28.191  23.848  1.00  0.00     0.045 A 
ATOM     11  C   UNL A   1      33.091  26.439  24.086  1.00  0.00     0.022 A 
ATOM     12  Cl  UNL A   1      30.630  29.661  24.299  1.00  0.00    -0.084 Cl
ATOM     13  C   UNL A   1      30.957  27.587  22.679  1.00  0.00     0.024 A 
ATOM     14  C   UNL A   1      32.602  25.851  22.899  1.00  0.00     0.128 A 
ATOM     15  C   UNL A   1      34.165  25.724  24.758  1.00  0.00     0.027 C 
ATOM     16  C   UNL A   1      31.547  26.426  22.201  1.00  0.00     0.048 A 
ATOM     17  O   UNL A   1      33.112  24.717  22.324  1.00  0.00    -0.475 OA
ATOM     18  C   UNL A   1      33.986  23.860  23.104  1.00  0.00     0.316 C 
BRANCH   9  19
ATOM     19  C   UNL A   1      33.005  28.381  25.832  1.00  0.00     0.034 C 
ATOM     20  C   UNL A   1      32.331  28.173  27.186  1.00  0.00     0.009 C 
ENDBRANCH   9  19
BRANCH  18  21
ATOM     21  C   UNL A   1      33.297  22.513  23.351  1.00  0.00     0.430 C 
ATOM     22  F   UNL A   1      34.191  21.565  23.722  1.00  0.00    -0.167 F 
ATOM     23  F   UNL A   1      32.390  22.600  24.353  1.00  0.00    -0.167 F 
ATOM     24  F   UNL A   1      32.652  22.058  22.255  1.00  0.00    -0.167 F 
ENDBRANCH  18  21
ENDBRANCH   6   8
ENDBRANCH   5   6
ENDBRANCH   4   5
ENDBRANCH   3   4
ENDBRANCH   2   3
ENDBRANCH   1   2
BRANCH   1  25
ATOM     25  C   UNL A   1      39.525  19.576  26.042  1.00  0.00     0.261 C 
BRANCH  25  26
ATOM     26  O   UNL A   1      40.746  19.133  25.426  1.00  0.00    -0.460 OA
BRANCH  26  27
ATOM     27  C   UNL A   1      41.839  19.177  26.229  1.00  0.00     0.338 C 
ATOM     28  O   UNL A   1      42.623  18.271  26.468  1.00  0.00    -0.246 OA
BRANCH  27  29
ATOM     29  C   UNL A   1      42.079  20.572  26.636  1.00  0.00     0.060 A 
ATOM     30  C   UNL A   1      42.117  20.931  27.983  1.00  0.00     0.016 A 
ATOM     31  C   UNL A   1      42.305  21.526  25.635  1.00  0.00     0.016 A 
ATOM     32  C   UNL A   1      42.395  22.256  28.328  1.00  0.00     0.010 A 
ATOM     33  C   UNL A   1      42.576  22.848  25.981  1.00  0.00     0.010 A 
ATOM     34  C   UNL A   1      42.635  23.220  27.331  1.00  0.00    -0.014 A 
BRANCH  34  35
ATOM     35  C   UNL A   1      43.045  24.596  27.702  1.00  0.00     0.031 A 
ATOM     36  C   UNL A   1      44.489  24.997  27.717  1.00  0.00     0.074 A 
ATOM     37  C   UNL A   1      42.092  25.482  28.052  1.00  0.00     0.049 A 
ATOM     38  N   UNL A   1      45.010  26.169  27.981  1.00  0.00    -0.248 NA
ATOM     39  C   UNL A   1      45.477  23.955  27.400  1.00  0.00     0.031 C 
ATOM     40  C   UNL A   1      40.658  25.195  28.089  1.00  0.00     0.029 A 
ATOM     41  N   UNL A   1      42.183  26.797  28.432  1.00  0.00    -0.354 N 
ATOM     42  C   UNL A   1      46.382  26.011  27.847  1.00  0.00     0.074 A 
ATOM     43  C   UNL A   1      46.619  24.619  27.526  1.00  0.00     0.031 C 
ATOM     44  C   UNL A   1      40.000  26.311  28.439  1.00  0.00     0.029 A 
ATOM     45  C   UNL A   1      40.965  27.377  28.694  1.00  0.00     0.049 A 
ATOM     46  H   UNL A   1      43.038  27.278  28.511  1.00  0.00     0.167 HD
ATOM     47  C   UNL A   1      47.351  26.950  27.964  1.00  0.00     0.031 A 
ATOM     48  C   UNL A   1      40.654  28.626  29.096  1.00  0.00     0.031 A 
ATOM     49  C   UNL A   1      47.103  28.329  28.301  1.00  0.00     0.049 A 
ATOM     50  C   UNL A   1      41.755  29.634  29.280  1.00  0.00     0.074 A 
ATOM     51  C   UNL A   1      48.021  29.360  28.405  1.00  0.00     0.029 A 
ATOM     52  N   UNL A   1      45.861  28.867  28.599  1.00  0.00    -0.354 N 
ATOM     53  N   UNL A   1      43.043  29.492  29.075  1.00  0.00    -0.248 NA
ATOM     54  C   UNL A   1      41.366  30.977  29.736  1.00  0.00     0.031 C 
ATOM     55  C   UNL A   1      47.349  30.499  28.848  1.00  0.00     0.029 A 
ATOM     56  C   UNL A   1      45.997  30.206  28.928  1.00  0.00     0.049 A 
ATOM     57  H   UNL A   1      45.010  28.372  28.581  1.00  0.00     0.167 HD
ATOM     58  C   UNL A   1      43.612  30.729  29.347  1.00  0.00     0.074 A 
ATOM     59  C   UNL A   1      42.531  31.616  29.721  1.00  0.00     0.031 C 
ATOM     60  C   UNL A   1      44.916  31.090  29.288  1.00  0.00     0.031 A 
BRANCH  47  61
ATOM     61  C   UNL A   1      48.779  26.541  27.721  1.00  0.00    -0.014 A 
ATOM     62  C   UNL A   1      49.294  26.536  26.415  1.00  0.00     0.009 A 
ATOM     63  C   UNL A   1      49.572  26.035  28.764  1.00  0.00     0.009 A 
ATOM     64  C   UNL A   1      50.561  26.009  26.152  1.00  0.00     0.001 A 
ATOM     65  C   UNL A   1      50.852  25.540  28.504  1.00  0.00     0.001 A 
ATOM     66  C   UNL A   1      51.339  25.515  27.197  1.00  0.00     0.000 A 
ENDBRANCH  47  61
BRANCH  48  67
ATOM     67  C   UNL A   1      39.226  28.987  29.310  1.00  0.00    -0.014 A 
ATOM     68  C   UNL A   1      38.613  28.771  30.557  1.00  0.00     0.009 A 
ATOM     69  C   UNL A   1      38.449  29.489  28.256  1.00  0.00     0.009 A 
ATOM     70  C   UNL A   1      37.250  29.015  30.732  1.00  0.00     0.001 A 
ATOM     71  C   UNL A   1      37.093  29.767  28.444  1.00  0.00     0.001 A 
ATOM     72  C   UNL A   1      36.492  29.518  29.676  1.00  0.00     0.000 A 
ENDBRANCH  48  67
BRANCH  60  73
ATOM     73  C   UNL A   1      45.285  32.515  29.610  1.00  0.00    -0.014 A 
ATOM     74  C   UNL A   1      45.497  32.889  30.948  1.00  0.00     0.009 A 
ATOM     75  C   UNL A   1      45.266  33.511  28.623  1.00  0.00     0.009 A 
ATOM     76  C   UNL A   1      45.640  34.234  31.296  1.00  0.00     0.001 A 
ATOM     77  C   UNL A   1      45.446  34.852  28.970  1.00  0.00     0.001 A 
ATOM     78  C   UNL A   1      45.615  35.214  30.307  1.00  0.00     0.000 A 
ENDBRANCH  60  73
ENDBRANCH  34  35
ENDBRANCH  27  29
ENDBRANCH  26  27
ENDBRANCH  25  26
ENDBRANCH   1  25
TORSDOF 16
ENDMDL
MODEL 2
REMARK VINA RESULT:     -10.3     10.194     14.338
REMARK SMILES CCc1c(Cl)ccc2c1C=C(C(=O)OCCOCCOC(=O)c1ccc(-c3c4nc(c(-c5ccccc5)c5ccc([nH]5)c(-c5ccccc5)c5nc(c(-c6ccccc6)c6ccc3[nH]6)C=C5)C=C4)cc1)[C@@H](C(F)(F)F)O2
REMARK SMILES IDX 18 1 17 2 16 3 15 4 14 5 12 6 13 7 11 8 3 9 4 10 9 11 5 12
REMARK SMILES IDX 6 13 8 14 10 15 7 16 76 17 71 18 2 19 1 20 72 21 73 22 74 23
REMARK SMILES IDX 75 24 19 25 20 26 21 27 22 28 23 29 24 30 70 31 25 32 69 33
REMARK SMILES IDX 26 34 27 35 28 36 63 37 29 38 68 39 62 40 64 41 30 42 67 43
REMARK SMILES IDX 61 44 60 45 31 47 53 48 38 49 52 50 39 51 42 52 51 53 65 54
REMARK SMILES IDX 40 55 41 56 50 58 66 59 43 60 32 61 33 62 37 63 34 64 36 65
REMARK SMILES IDX 35 66 54 67 55 68 59 69 56 70 58 71 57 72 44 73 45 74 49 75
REMARK SMILES IDX 46 76 48 77 47 78
REMARK H PARENT 64 46 42 57
REMARK Flexibility Score: inf
ROOT
ATOM      1  C   UNL A   1      46.015  22.089  38.073  1.00  0.00     0.202 C 
ENDROOT
BRANCH   1   2
ATOM      2  O   UNL A   1      45.692  21.572  39.362  1.00  0.00    -0.374 OA
BRANCH   2   3
ATOM      3  C   UNL A   1      46.296  20.356  39.788  1.00  0.00     0.202 C 
BRANCH   3   4
ATOM      4  C   UNL A   1      45.934  19.808  41.172  1.00  0.00     0.261 C 
BRANCH   4   5
ATOM      5  O   UNL A   1      44.836  18.884  41.132  1.00  0.00    -0.460 OA
BRANCH   5   6
ATOM      6  C   UNL A   1      45.176  17.624  41.489  1.00  0.00     0.338 C 
ATOM      7  O   UNL A   1      46.207  17.271  42.038  1.00  0.00    -0.246 OA
BRANCH   6   8
ATOM      8  C   UNL A   1      44.057  16.699  41.244  1.00  0.00     0.087 C 
ATOM      9  C   UNL A   1      42.773  13.668  42.992  1.00  0.00    -0.019 A 
ATOM     10  C   UNL A   1      41.934  12.586  42.617  1.00  0.00     0.045 A 
ATOM     11  C   UNL A   1      42.923  14.723  42.046  1.00  0.00     0.022 A 
ATOM     12  Cl  UNL A   1      41.605  11.239  43.662  1.00  0.00    -0.084 Cl
ATOM     13  C   UNL A   1      41.304  12.539  41.369  1.00  0.00     0.024 A 
ATOM     14  C   UNL A   1      42.270  14.661  40.796  1.00  0.00     0.128 A 
ATOM     15  C   UNL A   1      43.781  15.878  42.263  1.00  0.00     0.027 C 
ATOM     16  C   UNL A   1      41.463  13.579  40.465  1.00  0.00     0.048 A 
ATOM     17  O   UNL A   1      42.341  15.632  39.831  1.00  0.00    -0.475 OA
ATOM     18  C   UNL A   1      43.380  16.641  39.918  1.00  0.00     0.316 C 
BRANCH   9  19
ATOM     19  C   UNL A   1      43.381  13.675  44.396  1.00  0.00     0.034 C 
ATOM     20  C   UNL A   1      42.605  14.269  45.569  1.00  0.00     0.009 C 
ENDBRANCH   9  19
BRANCH  18  21
ATOM     21  C   UNL A   1      44.357  16.472  38.748  1.00  0.00     0.430 C 
ATOM     22  F   UNL A   1      43.782  15.799  37.722  1.00  0.00    -0.167 F 
ATOM     23  F   UNL A   1      44.745  17.672  38.253  1.00  0.00    -0.167 F 
ATOM     24  F   UNL A   1      45.472  15.798  39.104  1.00  0.00    -0.167 F 
ENDBRANCH  18  21
ENDBRANCH   6   8
ENDBRANCH   5   6
ENDBRANCH   4   5
ENDBRANCH   3   4
ENDBRANCH   2   3
ENDBRANCH   1   2
BRANCH   1  25
ATOM     25  C   UNL A   1      46.291  23.591  37.919  1.00  0.00     0.261 C 
BRANCH  25  26
ATOM     26  O   UNL A   1      45.868  24.121  36.652  1.00  0.00    -0.460 OA
BRANCH  26  27
ATOM     27  C   UNL A   1      46.261  25.396  36.407  1.00  0.00     0.338 C 
ATOM     28  O   UNL A   1      47.346  25.901  36.657  1.00  0.00    -0.246 OA
BRANCH  27  29
ATOM     29  C   UNL A   1      45.237  26.067  35.589  1.00  0.00     0.060 A 
ATOM     30  C   UNL A   1      43.969  25.508  35.426  1.00  0.00     0.016 A 
ATOM     31  C   UNL A   1      45.555  27.299  35.006  1.00  0.00     0.016 A 
ATOM     32  C   UNL A   1      43.011  26.199  34.682  1.00  0.00     0.010 A 
ATOM     33  C   UNL A   1      44.599  27.984  34.258  1.00  0.00     0.010 A 
ATOM     34  C   UNL A   1      43.316  27.444  34.101  1.00  0.00    -0.014 A 
BRANCH  34  35
ATOM     35  C   UNL A   1      42.263  28.228  33.411  1.00  0.00     0.031 A 
ATOM     36  C   UNL A   1      42.008  28.061  31.943  1.00  0.00     0.074 A 
ATOM     37  C   UNL A   1      41.549  29.119  34.125  1.00  0.00     0.049 A 
ATOM     38  N   UNL A   1      41.101  28.642  31.199  1.00  0.00    -0.248 NA
ATOM     39  C   UNL A   1      42.879  27.128  31.214  1.00  0.00     0.031 C 
ATOM     40  C   UNL A   1      41.724  29.377  35.555  1.00  0.00     0.029 A 
ATOM     41  N   UNL A   1      40.533  29.964  33.753  1.00  0.00    -0.354 N 
ATOM     42  C   UNL A   1      41.281  28.135  29.920  1.00  0.00     0.074 A 
ATOM     43  C   UNL A   1      42.414  27.236  29.976  1.00  0.00     0.031 C 
ATOM     44  C   UNL A   1      40.823  30.291  35.946  1.00  0.00     0.029 A 
ATOM     45  C   UNL A   1      40.038  30.717  34.791  1.00  0.00     0.049 A 
ATOM     46  H   UNL A   1      40.193  30.025  32.831  1.00  0.00     0.167 HD
ATOM     47  C   UNL A   1      40.552  28.387  28.807  1.00  0.00     0.031 A 
ATOM     48  C   UNL A   1      39.064  31.648  34.814  1.00  0.00     0.031 A 
ATOM     49  C   UNL A   1      39.437  29.299  28.760  1.00  0.00     0.049 A 
ATOM     50  C   UNL A   1      38.311  31.956  33.549  1.00  0.00     0.074 A 
ATOM     51  C   UNL A   1      38.616  29.588  27.683  1.00  0.00     0.029 A 
ATOM     52  N   UNL A   1      38.994  30.073  29.821  1.00  0.00    -0.354 N 
ATOM     53  N   UNL A   1      38.440  31.412  32.362  1.00  0.00    -0.248 NA
ATOM     54  C   UNL A   1      37.270  32.992  33.623  1.00  0.00     0.031 C 
ATOM     55  C   UNL A   1      37.733  30.597  28.067  1.00  0.00     0.029 A 
ATOM     56  C   UNL A   1      37.938  30.870  29.410  1.00  0.00     0.049 A 
ATOM     57  H   UNL A   1      39.373  30.059  30.730  1.00  0.00     0.167 HD
ATOM     58  C   UNL A   1      37.482  32.016  31.559  1.00  0.00     0.074 A 
ATOM     59  C   UNL A   1      36.768  32.960  32.393  1.00  0.00     0.031 C 
ATOM     60  C   UNL A   1      37.221  31.800  30.247  1.00  0.00     0.031 A 
BRANCH  47  61
ATOM     61  C   UNL A   1      40.915  27.670  27.534  1.00  0.00    -0.014 A 
ATOM     62  C   UNL A   1      40.434  26.371  27.300  1.00  0.00     0.009 A 
ATOM     63  C   UNL A   1      41.838  28.224  26.632  1.00  0.00     0.009 A 
ATOM     64  C   UNL A   1      40.888  25.632  26.205  1.00  0.00     0.001 A 
ATOM     65  C   UNL A   1      42.264  27.495  25.519  1.00  0.00     0.001 A 
ATOM     66  C   UNL A   1      41.799  26.196  25.315  1.00  0.00     0.000 A 
ENDBRANCH  47  61
BRANCH  48  67
ATOM     67  C   UNL A   1      38.732  32.321  36.099  1.00  0.00    -0.014 A 
ATOM     68  C   UNL A   1      39.355  33.531  36.455  1.00  0.00     0.009 A 
ATOM     69  C   UNL A   1      37.842  31.730  37.007  1.00  0.00     0.009 A 
ATOM     70  C   UNL A   1      39.120  34.112  37.703  1.00  0.00     0.001 A 
ATOM     71  C   UNL A   1      37.580  32.333  38.240  1.00  0.00     0.001 A 
ATOM     72  C   UNL A   1      38.229  33.514  38.593  1.00  0.00     0.000 A 
ENDBRANCH  48  67
BRANCH  60  73
ATOM     73  C   UNL A   1      36.101  32.571  29.599  1.00  0.00    -0.014 A 
ATOM     74  C   UNL A   1      34.906  31.909  29.268  1.00  0.00     0.009 A 
ATOM     75  C   UNL A   1      36.282  33.895  29.172  1.00  0.00     0.009 A 
ATOM     76  C   UNL A   1      33.934  32.541  28.490  1.00  0.00     0.001 A 
ATOM     77  C   UNL A   1      35.291  34.537  28.425  1.00  0.00     0.001 A 
ATOM     78  C   UNL A   1      34.128  33.854  28.070  1.00  0.00     0.000 A 
ENDBRANCH  60  73
ENDBRANCH  34  35
ENDBRANCH  27  29
ENDBRANCH  26  27
ENDBRANCH  25  26
ENDBRANCH   1  25
TORSDOF 16
ENDMDL
MODEL 3
REMARK VINA RESULT:     -10.3      4.395      8.854
REMARK SMILES CCc1c(Cl)ccc2c1C=C(C(=O)OCCOCCOC(=O)c1ccc(-c3c4nc(c(-c5ccccc5)c5ccc([nH]5)c(-c5ccccc5)c5nc(c(-c6ccccc6)c6ccc3[nH]6)C=C5)C=C4)cc1)[C@@H](C(F)(F)F)O2
REMARK SMILES IDX 18 1 17 2 16 3 15 4 14 5 12 6 13 7 11 8 3 9 4 10 9 11 5 12
REMARK SMILES IDX 6 13 8 14 10 15 7 16 76 17 71 18 2 19 1 20 72 21 73 22 74 23
REMARK SMILES IDX 75 24 19 25 20 26 21 27 22 28 23 29 24 30 70 31 25 32 69 33
REMARK SMILES IDX 26 34 27 35 28 36 63 37 29 38 68 39 62 40 64 41 30 42 67 43
REMARK SMILES IDX 61 44 60 45 31 47 53 48 38 49 52 50 39 51 42 52 51 53 65 54
REMARK SMILES IDX 40 55 41 56 50 58 66 59 43 60 32 61 33 62 37 63 34 64 36 65
REMARK SMILES IDX 35 66 54 67 55 68 59 69 56 70 58 71 57 72 44 73 45 74 49 75
REMARK SMILES IDX 46 76 48 77 47 78
REMARK H PARENT 64 46 42 57
REMARK Flexibility Score: inf
ROOT
ATOM      1  C   UNL A   1      32.120  31.313  26.867  1.00  0.00     0.202 C 
ENDROOT
BRANCH   1   2
ATOM      2  O   UNL A   1      33.232  30.637  27.448  1.00  0.00    -0.374 OA
BRANCH   2   3
ATOM      3  C   UNL A   1      33.875  29.605  26.708  1.00  0.00     0.202 C 
BRANCH   3   4
ATOM      4  C   UNL A   1      33.079  28.886  25.615  1.00  0.00     0.261 C 
BRANCH   4   5
ATOM      5  O   UNL A   1      33.145  27.457  25.732  1.00  0.00    -0.460 OA
BRANCH   5   6
ATOM      6  C   UNL A   1      32.096  26.921  26.399  1.00  0.00     0.338 C 
ATOM      7  O   UNL A   1      31.260  27.522  27.056  1.00  0.00    -0.246 OA
BRANCH   6   8
ATOM      8  C   UNL A   1      31.996  25.478  26.129  1.00  0.00     0.087 C 
ATOM      9  C   UNL A   1      34.491  22.754  25.634  1.00  0.00    -0.019 A 
ATOM     10  C   UNL A   1      34.446  21.457  25.057  1.00  0.00     0.045 A 
ATOM     11  C   UNL A   1      33.254  23.451  25.747  1.00  0.00     0.022 A 
ATOM     12  Cl  UNL A   1      35.849  20.451  24.881  1.00  0.00    -0.084 Cl
ATOM     13  C   UNL A   1      33.250  20.898  24.594  1.00  0.00     0.024 A 
ATOM     14  C   UNL A   1      32.057  22.865  25.283  1.00  0.00     0.128 A 
ATOM     15  C   UNL A   1      33.141  24.802  26.276  1.00  0.00     0.027 C 
ATOM     16  C   UNL A   1      32.057  21.595  24.716  1.00  0.00     0.048 A 
ATOM     17  O   UNL A   1      30.820  23.449  25.363  1.00  0.00    -0.475 OA
ATOM     18  C   UNL A   1      30.726  24.872  25.635  1.00  0.00     0.316 C 
BRANCH   9  19
ATOM     19  C   UNL A   1      35.826  23.274  26.169  1.00  0.00     0.034 C 
ATOM     20  C   UNL A   1      36.905  23.764  25.205  1.00  0.00     0.009 C 
ENDBRANCH   9  19
BRANCH  18  21
ATOM     21  C   UNL A   1      30.151  25.592  24.409  1.00  0.00     0.430 C 
ATOM     22  F   UNL A   1      29.810  24.710  23.439  1.00  0.00    -0.167 F 
ATOM     23  F   UNL A   1      29.025  26.276  24.723  1.00  0.00    -0.167 F 
ATOM     24  F   UNL A   1      31.026  26.470  23.874  1.00  0.00    -0.167 F 
ENDBRANCH  18  21
ENDBRANCH   6   8
ENDBRANCH   5   6
ENDBRANCH   4   5
ENDBRANCH   3   4
ENDBRANCH   2   3
ENDBRANCH   1   2
BRANCH   1  25
ATOM     25  C   UNL A   1      32.131  32.847  26.800  1.00  0.00     0.261 C 
BRANCH  25  26
ATOM     26  O   UNL A   1      32.024  33.475  28.088  1.00  0.00    -0.460 OA
BRANCH  26  27
ATOM     27  C   UNL A   1      32.977  34.404  28.350  1.00  0.00     0.338 C 
ATOM     28  O   UNL A   1      32.832  35.615  28.430  1.00  0.00    -0.246 OA
BRANCH  27  29
ATOM     29  C   UNL A   1      34.222  33.720  28.736  1.00  0.00     0.060 A 
ATOM     30  C   UNL A   1      35.381  33.851  27.972  1.00  0.00     0.016 A 
ATOM     31  C   UNL A   1      34.224  32.960  29.913  1.00  0.00     0.016 A 
ATOM     32  C   UNL A   1      36.553  33.223  28.398  1.00  0.00     0.010 A 
ATOM     33  C   UNL A   1      35.393  32.330  30.334  1.00  0.00     0.010 A 
ATOM     34  C   UNL A   1      36.570  32.467  29.585  1.00  0.00    -0.014 A 
BRANCH  34  35
ATOM     35  C   UNL A   1      37.841  31.901  30.097  1.00  0.00     0.031 A 
ATOM     36  C   UNL A   1      38.367  30.591  29.590  1.00  0.00     0.074 A 
ATOM     37  C   UNL A   1      38.512  32.575  31.051  1.00  0.00     0.049 A 
ATOM     38  N   UNL A   1      39.479  29.979  29.905  1.00  0.00    -0.248 NA
ATOM     39  C   UNL A   1      37.541  29.875  28.606  1.00  0.00     0.031 C 
ATOM     40  C   UNL A   1      38.085  33.850  31.630  1.00  0.00     0.029 A 
ATOM     41  N   UNL A   1      39.691  32.291  31.694  1.00  0.00    -0.354 N 
ATOM     42  C   UNL A   1      39.497  28.815  29.151  1.00  0.00     0.074 A 
ATOM     43  C   UNL A   1      38.262  28.780  28.396  1.00  0.00     0.031 C 
ATOM     44  C   UNL A   1      39.005  34.254  32.518  1.00  0.00     0.029 A 
ATOM     45  C   UNL A   1      40.063  33.251  32.605  1.00  0.00     0.049 A 
ATOM     46  H   UNL A   1      40.218  31.479  31.519  1.00  0.00     0.167 HD
ATOM     47  C   UNL A   1      40.467  27.872  29.082  1.00  0.00     0.031 A 
ATOM     48  C   UNL A   1      41.133  33.319  33.422  1.00  0.00     0.031 A 
ATOM     49  C   UNL A   1      41.685  27.909  29.852  1.00  0.00     0.049 A 
ATOM     50  C   UNL A   1      42.165  32.226  33.373  1.00  0.00     0.074 A 
ATOM     51  C   UNL A   1      42.742  27.015  29.820  1.00  0.00     0.029 A 
ATOM     52  N   UNL A   1      42.005  28.874  30.795  1.00  0.00    -0.354 N 
ATOM     53  N   UNL A   1      42.207  31.169  32.598  1.00  0.00    -0.248 NA
ATOM     54  C   UNL A   1      43.304  32.337  34.297  1.00  0.00     0.031 C 
ATOM     55  C   UNL A   1      43.660  27.391  30.801  1.00  0.00     0.029 A 
ATOM     56  C   UNL A   1      43.224  28.572  31.378  1.00  0.00     0.049 A 
ATOM     57  H   UNL A   1      41.449  29.656  31.015  1.00  0.00     0.167 HD
ATOM     58  C   UNL A   1      43.385  30.507  32.919  1.00  0.00     0.074 A 
ATOM     59  C   UNL A   1      44.038  31.286  33.949  1.00  0.00     0.031 C 
ATOM     60  C   UNL A   1      43.877  29.357  32.397  1.00  0.00     0.031 A 
BRANCH  47  61
ATOM     61  C   UNL A   1      40.276  26.712  28.143  1.00  0.00    -0.014 A 
ATOM     62  C   UNL A   1      39.595  25.563  28.578  1.00  0.00     0.009 A 
ATOM     63  C   UNL A   1      40.882  26.702  26.876  1.00  0.00     0.009 A 
ATOM     64  C   UNL A   1      39.548  24.420  27.777  1.00  0.00     0.001 A 
ATOM     65  C   UNL A   1      40.804  25.569  26.064  1.00  0.00     0.001 A 
ATOM     66  C   UNL A   1      40.149  24.425  26.520  1.00  0.00     0.000 A 
ENDBRANCH  47  61
BRANCH  48  67
ATOM     67  C   UNL A   1      41.285  34.492  34.326  1.00  0.00    -0.014 A 
ATOM     68  C   UNL A   1      42.022  35.617  33.918  1.00  0.00     0.009 A 
ATOM     69  C   UNL A   1      40.752  34.469  35.623  1.00  0.00     0.009 A 
ATOM     70  C   UNL A   1      42.250  36.676  34.800  1.00  0.00     0.001 A 
ATOM     71  C   UNL A   1      40.950  35.546  36.491  1.00  0.00     0.001 A 
ATOM     72  C   UNL A   1      41.709  36.641  36.084  1.00  0.00     0.000 A 
ENDBRANCH  48  67
BRANCH  60  73
ATOM     73  C   UNL A   1      45.204  28.848  32.898  1.00  0.00    -0.014 A 
ATOM     74  C   UNL A   1      46.378  29.172  32.197  1.00  0.00     0.009 A 
ATOM     75  C   UNL A   1      45.277  27.928  33.954  1.00  0.00     0.009 A 
ATOM     76  C   UNL A   1      47.590  28.555  32.516  1.00  0.00     0.001 A 
ATOM     77  C   UNL A   1      46.498  27.340  34.294  1.00  0.00     0.001 A 
ATOM     78  C   UNL A   1      47.648  27.640  33.564  1.00  0.00     0.000 A 
ENDBRANCH  60  73
ENDBRANCH  34  35
ENDBRANCH  27  29
ENDBRANCH  26  27
ENDBRANCH  25  26
ENDBRANCH   1  25
TORSDOF 16
ENDMDL
