MODEL 1
REMARK VINA RESULT:     -10.9      0.000      0.000
REMARK SMILES O=C(OCCOCCOC(=O)[C@H]1CC=CC[C@H]1C(=O)N[C@@H]1CCN(c2cccc(Cl)c2)C1)c1ccc(-c2c3nc(c(-c4ccccc4)c4ccc([nH]4)c(-c4ccccc4)c4nc(c(-c5ccccc5)c5ccc2[nH]5)C=C4)C=C3)cc1
REMARK SMILES IDX 7 1 6 2 5 3 4 4 3 5 2 6 1 7 33 8 34 9 80 10 35 11 79 12
REMARK SMILES IDX 36 13 37 14 38 15 73 16 39 17 78 18 72 19 74 20 40 21 77 22
REMARK SMILES IDX 71 23 70 24 41 26 63 27 48 28 62 29 49 30 52 31 61 32 75 33
REMARK SMILES IDX 50 34 51 35 60 37 76 38 53 39 42 40 43 41 47 42 44 43 46 44
REMARK SMILES IDX 45 45 64 46 65 47 69 48 66 49 68 50 67 51 54 52 55 53 59 54
REMARK SMILES IDX 56 55 58 56 57 57 8 58 9 59 10 60 11 61 12 62 13 63 17 64
REMARK SMILES IDX 14 65 16 66 15 67 18 68 19 69 20 70 21 72 22 73 32 74 23 75
REMARK SMILES IDX 24 76 25 77 26 78 31 79 27 80 29 81 28 82 30 83
REMARK H PARENT 74 25 52 36 20 71
REMARK Flexibility Score: inf
ROOT
ATOM      1  C   UNL A   1      38.675  20.835  25.400  1.00  0.00     0.202 C 
ENDROOT
BRANCH   1   2
ATOM      2  O   UNL A   1      39.620  21.755  26.065  1.00  0.00    -0.374 OA
BRANCH   2   3
ATOM      3  C   UNL A   1      40.814  21.260  26.736  1.00  0.00     0.202 C 
BRANCH   3   4
ATOM      4  C   UNL A   1      41.223  19.717  26.383  1.00  0.00     0.261 C 
BRANCH   4   5
ATOM      5  O   UNL A   1      42.278  19.366  25.368  1.00  0.00    -0.460 OA
BRANCH   5   6
ATOM      6  C   UNL A   1      43.649  19.465  25.286  1.00  0.00     0.338 C 
ATOM      7  O   UNL A   1      44.387  18.553  25.650  1.00  0.00    -0.246 OA
BRANCH   6   8
ATOM      8  C   UNL A   1      44.277  20.768  24.989  1.00  0.00     0.060 A 
ATOM      9  C   UNL A   1      45.369  21.046  25.766  1.00  0.00     0.016 A 
ATOM     10  C   UNL A   1      44.223  21.513  23.813  1.00  0.00     0.016 A 
ATOM     11  C   UNL A   1      45.660  22.353  26.023  1.00  0.00     0.010 A 
ATOM     12  C   UNL A   1      44.874  22.770  23.800  1.00  0.00     0.010 A 
ATOM     13  C   UNL A   1      45.456  23.251  25.003  1.00  0.00    -0.014 A 
BRANCH  13  14
ATOM     14  C   UNL A   1      45.433  24.675  25.387  1.00  0.00     0.031 A 
ATOM     15  C   UNL A   1      46.674  25.426  25.048  1.00  0.00     0.074 A 
ATOM     16  C   UNL A   1      44.338  25.382  25.727  1.00  0.00     0.049 A 
ATOM     17  N   UNL A   1      47.209  26.449  25.636  1.00  0.00    -0.248 NA
ATOM     18  C   UNL A   1      47.450  24.899  23.911  1.00  0.00     0.031 C 
ATOM     19  C   UNL A   1      42.947  24.919  25.715  1.00  0.00     0.029 A 
ATOM     20  N   UNL A   1      44.241  26.694  26.112  1.00  0.00    -0.354 N 
ATOM     21  C   UNL A   1      48.477  26.547  25.081  1.00  0.00     0.074 A 
ATOM     22  C   UNL A   1      48.595  25.536  24.061  1.00  0.00     0.031 C 
ATOM     23  C   UNL A   1      42.139  25.942  26.041  1.00  0.00     0.029 A 
ATOM     24  C   UNL A   1      42.969  27.054  26.479  1.00  0.00     0.049 A 
ATOM     25  H   UNL A   1      45.005  27.313  26.124  1.00  0.00     0.167 HD
ATOM     26  C   UNL A   1      49.457  27.378  25.492  1.00  0.00     0.031 A 
ATOM     27  C   UNL A   1      42.556  28.101  27.217  1.00  0.00     0.031 A 
ATOM     28  C   UNL A   1      49.186  28.413  26.448  1.00  0.00     0.049 A 
ATOM     29  C   UNL A   1      43.635  29.003  27.760  1.00  0.00     0.074 A 
ATOM     30  C   UNL A   1      50.043  29.302  27.060  1.00  0.00     0.029 A 
ATOM     31  N   UNL A   1      47.900  28.710  26.896  1.00  0.00    -0.354 N 
ATOM     32  N   UNL A   1      44.930  28.965  27.532  1.00  0.00    -0.248 NA
ATOM     33  C   UNL A   1      43.218  30.047  28.701  1.00  0.00     0.031 C 
ATOM     34  C   UNL A   1      49.276  30.105  27.915  1.00  0.00     0.029 A 
ATOM     35  C   UNL A   1      47.934  29.763  27.780  1.00  0.00     0.049 A 
ATOM     36  H   UNL A   1      47.085  28.235  26.619  1.00  0.00     0.167 HD
ATOM     37  C   UNL A   1      45.484  29.989  28.286  1.00  0.00     0.074 A 
ATOM     38  C   UNL A   1      44.378  30.633  28.973  1.00  0.00     0.031 C 
ATOM     39  C   UNL A   1      46.783  30.367  28.406  1.00  0.00     0.031 A 
BRANCH  26  40
ATOM     40  C   UNL A   1      50.853  27.025  25.066  1.00  0.00    -0.014 A 
ATOM     41  C   UNL A   1      51.417  27.436  23.849  1.00  0.00     0.009 A 
ATOM     42  C   UNL A   1      51.572  26.119  25.866  1.00  0.00     0.009 A 
ATOM     43  C   UNL A   1      52.628  26.891  23.409  1.00  0.00     0.001 A 
ATOM     44  C   UNL A   1      52.800  25.608  25.446  1.00  0.00     0.001 A 
ATOM     45  C   UNL A   1      53.317  25.978  24.207  1.00  0.00     0.000 A 
ENDBRANCH  26  40
BRANCH  27  46
ATOM     46  C   UNL A   1      41.128  28.218  27.629  1.00  0.00    -0.014 A 
ATOM     47  C   UNL A   1      40.216  28.988  26.893  1.00  0.00     0.009 A 
ATOM     48  C   UNL A   1      40.656  27.527  28.760  1.00  0.00     0.009 A 
ATOM     49  C   UNL A   1      38.872  29.061  27.281  1.00  0.00     0.001 A 
ATOM     50  C   UNL A   1      39.309  27.572  29.125  1.00  0.00     0.001 A 
ATOM     51  C   UNL A   1      38.417  28.345  28.388  1.00  0.00     0.000 A 
ENDBRANCH  27  46
BRANCH  39  52
ATOM     52  C   UNL A   1      47.058  31.583  29.234  1.00  0.00    -0.014 A 
ATOM     53  C   UNL A   1      47.393  31.486  30.590  1.00  0.00     0.009 A 
ATOM     54  C   UNL A   1      47.101  32.832  28.595  1.00  0.00     0.009 A 
ATOM     55  C   UNL A   1      47.763  32.630  31.297  1.00  0.00     0.001 A 
ATOM     56  C   UNL A   1      47.499  33.966  29.296  1.00  0.00     0.001 A 
ATOM     57  C   UNL A   1      47.826  33.864  30.646  1.00  0.00     0.000 A 
ENDBRANCH  39  52
ENDBRANCH  13  14
ENDBRANCH   6   8
ENDBRANCH   5   6
ENDBRANCH   4   5
ENDBRANCH   3   4
ENDBRANCH   2   3
ENDBRANCH   1   2
BRANCH   1  58
ATOM     58  C   UNL A   1      37.423  21.348  24.608  1.00  0.00     0.261 C 
BRANCH  58  59
ATOM     59  O   UNL A   1      36.236  21.024  25.341  1.00  0.00    -0.463 OA
BRANCH  59  60
ATOM     60  C   UNL A   1      35.200  21.837  25.203  1.00  0.00     0.310 C 
ATOM     61  O   UNL A   1      35.316  23.081  25.188  1.00  0.00    -0.252 OA
BRANCH  60  62
ATOM     62  C   UNL A   1      33.895  21.077  25.100  1.00  0.00     0.115 C 
ATOM     63  C   UNL A   1      33.573  20.714  26.589  1.00  0.00     0.043 C 
ATOM     64  C   UNL A   1      32.650  21.798  24.486  1.00  0.00     0.096 C 
ATOM     65  C   UNL A   1      33.341  21.985  27.368  1.00  0.00    -0.030 C 
ATOM     66  C   UNL A   1      31.936  22.770  25.496  1.00  0.00     0.041 C 
ATOM     67  C   UNL A   1      32.623  22.971  26.819  1.00  0.00    -0.030 C 
BRANCH  64  68
ATOM     68  C   UNL A   1      32.258  22.199  23.004  1.00  0.00     0.224 C 
ATOM     69  O   UNL A   1      31.966  21.231  22.270  1.00  0.00    -0.275 OA
ATOM     70  N   UNL A   1      32.119  23.379  22.340  1.00  0.00    -0.351 N 
ATOM     71  H   UNL A   1      31.885  23.239  21.395  1.00  0.00     0.163 HD
BRANCH  70  72
ATOM     72  C   UNL A   1      32.229  24.806  22.663  1.00  0.00     0.103 C 
ATOM     73  C   UNL A   1      33.648  25.098  23.041  1.00  0.00     0.048 C 
ATOM     74  C   UNL A   1      31.514  25.542  23.850  1.00  0.00     0.141 C 
ATOM     75  C   UNL A   1      33.713  26.117  24.106  1.00  0.00     0.119 C 
ATOM     76  N   UNL A   1      32.417  26.720  24.047  1.00  0.00    -0.369 N 
BRANCH  76  77
ATOM     77  C   UNL A   1      32.441  27.816  24.888  1.00  0.00     0.038 A 
ATOM     78  C   UNL A   1      31.391  28.782  24.822  1.00  0.00     0.026 A 
ATOM     79  C   UNL A   1      33.540  28.121  25.671  1.00  0.00     0.046 A 
ATOM     80  C   UNL A   1      31.485  30.034  25.426  1.00  0.00     0.004 A 
ATOM     81  C   UNL A   1      33.616  29.361  26.315  1.00  0.00     0.043 A 
ATOM     82  C   UNL A   1      32.610  30.322  26.182  1.00  0.00     0.020 A 
ATOM     83  Cl  UNL A   1      35.008  29.726  27.258  1.00  0.00    -0.084 Cl
ENDBRANCH  76  77
ENDBRANCH  70  72
ENDBRANCH  64  68
ENDBRANCH  60  62
ENDBRANCH  59  60
ENDBRANCH  58  59
ENDBRANCH   1  58
TORSDOF 17
ENDMDL
MODEL 2
REMARK VINA RESULT:     -10.9      4.009      4.662
REMARK SMILES O=C(OCCOCCOC(=O)[C@H]1CC=CC[C@H]1C(=O)N[C@@H]1CCN(c2cccc(Cl)c2)C1)c1ccc(-c2c3nc(c(-c4ccccc4)c4ccc([nH]4)c(-c4ccccc4)c4nc(c(-c5ccccc5)c5ccc2[nH]5)C=C4)C=C3)cc1
REMARK SMILES IDX 7 1 6 2 5 3 4 4 3 5 2 6 1 7 33 8 34 9 80 10 35 11 79 12
REMARK SMILES IDX 36 13 37 14 38 15 73 16 39 17 78 18 72 19 74 20 40 21 77 22
REMARK SMILES IDX 71 23 70 24 41 26 63 27 48 28 62 29 49 30 52 31 61 32 75 33
REMARK SMILES IDX 50 34 51 35 60 37 76 38 53 39 42 40 43 41 47 42 44 43 46 44
REMARK SMILES IDX 45 45 64 46 65 47 69 48 66 49 68 50 67 51 54 52 55 53 59 54
REMARK SMILES IDX 56 55 58 56 57 57 8 58 9 59 10 60 11 61 12 62 13 63 17 64
REMARK SMILES IDX 14 65 16 66 15 67 18 68 19 69 20 70 21 72 22 73 32 74 23 75
REMARK SMILES IDX 24 76 25 77 26 78 31 79 27 80 29 81 28 82 30 83
REMARK H PARENT 74 25 52 36 20 71
REMARK Flexibility Score: inf
ROOT
ATOM      1  C   UNL A   1      37.977  22.821  25.231  1.00  0.00     0.202 C 
ENDROOT
BRANCH   1   2
ATOM      2  O   UNL A   1      38.572  21.545  25.676  1.00  0.00    -0.374 OA
BRANCH   2   3
ATOM      3  C   UNL A   1      39.956  21.469  26.122  1.00  0.00     0.202 C 
BRANCH   3   4
ATOM      4  C   UNL A   1      40.513  19.960  26.414  1.00  0.00     0.261 C 
BRANCH   4   5
ATOM      5  O   UNL A   1      41.934  19.549  26.138  1.00  0.00    -0.460 OA
BRANCH   5   6
ATOM      6  C   UNL A   1      42.949  19.977  25.313  1.00  0.00     0.338 C 
ATOM      7  O   UNL A   1      43.450  19.239  24.467  1.00  0.00    -0.246 OA
BRANCH   6   8
ATOM      8  C   UNL A   1      43.633  21.256  25.588  1.00  0.00     0.060 A 
ATOM      9  C   UNL A   1      44.990  21.207  25.415  1.00  0.00     0.016 A 
ATOM     10  C   UNL A   1      43.111  22.548  25.553  1.00  0.00     0.016 A 
ATOM     11  C   UNL A   1      45.764  22.047  26.159  1.00  0.00     0.010 A 
ATOM     12  C   UNL A   1      43.969  23.613  25.913  1.00  0.00     0.010 A 
ATOM     13  C   UNL A   1      45.274  23.311  26.386  1.00  0.00    -0.014 A 
BRANCH  13  14
ATOM     14  C   UNL A   1      45.932  24.078  27.461  1.00  0.00     0.031 A 
ATOM     15  C   UNL A   1      47.136  24.840  27.027  1.00  0.00     0.074 A 
ATOM     16  C   UNL A   1      45.396  24.371  28.661  1.00  0.00     0.049 A 
ATOM     17  N   UNL A   1      48.194  25.169  27.700  1.00  0.00    -0.248 NA
ATOM     18  C   UNL A   1      47.168  25.232  25.607  1.00  0.00     0.031 C 
ATOM     19  C   UNL A   1      44.040  24.061  29.124  1.00  0.00     0.029 A 
ATOM     20  N   UNL A   1      45.950  25.057  29.711  1.00  0.00    -0.354 N 
ATOM     21  C   UNL A   1      49.095  25.607  26.740  1.00  0.00     0.074 A 
ATOM     22  C   UNL A   1      48.433  25.575  25.460  1.00  0.00     0.031 C 
ATOM     23  C   UNL A   1      43.860  24.588  30.348  1.00  0.00     0.029 A 
ATOM     24  C   UNL A   1      45.144  25.081  30.822  1.00  0.00     0.049 A 
ATOM     25  H   UNL A   1      46.833  25.487  29.672  1.00  0.00     0.167 HD
ATOM     26  C   UNL A   1      50.391  25.913  26.955  1.00  0.00     0.031 A 
ATOM     27  C   UNL A   1      45.464  25.336  32.104  1.00  0.00     0.031 A 
ATOM     28  C   UNL A   1      50.909  26.008  28.290  1.00  0.00     0.049 A 
ATOM     29  C   UNL A   1      46.921  25.602  32.390  1.00  0.00     0.074 A 
ATOM     30  C   UNL A   1      52.198  26.219  28.728  1.00  0.00     0.029 A 
ATOM     31  N   UNL A   1      50.100  25.931  29.422  1.00  0.00    -0.354 N 
ATOM     32  N   UNL A   1      47.917  25.715  31.539  1.00  0.00    -0.248 NA
ATOM     33  C   UNL A   1      47.312  25.715  33.798  1.00  0.00     0.031 C 
ATOM     34  C   UNL A   1      52.171  26.221  30.129  1.00  0.00     0.029 A 
ATOM     35  C   UNL A   1      50.855  26.084  30.560  1.00  0.00     0.049 A 
ATOM     36  H   UNL A   1      49.126  25.787  29.408  1.00  0.00     0.167 HD
ATOM     37  C   UNL A   1      49.054  25.930  32.304  1.00  0.00     0.074 A 
ATOM     38  C   UNL A   1      48.616  25.937  33.690  1.00  0.00     0.031 C 
ATOM     39  C   UNL A   1      50.341  26.105  31.909  1.00  0.00     0.031 A 
BRANCH  26  40
ATOM     40  C   UNL A   1      51.282  25.933  25.746  1.00  0.00    -0.014 A 
ATOM     41  C   UNL A   1      52.337  25.030  25.549  1.00  0.00     0.009 A 
ATOM     42  C   UNL A   1      51.136  27.002  24.844  1.00  0.00     0.009 A 
ATOM     43  C   UNL A   1      53.267  25.240  24.525  1.00  0.00     0.001 A 
ATOM     44  C   UNL A   1      52.040  27.186  23.798  1.00  0.00     0.001 A 
ATOM     45  C   UNL A   1      53.118  26.317  23.652  1.00  0.00     0.000 A 
ENDBRANCH  26  40
BRANCH  27  46
ATOM     46  C   UNL A   1      44.453  25.156  33.185  1.00  0.00    -0.014 A 
ATOM     47  C   UNL A   1      43.687  26.231  33.656  1.00  0.00     0.009 A 
ATOM     48  C   UNL A   1      44.226  23.882  33.739  1.00  0.00     0.009 A 
ATOM     49  C   UNL A   1      42.722  26.033  34.651  1.00  0.00     0.001 A 
ATOM     50  C   UNL A   1      43.239  23.680  34.706  1.00  0.00     0.001 A 
ATOM     51  C   UNL A   1      42.490  24.759  35.167  1.00  0.00     0.000 A 
ENDBRANCH  27  46
BRANCH  39  52
ATOM     52  C   UNL A   1      51.341  26.411  32.979  1.00  0.00    -0.014 A 
ATOM     53  C   UNL A   1      52.081  25.399  33.603  1.00  0.00     0.009 A 
ATOM     54  C   UNL A   1      51.625  27.756  33.265  1.00  0.00     0.009 A 
ATOM     55  C   UNL A   1      53.089  25.734  34.507  1.00  0.00     0.001 A 
ATOM     56  C   UNL A   1      52.651  28.086  34.143  1.00  0.00     0.001 A 
ATOM     57  C   UNL A   1      53.380  27.075  34.765  1.00  0.00     0.000 A 
ENDBRANCH  39  52
ENDBRANCH  13  14
ENDBRANCH   6   8
ENDBRANCH   5   6
ENDBRANCH   4   5
ENDBRANCH   3   4
ENDBRANCH   2   3
ENDBRANCH   1   2
BRANCH   1  58
ATOM     58  C   UNL A   1      37.049  23.682  26.156  1.00  0.00     0.261 C 
BRANCH  58  59
ATOM     59  O   UNL A   1      35.814  22.988  26.363  1.00  0.00    -0.463 OA
BRANCH  59  60
ATOM     60  C   UNL A   1      34.794  23.327  25.590  1.00  0.00     0.310 C 
ATOM     61  O   UNL A   1      34.622  24.492  25.171  1.00  0.00    -0.252 OA
BRANCH  60  62
ATOM     62  C   UNL A   1      33.876  22.154  25.317  1.00  0.00     0.115 C 
ATOM     63  C   UNL A   1      33.714  21.491  26.726  1.00  0.00     0.043 C 
ATOM     64  C   UNL A   1      32.452  22.432  24.733  1.00  0.00     0.096 C 
ATOM     65  C   UNL A   1      33.013  22.457  27.649  1.00  0.00    -0.030 C 
ATOM     66  C   UNL A   1      31.420  22.910  25.819  1.00  0.00     0.041 C 
ATOM     67  C   UNL A   1      31.975  23.167  27.193  1.00  0.00    -0.030 C 
BRANCH  64  68
ATOM     68  C   UNL A   1      31.940  22.860  23.296  1.00  0.00     0.224 C 
ATOM     69  O   UNL A   1      31.807  21.910  22.494  1.00  0.00    -0.275 OA
ATOM     70  N   UNL A   1      31.562  24.038  22.730  1.00  0.00    -0.351 N 
ATOM     71  H   UNL A   1      31.324  23.926  21.782  1.00  0.00     0.163 HD
BRANCH  70  72
ATOM     72  C   UNL A   1      31.417  25.433  23.162  1.00  0.00     0.103 C 
ATOM     73  C   UNL A   1      30.107  25.576  23.870  1.00  0.00     0.048 C 
ATOM     74  C   UNL A   1      31.314  26.685  22.222  1.00  0.00     0.141 C 
ATOM     75  C   UNL A   1      29.498  26.892  23.597  1.00  0.00     0.119 C 
ATOM     76  N   UNL A   1      30.605  27.658  23.111  1.00  0.00    -0.369 N 
BRANCH  76  77
ATOM     77  C   UNL A   1      30.174  28.967  22.999  1.00  0.00     0.038 A 
ATOM     78  C   UNL A   1      30.316  29.856  24.107  1.00  0.00     0.026 A 
ATOM     79  C   UNL A   1      29.436  29.410  21.916  1.00  0.00     0.046 A 
ATOM     80  C   UNL A   1      29.665  31.086  24.170  1.00  0.00     0.004 A 
ATOM     81  C   UNL A   1      28.817  30.664  21.959  1.00  0.00     0.043 A 
ATOM     82  C   UNL A   1      28.910  31.492  23.082  1.00  0.00     0.020 A 
ATOM     83  Cl  UNL A   1      27.880  31.177  20.611  1.00  0.00    -0.084 Cl
ENDBRANCH  76  77
ENDBRANCH  70  72
ENDBRANCH  64  68
ENDBRANCH  60  62
ENDBRANCH  59  60
ENDBRANCH  58  59
ENDBRANCH   1  58
TORSDOF 17
ENDMDL
MODEL 3
REMARK VINA RESULT:     -10.8      3.170      8.271
REMARK SMILES O=C(OCCOCCOC(=O)[C@H]1CC=CC[C@H]1C(=O)N[C@@H]1CCN(c2cccc(Cl)c2)C1)c1ccc(-c2c3nc(c(-c4ccccc4)c4ccc([nH]4)c(-c4ccccc4)c4nc(c(-c5ccccc5)c5ccc2[nH]5)C=C4)C=C3)cc1
REMARK SMILES IDX 7 1 6 2 5 3 4 4 3 5 2 6 1 7 33 8 34 9 80 10 35 11 79 12
REMARK SMILES IDX 36 13 37 14 38 15 73 16 39 17 78 18 72 19 74 20 40 21 77 22
REMARK SMILES IDX 71 23 70 24 41 26 63 27 48 28 62 29 49 30 52 31 61 32 75 33
REMARK SMILES IDX 50 34 51 35 60 37 76 38 53 39 42 40 43 41 47 42 44 43 46 44
REMARK SMILES IDX 45 45 64 46 65 47 69 48 66 49 68 50 67 51 54 52 55 53 59 54
REMARK SMILES IDX 56 55 58 56 57 57 8 58 9 59 10 60 11 61 12 62 13 63 17 64
REMARK SMILES IDX 14 65 16 66 15 67 18 68 19 69 20 70 21 72 22 73 32 74 23 75
REMARK SMILES IDX 24 76 25 77 26 78 31 79 27 80 29 81 28 82 30 83
REMARK H PARENT 74 25 52 36 20 71
REMARK Flexibility Score: inf
ROOT
ATOM      1  C   UNL A   1      32.645  30.229  27.057  1.00  0.00     0.202 C 
ENDROOT
BRANCH   1   2
ATOM      2  O   UNL A   1      34.097  30.488  26.983  1.00  0.00    -0.374 OA
BRANCH   2   3
ATOM      3  C   UNL A   1      35.066  29.404  27.062  1.00  0.00     0.202 C 
BRANCH   3   4
ATOM      4  C   UNL A   1      36.354  29.689  28.025  1.00  0.00     0.261 C 
BRANCH   4   5
ATOM      5  O   UNL A   1      36.579  28.958  29.322  1.00  0.00    -0.460 OA
BRANCH   5   6
ATOM      6  C   UNL A   1      37.240  29.213  30.503  1.00  0.00     0.338 C 
ATOM      7  O   UNL A   1      36.650  29.625  31.499  1.00  0.00    -0.246 OA
BRANCH   6   8
ATOM      8  C   UNL A   1      38.716  29.232  30.532  1.00  0.00     0.060 A 
ATOM      9  C   UNL A   1      39.260  30.449  30.220  1.00  0.00     0.016 A 
ATOM     10  C   UNL A   1      39.585  28.393  31.227  1.00  0.00     0.016 A 
ATOM     11  C   UNL A   1      40.496  30.474  29.646  1.00  0.00     0.010 A 
ATOM     12  C   UNL A   1      40.974  28.588  31.043  1.00  0.00     0.010 A 
ATOM     13  C   UNL A   1      41.411  29.550  30.093  1.00  0.00    -0.014 A 
BRANCH  13  14
ATOM     14  C   UNL A   1      42.599  29.351  29.243  1.00  0.00     0.031 A 
ATOM     15  C   UNL A   1      42.578  28.101  28.433  1.00  0.00     0.074 A 
ATOM     16  C   UNL A   1      43.510  30.292  28.929  1.00  0.00     0.049 A 
ATOM     17  N   UNL A   1      43.561  27.368  28.015  1.00  0.00    -0.248 NA
ATOM     18  C   UNL A   1      41.240  27.576  28.102  1.00  0.00     0.031 C 
ATOM     19  C   UNL A   1      43.477  31.711  29.296  1.00  0.00     0.029 A 
ATOM     20  N   UNL A   1      44.644  30.178  28.167  1.00  0.00    -0.354 N 
ATOM     21  C   UNL A   1      42.960  26.199  27.569  1.00  0.00     0.074 A 
ATOM     22  C   UNL A   1      41.534  26.356  27.694  1.00  0.00     0.031 C 
ATOM     23  C   UNL A   1      44.522  32.338  28.726  1.00  0.00     0.029 A 
ATOM     24  C   UNL A   1      45.391  31.329  28.140  1.00  0.00     0.049 A 
ATOM     25  H   UNL A   1      44.896  29.356  27.689  1.00  0.00     0.167 HD
ATOM     26  C   UNL A   1      43.604  25.079  27.180  1.00  0.00     0.031 A 
ATOM     27  C   UNL A   1      46.685  31.500  27.812  1.00  0.00     0.031 A 
ATOM     28  C   UNL A   1      45.027  25.079  26.998  1.00  0.00     0.049 A 
ATOM     29  C   UNL A   1      47.454  30.255  27.451  1.00  0.00     0.074 A 
ATOM     30  C   UNL A   1      45.882  24.041  26.694  1.00  0.00     0.029 A 
ATOM     31  N   UNL A   1      45.799  26.237  27.071  1.00  0.00    -0.354 N 
ATOM     32  N   UNL A   1      47.009  29.024  27.318  1.00  0.00    -0.248 NA
ATOM     33  C   UNL A   1      48.899  30.399  27.253  1.00  0.00     0.031 C 
ATOM     34  C   UNL A   1      47.179  24.570  26.632  1.00  0.00     0.029 A 
ATOM     35  C   UNL A   1      47.120  25.946  26.825  1.00  0.00     0.049 A 
ATOM     36  H   UNL A   1      45.448  27.134  27.270  1.00  0.00     0.167 HD
ATOM     37  C   UNL A   1      48.114  28.246  27.005  1.00  0.00     0.074 A 
ATOM     38  C   UNL A   1      49.250  29.152  26.962  1.00  0.00     0.031 C 
ATOM     39  C   UNL A   1      48.193  26.911  26.774  1.00  0.00     0.031 A 
BRANCH  26  40
ATOM     40  C   UNL A   1      42.793  23.815  27.162  1.00  0.00    -0.014 A 
ATOM     41  C   UNL A   1      42.402  23.131  28.323  1.00  0.00     0.009 A 
ATOM     42  C   UNL A   1      42.541  23.218  25.915  1.00  0.00     0.009 A 
ATOM     43  C   UNL A   1      41.850  21.849  28.237  1.00  0.00     0.001 A 
ATOM     44  C   UNL A   1      41.951  21.956  25.829  1.00  0.00     0.001 A 
ATOM     45  C   UNL A   1      41.626  21.263  26.992  1.00  0.00     0.000 A 
ENDBRANCH  26  40
BRANCH  27  46
ATOM     46  C   UNL A   1      47.343  32.824  28.002  1.00  0.00    -0.014 A 
ATOM     47  C   UNL A   1      47.407  33.765  26.964  1.00  0.00     0.009 A 
ATOM     48  C   UNL A   1      47.894  33.170  29.250  1.00  0.00     0.009 A 
ATOM     49  C   UNL A   1      48.005  35.014  27.173  1.00  0.00     0.001 A 
ATOM     50  C   UNL A   1      48.458  34.429  29.467  1.00  0.00     0.001 A 
ATOM     51  C   UNL A   1      48.519  35.350  28.425  1.00  0.00     0.000 A 
ENDBRANCH  27  46
BRANCH  39  52
ATOM     52  C   UNL A   1      49.529  26.374  26.365  1.00  0.00    -0.014 A 
ATOM     53  C   UNL A   1      49.959  26.417  25.033  1.00  0.00     0.009 A 
ATOM     54  C   UNL A   1      50.410  25.937  27.367  1.00  0.00     0.009 A 
ATOM     55  C   UNL A   1      51.257  26.021  24.710  1.00  0.00     0.001 A 
ATOM     56  C   UNL A   1      51.713  25.572  27.045  1.00  0.00     0.001 A 
ATOM     57  C   UNL A   1      52.134  25.611  25.717  1.00  0.00     0.000 A 
ENDBRANCH  39  52
ENDBRANCH  13  14
ENDBRANCH   6   8
ENDBRANCH   5   6
ENDBRANCH   4   5
ENDBRANCH   3   4
ENDBRANCH   2   3
ENDBRANCH   1   2
BRANCH   1  58
ATOM     58  C   UNL A   1      31.737  30.172  25.781  1.00  0.00     0.261 C 
BRANCH  58  59
ATOM     59  O   UNL A   1      32.325  29.286  24.822  1.00  0.00    -0.463 OA
BRANCH  59  60
ATOM     60  C   UNL A   1      32.121  27.989  24.993  1.00  0.00     0.310 C 
ATOM     61  O   UNL A   1      33.043  27.189  25.260  1.00  0.00    -0.252 OA
BRANCH  60  62
ATOM     62  C   UNL A   1      30.667  27.614  24.795  1.00  0.00     0.115 C 
ATOM     63  C   UNL A   1      30.363  28.110  23.342  1.00  0.00     0.043 C 
ATOM     64  C   UNL A   1      30.256  26.108  24.902  1.00  0.00     0.096 C 
ATOM     65  C   UNL A   1      31.208  27.327  22.367  1.00  0.00    -0.030 C 
ATOM     66  C   UNL A   1      30.583  25.284  23.604  1.00  0.00     0.041 C 
ATOM     67  C   UNL A   1      31.357  26.007  22.537  1.00  0.00    -0.030 C 
BRANCH  64  68
ATOM     68  C   UNL A   1      30.097  25.119  26.129  1.00  0.00     0.224 C 
ATOM     69  O   UNL A   1      29.102  25.348  26.850  1.00  0.00    -0.275 OA
ATOM     70  N   UNL A   1      30.780  24.026  26.567  1.00  0.00    -0.351 N 
ATOM     71  H   UNL A   1      30.400  23.672  27.403  1.00  0.00     0.163 HD
BRANCH  70  72
ATOM     72  C   UNL A   1      31.935  23.239  26.122  1.00  0.00     0.103 C 
ATOM     73  C   UNL A   1      32.540  22.569  27.316  1.00  0.00     0.048 C 
ATOM     74  C   UNL A   1      33.250  23.808  25.482  1.00  0.00     0.141 C 
ATOM     75  C   UNL A   1      34.009  22.499  27.196  1.00  0.00     0.119 C 
ATOM     76  N   UNL A   1      34.223  22.716  25.798  1.00  0.00    -0.369 N 
BRANCH  76  77
ATOM     77  C   UNL A   1      35.564  22.487  25.553  1.00  0.00     0.038 A 
ATOM     78  C   UNL A   1      35.980  21.231  25.015  1.00  0.00     0.026 A 
ATOM     79  C   UNL A   1      36.552  23.356  25.981  1.00  0.00     0.046 A 
ATOM     80  C   UNL A   1      37.313  20.825  25.003  1.00  0.00     0.004 A 
ATOM     81  C   UNL A   1      37.894  22.968  25.929  1.00  0.00     0.043 A 
ATOM     82  C   UNL A   1      38.278  21.706  25.463  1.00  0.00     0.020 A 
ATOM     83  Cl  UNL A   1      39.100  24.056  26.496  1.00  0.00    -0.084 Cl
ENDBRANCH  76  77
ENDBRANCH  70  72
ENDBRANCH  64  68
ENDBRANCH  60  62
ENDBRANCH  59  60
ENDBRANCH  58  59
ENDBRANCH   1  58
TORSDOF 17
ENDMDL
