MODEL 1
REMARK VINA RESULT:     -10.7      0.000      0.000
REMARK SMILES Cc1cc2[nH]ccc2nc1C(=O)OCCOCCOC(=O)c1ccc(-c2c3nc(c(-c4ccccc4)c4ccc([nH]4)c(-c4ccccc4)c4nc(c(-c5ccccc5)c5ccc2[nH]5)C=C4)C=C3)cc1
REMARK SMILES IDX 17 1 16 2 15 3 14 4 13 5 11 6 12 7 10 8 1 9 2 10 3 11 4 12
REMARK SMILES IDX 9 13 5 14 8 15 6 16 7 18 18 19 19 20 20 21 21 22 22 23 23 24
REMARK SMILES IDX 69 25 24 26 68 27 25 28 26 29 27 30 62 31 28 32 67 33 61 34
REMARK SMILES IDX 63 35 29 36 66 37 60 38 59 39 30 41 52 42 37 43 51 44 38 45
REMARK SMILES IDX 41 46 50 47 64 48 39 49 40 50 49 52 65 53 42 54 31 55 32 56
REMARK SMILES IDX 36 57 33 58 35 59 34 60 53 61 54 62 58 63 55 64 57 65 56 66
REMARK SMILES IDX 43 67 44 68 48 69 45 70 47 71 46 72
REMARK H PARENT 5 17 63 40 41 51
REMARK Flexibility Score: inf
ROOT
ATOM      1  C   UNL A   1      42.285  19.315  26.465  1.00  0.00     0.202 C 
ENDROOT
BRANCH   1   2
ATOM      2  O   UNL A   1      41.552  20.426  25.958  1.00  0.00    -0.374 OA
BRANCH   2   3
ATOM      3  C   UNL A   1      40.136  20.480  26.139  1.00  0.00     0.202 C 
BRANCH   3   4
ATOM      4  C   UNL A   1      39.512  21.853  26.386  1.00  0.00     0.261 C 
BRANCH   4   5
ATOM      5  O   UNL A   1      38.148  21.889  25.926  1.00  0.00    -0.459 OA
BRANCH   5   6
ATOM      6  C   UNL A   1      37.570  23.118  25.932  1.00  0.00     0.357 C 
ATOM      7  O   UNL A   1      38.149  24.172  26.147  1.00  0.00    -0.244 OA
BRANCH   6   8
ATOM      8  C   UNL A   1      36.139  23.046  25.482  1.00  0.00     0.152 A 
ATOM      9  C   UNL A   1      36.715  22.887  22.992  1.00  0.00     0.047 C 
ATOM     10  C   UNL A   1      35.753  22.863  24.144  1.00  0.00    -0.016 A 
ATOM     11  C   UNL A   1      34.395  22.621  23.876  1.00  0.00     0.034 A 
ATOM     12  C   UNL A   1      33.523  22.651  24.963  1.00  0.00     0.064 A 
ATOM     13  N   UNL A   1      35.280  23.123  26.535  1.00  0.00    -0.239 NA
ATOM     14  N   UNL A   1      32.168  22.436  25.060  1.00  0.00    -0.360 N 
ATOM     15  C   UNL A   1      33.979  22.933  26.244  1.00  0.00     0.089 A 
ATOM     16  C   UNL A   1      31.751  22.652  26.351  1.00  0.00     0.085 A 
ATOM     17  H   UNL A   1      31.583  22.168  24.315  1.00  0.00     0.166 HD
ATOM     18  C   UNL A   1      32.859  22.969  27.105  1.00  0.00     0.048 A 
ENDBRANCH   6   8
ENDBRANCH   5   6
ENDBRANCH   4   5
ENDBRANCH   3   4
ENDBRANCH   2   3
ENDBRANCH   1   2
BRANCH   1  19
ATOM     19  C   UNL A   1      43.411  18.765  25.600  1.00  0.00     0.261 C 
BRANCH  19  20
ATOM     20  O   UNL A   1      43.589  19.501  24.399  1.00  0.00    -0.460 OA
BRANCH  20  21
ATOM     21  C   UNL A   1      44.879  19.825  24.150  1.00  0.00     0.338 C 
ATOM     22  O   UNL A   1      45.796  19.074  23.874  1.00  0.00    -0.246 OA
BRANCH  21  23
ATOM     23  C   UNL A   1      45.061  21.257  24.406  1.00  0.00     0.060 A 
ATOM     24  C   UNL A   1      46.060  21.602  25.319  1.00  0.00     0.016 A 
ATOM     25  C   UNL A   1      44.074  22.165  23.999  1.00  0.00     0.016 A 
ATOM     26  C   UNL A   1      45.929  22.789  26.003  1.00  0.00     0.010 A 
ATOM     27  C   UNL A   1      43.938  23.343  24.690  1.00  0.00     0.010 A 
ATOM     28  C   UNL A   1      44.810  23.588  25.745  1.00  0.00    -0.014 A 
BRANCH  28  29
ATOM     29  C   UNL A   1      44.595  24.735  26.593  1.00  0.00     0.031 A 
ATOM     30  C   UNL A   1      45.680  25.730  26.500  1.00  0.00     0.074 A 
ATOM     31  C   UNL A   1      43.475  24.896  27.322  1.00  0.00     0.049 A 
ATOM     32  N   UNL A   1      46.550  26.028  27.404  1.00  0.00    -0.248 NA
ATOM     33  C   UNL A   1      45.931  26.339  25.184  1.00  0.00     0.031 C 
ATOM     34  C   UNL A   1      42.230  24.127  27.272  1.00  0.00     0.029 A 
ATOM     35  N   UNL A   1      43.188  25.883  28.207  1.00  0.00    -0.354 N 
ATOM     36  C   UNL A   1      47.353  27.006  26.833  1.00  0.00     0.074 A 
ATOM     37  C   UNL A   1      47.049  27.021  25.425  1.00  0.00     0.031 C 
ATOM     38  C   UNL A   1      41.253  24.824  27.899  1.00  0.00     0.029 A 
ATOM     39  C   UNL A   1      41.840  26.004  28.513  1.00  0.00     0.049 A 
ATOM     40  H   UNL A   1      43.878  26.466  28.599  1.00  0.00     0.167 HD
ATOM     41  C   UNL A   1      48.014  27.913  27.599  1.00  0.00     0.031 A 
ATOM     42  C   UNL A   1      41.266  27.055  29.151  1.00  0.00     0.031 A 
ATOM     43  C   UNL A   1      48.104  27.492  28.973  1.00  0.00     0.049 A 
ATOM     44  C   UNL A   1      42.345  27.775  29.871  1.00  0.00     0.074 A 
ATOM     45  C   UNL A   1      48.684  26.423  29.626  1.00  0.00     0.029 A 
ATOM     46  N   UNL A   1      47.186  28.020  29.851  1.00  0.00    -0.354 N 
ATOM     47  N   UNL A   1      43.000  27.271  30.877  1.00  0.00    -0.248 NA
ATOM     48  C   UNL A   1      43.004  28.876  29.186  1.00  0.00     0.031 C 
ATOM     49  C   UNL A   1      47.766  26.081  30.662  1.00  0.00     0.029 A 
ATOM     50  C   UNL A   1      46.710  26.993  30.625  1.00  0.00     0.049 A 
ATOM     51  H   UNL A   1      46.919  28.965  29.911  1.00  0.00     0.167 HD
ATOM     52  C   UNL A   1      44.313  27.676  30.683  1.00  0.00     0.074 A 
ATOM     53  C   UNL A   1      44.237  28.738  29.681  1.00  0.00     0.031 C 
ATOM     54  C   UNL A   1      45.357  26.921  31.135  1.00  0.00     0.031 A 
BRANCH  41  55
ATOM     55  C   UNL A   1      48.185  29.348  27.179  1.00  0.00    -0.014 A 
ATOM     56  C   UNL A   1      49.463  29.925  27.243  1.00  0.00     0.009 A 
ATOM     57  C   UNL A   1      47.099  30.226  26.986  1.00  0.00     0.009 A 
ATOM     58  C   UNL A   1      49.634  31.312  27.168  1.00  0.00     0.001 A 
ATOM     59  C   UNL A   1      47.270  31.606  26.868  1.00  0.00     0.001 A 
ATOM     60  C   UNL A   1      48.538  32.151  26.985  1.00  0.00     0.000 A 
ENDBRANCH  41  55
BRANCH  42  61
ATOM     61  C   UNL A   1      39.972  27.711  28.844  1.00  0.00    -0.014 A 
ATOM     62  C   UNL A   1      39.000  27.861  29.849  1.00  0.00     0.009 A 
ATOM     63  C   UNL A   1      39.813  28.464  27.666  1.00  0.00     0.009 A 
ATOM     64  C   UNL A   1      37.949  28.777  29.706  1.00  0.00     0.001 A 
ATOM     65  C   UNL A   1      38.760  29.374  27.523  1.00  0.00     0.001 A 
ATOM     66  C   UNL A   1      37.841  29.547  28.551  1.00  0.00     0.000 A 
ENDBRANCH  42  61
BRANCH  54  67
ATOM     67  C   UNL A   1      45.046  25.760  32.051  1.00  0.00    -0.014 A 
ATOM     68  C   UNL A   1      45.000  25.874  33.453  1.00  0.00     0.009 A 
ATOM     69  C   UNL A   1      44.632  24.553  31.470  1.00  0.00     0.009 A 
ATOM     70  C   UNL A   1      44.573  24.801  34.245  1.00  0.00     0.001 A 
ATOM     71  C   UNL A   1      44.186  23.491  32.259  1.00  0.00     0.001 A 
ATOM     72  C   UNL A   1      44.159  23.613  33.646  1.00  0.00     0.000 A 
ENDBRANCH  54  67
ENDBRANCH  28  29
ENDBRANCH  21  23
ENDBRANCH  20  21
ENDBRANCH  19  20
ENDBRANCH   1  19
TORSDOF 14
ENDMDL
MODEL 2
REMARK VINA RESULT:     -10.1      5.411     10.970
REMARK SMILES Cc1cc2[nH]ccc2nc1C(=O)OCCOCCOC(=O)c1ccc(-c2c3nc(c(-c4ccccc4)c4ccc([nH]4)c(-c4ccccc4)c4nc(c(-c5ccccc5)c5ccc2[nH]5)C=C4)C=C3)cc1
REMARK SMILES IDX 17 1 16 2 15 3 14 4 13 5 11 6 12 7 10 8 1 9 2 10 3 11 4 12
REMARK SMILES IDX 9 13 5 14 8 15 6 16 7 18 18 19 19 20 20 21 21 22 22 23 23 24
REMARK SMILES IDX 69 25 24 26 68 27 25 28 26 29 27 30 62 31 28 32 67 33 61 34
REMARK SMILES IDX 63 35 29 36 66 37 60 38 59 39 30 41 52 42 37 43 51 44 38 45
REMARK SMILES IDX 41 46 50 47 64 48 39 49 40 50 49 52 65 53 42 54 31 55 32 56
REMARK SMILES IDX 36 57 33 58 35 59 34 60 53 61 54 62 58 63 55 64 57 65 56 66
REMARK SMILES IDX 43 67 44 68 48 69 45 70 47 71 46 72
REMARK H PARENT 5 17 63 40 41 51
REMARK Flexibility Score: inf
ROOT
ATOM      1  C   UNL A   1      33.348  34.555  28.918  1.00  0.00     0.202 C 
ENDROOT
BRANCH   1   2
ATOM      2  O   UNL A   1      33.159  34.375  30.317  1.00  0.00    -0.374 OA
BRANCH   2   3
ATOM      3  C   UNL A   1      33.227  35.505  31.189  1.00  0.00     0.202 C 
BRANCH   3   4
ATOM      4  C   UNL A   1      34.431  35.596  32.126  1.00  0.00     0.261 C 
BRANCH   4   5
ATOM      5  O   UNL A   1      35.190  34.373  32.111  1.00  0.00    -0.459 OA
BRANCH   5   6
ATOM      6  C   UNL A   1      35.351  33.779  33.323  1.00  0.00     0.357 C 
ATOM      7  O   UNL A   1      34.446  33.418  34.059  1.00  0.00    -0.244 OA
BRANCH   6   8
ATOM      8  C   UNL A   1      36.797  33.471  33.587  1.00  0.00     0.152 A 
ATOM      9  C   UNL A   1      36.649  31.058  32.741  1.00  0.00     0.047 C 
ATOM     10  C   UNL A   1      37.406  32.251  33.249  1.00  0.00    -0.016 A 
ATOM     11  C   UNL A   1      38.803  32.154  33.372  1.00  0.00     0.034 A 
ATOM     12  C   UNL A   1      39.468  33.264  33.889  1.00  0.00     0.064 A 
ATOM     13  N   UNL A   1      37.442  34.536  34.136  1.00  0.00    -0.239 NA
ATOM     14  N   UNL A   1      40.802  33.514  34.113  1.00  0.00    -0.360 N 
ATOM     15  C   UNL A   1      38.773  34.399  34.285  1.00  0.00     0.089 A 
ATOM     16  C   UNL A   1      40.955  34.741  34.710  1.00  0.00     0.085 A 
ATOM     17  H   UNL A   1      41.538  32.904  33.881  1.00  0.00     0.166 HD
ATOM     18  C   UNL A   1      39.706  35.308  34.835  1.00  0.00     0.048 A 
ENDBRANCH   6   8
ENDBRANCH   5   6
ENDBRANCH   4   5
ENDBRANCH   3   4
ENDBRANCH   2   3
ENDBRANCH   1   2
BRANCH   1  19
ATOM     19  C   UNL A   1      33.315  33.311  28.040  1.00  0.00     0.261 C 
BRANCH  19  20
ATOM     20  O   UNL A   1      34.285  32.345  28.421  1.00  0.00    -0.460 OA
BRANCH  20  21
ATOM     21  C   UNL A   1      35.560  32.752  28.221  1.00  0.00     0.338 C 
ATOM     22  O   UNL A   1      35.960  33.586  27.431  1.00  0.00    -0.246 OA
BRANCH  21  23
ATOM     23  C   UNL A   1      36.452  31.911  29.024  1.00  0.00     0.060 A 
ATOM     24  C   UNL A   1      37.632  32.509  29.472  1.00  0.00     0.016 A 
ATOM     25  C   UNL A   1      36.262  30.522  29.046  1.00  0.00     0.016 A 
ATOM     26  C   UNL A   1      38.714  31.697  29.724  1.00  0.00     0.010 A 
ATOM     27  C   UNL A   1      37.345  29.714  29.286  1.00  0.00     0.010 A 
ATOM     28  C   UNL A   1      38.574  30.319  29.525  1.00  0.00    -0.014 A 
BRANCH  28  29
ATOM     29  C   UNL A   1      39.761  29.504  29.620  1.00  0.00     0.031 A 
ATOM     30  C   UNL A   1      40.187  29.270  31.013  1.00  0.00     0.074 A 
ATOM     31  C   UNL A   1      40.353  28.959  28.542  1.00  0.00     0.049 A 
ATOM     32  N   UNL A   1      41.236  29.736  31.601  1.00  0.00    -0.248 NA
ATOM     33  C   UNL A   1      39.242  28.576  31.903  1.00  0.00     0.031 C 
ATOM     34  C   UNL A   1      39.862  28.889  27.163  1.00  0.00     0.029 A 
ATOM     35  N   UNL A   1      41.504  28.243  28.491  1.00  0.00    -0.354 N 
ATOM     36  C   UNL A   1      41.183  29.239  32.896  1.00  0.00     0.074 A 
ATOM     37  C   UNL A   1      39.860  28.697  33.077  1.00  0.00     0.031 C 
ATOM     38  C   UNL A   1      40.582  27.966  26.483  1.00  0.00     0.029 A 
ATOM     39  C   UNL A   1      41.665  27.497  27.332  1.00  0.00     0.049 A 
ATOM     40  H   UNL A   1      42.170  28.251  29.217  1.00  0.00     0.167 HD
ATOM     41  C   UNL A   1      42.311  29.068  33.633  1.00  0.00     0.031 A 
ATOM     42  C   UNL A   1      42.579  26.511  27.148  1.00  0.00     0.031 A 
ATOM     43  C   UNL A   1      43.422  29.810  33.097  1.00  0.00     0.049 A 
ATOM     44  C   UNL A   1      43.645  26.705  28.161  1.00  0.00     0.074 A 
ATOM     45  C   UNL A   1      43.686  31.148  32.886  1.00  0.00     0.029 A 
ATOM     46  N   UNL A   1      44.314  29.119  32.311  1.00  0.00    -0.354 N 
ATOM     47  N   UNL A   1      44.456  27.723  28.167  1.00  0.00    -0.248 NA
ATOM     48  C   UNL A   1      43.516  26.002  29.428  1.00  0.00     0.031 C 
ATOM     49  C   UNL A   1      44.393  31.195  31.648  1.00  0.00     0.029 A 
ATOM     50  C   UNL A   1      44.576  29.884  31.204  1.00  0.00     0.049 A 
ATOM     51  H   UNL A   1      44.695  28.233  32.508  1.00  0.00     0.167 HD
ATOM     52  C   UNL A   1      44.593  28.058  29.507  1.00  0.00     0.074 A 
ATOM     53  C   UNL A   1      44.068  26.906  30.240  1.00  0.00     0.031 C 
ATOM     54  C   UNL A   1      44.850  29.343  29.889  1.00  0.00     0.031 A 
BRANCH  41  55
ATOM     55  C   UNL A   1      42.492  27.903  34.569  1.00  0.00    -0.014 A 
ATOM     56  C   UNL A   1      42.879  26.662  34.040  1.00  0.00     0.009 A 
ATOM     57  C   UNL A   1      42.033  27.911  35.903  1.00  0.00     0.009 A 
ATOM     58  C   UNL A   1      42.763  25.487  34.792  1.00  0.00     0.001 A 
ATOM     59  C   UNL A   1      41.956  26.748  36.669  1.00  0.00     0.001 A 
ATOM     60  C   UNL A   1      42.299  25.530  36.104  1.00  0.00     0.000 A 
ENDBRANCH  41  55
BRANCH  42  61
ATOM     61  C   UNL A   1      42.387  25.208  26.467  1.00  0.00    -0.014 A 
ATOM     62  C   UNL A   1      43.250  24.820  25.427  1.00  0.00     0.009 A 
ATOM     63  C   UNL A   1      41.569  24.216  27.039  1.00  0.00     0.009 A 
ATOM     64  C   UNL A   1      43.336  23.482  25.021  1.00  0.00     0.001 A 
ATOM     65  C   UNL A   1      41.652  22.881  26.629  1.00  0.00     0.001 A 
ATOM     66  C   UNL A   1      42.551  22.510  25.636  1.00  0.00     0.000 A 
ENDBRANCH  42  61
BRANCH  54  67
ATOM     67  C   UNL A   1      45.210  30.342  28.813  1.00  0.00    -0.014 A 
ATOM     68  C   UNL A   1      46.535  30.602  28.414  1.00  0.00     0.009 A 
ATOM     69  C   UNL A   1      44.169  30.921  28.074  1.00  0.00     0.009 A 
ATOM     70  C   UNL A   1      46.802  31.434  27.321  1.00  0.00     0.001 A 
ATOM     71  C   UNL A   1      44.436  31.734  26.971  1.00  0.00     0.001 A 
ATOM     72  C   UNL A   1      45.752  31.993  26.595  1.00  0.00     0.000 A 
ENDBRANCH  54  67
ENDBRANCH  28  29
ENDBRANCH  21  23
ENDBRANCH  20  21
ENDBRANCH  19  20
ENDBRANCH   1  19
TORSDOF 14
ENDMDL
MODEL 3
REMARK VINA RESULT:     -10.0      5.160     10.227
REMARK SMILES Cc1cc2[nH]ccc2nc1C(=O)OCCOCCOC(=O)c1ccc(-c2c3nc(c(-c4ccccc4)c4ccc([nH]4)c(-c4ccccc4)c4nc(c(-c5ccccc5)c5ccc2[nH]5)C=C4)C=C3)cc1
REMARK SMILES IDX 17 1 16 2 15 3 14 4 13 5 11 6 12 7 10 8 1 9 2 10 3 11 4 12
REMARK SMILES IDX 9 13 5 14 8 15 6 16 7 18 18 19 19 20 20 21 21 22 22 23 23 24
REMARK SMILES IDX 69 25 24 26 68 27 25 28 26 29 27 30 62 31 28 32 67 33 61 34
REMARK SMILES IDX 63 35 29 36 66 37 60 38 59 39 30 41 52 42 37 43 51 44 38 45
REMARK SMILES IDX 41 46 50 47 64 48 39 49 40 50 49 52 65 53 42 54 31 55 32 56
REMARK SMILES IDX 36 57 33 58 35 59 34 60 53 61 54 62 58 63 55 64 57 65 56 66
REMARK SMILES IDX 43 67 44 68 48 69 45 70 47 71 46 72
REMARK H PARENT 5 17 63 40 41 51
REMARK Flexibility Score: inf
ROOT
ATOM      1  C   UNL A   1      35.534  34.899  32.877  1.00  0.00     0.202 C 
ENDROOT
BRANCH   1   2
ATOM      2  O   UNL A   1      34.280  35.012  32.214  1.00  0.00    -0.374 OA
BRANCH   2   3
ATOM      3  C   UNL A   1      33.571  36.252  32.250  1.00  0.00     0.202 C 
BRANCH   3   4
ATOM      4  C   UNL A   1      32.853  36.687  30.973  1.00  0.00     0.261 C 
BRANCH   4   5
ATOM      5  O   UNL A   1      32.621  35.563  30.104  1.00  0.00    -0.459 OA
BRANCH   5   6
ATOM      6  C   UNL A   1      33.234  35.634  28.893  1.00  0.00     0.357 C 
ATOM      7  O   UNL A   1      33.672  36.653  28.381  1.00  0.00    -0.244 OA
BRANCH   6   8
ATOM      8  C   UNL A   1      33.454  34.265  28.316  1.00  0.00     0.152 A 
ATOM      9  C   UNL A   1      35.904  34.125  29.050  1.00  0.00     0.047 C 
ATOM     10  C   UNL A   1      34.653  33.546  28.456  1.00  0.00    -0.016 A 
ATOM     11  C   UNL A   1      34.670  32.204  28.038  1.00  0.00     0.034 A 
ATOM     12  C   UNL A   1      33.505  31.713  27.450  1.00  0.00     0.064 A 
ATOM     13  N   UNL A   1      32.335  33.798  27.699  1.00  0.00    -0.239 NA
ATOM     14  N   UNL A   1      33.176  30.469  26.964  1.00  0.00    -0.360 N 
ATOM     15  C   UNL A   1      32.394  32.524  27.267  1.00  0.00     0.089 A 
ATOM     16  C   UNL A   1      31.919  30.500  26.412  1.00  0.00     0.085 A 
ATOM     17  H   UNL A   1      33.755  29.674  27.006  1.00  0.00     0.166 HD
ATOM     18  C   UNL A   1      31.415  31.770  26.581  1.00  0.00     0.048 A 
ENDBRANCH   6   8
ENDBRANCH   5   6
ENDBRANCH   4   5
ENDBRANCH   3   4
ENDBRANCH   2   3
ENDBRANCH   1   2
BRANCH   1  19
ATOM     19  C   UNL A   1      35.902  33.539  33.455  1.00  0.00     0.261 C 
BRANCH  19  20
ATOM     20  O   UNL A   1      36.733  32.781  32.586  1.00  0.00    -0.460 OA
BRANCH  20  21
ATOM     21  C   UNL A   1      36.043  31.960  31.760  1.00  0.00     0.338 C 
ATOM     22  O   UNL A   1      34.845  31.753  31.747  1.00  0.00    -0.246 OA
BRANCH  21  23
ATOM     23  C   UNL A   1      36.999  31.214  30.936  1.00  0.00     0.060 A 
ATOM     24  C   UNL A   1      36.713  29.864  30.723  1.00  0.00     0.016 A 
ATOM     25  C   UNL A   1      38.262  31.762  30.672  1.00  0.00     0.016 A 
ATOM     26  C   UNL A   1      37.763  29.013  30.465  1.00  0.00     0.010 A 
ATOM     27  C   UNL A   1      39.310  30.911  30.426  1.00  0.00     0.010 A 
ATOM     28  C   UNL A   1      39.057  29.544  30.425  1.00  0.00    -0.014 A 
BRANCH  28  29
ATOM     29  C   UNL A   1      40.159  28.617  30.331  1.00  0.00     0.031 A 
ATOM     30  C   UNL A   1      40.833  28.393  31.625  1.00  0.00     0.074 A 
ATOM     31  C   UNL A   1      40.470  27.975  29.190  1.00  0.00     0.049 A 
ATOM     32  N   UNL A   1      42.016  28.772  31.968  1.00  0.00    -0.248 NA
ATOM     33  C   UNL A   1      40.026  27.832  32.721  1.00  0.00     0.031 C 
ATOM     34  C   UNL A   1      39.707  27.904  27.941  1.00  0.00     0.029 A 
ATOM     35  N   UNL A   1      41.516  27.145  28.956  1.00  0.00    -0.354 N 
ATOM     36  C   UNL A   1      42.179  28.331  33.274  1.00  0.00     0.074 A 
ATOM     37  C   UNL A   1      40.876  27.933  33.742  1.00  0.00     0.031 C 
ATOM     38  C   UNL A   1      40.188  26.888  27.186  1.00  0.00     0.029 A 
ATOM     39  C   UNL A   1      41.372  26.344  27.832  1.00  0.00     0.049 A 
ATOM     40  H   UNL A   1      42.312  27.113  29.535  1.00  0.00     0.167 HD
ATOM     41  C   UNL A   1      43.412  28.075  33.784  1.00  0.00     0.031 A 
ATOM     42  C   UNL A   1      42.136  25.265  27.527  1.00  0.00     0.031 A 
ATOM     43  C   UNL A   1      44.456  28.680  32.999  1.00  0.00     0.049 A 
ATOM     44  C   UNL A   1      43.397  25.387  28.299  1.00  0.00     0.074 A 
ATOM     45  C   UNL A   1      44.794  29.976  32.665  1.00  0.00     0.029 A 
ATOM     46  N   UNL A   1      45.105  27.874  32.094  1.00  0.00    -0.354 N 
ATOM     47  N   UNL A   1      44.283  26.317  28.088  1.00  0.00    -0.248 NA
ATOM     48  C   UNL A   1      43.461  24.749  29.604  1.00  0.00     0.031 C 
ATOM     49  C   UNL A   1      45.239  29.905  31.312  1.00  0.00     0.029 A 
ATOM     50  C   UNL A   1      45.208  28.567  30.915  1.00  0.00     0.049 A 
ATOM     51  H   UNL A   1      45.435  26.962  32.262  1.00  0.00     0.167 HD
ATOM     52  C   UNL A   1      44.717  26.686  29.354  1.00  0.00     0.074 A 
ATOM     53  C   UNL A   1      44.246  25.622  30.240  1.00  0.00     0.031 C 
ATOM     54  C   UNL A   1      45.161  27.953  29.605  1.00  0.00     0.031 A 
BRANCH  41  55
ATOM     55  C   UNL A   1      43.669  26.933  34.731  1.00  0.00    -0.014 A 
ATOM     56  C   UNL A   1      43.566  25.618  34.251  1.00  0.00     0.009 A 
ATOM     57  C   UNL A   1      43.739  27.096  36.130  1.00  0.00     0.009 A 
ATOM     58  C   UNL A   1      43.485  24.532  35.130  1.00  0.00     0.001 A 
ATOM     59  C   UNL A   1      43.702  26.012  37.007  1.00  0.00     0.001 A 
ATOM     60  C   UNL A   1      43.550  24.730  36.506  1.00  0.00     0.000 A 
ENDBRANCH  41  55
BRANCH  42  61
ATOM     61  C   UNL A   1      41.693  23.963  26.973  1.00  0.00    -0.014 A 
ATOM     62  C   UNL A   1      42.499  23.279  26.046  1.00  0.00     0.009 A 
ATOM     63  C   UNL A   1      40.646  23.245  27.580  1.00  0.00     0.009 A 
ATOM     64  C   UNL A   1      42.305  21.915  25.788  1.00  0.00     0.001 A 
ATOM     65  C   UNL A   1      40.450  21.885  27.318  1.00  0.00     0.001 A 
ATOM     66  C   UNL A   1      41.293  21.215  26.439  1.00  0.00     0.000 A 
ENDBRANCH  42  61
BRANCH  54  67
ATOM     67  C   UNL A   1      45.389  28.869  28.425  1.00  0.00    -0.014 A 
ATOM     68  C   UNL A   1      44.380  29.678  27.870  1.00  0.00     0.009 A 
ATOM     69  C   UNL A   1      46.701  29.034  27.961  1.00  0.00     0.009 A 
ATOM     70  C   UNL A   1      44.678  30.607  26.866  1.00  0.00     0.001 A 
ATOM     71  C   UNL A   1      47.002  29.976  26.975  1.00  0.00     0.001 A 
ATOM     72  C   UNL A   1      45.991  30.761  26.425  1.00  0.00     0.000 A 
ENDBRANCH  54  67
ENDBRANCH  28  29
ENDBRANCH  21  23
ENDBRANCH  20  21
ENDBRANCH  19  20
ENDBRANCH   1  19
TORSDOF 14
ENDMDL
