MODEL 1
REMARK VINA RESULT:     -10.6      0.000      0.000
REMARK SMILES Cc1ccc(N2C(=O)N=C(OCCOCCOC(=O)c3ccc(-c4c5nc(c(-c6ccccc6)c6ccc([nH]6)c(-c6ccccc6)c6nc(c(-c7ccccc7)c7ccc4[nH]7)C=C6)C=C5)cc3)/C(=C\c3ccccc3OCc3cccc(C(=O)[O-])c3)C2=O)cc1
REMARK SMILES IDX 13 1 12 2 11 3 10 4 6 5 7 6 87 7 8 8 9 9 68 10 88 11 69 12
REMARK SMILES IDX 5 13 1 14 2 15 3 16 90 17 4 18 89 19 70 20 71 21 75 22 72 23
REMARK SMILES IDX 74 24 73 25 76 26 77 27 78 28 79 29 86 30 80 31 82 32 81 33
REMARK SMILES IDX 83 34 84 35 85 36 14 37 15 38 16 39 17 40 18 41 19 42 20 43
REMARK SMILES IDX 21 44 67 45 22 46 66 47 23 48 24 49 25 50 60 51 26 52 65 53
REMARK SMILES IDX 59 54 61 55 27 56 64 57 58 58 57 59 28 61 50 62 35 63 49 64
REMARK SMILES IDX 36 65 39 66 48 67 62 68 37 69 38 70 47 72 63 73 40 74 29 75
REMARK SMILES IDX 30 76 34 77 31 78 33 79 32 80 51 81 52 82 56 83 53 84 55 85
REMARK SMILES IDX 54 86 41 87 42 88 46 89 43 90 45 91 44 92
REMARK H PARENT 61 60 39 71
REMARK Flexibility Score: inf
ROOT
ATOM      1  C   UNL A   1      37.140  31.593  32.551  1.00  0.00     0.202 C 
ENDROOT
BRANCH   1   2
ATOM      2  C   UNL A   1      35.780  31.371  31.834  1.00  0.00     0.260 C 
BRANCH   2   3
ATOM      3  O   UNL A   1      35.833  30.551  30.635  1.00  0.00    -0.475 OA
BRANCH   3   4
ATOM      4  C   UNL A   1      36.751  29.684  30.163  1.00  0.00     0.231 C 
ATOM      5  N   UNL A   1      39.091  28.312  29.627  1.00  0.00    -0.226 N 
ATOM      6  C   UNL A   1      38.313  28.078  30.784  1.00  0.00     0.358 C 
ATOM      7  C   UNL A   1      38.578  29.040  28.562  1.00  0.00     0.272 C 
ATOM      8  O   UNL A   1      38.527  27.182  31.571  1.00  0.00    -0.245 OA
ATOM      9  N   UNL A   1      37.283  28.947  31.065  1.00  0.00    -0.156 NA
ATOM     10  C   UNL A   1      37.228  29.634  28.788  1.00  0.00     0.103 C 
ATOM     11  O   UNL A   1      39.066  29.055  27.425  1.00  0.00    -0.268 OA
ATOM     12  C   UNL A   1      36.586  29.836  27.629  1.00  0.00     0.031 C 
BRANCH   5  13
ATOM     13  C   UNL A   1      40.382  27.662  29.451  1.00  0.00     0.054 A 
ATOM     14  C   UNL A   1      44.226  25.652  29.257  1.00  0.00     0.044 C 
ATOM     15  C   UNL A   1      42.920  26.383  29.270  1.00  0.00    -0.051 A 
ATOM     16  C   UNL A   1      41.787  25.789  28.724  1.00  0.00     0.005 A 
ATOM     17  C   UNL A   1      42.803  27.650  29.837  1.00  0.00     0.005 A 
ATOM     18  C   UNL A   1      40.539  26.404  28.853  1.00  0.00     0.027 A 
ATOM     19  C   UNL A   1      41.556  28.282  29.913  1.00  0.00     0.027 A 
ENDBRANCH   5  13
BRANCH  12  20
ATOM     20  C   UNL A   1      35.176  29.997  27.381  1.00  0.00     0.018 A 
ATOM     21  C   UNL A   1      34.291  28.923  26.994  1.00  0.00     0.012 A 
ATOM     22  C   UNL A   1      34.653  31.224  27.582  1.00  0.00     0.127 A 
ATOM     23  C   UNL A   1      32.896  28.950  26.913  1.00  0.00     0.001 A 
ATOM     24  C   UNL A   1      33.195  31.190  27.453  1.00  0.00     0.047 A 
ATOM     25  C   UNL A   1      32.322  30.113  27.251  1.00  0.00     0.004 A 
BRANCH  22  26
ATOM     26  O   UNL A   1      35.438  32.440  27.780  1.00  0.00    -0.488 OA
BRANCH  26  27
ATOM     27  C   UNL A   1      34.957  33.926  28.003  1.00  0.00     0.265 C 
BRANCH  27  28
ATOM     28  C   UNL A   1      34.427  34.531  29.425  1.00  0.00    -0.010 A 
ATOM     29  C   UNL A   1      33.377  35.455  29.470  1.00  0.00     0.007 A 
ATOM     30  C   UNL A   1      35.036  34.481  30.694  1.00  0.00     0.017 A 
ATOM     31  C   UNL A   1      32.844  36.005  30.683  1.00  0.00     0.001 A 
ATOM     32  C   UNL A   1      34.531  34.957  31.940  1.00  0.00    -0.002 A 
ATOM     33  C   UNL A   1      33.373  35.694  31.929  1.00  0.00     0.010 A 
BRANCH  32  34
ATOM     34  C   UNL A   1      35.245  34.777  33.250  1.00  0.00     0.071 C 
ATOM     35  O   UNL A   1      34.777  34.294  34.262  1.00  0.00    -0.545 OA
ATOM     36  O   UNL A   1      36.522  35.206  33.231  1.00  0.00    -0.545 OA
ENDBRANCH  32  34
ENDBRANCH  27  28
ENDBRANCH  26  27
ENDBRANCH  22  26
ENDBRANCH  12  20
ENDBRANCH   3   4
ENDBRANCH   2   3
ENDBRANCH   1   2
BRANCH   1  37
ATOM     37  O   UNL A   1      36.909  31.723  33.939  1.00  0.00    -0.374 OA
BRANCH  37  38
ATOM     38  C   UNL A   1      37.900  31.730  34.946  1.00  0.00     0.202 C 
BRANCH  38  39
ATOM     39  C   UNL A   1      37.998  32.986  35.860  1.00  0.00     0.261 C 
BRANCH  39  40
ATOM     40  O   UNL A   1      39.371  33.517  35.923  1.00  0.00    -0.460 OA
BRANCH  40  41
ATOM     41  C   UNL A   1      39.762  34.522  35.060  1.00  0.00     0.338 C 
ATOM     42  O   UNL A   1      39.276  35.642  35.033  1.00  0.00    -0.246 OA
BRANCH  41  43
ATOM     43  C   UNL A   1      40.614  33.948  33.931  1.00  0.00     0.060 A 
ATOM     44  C   UNL A   1      42.014  33.825  34.067  1.00  0.00     0.016 A 
ATOM     45  C   UNL A   1      40.095  33.899  32.646  1.00  0.00     0.016 A 
ATOM     46  C   UNL A   1      42.881  33.937  32.938  1.00  0.00     0.010 A 
ATOM     47  C   UNL A   1      40.954  34.098  31.549  1.00  0.00     0.010 A 
ATOM     48  C   UNL A   1      42.361  34.217  31.674  1.00  0.00    -0.014 A 
BRANCH  48  49
ATOM     49  C   UNL A   1      43.144  34.372  30.397  1.00  0.00     0.031 A 
ATOM     50  C   UNL A   1      43.749  33.092  29.961  1.00  0.00     0.074 A 
ATOM     51  C   UNL A   1      43.239  35.403  29.492  1.00  0.00     0.049 A 
ATOM     52  N   UNL A   1      44.600  32.967  29.003  1.00  0.00    -0.248 NA
ATOM     53  C   UNL A   1      43.465  31.814  30.622  1.00  0.00     0.031 C 
ATOM     54  C   UNL A   1      43.480  35.328  28.063  1.00  0.00     0.029 A 
ATOM     55  N   UNL A   1      42.919  36.740  29.527  1.00  0.00    -0.354 N 
ATOM     56  C   UNL A   1      44.499  31.660  28.611  1.00  0.00     0.074 A 
ATOM     57  C   UNL A   1      44.073  30.966  29.795  1.00  0.00     0.031 C 
ATOM     58  C   UNL A   1      43.556  36.552  27.506  1.00  0.00     0.029 A 
ATOM     59  C   UNL A   1      43.308  37.538  28.498  1.00  0.00     0.049 A 
ATOM     60  H   UNL A   1      42.416  37.114  30.287  1.00  0.00     0.167 HD
ATOM     61  C   UNL A   1      44.474  31.371  27.277  1.00  0.00     0.031 A 
ATOM     62  C   UNL A   1      43.693  38.829  28.552  1.00  0.00     0.031 A 
ATOM     63  C   UNL A   1      44.760  32.582  26.424  1.00  0.00     0.049 A 
ATOM     64  C   UNL A   1      45.112  38.620  28.047  1.00  0.00     0.074 A 
ATOM     65  C   UNL A   1      44.188  33.120  25.282  1.00  0.00     0.029 A 
ATOM     66  N   UNL A   1      45.660  33.600  26.874  1.00  0.00    -0.354 N 
ATOM     67  N   UNL A   1      45.748  37.460  28.196  1.00  0.00    -0.248 NA
ATOM     68  C   UNL A   1      45.624  39.398  26.930  1.00  0.00     0.031 C 
ATOM     69  C   UNL A   1      44.704  34.451  25.093  1.00  0.00     0.029 A 
ATOM     70  C   UNL A   1      45.564  34.795  26.143  1.00  0.00     0.049 A 
ATOM     71  H   UNL A   1      46.284  33.474  27.624  1.00  0.00     0.167 HD
ATOM     72  C   UNL A   1      46.350  37.152  26.988  1.00  0.00     0.074 A 
ATOM     73  C   UNL A   1      46.345  38.458  26.293  1.00  0.00     0.031 C 
ATOM     74  C   UNL A   1      46.515  35.940  26.329  1.00  0.00     0.031 A 
BRANCH  61  75
ATOM     75  C   UNL A   1      43.939  30.008  26.774  1.00  0.00    -0.014 A 
ATOM     76  C   UNL A   1      44.814  28.941  26.527  1.00  0.00     0.009 A 
ATOM     77  C   UNL A   1      42.580  29.704  26.502  1.00  0.00     0.009 A 
ATOM     78  C   UNL A   1      44.365  27.678  26.075  1.00  0.00     0.001 A 
ATOM     79  C   UNL A   1      42.114  28.444  26.085  1.00  0.00     0.001 A 
ATOM     80  C   UNL A   1      43.014  27.422  25.871  1.00  0.00     0.000 A 
ENDBRANCH  61  75
BRANCH  62  81
ATOM     81  C   UNL A   1      42.938  39.785  29.463  1.00  0.00    -0.014 A 
ATOM     82  C   UNL A   1      43.703  40.634  30.327  1.00  0.00     0.009 A 
ATOM     83  C   UNL A   1      41.596  40.175  29.303  1.00  0.00     0.009 A 
ATOM     84  C   UNL A   1      43.201  41.835  30.893  1.00  0.00     0.001 A 
ATOM     85  C   UNL A   1      41.096  41.392  29.861  1.00  0.00     0.001 A 
ATOM     86  C   UNL A   1      41.904  42.238  30.623  1.00  0.00     0.000 A 
ENDBRANCH  62  81
BRANCH  74  87
ATOM     87  C   UNL A   1      47.857  35.735  25.704  1.00  0.00    -0.014 A 
ATOM     88  C   UNL A   1      48.612  36.780  25.168  1.00  0.00     0.009 A 
ATOM     89  C   UNL A   1      48.463  34.467  25.806  1.00  0.00     0.009 A 
ATOM     90  C   UNL A   1      49.905  36.557  24.716  1.00  0.00     0.001 A 
ATOM     91  C   UNL A   1      49.770  34.253  25.409  1.00  0.00     0.001 A 
ATOM     92  C   UNL A   1      50.485  35.299  24.849  1.00  0.00     0.000 A 
ENDBRANCH  74  87
ENDBRANCH  48  49
ENDBRANCH  41  43
ENDBRANCH  40  41
ENDBRANCH  39  40
ENDBRANCH  38  39
ENDBRANCH  37  38
ENDBRANCH   1  37
TORSDOF 19
ENDMDL
MODEL 2
REMARK VINA RESULT:     -10.4      5.693     12.201
REMARK SMILES Cc1ccc(N2C(=O)N=C(OCCOCCOC(=O)c3ccc(-c4c5nc(c(-c6ccccc6)c6ccc([nH]6)c(-c6ccccc6)c6nc(c(-c7ccccc7)c7ccc4[nH]7)C=C6)C=C5)cc3)/C(=C\c3ccccc3OCc3cccc(C(=O)[O-])c3)C2=O)cc1
REMARK SMILES IDX 13 1 12 2 11 3 10 4 6 5 7 6 87 7 8 8 9 9 68 10 88 11 69 12
REMARK SMILES IDX 5 13 1 14 2 15 3 16 90 17 4 18 89 19 70 20 71 21 75 22 72 23
REMARK SMILES IDX 74 24 73 25 76 26 77 27 78 28 79 29 86 30 80 31 82 32 81 33
REMARK SMILES IDX 83 34 84 35 85 36 14 37 15 38 16 39 17 40 18 41 19 42 20 43
REMARK SMILES IDX 21 44 67 45 22 46 66 47 23 48 24 49 25 50 60 51 26 52 65 53
REMARK SMILES IDX 59 54 61 55 27 56 64 57 58 58 57 59 28 61 50 62 35 63 49 64
REMARK SMILES IDX 36 65 39 66 48 67 62 68 37 69 38 70 47 72 63 73 40 74 29 75
REMARK SMILES IDX 30 76 34 77 31 78 33 79 32 80 51 81 52 82 56 83 53 84 55 85
REMARK SMILES IDX 54 86 41 87 42 88 46 89 43 90 45 91 44 92
REMARK H PARENT 61 60 39 71
REMARK Flexibility Score: inf
ROOT
ATOM      1  C   UNL A   1      45.201  25.688  31.315  1.00  0.00     0.202 C 
ENDROOT
BRANCH   1   2
ATOM      2  C   UNL A   1      45.387  25.376  29.805  1.00  0.00     0.260 C 
BRANCH   2   3
ATOM      3  O   UNL A   1      46.033  26.421  29.027  1.00  0.00    -0.475 OA
BRANCH   3   4
ATOM      4  C   UNL A   1      47.054  26.404  28.147  1.00  0.00     0.231 C 
ATOM      5  N   UNL A   1      49.542  26.562  26.952  1.00  0.00    -0.226 N 
ATOM      6  C   UNL A   1      49.108  25.425  27.671  1.00  0.00     0.358 C 
ATOM      7  C   UNL A   1      48.641  27.546  26.568  1.00  0.00     0.272 C 
ATOM      8  O   UNL A   1      49.724  24.383  27.723  1.00  0.00    -0.245 OA
ATOM      9  N   UNL A   1      47.943  25.518  28.400  1.00  0.00    -0.156 NA
ATOM     10  C   UNL A   1      47.247  27.363  27.069  1.00  0.00     0.103 C 
ATOM     11  O   UNL A   1      48.872  28.412  25.715  1.00  0.00    -0.268 OA
ATOM     12  C   UNL A   1      46.361  27.981  26.275  1.00  0.00     0.031 C 
BRANCH   5  13
ATOM     13  C   UNL A   1      50.907  26.653  26.452  1.00  0.00     0.054 A 
ATOM     14  C   UNL A   1      54.860  27.131  24.721  1.00  0.00     0.044 C 
ATOM     15  C   UNL A   1      53.517  26.904  25.341  1.00  0.00    -0.051 A 
ATOM     16  C   UNL A   1      53.203  27.506  26.555  1.00  0.00     0.005 A 
ATOM     17  C   UNL A   1      52.554  26.112  24.719  1.00  0.00     0.005 A 
ATOM     18  C   UNL A   1      51.908  27.411  27.073  1.00  0.00     0.027 A 
ATOM     19  C   UNL A   1      51.276  25.980  25.274  1.00  0.00     0.027 A 
ENDBRANCH   5  13
BRANCH  12  20
ATOM     20  C   UNL A   1      44.947  27.752  26.132  1.00  0.00     0.018 A 
ATOM     21  C   UNL A   1      43.927  28.518  26.811  1.00  0.00     0.012 A 
ATOM     22  C   UNL A   1      44.563  26.796  25.260  1.00  0.00     0.127 A 
ATOM     23  C   UNL A   1      42.547  28.487  26.594  1.00  0.00     0.001 A 
ATOM     24  C   UNL A   1      43.108  26.797  25.102  1.00  0.00     0.047 A 
ATOM     25  C   UNL A   1      42.134  27.655  25.628  1.00  0.00     0.004 A 
BRANCH  22  26
ATOM     26  O   UNL A   1      45.461  25.817  24.653  1.00  0.00    -0.488 OA
BRANCH  26  27
ATOM     27  C   UNL A   1      46.095  24.511  25.271  1.00  0.00     0.265 C 
BRANCH  27  28
ATOM     28  C   UNL A   1      45.378  23.043  25.284  1.00  0.00    -0.010 A 
ATOM     29  C   UNL A   1      44.012  22.909  25.556  1.00  0.00     0.007 A 
ATOM     30  C   UNL A   1      45.970  21.765  25.319  1.00  0.00     0.017 A 
ATOM     31  C   UNL A   1      43.313  21.657  25.557  1.00  0.00     0.001 A 
ATOM     32  C   UNL A   1      45.333  20.490  25.265  1.00  0.00    -0.002 A 
ATOM     33  C   UNL A   1      43.962  20.450  25.334  1.00  0.00     0.010 A 
BRANCH  32  34
ATOM     34  C   UNL A   1      46.080  19.188  25.232  1.00  0.00     0.071 C 
ATOM     35  O   UNL A   1      47.288  19.053  25.196  1.00  0.00    -0.545 OA
ATOM     36  O   UNL A   1      45.279  18.105  25.255  1.00  0.00    -0.545 OA
ENDBRANCH  32  34
ENDBRANCH  27  28
ENDBRANCH  26  27
ENDBRANCH  22  26
ENDBRANCH  12  20
ENDBRANCH   3   4
ENDBRANCH   2   3
ENDBRANCH   1   2
BRANCH   1  37
ATOM     37  O   UNL A   1      44.547  24.596  31.930  1.00  0.00    -0.374 OA
BRANCH  37  38
ATOM     38  C   UNL A   1      45.016  23.875  33.050  1.00  0.00     0.202 C 
BRANCH  38  39
ATOM     39  C   UNL A   1      44.057  22.834  33.697  1.00  0.00     0.261 C 
BRANCH  39  40
ATOM     40  O   UNL A   1      43.316  23.400  34.838  1.00  0.00    -0.460 OA
BRANCH  40  41
ATOM     41  C   UNL A   1      43.942  24.282  35.697  1.00  0.00     0.338 C 
ATOM     42  O   UNL A   1      44.706  23.954  36.592  1.00  0.00    -0.246 OA
BRANCH  41  43
ATOM     43  C   UNL A   1      43.288  25.658  35.613  1.00  0.00     0.060 A 
ATOM     44  C   UNL A   1      41.905  25.821  35.847  1.00  0.00     0.016 A 
ATOM     45  C   UNL A   1      43.943  26.681  34.944  1.00  0.00     0.016 A 
ATOM     46  C   UNL A   1      41.155  26.839  35.185  1.00  0.00     0.010 A 
ATOM     47  C   UNL A   1      43.188  27.627  34.225  1.00  0.00     0.010 A 
ATOM     48  C   UNL A   1      41.770  27.673  34.249  1.00  0.00    -0.014 A 
BRANCH  48  49
ATOM     49  C   UNL A   1      41.115  28.781  33.468  1.00  0.00     0.031 A 
ATOM     50  C   UNL A   1      40.877  29.981  34.303  1.00  0.00     0.074 A 
ATOM     51  C   UNL A   1      40.879  28.946  32.123  1.00  0.00     0.049 A 
ATOM     52  N   UNL A   1      40.188  31.006  33.942  1.00  0.00    -0.248 NA
ATOM     53  C   UNL A   1      41.381  30.106  35.675  1.00  0.00     0.031 C 
ATOM     54  C   UNL A   1      40.817  30.182  31.366  1.00  0.00     0.029 A 
ATOM     55  N   UNL A   1      40.871  28.098  31.041  1.00  0.00    -0.354 N 
ATOM     56  C   UNL A   1      40.634  32.027  34.735  1.00  0.00     0.074 A 
ATOM     57  C   UNL A   1      41.081  31.376  35.935  1.00  0.00     0.031 C 
ATOM     58  C   UNL A   1      40.517  29.958  30.071  1.00  0.00     0.029 A 
ATOM     59  C   UNL A   1      40.419  28.559  29.845  1.00  0.00     0.049 A 
ATOM     60  H   UNL A   1      41.188  27.170  31.131  1.00  0.00     0.167 HD
ATOM     61  C   UNL A   1      40.868  33.247  34.170  1.00  0.00     0.031 A 
ATOM     62  C   UNL A   1      39.738  27.880  28.901  1.00  0.00     0.031 A 
ATOM     63  C   UNL A   1      40.400  33.314  32.737  1.00  0.00     0.049 A 
ATOM     64  C   UNL A   1      38.470  28.718  28.946  1.00  0.00     0.074 A 
ATOM     65  C   UNL A   1      40.950  33.795  31.559  1.00  0.00     0.029 A 
ATOM     66  N   UNL A   1      39.244  32.587  32.309  1.00  0.00    -0.354 N 
ATOM     67  N   UNL A   1      38.112  29.392  30.038  1.00  0.00    -0.248 NA
ATOM     68  C   UNL A   1      37.913  29.288  27.730  1.00  0.00     0.031 C 
ATOM     69  C   UNL A   1      40.159  33.317  30.455  1.00  0.00     0.029 A 
ATOM     70  C   UNL A   1      39.134  32.480  30.914  1.00  0.00     0.049 A 
ATOM     71  H   UNL A   1      38.589  32.200  32.934  1.00  0.00     0.167 HD
ATOM     72  C   UNL A   1      37.732  30.663  29.642  1.00  0.00     0.074 A 
ATOM     73  C   UNL A   1      37.506  30.485  28.190  1.00  0.00     0.031 C 
ATOM     74  C   UNL A   1      37.927  31.905  30.235  1.00  0.00     0.031 A 
BRANCH  61  75
ATOM     75  C   UNL A   1      41.759  34.292  34.886  1.00  0.00    -0.014 A 
ATOM     76  C   UNL A   1      43.156  34.241  34.774  1.00  0.00     0.009 A 
ATOM     77  C   UNL A   1      41.293  35.350  35.709  1.00  0.00     0.009 A 
ATOM     78  C   UNL A   1      44.004  35.181  35.405  1.00  0.00     0.001 A 
ATOM     79  C   UNL A   1      42.121  36.312  36.315  1.00  0.00     0.001 A 
ATOM     80  C   UNL A   1      43.488  36.227  36.161  1.00  0.00     0.000 A 
ENDBRANCH  61  75
BRANCH  62  81
ATOM     81  C   UNL A   1      40.146  26.448  28.585  1.00  0.00    -0.014 A 
ATOM     82  C   UNL A   1      39.301  25.687  27.714  1.00  0.00     0.009 A 
ATOM     83  C   UNL A   1      41.430  25.906  28.771  1.00  0.00     0.009 A 
ATOM     84  C   UNL A   1      39.739  24.542  26.998  1.00  0.00     0.001 A 
ATOM     85  C   UNL A   1      41.875  24.762  28.039  1.00  0.00     0.001 A 
ATOM     86  C   UNL A   1      41.047  24.104  27.129  1.00  0.00     0.000 A 
ENDBRANCH  62  81
BRANCH  74  87
ATOM     87  C   UNL A   1      36.746  32.819  30.197  1.00  0.00    -0.014 A 
ATOM     88  C   UNL A   1      36.401  33.567  29.069  1.00  0.00     0.009 A 
ATOM     89  C   UNL A   1      35.845  32.804  31.280  1.00  0.00     0.009 A 
ATOM     90  C   UNL A   1      35.224  34.300  29.042  1.00  0.00     0.001 A 
ATOM     91  C   UNL A   1      34.645  33.488  31.236  1.00  0.00     0.001 A 
ATOM     92  C   UNL A   1      34.343  34.249  30.119  1.00  0.00     0.000 A 
ENDBRANCH  74  87
ENDBRANCH  48  49
ENDBRANCH  41  43
ENDBRANCH  40  41
ENDBRANCH  39  40
ENDBRANCH  38  39
ENDBRANCH  37  38
ENDBRANCH   1  37
TORSDOF 19
ENDMDL
MODEL 3
REMARK VINA RESULT:     -10.2      3.778      9.528
REMARK SMILES Cc1ccc(N2C(=O)N=C(OCCOCCOC(=O)c3ccc(-c4c5nc(c(-c6ccccc6)c6ccc([nH]6)c(-c6ccccc6)c6nc(c(-c7ccccc7)c7ccc4[nH]7)C=C6)C=C5)cc3)/C(=C\c3ccccc3OCc3cccc(C(=O)[O-])c3)C2=O)cc1
REMARK SMILES IDX 13 1 12 2 11 3 10 4 6 5 7 6 87 7 8 8 9 9 68 10 88 11 69 12
REMARK SMILES IDX 5 13 1 14 2 15 3 16 90 17 4 18 89 19 70 20 71 21 75 22 72 23
REMARK SMILES IDX 74 24 73 25 76 26 77 27 78 28 79 29 86 30 80 31 82 32 81 33
REMARK SMILES IDX 83 34 84 35 85 36 14 37 15 38 16 39 17 40 18 41 19 42 20 43
REMARK SMILES IDX 21 44 67 45 22 46 66 47 23 48 24 49 25 50 60 51 26 52 65 53
REMARK SMILES IDX 59 54 61 55 27 56 64 57 58 58 57 59 28 61 50 62 35 63 49 64
REMARK SMILES IDX 36 65 39 66 48 67 62 68 37 69 38 70 47 72 63 73 40 74 29 75
REMARK SMILES IDX 30 76 34 77 31 78 33 79 32 80 51 81 52 82 56 83 53 84 55 85
REMARK SMILES IDX 54 86 41 87 42 88 46 89 43 90 45 91 44 92
REMARK H PARENT 61 60 39 71
REMARK Flexibility Score: inf
ROOT
ATOM      1  C   UNL A   1      42.614  35.304  34.261  1.00  0.00     0.202 C 
ENDROOT
BRANCH   1   2
ATOM      2  C   UNL A   1      41.471  34.257  34.155  1.00  0.00     0.260 C 
BRANCH   2   3
ATOM      3  O   UNL A   1      41.217  33.487  35.361  1.00  0.00    -0.475 OA
BRANCH   3   4
ATOM      4  C   UNL A   1      40.103  33.272  36.089  1.00  0.00     0.231 C 
ATOM      5  N   UNL A   1      38.318  32.745  38.134  1.00  0.00    -0.226 N 
ATOM      6  C   UNL A   1      38.879  34.024  37.917  1.00  0.00     0.358 C 
ATOM      7  C   UNL A   1      38.414  31.754  37.166  1.00  0.00     0.272 C 
ATOM      8  O   UNL A   1      38.539  35.021  38.517  1.00  0.00    -0.245 OA
ATOM      9  N   UNL A   1      39.907  34.141  37.009  1.00  0.00    -0.156 NA
ATOM     10  C   UNL A   1      39.237  32.108  35.972  1.00  0.00     0.103 C 
ATOM     11  O   UNL A   1      37.729  30.723  37.149  1.00  0.00    -0.268 OA
ATOM     12  C   UNL A   1      38.868  31.393  34.900  1.00  0.00     0.031 C 
BRANCH   5  13
ATOM     13  C   UNL A   1      37.487  32.482  39.300  1.00  0.00     0.054 A 
ATOM     14  C   UNL A   1      34.894  31.422  42.618  1.00  0.00     0.044 C 
ATOM     15  C   UNL A   1      35.782  31.854  41.494  1.00  0.00    -0.051 A 
ATOM     16  C   UNL A   1      37.161  31.710  41.604  1.00  0.00     0.005 A 
ATOM     17  C   UNL A   1      35.258  32.385  40.317  1.00  0.00     0.005 A 
ATOM     18  C   UNL A   1      37.987  31.982  40.509  1.00  0.00     0.027 A 
ATOM     19  C   UNL A   1      36.099  32.705  39.245  1.00  0.00     0.027 A 
ENDBRANCH   5  13
BRANCH  12  20
ATOM     20  C   UNL A   1      39.083  31.665  33.502  1.00  0.00     0.018 A 
ATOM     21  C   UNL A   1      40.249  31.241  32.762  1.00  0.00     0.012 A 
ATOM     22  C   UNL A   1      38.097  32.308  32.842  1.00  0.00     0.127 A 
ATOM     23  C   UNL A   1      40.453  31.299  31.380  1.00  0.00     0.001 A 
ATOM     24  C   UNL A   1      38.387  32.360  31.408  1.00  0.00     0.047 A 
ATOM     25  C   UNL A   1      39.433  31.795  30.667  1.00  0.00     0.004 A 
BRANCH  22  26
ATOM     26  O   UNL A   1      36.960  32.965  33.482  1.00  0.00    -0.488 OA
BRANCH  26  27
ATOM     27  C   UNL A   1      35.424  32.889  33.132  1.00  0.00     0.265 C 
BRANCH  27  28
ATOM     28  C   UNL A   1      34.762  33.386  31.723  1.00  0.00    -0.010 A 
ATOM     29  C   UNL A   1      34.972  32.675  30.537  1.00  0.00     0.007 A 
ATOM     30  C   UNL A   1      34.179  34.628  31.405  1.00  0.00     0.017 A 
ATOM     31  C   UNL A   1      34.400  33.038  29.272  1.00  0.00     0.001 A 
ATOM     32  C   UNL A   1      33.548  35.027  30.191  1.00  0.00    -0.002 A 
ATOM     33  C   UNL A   1      33.621  34.177  29.115  1.00  0.00     0.010 A 
BRANCH  32  34
ATOM     34  C   UNL A   1      32.889  36.363  29.995  1.00  0.00     0.071 C 
ATOM     35  O   UNL A   1      32.895  37.289  30.781  1.00  0.00    -0.545 OA
ATOM     36  O   UNL A   1      32.255  36.484  28.812  1.00  0.00    -0.545 OA
ENDBRANCH  32  34
ENDBRANCH  27  28
ENDBRANCH  26  27
ENDBRANCH  22  26
ENDBRANCH  12  20
ENDBRANCH   3   4
ENDBRANCH   2   3
ENDBRANCH   1   2
BRANCH   1  37
ATOM     37  O   UNL A   1      42.772  35.936  33.007  1.00  0.00    -0.374 OA
BRANCH  37  38
ATOM     38  C   UNL A   1      43.256  35.326  31.828  1.00  0.00     0.202 C 
BRANCH  38  39
ATOM     39  C   UNL A   1      42.211  34.783  30.810  1.00  0.00     0.261 C 
BRANCH  39  40
ATOM     40  O   UNL A   1      42.519  35.195  29.430  1.00  0.00    -0.460 OA
BRANCH  40  41
ATOM     41  C   UNL A   1      43.827  35.434  29.057  1.00  0.00     0.338 C 
ATOM     42  O   UNL A   1      44.315  36.545  28.914  1.00  0.00    -0.246 OA
BRANCH  41  43
ATOM     43  C   UNL A   1      44.464  34.160  28.512  1.00  0.00     0.060 A 
ATOM     44  C   UNL A   1      44.113  33.658  27.239  1.00  0.00     0.016 A 
ATOM     45  C   UNL A   1      45.090  33.285  29.387  1.00  0.00     0.016 A 
ATOM     46  C   UNL A   1      44.132  32.258  26.963  1.00  0.00     0.010 A 
ATOM     47  C   UNL A   1      45.023  31.900  29.142  1.00  0.00     0.010 A 
ATOM     48  C   UNL A   1      44.456  31.344  27.967  1.00  0.00    -0.014 A 
BRANCH  48  49
ATOM     49  C   UNL A   1      44.511  29.845  27.832  1.00  0.00     0.031 A 
ATOM     50  C   UNL A   1      45.824  29.384  27.326  1.00  0.00     0.074 A 
ATOM     51  C   UNL A   1      43.663  28.850  28.257  1.00  0.00     0.049 A 
ATOM     52  N   UNL A   1      46.091  28.179  26.960  1.00  0.00    -0.248 NA
ATOM     53  C   UNL A   1      46.967  30.285  27.146  1.00  0.00     0.031 C 
ATOM     54  C   UNL A   1      43.994  27.492  28.645  1.00  0.00     0.029 A 
ATOM     55  N   UNL A   1      42.357  28.822  28.686  1.00  0.00    -0.354 N 
ATOM     56  C   UNL A   1      47.452  28.073  27.064  1.00  0.00     0.074 A 
ATOM     57  C   UNL A   1      47.929  29.412  26.856  1.00  0.00     0.031 C 
ATOM     58  C   UNL A   1      42.893  26.782  28.961  1.00  0.00     0.029 A 
ATOM     59  C   UNL A   1      41.750  27.621  28.874  1.00  0.00     0.049 A 
ATOM     60  H   UNL A   1      41.869  29.661  28.855  1.00  0.00     0.167 HD
ATOM     61  C   UNL A   1      47.984  26.948  27.624  1.00  0.00     0.031 A 
ATOM     62  C   UNL A   1      40.458  27.305  28.658  1.00  0.00     0.031 A 
ATOM     63  C   UNL A   1      46.944  25.886  27.878  1.00  0.00     0.049 A 
ATOM     64  C   UNL A   1      40.700  26.261  27.580  1.00  0.00     0.074 A 
ATOM     65  C   UNL A   1      46.651  25.050  28.944  1.00  0.00     0.029 A 
ATOM     66  N   UNL A   1      45.824  25.733  26.999  1.00  0.00    -0.354 N 
ATOM     67  N   UNL A   1      41.785  26.285  26.809  1.00  0.00    -0.248 NA
ATOM     68  C   UNL A   1      40.123  24.931  27.692  1.00  0.00     0.031 C 
ATOM     69  C   UNL A   1      45.359  24.455  28.720  1.00  0.00     0.029 A 
ATOM     70  C   UNL A   1      44.791  24.950  27.539  1.00  0.00     0.049 A 
ATOM     71  H   UNL A   1      45.783  26.138  26.103  1.00  0.00     0.167 HD
ATOM     72  C   UNL A   1      42.288  24.996  26.752  1.00  0.00     0.074 A 
ATOM     73  C   UNL A   1      41.136  24.188  27.209  1.00  0.00     0.031 C 
ATOM     74  C   UNL A   1      43.595  24.522  26.743  1.00  0.00     0.031 A 
BRANCH  61  75
ATOM     75  C   UNL A   1      49.438  26.944  28.159  1.00  0.00    -0.014 A 
ATOM     76  C   UNL A   1      49.736  27.456  29.429  1.00  0.00     0.009 A 
ATOM     77  C   UNL A   1      50.575  26.467  27.456  1.00  0.00     0.009 A 
ATOM     78  C   UNL A   1      51.049  27.463  29.957  1.00  0.00     0.001 A 
ATOM     79  C   UNL A   1      51.880  26.436  27.981  1.00  0.00     0.001 A 
ATOM     80  C   UNL A   1      52.118  26.937  29.242  1.00  0.00     0.000 A 
ENDBRANCH  61  75
BRANCH  62  81
ATOM     81  C   UNL A   1      39.379  28.302  29.057  1.00  0.00    -0.014 A 
ATOM     82  C   UNL A   1      38.807  29.119  28.028  1.00  0.00     0.009 A 
ATOM     83  C   UNL A   1      38.640  28.268  30.253  1.00  0.00     0.009 A 
ATOM     84  C   UNL A   1      37.544  29.756  28.144  1.00  0.00     0.001 A 
ATOM     85  C   UNL A   1      37.362  28.898  30.364  1.00  0.00     0.001 A 
ATOM     86  C   UNL A   1      36.799  29.609  29.303  1.00  0.00     0.000 A 
ENDBRANCH  62  81
BRANCH  74  87
ATOM     87  C   UNL A   1      43.858  23.405  25.786  1.00  0.00    -0.014 A 
ATOM     88  C   UNL A   1      44.371  23.611  24.503  1.00  0.00     0.009 A 
ATOM     89  C   UNL A   1      43.745  22.079  26.247  1.00  0.00     0.009 A 
ATOM     90  C   UNL A   1      44.718  22.533  23.701  1.00  0.00     0.001 A 
ATOM     91  C   UNL A   1      44.142  21.005  25.473  1.00  0.00     0.001 A 
ATOM     92  C   UNL A   1      44.615  21.235  24.192  1.00  0.00     0.000 A 
ENDBRANCH  74  87
ENDBRANCH  48  49
ENDBRANCH  41  43
ENDBRANCH  40  41
ENDBRANCH  39  40
ENDBRANCH  38  39
ENDBRANCH  37  38
ENDBRANCH   1  37
TORSDOF 19
ENDMDL
