MODEL 1
REMARK VINA RESULT:      -9.9      0.000      0.000
REMARK SMILES CC(C)(C)[N@H+](CCC(=O)OCCOCCOC(=O)c1ccc(-c2c3nc(c(-c4ccccc4)c4ccc([nH]4)c(-c4ccccc4)c4nc(c(-c5ccccc5)c5ccc2[nH]5)C=C4)C=C3)cc1)C[C@H]1COc2ccccc21
REMARK SMILES IDX 12 1 11 2 10 3 8 4 9 5 7 6 6 7 5 8 2 10 1 11 3 12 4 13 67 14
REMARK SMILES IDX 68 15 69 16 76 17 70 18 71 19 75 20 72 21 74 22 73 23 13 24
REMARK SMILES IDX 14 25 15 26 16 27 17 28 18 29 19 30 20 31 66 32 21 33 65 34
REMARK SMILES IDX 22 35 23 36 24 37 59 38 25 39 64 40 58 41 60 42 26 43 63 44
REMARK SMILES IDX 57 45 56 46 27 48 49 49 34 50 48 51 35 52 38 53 47 54 61 55
REMARK SMILES IDX 36 56 37 57 46 59 62 60 39 61 28 62 29 63 33 64 30 65 32 66
REMARK SMILES IDX 31 67 50 68 51 69 55 70 52 71 54 72 53 73 40 74 41 75 45 76
REMARK SMILES IDX 42 77 44 78 43 79
REMARK H PARENT 5 9 60 47 38 58
REMARK Flexibility Score: inf
ROOT
ATOM      1  C   UNL A   1      34.071  33.018  28.350  1.00  0.00     0.202 C 
ENDROOT
BRANCH   1   2
ATOM      2  C   UNL A   1      34.635  31.768  27.673  1.00  0.00     0.261 C 
BRANCH   2   3
ATOM      3  O   UNL A   1      33.855  30.602  27.958  1.00  0.00    -0.463 OA
BRANCH   3   4
ATOM      4  C   UNL A   1      32.999  30.179  26.997  1.00  0.00     0.311 C 
ATOM      5  O   UNL A   1      32.093  30.853  26.515  1.00  0.00    -0.252 OA
BRANCH   4   6
ATOM      6  C   UNL A   1      33.351  28.806  26.473  1.00  0.00     0.184 C 
BRANCH   6   7
ATOM      7  C   UNL A   1      33.402  28.639  24.955  1.00  0.00     0.274 C 
BRANCH   7   8
ATOM      8  N   UNL A   1      32.716  27.421  24.513  1.00  0.00    -0.330 N 
ATOM      9  H   UNL A   1      32.297  27.077  25.377  1.00  0.00     0.348 HD
BRANCH   8  10
ATOM     10  C   UNL A   1      31.377  27.508  23.870  1.00  0.00     0.089 C 
ATOM     11  C   UNL A   1      30.344  26.458  24.347  1.00  0.00     0.078 C 
ATOM     12  C   UNL A   1      31.613  27.260  22.365  1.00  0.00     0.078 C 
ATOM     13  C   UNL A   1      30.660  28.874  24.030  1.00  0.00     0.078 C 
ENDBRANCH   8  10
BRANCH   8  14
ATOM     14  C   UNL A   1      33.640  26.350  24.113  1.00  0.00     0.274 C 
BRANCH  14  15
ATOM     15  C   UNL A   1      34.177  25.521  25.299  1.00  0.00     0.116 C 
ATOM     16  C   UNL A   1      32.996  25.095  26.177  1.00  0.00     0.244 C 
ATOM     17  C   UNL A   1      34.662  24.144  24.971  1.00  0.00     0.006 A 
ATOM     18  O   UNL A   1      32.497  23.855  25.644  1.00  0.00    -0.492 OA
ATOM     19  C   UNL A   1      33.634  23.242  25.200  1.00  0.00     0.123 A 
ATOM     20  C   UNL A   1      35.898  23.681  24.564  1.00  0.00     0.008 A 
ATOM     21  C   UNL A   1      33.763  21.881  25.025  1.00  0.00     0.047 A 
ATOM     22  C   UNL A   1      36.064  22.300  24.382  1.00  0.00     0.001 A 
ATOM     23  C   UNL A   1      35.003  21.404  24.612  1.00  0.00     0.004 A 
ENDBRANCH  14  15
ENDBRANCH   8  14
ENDBRANCH   7   8
ENDBRANCH   6   7
ENDBRANCH   4   6
ENDBRANCH   3   4
ENDBRANCH   2   3
ENDBRANCH   1   2
BRANCH   1  24
ATOM     24  O   UNL A   1      34.868  33.578  29.386  1.00  0.00    -0.374 OA
BRANCH  24  25
ATOM     25  C   UNL A   1      34.218  34.465  30.300  1.00  0.00     0.202 C 
BRANCH  25  26
ATOM     26  C   UNL A   1      34.331  34.128  31.795  1.00  0.00     0.261 C 
BRANCH  26  27
ATOM     27  O   UNL A   1      34.432  32.710  32.087  1.00  0.00    -0.460 OA
BRANCH  27  28
ATOM     28  C   UNL A   1      35.499  32.354  32.843  1.00  0.00     0.338 C 
ATOM     29  O   UNL A   1      35.706  32.694  34.012  1.00  0.00    -0.246 OA
BRANCH  28  30
ATOM     30  C   UNL A   1      36.442  31.450  32.153  1.00  0.00     0.060 A 
ATOM     31  C   UNL A   1      37.605  31.066  32.838  1.00  0.00     0.016 A 
ATOM     32  C   UNL A   1      36.314  31.160  30.792  1.00  0.00     0.016 A 
ATOM     33  C   UNL A   1      38.653  30.430  32.161  1.00  0.00     0.010 A 
ATOM     34  C   UNL A   1      37.372  30.527  30.112  1.00  0.00     0.010 A 
ATOM     35  C   UNL A   1      38.562  30.182  30.783  1.00  0.00    -0.014 A 
BRANCH  35  36
ATOM     36  C   UNL A   1      39.769  29.740  30.022  1.00  0.00     0.031 A 
ATOM     37  C   UNL A   1      40.889  30.721  29.813  1.00  0.00     0.074 A 
ATOM     38  C   UNL A   1      39.909  28.491  29.534  1.00  0.00     0.049 A 
ATOM     39  N   UNL A   1      42.032  30.551  29.199  1.00  0.00    -0.248 NA
ATOM     40  C   UNL A   1      40.705  32.062  30.389  1.00  0.00     0.031 C 
ATOM     41  C   UNL A   1      38.968  27.402  29.726  1.00  0.00     0.029 A 
ATOM     42  N   UNL A   1      40.900  27.924  28.766  1.00  0.00    -0.354 N 
ATOM     43  C   UNL A   1      42.712  31.753  29.329  1.00  0.00     0.074 A 
ATOM     44  C   UNL A   1      41.839  32.658  30.047  1.00  0.00     0.031 C 
ATOM     45  C   UNL A   1      39.380  26.314  29.061  1.00  0.00     0.029 A 
ATOM     46  C   UNL A   1      40.638  26.624  28.398  1.00  0.00     0.049 A 
ATOM     47  H   UNL A   1      41.720  28.403  28.506  1.00  0.00     0.167 HD
ATOM     48  C   UNL A   1      43.956  32.073  28.903  1.00  0.00     0.031 A 
ATOM     49  C   UNL A   1      41.325  25.766  27.621  1.00  0.00     0.031 A 
ATOM     50  C   UNL A   1      44.819  31.196  28.160  1.00  0.00     0.049 A 
ATOM     51  C   UNL A   1      42.649  26.187  27.057  1.00  0.00     0.074 A 
ATOM     52  C   UNL A   1      46.100  31.442  27.695  1.00  0.00     0.029 A 
ATOM     53  N   UNL A   1      44.487  29.913  27.755  1.00  0.00    -0.354 N 
ATOM     54  N   UNL A   1      43.295  27.313  27.230  1.00  0.00    -0.248 NA
ATOM     55  C   UNL A   1      43.351  25.211  26.211  1.00  0.00     0.031 C 
ATOM     56  C   UNL A   1      46.520  30.328  26.959  1.00  0.00     0.029 A 
ATOM     57  C   UNL A   1      45.524  29.368  27.014  1.00  0.00     0.049 A 
ATOM     58  H   UNL A   1      43.640  29.457  27.963  1.00  0.00     0.167 HD
ATOM     59  C   UNL A   1      44.494  27.167  26.548  1.00  0.00     0.074 A 
ATOM     60  C   UNL A   1      44.489  25.842  25.963  1.00  0.00     0.031 C 
ATOM     61  C   UNL A   1      45.511  28.054  26.429  1.00  0.00     0.031 A 
BRANCH  48  62
ATOM     62  C   UNL A   1      44.442  33.460  29.208  1.00  0.00    -0.014 A 
ATOM     63  C   UNL A   1      45.248  33.716  30.328  1.00  0.00     0.009 A 
ATOM     64  C   UNL A   1      44.111  34.518  28.348  1.00  0.00     0.009 A 
ATOM     65  C   UNL A   1      45.687  35.014  30.598  1.00  0.00     0.001 A 
ATOM     66  C   UNL A   1      44.570  35.809  28.608  1.00  0.00     0.001 A 
ATOM     67  C   UNL A   1      45.351  36.058  29.737  1.00  0.00     0.000 A 
ENDBRANCH  48  62
BRANCH  49  68
ATOM     68  C   UNL A   1      40.777  24.414  27.330  1.00  0.00    -0.014 A 
ATOM     69  C   UNL A   1      39.681  24.253  26.469  1.00  0.00     0.009 A 
ATOM     70  C   UNL A   1      41.335  23.278  27.937  1.00  0.00     0.009 A 
ATOM     71  C   UNL A   1      39.136  22.986  26.247  1.00  0.00     0.001 A 
ATOM     72  C   UNL A   1      40.805  22.009  27.692  1.00  0.00     0.001 A 
ATOM     73  C   UNL A   1      39.699  21.865  26.856  1.00  0.00     0.000 A 
ENDBRANCH  49  68
BRANCH  61  74
ATOM     74  C   UNL A   1      46.721  27.608  25.658  1.00  0.00    -0.014 A 
ATOM     75  C   UNL A   1      47.786  26.949  26.291  1.00  0.00     0.009 A 
ATOM     76  C   UNL A   1      46.781  27.826  24.274  1.00  0.00     0.009 A 
ATOM     77  C   UNL A   1      48.901  26.543  25.555  1.00  0.00     0.001 A 
ATOM     78  C   UNL A   1      47.883  27.394  23.536  1.00  0.00     0.001 A 
ATOM     79  C   UNL A   1      48.946  26.760  24.179  1.00  0.00     0.000 A 
ENDBRANCH  61  74
ENDBRANCH  35  36
ENDBRANCH  28  30
ENDBRANCH  27  28
ENDBRANCH  26  27
ENDBRANCH  25  26
ENDBRANCH  24  25
ENDBRANCH   1  24
TORSDOF 19
ENDMDL
MODEL 2
REMARK VINA RESULT:      -9.8      4.252      6.570
REMARK SMILES CC(C)(C)[N@H+](CCC(=O)OCCOCCOC(=O)c1ccc(-c2c3nc(c(-c4ccccc4)c4ccc([nH]4)c(-c4ccccc4)c4nc(c(-c5ccccc5)c5ccc2[nH]5)C=C4)C=C3)cc1)C[C@H]1COc2ccccc21
REMARK SMILES IDX 12 1 11 2 10 3 8 4 9 5 7 6 6 7 5 8 2 10 1 11 3 12 4 13 67 14
REMARK SMILES IDX 68 15 69 16 76 17 70 18 71 19 75 20 72 21 74 22 73 23 13 24
REMARK SMILES IDX 14 25 15 26 16 27 17 28 18 29 19 30 20 31 66 32 21 33 65 34
REMARK SMILES IDX 22 35 23 36 24 37 59 38 25 39 64 40 58 41 60 42 26 43 63 44
REMARK SMILES IDX 57 45 56 46 27 48 49 49 34 50 48 51 35 52 38 53 47 54 61 55
REMARK SMILES IDX 36 56 37 57 46 59 62 60 39 61 28 62 29 63 33 64 30 65 32 66
REMARK SMILES IDX 31 67 50 68 51 69 55 70 52 71 54 72 53 73 40 74 41 75 45 76
REMARK SMILES IDX 42 77 44 78 43 79
REMARK H PARENT 5 9 60 47 38 58
REMARK Flexibility Score: inf
ROOT
ATOM      1  C   UNL A   1      35.005  32.647  28.079  1.00  0.00     0.202 C 
ENDROOT
BRANCH   1   2
ATOM      2  C   UNL A   1      34.619  31.170  28.008  1.00  0.00     0.261 C 
BRANCH   2   3
ATOM      3  O   UNL A   1      33.565  30.932  27.068  1.00  0.00    -0.463 OA
BRANCH   3   4
ATOM      4  C   UNL A   1      33.416  29.664  26.614  1.00  0.00     0.311 C 
ATOM      5  O   UNL A   1      33.607  28.650  27.280  1.00  0.00    -0.252 OA
BRANCH   4   6
ATOM      6  C   UNL A   1      32.859  29.615  25.211  1.00  0.00     0.184 C 
BRANCH   6   7
ATOM      7  C   UNL A   1      31.360  29.871  25.053  1.00  0.00     0.274 C 
BRANCH   7   8
ATOM      8  N   UNL A   1      30.792  29.127  23.925  1.00  0.00    -0.330 N 
ATOM      9  H   UNL A   1      30.183  28.453  24.389  1.00  0.00     0.348 HD
BRANCH   8  10
ATOM     10  C   UNL A   1      29.639  29.684  23.167  1.00  0.00     0.089 C 
ATOM     11  C   UNL A   1      29.925  30.027  21.684  1.00  0.00     0.078 C 
ATOM     12  C   UNL A   1      29.266  31.005  23.873  1.00  0.00     0.078 C 
ATOM     13  C   UNL A   1      28.379  28.780  23.131  1.00  0.00     0.078 C 
ENDBRANCH   8  10
BRANCH   8  14
ATOM     14  C   UNL A   1      31.780  28.294  23.225  1.00  0.00     0.274 C 
BRANCH  14  15
ATOM     15  C   UNL A   1      31.509  26.780  23.346  1.00  0.00     0.116 C 
ATOM     16  C   UNL A   1      31.784  26.119  21.992  1.00  0.00     0.244 C 
ATOM     17  C   UNL A   1      32.509  25.994  24.135  1.00  0.00     0.006 A 
ATOM     18  O   UNL A   1      33.183  25.782  21.962  1.00  0.00    -0.492 OA
ATOM     19  C   UNL A   1      33.438  25.450  23.261  1.00  0.00     0.123 A 
ATOM     20  C   UNL A   1      32.596  25.715  25.484  1.00  0.00     0.008 A 
ATOM     21  C   UNL A   1      34.479  24.642  23.665  1.00  0.00     0.047 A 
ATOM     22  C   UNL A   1      33.641  24.891  25.927  1.00  0.00     0.001 A 
ATOM     23  C   UNL A   1      34.578  24.356  25.023  1.00  0.00     0.004 A 
ENDBRANCH  14  15
ENDBRANCH   8  14
ENDBRANCH   7   8
ENDBRANCH   6   7
ENDBRANCH   4   6
ENDBRANCH   3   4
ENDBRANCH   2   3
ENDBRANCH   1   2
BRANCH   1  24
ATOM     24  O   UNL A   1      34.208  33.459  28.932  1.00  0.00    -0.374 OA
BRANCH  24  25
ATOM     25  C   UNL A   1      33.725  34.692  28.392  1.00  0.00     0.202 C 
BRANCH  25  26
ATOM     26  C   UNL A   1      33.100  35.687  29.382  1.00  0.00     0.261 C 
BRANCH  26  27
ATOM     27  O   UNL A   1      32.446  35.072  30.523  1.00  0.00    -0.460 OA
BRANCH  27  28
ATOM     28  C   UNL A   1      32.727  35.641  31.720  1.00  0.00     0.338 C 
ATOM     29  O   UNL A   1      32.116  36.581  32.238  1.00  0.00    -0.246 OA
BRANCH  28  30
ATOM     30  C   UNL A   1      33.858  35.009  32.430  1.00  0.00     0.060 A 
ATOM     31  C   UNL A   1      35.113  35.629  32.352  1.00  0.00     0.016 A 
ATOM     32  C   UNL A   1      33.754  33.725  32.975  1.00  0.00     0.016 A 
ATOM     33  C   UNL A   1      36.267  34.958  32.778  1.00  0.00     0.010 A 
ATOM     34  C   UNL A   1      34.915  33.051  33.396  1.00  0.00     0.010 A 
ATOM     35  C   UNL A   1      36.185  33.649  33.275  1.00  0.00    -0.014 A 
BRANCH  35  36
ATOM     36  C   UNL A   1      37.430  32.852  33.488  1.00  0.00     0.031 A 
ATOM     37  C   UNL A   1      38.238  33.096  34.732  1.00  0.00     0.074 A 
ATOM     38  C   UNL A   1      37.850  31.905  32.625  1.00  0.00     0.049 A 
ATOM     39  N   UNL A   1      39.340  32.512  35.130  1.00  0.00    -0.248 NA
ATOM     40  C   UNL A   1      37.726  34.118  35.660  1.00  0.00     0.031 C 
ATOM     41  C   UNL A   1      37.141  31.483  31.430  1.00  0.00     0.029 A 
ATOM     42  N   UNL A   1      38.983  31.124  32.617  1.00  0.00    -0.354 N 
ATOM     43  C   UNL A   1      39.644  33.079  36.359  1.00  0.00     0.074 A 
ATOM     44  C   UNL A   1      38.633  34.081  36.626  1.00  0.00     0.031 C 
ATOM     45  C   UNL A   1      37.860  30.566  30.768  1.00  0.00     0.029 A 
ATOM     46  C   UNL A   1      39.091  30.320  31.506  1.00  0.00     0.049 A 
ATOM     47  H   UNL A   1      39.652  31.139  33.338  1.00  0.00     0.167 HD
ATOM     48  C   UNL A   1      40.665  32.785  37.198  1.00  0.00     0.031 A 
ATOM     49  C   UNL A   1      40.060  29.471  31.116  1.00  0.00     0.031 A 
ATOM     50  C   UNL A   1      41.694  31.817  36.931  1.00  0.00     0.049 A 
ATOM     51  C   UNL A   1      41.244  29.251  32.008  1.00  0.00     0.074 A 
ATOM     52  C   UNL A   1      42.761  31.453  37.733  1.00  0.00     0.029 A 
ATOM     53  N   UNL A   1      41.798  31.073  35.766  1.00  0.00    -0.354 N 
ATOM     54  N   UNL A   1      41.490  29.762  33.188  1.00  0.00    -0.248 NA
ATOM     55  C   UNL A   1      42.273  28.317  31.527  1.00  0.00     0.031 C 
ATOM     56  C   UNL A   1      43.544  30.531  37.030  1.00  0.00     0.029 A 
ATOM     57  C   UNL A   1      42.933  30.279  35.813  1.00  0.00     0.049 A 
ATOM     58  H   UNL A   1      41.160  31.104  35.017  1.00  0.00     0.167 HD
ATOM     59  C   UNL A   1      42.680  29.187  33.607  1.00  0.00     0.074 A 
ATOM     60  C   UNL A   1      43.104  28.281  32.559  1.00  0.00     0.031 C 
ATOM     61  C   UNL A   1      43.354  29.386  34.766  1.00  0.00     0.031 A 
BRANCH  48  62
ATOM     62  C   UNL A   1      40.731  33.557  38.484  1.00  0.00    -0.014 A 
ATOM     63  C   UNL A   1      40.123  33.072  39.652  1.00  0.00     0.009 A 
ATOM     64  C   UNL A   1      41.432  34.771  38.531  1.00  0.00     0.009 A 
ATOM     65  C   UNL A   1      40.191  33.807  40.838  1.00  0.00     0.001 A 
ATOM     66  C   UNL A   1      41.518  35.490  39.723  1.00  0.00     0.001 A 
ATOM     67  C   UNL A   1      40.891  35.012  40.873  1.00  0.00     0.000 A 
ENDBRANCH  48  62
BRANCH  49  68
ATOM     68  C   UNL A   1      39.952  28.756  29.815  1.00  0.00    -0.014 A 
ATOM     69  C   UNL A   1      39.432  27.455  29.751  1.00  0.00     0.009 A 
ATOM     70  C   UNL A   1      40.397  29.368  28.632  1.00  0.00     0.009 A 
ATOM     71  C   UNL A   1      39.388  26.770  28.534  1.00  0.00     0.001 A 
ATOM     72  C   UNL A   1      40.328  28.690  27.413  1.00  0.00     0.001 A 
ATOM     73  C   UNL A   1      39.833  27.388  27.367  1.00  0.00     0.000 A 
ENDBRANCH  49  68
BRANCH  61  74
ATOM     74  C   UNL A   1      44.608  28.587  34.975  1.00  0.00    -0.014 A 
ATOM     75  C   UNL A   1      44.571  27.316  35.570  1.00  0.00     0.009 A 
ATOM     76  C   UNL A   1      45.839  29.102  34.544  1.00  0.00     0.009 A 
ATOM     77  C   UNL A   1      45.750  26.591  35.754  1.00  0.00     0.001 A 
ATOM     78  C   UNL A   1      47.011  28.364  34.703  1.00  0.00     0.001 A 
ATOM     79  C   UNL A   1      46.967  27.112  35.317  1.00  0.00     0.000 A 
ENDBRANCH  61  74
ENDBRANCH  35  36
ENDBRANCH  28  30
ENDBRANCH  27  28
ENDBRANCH  26  27
ENDBRANCH  25  26
ENDBRANCH  24  25
ENDBRANCH   1  24
TORSDOF 19
ENDMDL
MODEL 3
REMARK VINA RESULT:      -9.8      3.170      8.326
REMARK SMILES CC(C)(C)[N@H+](CCC(=O)OCCOCCOC(=O)c1ccc(-c2c3nc(c(-c4ccccc4)c4ccc([nH]4)c(-c4ccccc4)c4nc(c(-c5ccccc5)c5ccc2[nH]5)C=C4)C=C3)cc1)C[C@H]1COc2ccccc21
REMARK SMILES IDX 12 1 11 2 10 3 8 4 9 5 7 6 6 7 5 8 2 10 1 11 3 12 4 13 67 14
REMARK SMILES IDX 68 15 69 16 76 17 70 18 71 19 75 20 72 21 74 22 73 23 13 24
REMARK SMILES IDX 14 25 15 26 16 27 17 28 18 29 19 30 20 31 66 32 21 33 65 34
REMARK SMILES IDX 22 35 23 36 24 37 59 38 25 39 64 40 58 41 60 42 26 43 63 44
REMARK SMILES IDX 57 45 56 46 27 48 49 49 34 50 48 51 35 52 38 53 47 54 61 55
REMARK SMILES IDX 36 56 37 57 46 59 62 60 39 61 28 62 29 63 33 64 30 65 32 66
REMARK SMILES IDX 31 67 50 68 51 69 55 70 52 71 54 72 53 73 40 74 41 75 45 76
REMARK SMILES IDX 42 77 44 78 43 79
REMARK H PARENT 5 9 60 47 38 58
REMARK Flexibility Score: inf
ROOT
ATOM      1  C   UNL A   1      35.401  21.515  25.038  1.00  0.00     0.202 C 
ENDROOT
BRANCH   1   2
ATOM      2  C   UNL A   1      34.199  20.572  24.959  1.00  0.00     0.261 C 
BRANCH   2   3
ATOM      3  O   UNL A   1      32.984  21.269  24.664  1.00  0.00    -0.463 OA
BRANCH   3   4
ATOM      4  C   UNL A   1      32.491  21.149  23.408  1.00  0.00     0.311 C 
ATOM      5  O   UNL A   1      32.168  20.090  22.877  1.00  0.00    -0.252 OA
BRANCH   4   6
ATOM      6  C   UNL A   1      32.255  22.488  22.750  1.00  0.00     0.184 C 
BRANCH   6   7
ATOM      7  C   UNL A   1      33.253  23.601  23.073  1.00  0.00     0.274 C 
BRANCH   7   8
ATOM      8  N   UNL A   1      32.581  24.840  23.475  1.00  0.00    -0.330 N 
ATOM      9  H   UNL A   1      33.312  25.330  23.992  1.00  0.00     0.348 HD
BRANCH   8  10
ATOM     10  C   UNL A   1      32.466  25.973  22.517  1.00  0.00     0.089 C 
ATOM     11  C   UNL A   1      33.462  27.137  22.744  1.00  0.00     0.078 C 
ATOM     12  C   UNL A   1      31.046  26.547  22.710  1.00  0.00     0.078 C 
ATOM     13  C   UNL A   1      32.635  25.589  21.023  1.00  0.00     0.078 C 
ENDBRANCH   8  10
BRANCH   8  14
ATOM     14  C   UNL A   1      31.521  24.626  24.470  1.00  0.00     0.274 C 
BRANCH  14  15
ATOM     15  C   UNL A   1      31.962  24.930  25.918  1.00  0.00     0.116 C 
ATOM     16  C   UNL A   1      33.429  24.524  26.082  1.00  0.00     0.244 C 
ATOM     17  C   UNL A   1      32.135  26.375  26.263  1.00  0.00     0.006 A 
ATOM     18  O   UNL A   1      34.227  25.656  25.691  1.00  0.00    -0.492 OA
ATOM     19  C   UNL A   1      33.471  26.713  26.108  1.00  0.00     0.123 A 
ATOM     20  C   UNL A   1      31.241  27.320  26.726  1.00  0.00     0.008 A 
ATOM     21  C   UNL A   1      33.973  27.969  26.376  1.00  0.00     0.047 A 
ATOM     22  C   UNL A   1      31.722  28.606  27.014  1.00  0.00     0.001 A 
ATOM     23  C   UNL A   1      33.081  28.929  26.841  1.00  0.00     0.004 A 
ENDBRANCH  14  15
ENDBRANCH   8  14
ENDBRANCH   7   8
ENDBRANCH   6   7
ENDBRANCH   4   6
ENDBRANCH   3   4
ENDBRANCH   2   3
ENDBRANCH   1   2
BRANCH   1  24
ATOM     24  O   UNL A   1      36.665  20.897  25.245  1.00  0.00    -0.374 OA
BRANCH  24  25
ATOM     25  C   UNL A   1      37.826  21.698  25.016  1.00  0.00     0.202 C 
BRANCH  25  26
ATOM     26  C   UNL A   1      39.073  21.371  25.853  1.00  0.00     0.261 C 
BRANCH  26  27
ATOM     27  O   UNL A   1      39.476  19.977  25.815  1.00  0.00    -0.460 OA
BRANCH  27  28
ATOM     28  C   UNL A   1      40.801  19.759  25.989  1.00  0.00     0.338 C 
ATOM     29  O   UNL A   1      41.411  18.725  25.696  1.00  0.00    -0.246 OA
BRANCH  28  30
ATOM     30  C   UNL A   1      41.528  20.915  26.553  1.00  0.00     0.060 A 
ATOM     31  C   UNL A   1      41.340  21.211  27.910  1.00  0.00     0.016 A 
ATOM     32  C   UNL A   1      42.202  21.825  25.733  1.00  0.00     0.016 A 
ATOM     33  C   UNL A   1      41.787  22.428  28.443  1.00  0.00     0.010 A 
ATOM     34  C   UNL A   1      42.643  23.050  26.268  1.00  0.00     0.010 A 
ATOM     35  C   UNL A   1      42.415  23.375  27.621  1.00  0.00    -0.014 A 
BRANCH  35  36
ATOM     36  C   UNL A   1      42.660  24.758  28.127  1.00  0.00     0.031 A 
ATOM     37  C   UNL A   1      44.052  25.135  28.551  1.00  0.00     0.074 A 
ATOM     38  C   UNL A   1      41.691  25.693  28.199  1.00  0.00     0.049 A 
ATOM     39  N   UNL A   1      44.496  26.279  29.006  1.00  0.00    -0.248 NA
ATOM     40  C   UNL A   1      45.083  24.092  28.427  1.00  0.00     0.031 C 
ATOM     41  C   UNL A   1      40.322  25.523  27.746  1.00  0.00     0.029 A 
ATOM     42  N   UNL A   1      41.707  26.979  28.688  1.00  0.00    -0.354 N 
ATOM     43  C   UNL A   1      45.857  26.103  29.205  1.00  0.00     0.074 A 
ATOM     44  C   UNL A   1      46.162  24.730  28.858  1.00  0.00     0.031 C 
ATOM     45  C   UNL A   1      39.606  26.623  28.016  1.00  0.00     0.029 A 
ATOM     46  C   UNL A   1      40.478  27.597  28.657  1.00  0.00     0.049 A 
ATOM     47  H   UNL A   1      42.522  27.417  29.027  1.00  0.00     0.167 HD
ATOM     48  C   UNL A   1      46.776  27.003  29.625  1.00  0.00     0.031 A 
ATOM     49  C   UNL A   1      40.084  28.811  29.086  1.00  0.00     0.031 A 
ATOM     50  C   UNL A   1      46.482  28.359  30.003  1.00  0.00     0.049 A 
ATOM     51  C   UNL A   1      41.101  29.750  29.662  1.00  0.00     0.074 A 
ATOM     52  C   UNL A   1      47.359  29.340  30.434  1.00  0.00     0.029 A 
ATOM     53  N   UNL A   1      45.216  28.921  30.017  1.00  0.00    -0.354 N 
ATOM     54  N   UNL A   1      42.392  29.581  29.799  1.00  0.00    -0.248 NA
ATOM     55  C   UNL A   1      40.611  31.059  30.119  1.00  0.00     0.031 C 
ATOM     56  C   UNL A   1      46.614  30.478  30.763  1.00  0.00     0.029 A 
ATOM     57  C   UNL A   1      45.282  30.224  30.485  1.00  0.00     0.049 A 
ATOM     58  H   UNL A   1      44.391  28.462  29.736  1.00  0.00     0.167 HD
ATOM     59  C   UNL A   1      42.875  30.771  30.321  1.00  0.00     0.074 A 
ATOM     60  C   UNL A   1      41.739  31.658  30.472  1.00  0.00     0.031 C 
ATOM     61  C   UNL A   1      44.150  31.099  30.638  1.00  0.00     0.031 A 
BRANCH  48  62
ATOM     62  C   UNL A   1      48.197  26.528  29.727  1.00  0.00    -0.014 A 
ATOM     63  C   UNL A   1      48.672  25.911  30.894  1.00  0.00     0.009 A 
ATOM     64  C   UNL A   1      49.061  26.677  28.632  1.00  0.00     0.009 A 
ATOM     65  C   UNL A   1      49.998  25.479  30.973  1.00  0.00     0.001 A 
ATOM     66  C   UNL A   1      50.377  26.224  28.705  1.00  0.00     0.001 A 
ATOM     67  C   UNL A   1      50.848  25.633  29.878  1.00  0.00     0.000 A 
ENDBRANCH  48  62
BRANCH  49  68
ATOM     68  C   UNL A   1      38.656  29.215  28.985  1.00  0.00    -0.014 A 
ATOM     69  C   UNL A   1      38.144  29.755  27.796  1.00  0.00     0.009 A 
ATOM     70  C   UNL A   1      37.803  29.084  30.093  1.00  0.00     0.009 A 
ATOM     71  C   UNL A   1      36.816  30.185  27.728  1.00  0.00     0.001 A 
ATOM     72  C   UNL A   1      36.469  29.490  30.014  1.00  0.00     0.001 A 
ATOM     73  C   UNL A   1      35.980  30.050  28.835  1.00  0.00     0.000 A 
ENDBRANCH  49  68
BRANCH  61  74
ATOM     74  C   UNL A   1      44.392  32.489  31.153  1.00  0.00    -0.014 A 
ATOM     75  C   UNL A   1      44.428  32.761  32.529  1.00  0.00     0.009 A 
ATOM     76  C   UNL A   1      44.617  33.535  30.245  1.00  0.00     0.009 A 
ATOM     77  C   UNL A   1      44.655  34.061  32.985  1.00  0.00     0.001 A 
ATOM     78  C   UNL A   1      44.871  34.828  30.703  1.00  0.00     0.001 A 
ATOM     79  C   UNL A   1      44.882  35.091  32.073  1.00  0.00     0.000 A 
ENDBRANCH  61  74
ENDBRANCH  35  36
ENDBRANCH  28  30
ENDBRANCH  27  28
ENDBRANCH  26  27
ENDBRANCH  25  26
ENDBRANCH  24  25
ENDBRANCH   1  24
TORSDOF 19
ENDMDL
