MODEL 1
REMARK VINA RESULT:     -12.0      0.000      0.000
REMARK SMILES C[C@@H](C(=O)OCCOCCOC(=O)c1ccc(-c2c3nc(c(-c4ccccc4)c4ccc([nH]4)c(-c4ccccc4)c4nc(c(-c5ccccc5)c5ccc2[nH]5)C=C4)C=C3)cc1)c1ccc2c3cc(Cl)ccc3n(C(=O)c3ccc(Cl)cc3)c2c1
REMARK SMILES IDX 7 1 6 2 5 3 3 4 4 5 2 6 1 7 62 8 63 9 84 10 64 11 83 12
REMARK SMILES IDX 65 13 73 14 66 15 72 16 67 17 71 18 68 19 70 20 69 21 74 22
REMARK SMILES IDX 75 23 76 24 77 25 82 26 78 27 81 28 79 29 80 30 8 31 9 32
REMARK SMILES IDX 10 33 11 34 12 35 13 36 14 37 15 38 61 39 16 40 60 41 17 42
REMARK SMILES IDX 18 43 19 44 54 45 20 46 59 47 53 48 55 49 21 50 58 51 52 52
REMARK SMILES IDX 51 53 22 55 44 56 29 57 43 58 30 59 33 60 42 61 56 62 31 63
REMARK SMILES IDX 32 64 41 66 57 67 34 68 23 69 24 70 28 71 25 72 27 73 26 74
REMARK SMILES IDX 45 75 46 76 50 77 47 78 49 79 48 80 35 81 36 82 40 83 37 84
REMARK SMILES IDX 39 85 38 86
REMARK H PARENT 55 54 33 65
REMARK Flexibility Score: inf
ROOT
ATOM      1  C   UNL A   1      33.318  34.752  30.148  1.00  0.00     0.202 C 
ENDROOT
BRANCH   1   2
ATOM      2  C   UNL A   1      34.552  34.258  29.391  1.00  0.00     0.261 C 
BRANCH   2   3
ATOM      3  O   UNL A   1      34.661  32.824  29.475  1.00  0.00    -0.463 OA
BRANCH   3   4
ATOM      4  C   UNL A   1      35.237  32.221  28.399  1.00  0.00     0.313 C 
ATOM      5  O   UNL A   1      36.023  32.782  27.643  1.00  0.00    -0.252 OA
BRANCH   4   6
ATOM      6  C   UNL A   1      34.825  30.749  28.247  1.00  0.00     0.126 C 
ATOM      7  C   UNL A   1      35.991  29.781  28.029  1.00  0.00     0.025 C 
BRANCH   6   8
ATOM      8  C   UNL A   1      33.691  30.607  27.229  1.00  0.00    -0.032 A 
ATOM      9  C   UNL A   1      32.585  31.459  27.158  1.00  0.00     0.005 A 
ATOM     10  C   UNL A   1      33.743  29.506  26.359  1.00  0.00     0.032 A 
ATOM     11  C   UNL A   1      31.549  31.234  26.235  1.00  0.00     0.011 A 
ATOM     12  C   UNL A   1      32.680  29.252  25.471  1.00  0.00     0.057 A 
ATOM     13  C   UNL A   1      31.599  30.116  25.373  1.00  0.00     0.008 A 
ATOM     14  N   UNL A   1      32.491  28.194  24.577  1.00  0.00    -0.276 N 
ATOM     15  C   UNL A   1      30.736  29.600  24.364  1.00  0.00     0.009 A 
ATOM     16  C   UNL A   1      31.278  28.389  23.907  1.00  0.00     0.057 A 
ATOM     17  C   UNL A   1      29.503  30.051  23.839  1.00  0.00     0.031 A 
ATOM     18  C   UNL A   1      30.562  27.576  23.004  1.00  0.00     0.029 A 
ATOM     19  C   UNL A   1      28.827  29.268  22.906  1.00  0.00     0.041 A 
ATOM     20  C   UNL A   1      29.340  28.042  22.503  1.00  0.00     0.023 A 
ATOM     21  Cl  UNL A   1      27.323  29.817  22.272  1.00  0.00    -0.084 Cl
BRANCH  14  22
ATOM     22  C   UNL A   1      33.381  27.096  24.497  1.00  0.00     0.262 C 
ATOM     23  O   UNL A   1      34.183  27.131  23.562  1.00  0.00    -0.268 OA
BRANCH  22  24
ATOM     24  C   UNL A   1      33.419  25.870  25.345  1.00  0.00     0.040 A 
ATOM     25  C   UNL A   1      34.624  25.138  25.346  1.00  0.00     0.015 A 
ATOM     26  C   UNL A   1      32.316  25.342  26.021  1.00  0.00     0.015 A 
ATOM     27  C   UNL A   1      34.734  23.921  26.019  1.00  0.00     0.021 A 
ATOM     28  C   UNL A   1      32.436  24.135  26.726  1.00  0.00     0.021 A 
ATOM     29  C   UNL A   1      33.640  23.427  26.717  1.00  0.00     0.041 A 
ATOM     30  Cl  UNL A   1      33.766  21.929  27.549  1.00  0.00    -0.084 Cl
ENDBRANCH  22  24
ENDBRANCH  14  22
ENDBRANCH   6   8
ENDBRANCH   4   6
ENDBRANCH   3   4
ENDBRANCH   2   3
ENDBRANCH   1   2
BRANCH   1  31
ATOM     31  O   UNL A   1      33.446  34.905  31.562  1.00  0.00    -0.374 OA
BRANCH  31  32
ATOM     32  C   UNL A   1      34.729  34.688  32.144  1.00  0.00     0.202 C 
BRANCH  32  33
ATOM     33  C   UNL A   1      34.774  33.877  33.445  1.00  0.00     0.261 C 
BRANCH  33  34
ATOM     34  O   UNL A   1      35.268  32.538  33.258  1.00  0.00    -0.460 OA
BRANCH  34  35
ATOM     35  C   UNL A   1      36.524  32.333  33.720  1.00  0.00     0.338 C 
ATOM     36  O   UNL A   1      36.955  32.580  34.839  1.00  0.00    -0.246 OA
BRANCH  35  37
ATOM     37  C   UNL A   1      37.319  31.587  32.730  1.00  0.00     0.060 A 
ATOM     38  C   UNL A   1      38.284  30.697  33.220  1.00  0.00     0.016 A 
ATOM     39  C   UNL A   1      37.193  31.817  31.359  1.00  0.00     0.016 A 
ATOM     40  C   UNL A   1      39.163  30.069  32.341  1.00  0.00     0.010 A 
ATOM     41  C   UNL A   1      38.086  31.194  30.479  1.00  0.00     0.010 A 
ATOM     42  C   UNL A   1      39.096  30.347  30.971  1.00  0.00    -0.014 A 
BRANCH  42  43
ATOM     43  C   UNL A   1      40.186  29.873  30.085  1.00  0.00     0.031 A 
ATOM     44  C   UNL A   1      41.382  30.758  29.864  1.00  0.00     0.074 A 
ATOM     45  C   UNL A   1      40.136  28.652  29.525  1.00  0.00     0.049 A 
ATOM     46  N   UNL A   1      42.448  30.545  29.136  1.00  0.00    -0.248 NA
ATOM     47  C   UNL A   1      41.377  32.055  30.561  1.00  0.00     0.031 C 
ATOM     48  C   UNL A   1      39.057  27.682  29.705  1.00  0.00     0.029 A 
ATOM     49  N   UNL A   1      41.023  28.021  28.690  1.00  0.00    -0.354 N 
ATOM     50  C   UNL A   1      43.235  31.681  29.280  1.00  0.00     0.074 A 
ATOM     51  C   UNL A   1      42.514  32.591  30.143  1.00  0.00     0.031 C 
ATOM     52  C   UNL A   1      39.347  26.574  29.000  1.00  0.00     0.029 A 
ATOM     53  C   UNL A   1      40.612  26.771  28.296  1.00  0.00     0.049 A 
ATOM     54  H   UNL A   1      41.873  28.425  28.401  1.00  0.00     0.167 HD
ATOM     55  C   UNL A   1      44.452  31.942  28.746  1.00  0.00     0.031 A 
ATOM     56  C   UNL A   1      41.185  25.894  27.449  1.00  0.00     0.031 A 
ATOM     57  C   UNL A   1      45.166  31.042  27.881  1.00  0.00     0.049 A 
ATOM     58  C   UNL A   1      42.499  26.243  26.803  1.00  0.00     0.074 A 
ATOM     59  C   UNL A   1      46.412  31.208  27.302  1.00  0.00     0.029 A 
ATOM     60  N   UNL A   1      44.690  29.808  27.463  1.00  0.00    -0.354 N 
ATOM     61  N   UNL A   1      43.245  27.310  26.966  1.00  0.00    -0.248 NA
ATOM     62  C   UNL A   1      43.054  25.261  25.860  1.00  0.00     0.031 C 
ATOM     63  C   UNL A   1      46.666  30.099  26.487  1.00  0.00     0.029 A 
ATOM     64  C   UNL A   1      45.605  29.216  26.608  1.00  0.00     0.049 A 
ATOM     65  H   UNL A   1      43.831  29.413  27.734  1.00  0.00     0.167 HD
ATOM     66  C   UNL A   1      44.366  27.114  26.171  1.00  0.00     0.074 A 
ATOM     67  C   UNL A   1      44.210  25.822  25.537  1.00  0.00     0.031 C 
ATOM     68  C   UNL A   1      45.433  27.930  25.984  1.00  0.00     0.031 A 
BRANCH  55  69
ATOM     69  C   UNL A   1      45.072  33.277  29.054  1.00  0.00    -0.014 A 
ATOM     70  C   UNL A   1      44.754  34.420  28.305  1.00  0.00     0.009 A 
ATOM     71  C   UNL A   1      45.965  33.395  30.131  1.00  0.00     0.009 A 
ATOM     72  C   UNL A   1      45.344  35.650  28.609  1.00  0.00     0.001 A 
ATOM     73  C   UNL A   1      46.531  34.630  30.450  1.00  0.00     0.001 A 
ATOM     74  C   UNL A   1      46.227  35.754  29.683  1.00  0.00     0.000 A 
ENDBRANCH  55  69
BRANCH  56  75
ATOM     75  C   UNL A   1      40.512  24.605  27.143  1.00  0.00    -0.014 A 
ATOM     76  C   UNL A   1      39.302  24.578  26.433  1.00  0.00     0.009 A 
ATOM     77  C   UNL A   1      41.069  23.393  27.580  1.00  0.00     0.009 A 
ATOM     78  C   UNL A   1      38.652  23.366  26.189  1.00  0.00     0.001 A 
ATOM     79  C   UNL A   1      40.432  22.180  27.309  1.00  0.00     0.001 A 
ATOM     80  C   UNL A   1      39.220  22.168  26.622  1.00  0.00     0.000 A 
ENDBRANCH  56  75
BRANCH  68  81
ATOM     81  C   UNL A   1      46.532  27.434  25.087  1.00  0.00    -0.014 A 
ATOM     82  C   UNL A   1      46.823  28.067  23.868  1.00  0.00     0.009 A 
ATOM     83  C   UNL A   1      47.315  26.341  25.488  1.00  0.00     0.009 A 
ATOM     84  C   UNL A   1      47.854  27.593  23.055  1.00  0.00     0.001 A 
ATOM     85  C   UNL A   1      48.364  25.888  24.688  1.00  0.00     0.001 A 
ATOM     86  C   UNL A   1      48.628  26.508  23.468  1.00  0.00     0.000 A 
ENDBRANCH  68  81
ENDBRANCH  42  43
ENDBRANCH  35  37
ENDBRANCH  34  35
ENDBRANCH  33  34
ENDBRANCH  32  33
ENDBRANCH  31  32
ENDBRANCH   1  31
TORSDOF 17
ENDMDL
MODEL 2
REMARK VINA RESULT:     -11.2      4.168      8.700
REMARK SMILES C[C@@H](C(=O)OCCOCCOC(=O)c1ccc(-c2c3nc(c(-c4ccccc4)c4ccc([nH]4)c(-c4ccccc4)c4nc(c(-c5ccccc5)c5ccc2[nH]5)C=C4)C=C3)cc1)c1ccc2c3cc(Cl)ccc3n(C(=O)c3ccc(Cl)cc3)c2c1
REMARK SMILES IDX 7 1 6 2 5 3 3 4 4 5 2 6 1 7 62 8 63 9 84 10 64 11 83 12
REMARK SMILES IDX 65 13 73 14 66 15 72 16 67 17 71 18 68 19 70 20 69 21 74 22
REMARK SMILES IDX 75 23 76 24 77 25 82 26 78 27 81 28 79 29 80 30 8 31 9 32
REMARK SMILES IDX 10 33 11 34 12 35 13 36 14 37 15 38 61 39 16 40 60 41 17 42
REMARK SMILES IDX 18 43 19 44 54 45 20 46 59 47 53 48 55 49 21 50 58 51 52 52
REMARK SMILES IDX 51 53 22 55 44 56 29 57 43 58 30 59 33 60 42 61 56 62 31 63
REMARK SMILES IDX 32 64 41 66 57 67 34 68 23 69 24 70 28 71 25 72 27 73 26 74
REMARK SMILES IDX 45 75 46 76 50 77 47 78 49 79 48 80 35 81 36 82 40 83 37 84
REMARK SMILES IDX 39 85 38 86
REMARK H PARENT 55 54 33 65
REMARK Flexibility Score: inf
ROOT
ATOM      1  C   UNL A   1      31.416  29.620  25.378  1.00  0.00     0.202 C 
ENDROOT
BRANCH   1   2
ATOM      2  C   UNL A   1      31.724  28.616  24.266  1.00  0.00     0.261 C 
BRANCH   2   3
ATOM      3  O   UNL A   1      30.658  27.657  24.134  1.00  0.00    -0.463 OA
BRANCH   3   4
ATOM      4  C   UNL A   1      31.040  26.415  23.730  1.00  0.00     0.313 C 
ATOM      5  O   UNL A   1      31.438  26.158  22.598  1.00  0.00    -0.252 OA
BRANCH   4   6
ATOM      6  C   UNL A   1      30.951  25.368  24.850  1.00  0.00     0.126 C 
ATOM      7  C   UNL A   1      30.236  25.848  26.115  1.00  0.00     0.025 C 
BRANCH   6   8
ATOM      8  C   UNL A   1      32.319  24.729  25.105  1.00  0.00    -0.032 A 
ATOM      9  C   UNL A   1      33.440  25.427  25.563  1.00  0.00     0.005 A 
ATOM     10  C   UNL A   1      32.461  23.368  24.791  1.00  0.00     0.032 A 
ATOM     11  C   UNL A   1      34.683  24.789  25.719  1.00  0.00     0.011 A 
ATOM     12  C   UNL A   1      33.718  22.743  24.898  1.00  0.00     0.057 A 
ATOM     13  C   UNL A   1      34.824  23.423  25.387  1.00  0.00     0.008 A 
ATOM     14  N   UNL A   1      34.101  21.437  24.578  1.00  0.00    -0.276 N 
ATOM     15  C   UNL A   1      35.912  22.503  25.407  1.00  0.00     0.009 A 
ATOM     16  C   UNL A   1      35.462  21.288  24.867  1.00  0.00     0.057 A 
ATOM     17  C   UNL A   1      37.263  22.630  25.802  1.00  0.00     0.031 A 
ATOM     18  C   UNL A   1      36.363  20.231  24.628  1.00  0.00     0.029 A 
ATOM     19  C   UNL A   1      38.136  21.561  25.613  1.00  0.00     0.041 A 
ATOM     20  C   UNL A   1      37.699  20.383  25.021  1.00  0.00     0.023 A 
ATOM     21  Cl  UNL A   1      39.783  21.720  26.089  1.00  0.00    -0.084 Cl
BRANCH  14  22
ATOM     22  C   UNL A   1      33.217  20.510  23.974  1.00  0.00     0.262 C 
ATOM     23  O   UNL A   1      32.389  20.994  23.201  1.00  0.00    -0.268 OA
BRANCH  22  24
ATOM     24  C   UNL A   1      33.107  19.043  24.215  1.00  0.00     0.040 A 
ATOM     25  C   UNL A   1      32.579  18.645  25.461  1.00  0.00     0.015 A 
ATOM     26  C   UNL A   1      33.605  18.060  23.356  1.00  0.00     0.015 A 
ATOM     27  C   UNL A   1      32.530  17.301  25.833  1.00  0.00     0.021 A 
ATOM     28  C   UNL A   1      33.526  16.706  23.716  1.00  0.00     0.021 A 
ATOM     29  C   UNL A   1      32.996  16.333  24.952  1.00  0.00     0.041 A 
ATOM     30  Cl  UNL A   1      32.940  14.675  25.403  1.00  0.00    -0.084 Cl
ENDBRANCH  22  24
ENDBRANCH  14  22
ENDBRANCH   6   8
ENDBRANCH   4   6
ENDBRANCH   3   4
ENDBRANCH   2   3
ENDBRANCH   1   2
BRANCH   1  31
ATOM     31  O   UNL A   1      32.491  30.452  25.813  1.00  0.00    -0.374 OA
BRANCH  31  32
ATOM     32  C   UNL A   1      32.381  31.072  27.093  1.00  0.00     0.202 C 
BRANCH  32  33
ATOM     33  C   UNL A   1      33.609  31.837  27.602  1.00  0.00     0.261 C 
BRANCH  33  34
ATOM     34  O   UNL A   1      33.464  33.265  27.503  1.00  0.00    -0.460 OA
BRANCH  34  35
ATOM     35  C   UNL A   1      33.457  33.913  28.692  1.00  0.00     0.338 C 
ATOM     36  O   UNL A   1      32.547  34.576  29.173  1.00  0.00    -0.246 OA
BRANCH  35  37
ATOM     37  C   UNL A   1      34.666  33.580  29.464  1.00  0.00     0.060 A 
ATOM     38  C   UNL A   1      35.900  33.960  28.922  1.00  0.00     0.016 A 
ATOM     39  C   UNL A   1      34.604  32.831  30.641  1.00  0.00     0.016 A 
ATOM     40  C   UNL A   1      37.084  33.551  29.530  1.00  0.00     0.010 A 
ATOM     41  C   UNL A   1      35.796  32.411  31.243  1.00  0.00     0.010 A 
ATOM     42  C   UNL A   1      37.039  32.739  30.669  1.00  0.00    -0.014 A 
BRANCH  42  43
ATOM     43  C   UNL A   1      38.288  32.107  31.156  1.00  0.00     0.031 A 
ATOM     44  C   UNL A   1      38.793  30.867  30.469  1.00  0.00     0.074 A 
ATOM     45  C   UNL A   1      38.992  32.658  32.160  1.00  0.00     0.049 A 
ATOM     46  N   UNL A   1      39.861  30.155  30.724  1.00  0.00    -0.248 NA
ATOM     47  C   UNL A   1      37.989  30.366  29.343  1.00  0.00     0.031 C 
ATOM     48  C   UNL A   1      38.635  33.886  32.869  1.00  0.00     0.029 A 
ATOM     49  N   UNL A   1      40.159  32.250  32.754  1.00  0.00    -0.354 N 
ATOM     50  C   UNL A   1      39.852  29.119  29.798  1.00  0.00     0.074 A 
ATOM     51  C   UNL A   1      38.661  29.280  28.993  1.00  0.00     0.031 C 
ATOM     52  C   UNL A   1      39.568  34.133  33.805  1.00  0.00     0.029 A 
ATOM     53  C   UNL A   1      40.566  33.066  33.782  1.00  0.00     0.049 A 
ATOM     54  H   UNL A   1      40.658  31.450  32.472  1.00  0.00     0.167 HD
ATOM     55  C   UNL A   1      40.757  28.126  29.629  1.00  0.00     0.031 A 
ATOM     56  C   UNL A   1      41.615  32.952  34.619  1.00  0.00     0.031 A 
ATOM     57  C   UNL A   1      41.936  27.960  30.435  1.00  0.00     0.049 A 
ATOM     58  C   UNL A   1      42.561  31.792  34.463  1.00  0.00     0.074 A 
ATOM     59  C   UNL A   1      42.923  26.995  30.331  1.00  0.00     0.029 A 
ATOM     60  N   UNL A   1      42.283  28.777  31.500  1.00  0.00    -0.354 N 
ATOM     61  N   UNL A   1      42.555  30.833  33.569  1.00  0.00    -0.248 NA
ATOM     62  C   UNL A   1      43.664  31.703  35.431  1.00  0.00     0.031 C 
ATOM     63  C   UNL A   1      43.838  27.193  31.372  1.00  0.00     0.029 A 
ATOM     64  C   UNL A   1      43.453  28.319  32.083  1.00  0.00     0.049 A 
ATOM     65  H   UNL A   1      41.774  29.565  31.797  1.00  0.00     0.167 HD
ATOM     66  C   UNL A   1      43.666  30.046  33.848  1.00  0.00     0.074 A 
ATOM     67  C   UNL A   1      44.330  30.647  34.986  1.00  0.00     0.031 C 
ATOM     68  C   UNL A   1      44.100  28.928  33.216  1.00  0.00     0.031 A 
BRANCH  55  69
ATOM     69  C   UNL A   1      40.482  27.115  28.551  1.00  0.00    -0.014 A 
ATOM     70  C   UNL A   1      39.657  26.004  28.783  1.00  0.00     0.009 A 
ATOM     71  C   UNL A   1      41.035  27.296  27.273  1.00  0.00     0.009 A 
ATOM     72  C   UNL A   1      39.417  25.077  27.765  1.00  0.00     0.001 A 
ATOM     73  C   UNL A   1      40.771  26.384  26.251  1.00  0.00     0.001 A 
ATOM     74  C   UNL A   1      39.970  25.270  26.500  1.00  0.00     0.000 A 
ENDBRANCH  55  69
BRANCH  56  75
ATOM     75  C   UNL A   1      41.820  33.954  35.698  1.00  0.00    -0.014 A 
ATOM     76  C   UNL A   1      42.523  35.142  35.449  1.00  0.00     0.009 A 
ATOM     77  C   UNL A   1      41.330  33.714  36.991  1.00  0.00     0.009 A 
ATOM     78  C   UNL A   1      42.751  36.058  36.479  1.00  0.00     0.001 A 
ATOM     79  C   UNL A   1      41.535  34.644  38.012  1.00  0.00     0.001 A 
ATOM     80  C   UNL A   1      42.254  35.811  37.758  1.00  0.00     0.000 A 
ENDBRANCH  56  75
BRANCH  68  81
ATOM     81  C   UNL A   1      45.371  28.302  33.718  1.00  0.00    -0.014 A 
ATOM     82  C   UNL A   1      46.625  28.706  33.236  1.00  0.00     0.009 A 
ATOM     83  C   UNL A   1      45.311  27.321  34.720  1.00  0.00     0.009 A 
ATOM     84  C   UNL A   1      47.792  28.115  33.724  1.00  0.00     0.001 A 
ATOM     85  C   UNL A   1      46.481  26.753  35.227  1.00  0.00     0.001 A 
ATOM     86  C   UNL A   1      47.720  27.144  34.723  1.00  0.00     0.000 A 
ENDBRANCH  68  81
ENDBRANCH  42  43
ENDBRANCH  35  37
ENDBRANCH  34  35
ENDBRANCH  33  34
ENDBRANCH  32  33
ENDBRANCH  31  32
ENDBRANCH   1  31
TORSDOF 17
ENDMDL
MODEL 3
REMARK VINA RESULT:     -11.2      4.132      7.465
REMARK SMILES C[C@@H](C(=O)OCCOCCOC(=O)c1ccc(-c2c3nc(c(-c4ccccc4)c4ccc([nH]4)c(-c4ccccc4)c4nc(c(-c5ccccc5)c5ccc2[nH]5)C=C4)C=C3)cc1)c1ccc2c3cc(Cl)ccc3n(C(=O)c3ccc(Cl)cc3)c2c1
REMARK SMILES IDX 7 1 6 2 5 3 3 4 4 5 2 6 1 7 62 8 63 9 84 10 64 11 83 12
REMARK SMILES IDX 65 13 73 14 66 15 72 16 67 17 71 18 68 19 70 20 69 21 74 22
REMARK SMILES IDX 75 23 76 24 77 25 82 26 78 27 81 28 79 29 80 30 8 31 9 32
REMARK SMILES IDX 10 33 11 34 12 35 13 36 14 37 15 38 61 39 16 40 60 41 17 42
REMARK SMILES IDX 18 43 19 44 54 45 20 46 59 47 53 48 55 49 21 50 58 51 52 52
REMARK SMILES IDX 51 53 22 55 44 56 29 57 43 58 30 59 33 60 42 61 56 62 31 63
REMARK SMILES IDX 32 64 41 66 57 67 34 68 23 69 24 70 28 71 25 72 27 73 26 74
REMARK SMILES IDX 45 75 46 76 50 77 47 78 49 79 48 80 35 81 36 82 40 83 37 84
REMARK SMILES IDX 39 85 38 86
REMARK H PARENT 55 54 33 65
REMARK Flexibility Score: inf
ROOT
ATOM      1  C   UNL A   1      31.400  29.543  25.252  1.00  0.00     0.202 C 
ENDROOT
BRANCH   1   2
ATOM      2  C   UNL A   1      31.811  28.718  24.031  1.00  0.00     0.261 C 
BRANCH   2   3
ATOM      3  O   UNL A   1      30.779  27.775  23.682  1.00  0.00    -0.463 OA
BRANCH   3   4
ATOM      4  C   UNL A   1      31.221  26.554  23.276  1.00  0.00     0.313 C 
ATOM      5  O   UNL A   1      31.704  26.336  22.170  1.00  0.00    -0.252 OA
BRANCH   4   6
ATOM      6  C   UNL A   1      31.083  25.476  24.362  1.00  0.00     0.126 C 
ATOM      7  C   UNL A   1      30.259  25.902  25.580  1.00  0.00     0.025 C 
BRANCH   6   8
ATOM      8  C   UNL A   1      32.447  24.873  24.705  1.00  0.00    -0.032 A 
ATOM      9  C   UNL A   1      33.565  25.622  25.084  1.00  0.00     0.005 A 
ATOM     10  C   UNL A   1      32.590  23.484  24.561  1.00  0.00     0.032 A 
ATOM     11  C   UNL A   1      34.806  25.006  25.328  1.00  0.00     0.011 A 
ATOM     12  C   UNL A   1      33.846  22.876  24.755  1.00  0.00     0.057 A 
ATOM     13  C   UNL A   1      34.948  23.611  25.167  1.00  0.00     0.008 A 
ATOM     14  N   UNL A   1      34.229  21.540  24.601  1.00  0.00    -0.276 N 
ATOM     15  C   UNL A   1      36.034  22.699  25.309  1.00  0.00     0.009 A 
ATOM     16  C   UNL A   1      35.587  21.428  24.918  1.00  0.00     0.057 A 
ATOM     17  C   UNL A   1      37.382  22.874  25.698  1.00  0.00     0.031 A 
ATOM     18  C   UNL A   1      36.489  20.349  24.818  1.00  0.00     0.029 A 
ATOM     19  C   UNL A   1      38.255  21.789  25.648  1.00  0.00     0.041 A 
ATOM     20  C   UNL A   1      37.822  20.547  25.202  1.00  0.00     0.023 A 
ATOM     21  Cl  UNL A   1      39.898  22.005  26.116  1.00  0.00    -0.084 Cl
BRANCH  14  22
ATOM     22  C   UNL A   1      33.349  20.547  24.107  1.00  0.00     0.262 C 
ATOM     23  O   UNL A   1      32.523  20.935  23.279  1.00  0.00    -0.268 OA
BRANCH  22  24
ATOM     24  C   UNL A   1      33.240  19.118  24.520  1.00  0.00     0.040 A 
ATOM     25  C   UNL A   1      33.606  18.153  23.560  1.00  0.00     0.015 A 
ATOM     26  C   UNL A   1      32.686  18.683  25.727  1.00  0.00     0.015 A 
ATOM     27  C   UNL A   1      33.442  16.788  23.802  1.00  0.00     0.021 A 
ATOM     28  C   UNL A   1      32.552  17.311  25.984  1.00  0.00     0.021 A 
ATOM     29  C   UNL A   1      32.924  16.371  25.022  1.00  0.00     0.041 A 
ATOM     30  Cl  UNL A   1      32.719  14.693  25.329  1.00  0.00    -0.084 Cl
ENDBRANCH  22  24
ENDBRANCH  14  22
ENDBRANCH   6   8
ENDBRANCH   4   6
ENDBRANCH   3   4
ENDBRANCH   2   3
ENDBRANCH   1   2
BRANCH   1  31
ATOM     31  O   UNL A   1      32.420  30.323  25.877  1.00  0.00    -0.374 OA
BRANCH  31  32
ATOM     32  C   UNL A   1      32.022  31.279  26.858  1.00  0.00     0.202 C 
BRANCH  32  33
ATOM     33  C   UNL A   1      33.142  32.038  27.581  1.00  0.00     0.261 C 
BRANCH  33  34
ATOM     34  O   UNL A   1      33.127  33.452  27.314  1.00  0.00    -0.460 OA
BRANCH  34  35
ATOM     35  C   UNL A   1      33.299  34.232  28.407  1.00  0.00     0.338 C 
ATOM     36  O   UNL A   1      32.553  35.111  28.820  1.00  0.00    -0.246 OA
BRANCH  35  37
ATOM     37  C   UNL A   1      34.461  33.773  29.186  1.00  0.00     0.060 A 
ATOM     38  C   UNL A   1      35.732  34.012  28.647  1.00  0.00     0.016 A 
ATOM     39  C   UNL A   1      34.315  33.043  30.367  1.00  0.00     0.016 A 
ATOM     40  C   UNL A   1      36.862  33.480  29.261  1.00  0.00     0.010 A 
ATOM     41  C   UNL A   1      35.452  32.498  30.976  1.00  0.00     0.010 A 
ATOM     42  C   UNL A   1      36.724  32.684  30.404  1.00  0.00    -0.014 A 
BRANCH  42  43
ATOM     43  C   UNL A   1      37.896  31.923  30.899  1.00  0.00     0.031 A 
ATOM     44  C   UNL A   1      38.451  32.242  32.260  1.00  0.00     0.074 A 
ATOM     45  C   UNL A   1      38.427  30.926  30.170  1.00  0.00     0.049 A 
ATOM     46  N   UNL A   1      39.462  31.703  32.892  1.00  0.00    -0.248 NA
ATOM     47  C   UNL A   1      37.773  33.312  33.012  1.00  0.00     0.031 C 
ATOM     48  C   UNL A   1      37.946  30.485  28.862  1.00  0.00     0.029 A 
ATOM     49  N   UNL A   1      39.490  30.100  30.435  1.00  0.00    -0.354 N 
ATOM     50  C   UNL A   1      39.546  32.370  34.107  1.00  0.00     0.074 A 
ATOM     51  C   UNL A   1      38.502  33.371  34.116  1.00  0.00     0.031 C 
ATOM     52  C   UNL A   1      38.714  29.467  28.437  1.00  0.00     0.029 A 
ATOM     53  C   UNL A   1      39.757  29.207  29.426  1.00  0.00     0.049 A 
ATOM     54  H   UNL A   1      40.013  30.144  31.268  1.00  0.00     0.167 HD
ATOM     55  C   UNL A   1      40.412  32.164  35.128  1.00  0.00     0.031 A 
ATOM     56  C   UNL A   1      40.742  28.296  29.310  1.00  0.00     0.031 A 
ATOM     57  C   UNL A   1      41.456  31.176  35.117  1.00  0.00     0.049 A 
ATOM     58  C   UNL A   1      41.742  28.145  30.424  1.00  0.00     0.074 A 
ATOM     59  C   UNL A   1      42.374  30.880  36.110  1.00  0.00     0.029 A 
ATOM     60  N   UNL A   1      41.726  30.328  34.055  1.00  0.00    -0.354 N 
ATOM     61  N   UNL A   1      41.797  28.764  31.579  1.00  0.00    -0.248 NA
ATOM     62  C   UNL A   1      42.815  27.160  30.220  1.00  0.00     0.031 C 
ATOM     63  C   UNL A   1      43.237  29.891  35.625  1.00  0.00     0.029 A 
ATOM     64  C   UNL A   1      42.816  29.529  34.355  1.00  0.00     0.049 A 
ATOM     65  H   UNL A   1      41.217  30.297  33.213  1.00  0.00     0.167 HD
ATOM     66  C   UNL A   1      42.889  28.226  32.248  1.00  0.00     0.074 A 
ATOM     67  C   UNL A   1      43.459  27.220  31.377  1.00  0.00     0.031 C 
ATOM     68  C   UNL A   1      43.373  28.533  33.476  1.00  0.00     0.031 A 
BRANCH  55  69
ATOM     69  C   UNL A   1      40.288  33.058  36.331  1.00  0.00    -0.014 A 
ATOM     70  C   UNL A   1      39.448  32.728  37.405  1.00  0.00     0.009 A 
ATOM     71  C   UNL A   1      41.051  34.235  36.402  1.00  0.00     0.009 A 
ATOM     72  C   UNL A   1      39.349  33.576  38.512  1.00  0.00     0.001 A 
ATOM     73  C   UNL A   1      40.972  35.066  37.520  1.00  0.00     0.001 A 
ATOM     74  C   UNL A   1      40.114  34.739  38.570  1.00  0.00     0.000 A 
ENDBRANCH  55  69
BRANCH  56  75
ATOM     75  C   UNL A   1      40.848  27.466  28.082  1.00  0.00    -0.014 A 
ATOM     76  C   UNL A   1      41.598  27.906  26.981  1.00  0.00     0.009 A 
ATOM     77  C   UNL A   1      40.179  26.234  27.999  1.00  0.00     0.009 A 
ATOM     78  C   UNL A   1      41.655  27.140  25.813  1.00  0.00     0.001 A 
ATOM     79  C   UNL A   1      40.262  25.458  26.841  1.00  0.00     0.001 A 
ATOM     80  C   UNL A   1      40.992  25.916  25.746  1.00  0.00     0.000 A 
ENDBRANCH  56  75
BRANCH  68  81
ATOM     81  C   UNL A   1      44.558  27.749  33.966  1.00  0.00    -0.014 A 
ATOM     82  C   UNL A   1      44.399  26.544  34.667  1.00  0.00     0.009 A 
ATOM     83  C   UNL A   1      45.855  28.205  33.685  1.00  0.00     0.009 A 
ATOM     84  C   UNL A   1      45.515  25.829  35.105  1.00  0.00     0.001 A 
ATOM     85  C   UNL A   1      46.969  27.473  34.097  1.00  0.00     0.001 A 
ATOM     86  C   UNL A   1      46.799  26.291  34.814  1.00  0.00     0.000 A 
ENDBRANCH  68  81
ENDBRANCH  42  43
ENDBRANCH  35  37
ENDBRANCH  34  35
ENDBRANCH  33  34
ENDBRANCH  32  33
ENDBRANCH  31  32
ENDBRANCH   1  31
TORSDOF 17
ENDMDL
