MODEL 1
REMARK VINA RESULT:     -10.4      0.000      0.000
REMARK SMILES CC[C@](C)(NC(=O)c1cccc2ncccc12)C(=O)OCCOCCOC(=O)c1ccc(-c2c3nc(c(-c4ccccc4)c4ccc([nH]4)c(-c4ccccc4)c4nc(c(-c5ccccc5)c5ccc2[nH]5)C=C4)C=C3)cc1
REMARK SMILES IDX 23 1 22 2 21 3 20 4 18 5 19 6 3 7 4 8 2 9 1 10 5 11 6 12
REMARK SMILES IDX 7 14 8 15 9 16 17 17 10 18 12 19 16 20 11 21 13 22 15 23
REMARK SMILES IDX 14 24 24 25 25 26 26 27 27 28 28 29 29 30 30 31 76 32 31 33
REMARK SMILES IDX 75 34 32 35 33 36 34 37 69 38 35 39 74 40 68 41 70 42 36 43
REMARK SMILES IDX 73 44 67 45 66 46 37 48 59 49 44 50 58 51 45 52 48 53 57 54
REMARK SMILES IDX 71 55 46 56 47 57 56 59 72 60 49 61 38 62 39 63 43 64 40 65
REMARK SMILES IDX 42 66 41 67 60 68 61 69 65 70 62 71 64 72 63 73 50 74 51 75
REMARK SMILES IDX 55 76 52 77 54 78 53 79
REMARK H PARENT 5 13 70 47 48 58
REMARK Flexibility Score: inf
ROOT
ATOM      1  O   UNL A   1      34.609  34.133  29.197  1.00  0.00    -0.374 OA
ENDROOT
BRANCH   1   2
ATOM      2  C   UNL A   1      34.549  32.731  29.506  1.00  0.00     0.202 C 
BRANCH   2   3
ATOM      3  C   UNL A   1      35.178  31.877  28.363  1.00  0.00     0.261 C 
BRANCH   3   4
ATOM      4  O   UNL A   1      34.192  31.107  27.673  1.00  0.00    -0.462 OA
BRANCH   4   5
ATOM      5  C   UNL A   1      34.675  29.958  27.168  1.00  0.00     0.331 C 
ATOM      6  O   UNL A   1      35.838  29.586  27.330  1.00  0.00    -0.249 OA
BRANCH   5   7
ATOM      7  C   UNL A   1      33.603  29.208  26.366  1.00  0.00     0.135 C 
ATOM      8  C   UNL A   1      32.445  30.245  26.125  1.00  0.00     0.047 C 
BRANCH   7   9
ATOM      9  C   UNL A   1      32.984  28.037  27.171  1.00  0.00     0.037 C 
ATOM     10  C   UNL A   1      31.474  28.140  27.405  1.00  0.00     0.007 C 
ENDBRANCH   7   9
BRANCH   7  11
ATOM     11  N   UNL A   1      34.110  28.721  25.002  1.00  0.00    -0.336 N 
ATOM     12  C   UNL A   1      33.528  28.049  23.916  1.00  0.00     0.252 C 
ATOM     13  H   UNL A   1      35.061  28.925  24.856  1.00  0.00     0.165 HD
ATOM     14  O   UNL A   1      33.288  28.777  22.941  1.00  0.00    -0.269 OA
BRANCH  12  15
ATOM     15  C   UNL A   1      33.191  26.533  23.743  1.00  0.00     0.049 A 
ATOM     16  C   UNL A   1      32.268  26.439  22.696  1.00  0.00     0.014 A 
ATOM     17  C   UNL A   1      33.799  25.222  24.284  1.00  0.00     0.013 A 
ATOM     18  C   UNL A   1      31.856  25.207  22.216  1.00  0.00     0.003 A 
ATOM     19  C   UNL A   1      33.295  24.006  23.770  1.00  0.00     0.071 A 
ATOM     20  C   UNL A   1      34.874  24.868  25.216  1.00  0.00     0.013 A 
ATOM     21  C   UNL A   1      32.351  24.032  22.771  1.00  0.00     0.029 A 
ATOM     22  N   UNL A   1      33.686  22.750  24.107  1.00  0.00    -0.256 NA
ATOM     23  C   UNL A   1      35.323  23.592  25.573  1.00  0.00     0.021 A 
ATOM     24  C   UNL A   1      34.678  22.554  24.990  1.00  0.00     0.112 A 
ENDBRANCH  12  15
ENDBRANCH   7  11
ENDBRANCH   5   7
ENDBRANCH   4   5
ENDBRANCH   3   4
ENDBRANCH   2   3
ENDBRANCH   1   2
BRANCH   1  25
ATOM     25  C   UNL A   1      33.477  34.861  28.729  1.00  0.00     0.202 C 
BRANCH  25  26
ATOM     26  C   UNL A   1      33.002  36.183  29.591  1.00  0.00     0.261 C 
BRANCH  26  27
ATOM     27  O   UNL A   1      32.086  36.029  30.771  1.00  0.00    -0.460 OA
BRANCH  27  28
ATOM     28  C   UNL A   1      32.459  36.249  32.081  1.00  0.00     0.338 C 
ATOM     29  O   UNL A   1      31.899  37.052  32.814  1.00  0.00    -0.246 OA
BRANCH  28  30
ATOM     30  C   UNL A   1      33.600  35.356  32.609  1.00  0.00     0.060 A 
ATOM     31  C   UNL A   1      34.946  35.758  32.581  1.00  0.00     0.016 A 
ATOM     32  C   UNL A   1      33.396  34.018  32.962  1.00  0.00     0.016 A 
ATOM     33  C   UNL A   1      36.019  34.970  33.066  1.00  0.00     0.010 A 
ATOM     34  C   UNL A   1      34.483  33.178  33.367  1.00  0.00     0.010 A 
ATOM     35  C   UNL A   1      35.809  33.650  33.457  1.00  0.00    -0.014 A 
BRANCH  35  36
ATOM     36  C   UNL A   1      36.969  32.739  33.760  1.00  0.00     0.031 A 
ATOM     37  C   UNL A   1      37.727  32.913  35.057  1.00  0.00     0.074 A 
ATOM     38  C   UNL A   1      37.356  31.726  32.954  1.00  0.00     0.049 A 
ATOM     39  N   UNL A   1      38.885  32.422  35.429  1.00  0.00    -0.248 NA
ATOM     40  C   UNL A   1      37.073  33.744  36.077  1.00  0.00     0.031 C 
ATOM     41  C   UNL A   1      36.647  31.267  31.763  1.00  0.00     0.029 A 
ATOM     42  N   UNL A   1      38.461  30.895  33.020  1.00  0.00    -0.354 N 
ATOM     43  C   UNL A   1      39.121  32.924  36.706  1.00  0.00     0.074 A 
ATOM     44  C   UNL A   1      37.969  33.733  37.053  1.00  0.00     0.031 C 
ATOM     45  C   UNL A   1      37.348  30.267  31.192  1.00  0.00     0.029 A 
ATOM     46  C   UNL A   1      38.593  30.057  31.935  1.00  0.00     0.049 A 
ATOM     47  H   UNL A   1      39.095  30.904  33.773  1.00  0.00     0.167 HD
ATOM     48  C   UNL A   1      40.203  32.761  37.507  1.00  0.00     0.031 A 
ATOM     49  C   UNL A   1      39.616  29.261  31.547  1.00  0.00     0.031 A 
ATOM     50  C   UNL A   1      41.361  31.973  37.168  1.00  0.00     0.049 A 
ATOM     51  C   UNL A   1      40.885  29.209  32.368  1.00  0.00     0.074 A 
ATOM     52  C   UNL A   1      42.534  31.804  37.886  1.00  0.00     0.029 A 
ATOM     53  N   UNL A   1      41.490  31.219  36.014  1.00  0.00    -0.354 N 
ATOM     54  N   UNL A   1      41.152  29.780  33.518  1.00  0.00    -0.248 NA
ATOM     55  C   UNL A   1      42.003  28.417  31.825  1.00  0.00     0.031 C 
ATOM     56  C   UNL A   1      43.395  30.994  37.136  1.00  0.00     0.029 A 
ATOM     57  C   UNL A   1      42.731  30.604  35.985  1.00  0.00     0.049 A 
ATOM     58  H   UNL A   1      40.800  31.133  35.316  1.00  0.00     0.167 HD
ATOM     59  C   UNL A   1      42.452  29.401  33.843  1.00  0.00     0.074 A 
ATOM     60  C   UNL A   1      42.917  28.538  32.779  1.00  0.00     0.031 C 
ATOM     61  C   UNL A   1      43.191  29.741  34.927  1.00  0.00     0.031 A 
BRANCH  48  62
ATOM     62  C   UNL A   1      40.229  33.547  38.792  1.00  0.00    -0.014 A 
ATOM     63  C   UNL A   1      40.699  34.867  38.849  1.00  0.00     0.009 A 
ATOM     64  C   UNL A   1      39.778  32.936  39.974  1.00  0.00     0.009 A 
ATOM     65  C   UNL A   1      40.764  35.542  40.073  1.00  0.00     0.001 A 
ATOM     66  C   UNL A   1      39.816  33.622  41.189  1.00  0.00     0.001 A 
ATOM     67  C   UNL A   1      40.322  34.918  41.240  1.00  0.00     0.000 A 
ENDBRANCH  48  62
BRANCH  49  68
ATOM     68  C   UNL A   1      39.544  28.506  30.258  1.00  0.00    -0.014 A 
ATOM     69  C   UNL A   1      39.182  27.149  30.229  1.00  0.00     0.009 A 
ATOM     70  C   UNL A   1      39.897  29.129  29.050  1.00  0.00     0.009 A 
ATOM     71  C   UNL A   1      39.184  26.436  29.024  1.00  0.00     0.001 A 
ATOM     72  C   UNL A   1      39.868  28.425  27.844  1.00  0.00     0.001 A 
ATOM     73  C   UNL A   1      39.518  27.077  27.832  1.00  0.00     0.000 A 
ENDBRANCH  49  68
BRANCH  61  74
ATOM     74  C   UNL A   1      44.569  29.146  35.053  1.00  0.00    -0.014 A 
ATOM     75  C   UNL A   1      45.705  29.812  34.565  1.00  0.00     0.009 A 
ATOM     76  C   UNL A   1      44.737  27.920  35.719  1.00  0.00     0.009 A 
ATOM     77  C   UNL A   1      46.974  29.247  34.717  1.00  0.00     0.001 A 
ATOM     78  C   UNL A   1      46.009  27.373  35.893  1.00  0.00     0.001 A 
ATOM     79  C   UNL A   1      47.126  28.033  35.385  1.00  0.00     0.000 A 
ENDBRANCH  61  74
ENDBRANCH  35  36
ENDBRANCH  28  30
ENDBRANCH  27  28
ENDBRANCH  26  27
ENDBRANCH  25  26
ENDBRANCH   1  25
TORSDOF 17
ENDMDL
MODEL 2
REMARK VINA RESULT:     -10.2      4.077      9.016
REMARK SMILES CC[C@](C)(NC(=O)c1cccc2ncccc12)C(=O)OCCOCCOC(=O)c1ccc(-c2c3nc(c(-c4ccccc4)c4ccc([nH]4)c(-c4ccccc4)c4nc(c(-c5ccccc5)c5ccc2[nH]5)C=C4)C=C3)cc1
REMARK SMILES IDX 23 1 22 2 21 3 20 4 18 5 19 6 3 7 4 8 2 9 1 10 5 11 6 12
REMARK SMILES IDX 7 14 8 15 9 16 17 17 10 18 12 19 16 20 11 21 13 22 15 23
REMARK SMILES IDX 14 24 24 25 25 26 26 27 27 28 28 29 29 30 30 31 76 32 31 33
REMARK SMILES IDX 75 34 32 35 33 36 34 37 69 38 35 39 74 40 68 41 70 42 36 43
REMARK SMILES IDX 73 44 67 45 66 46 37 48 59 49 44 50 58 51 45 52 48 53 57 54
REMARK SMILES IDX 71 55 46 56 47 57 56 59 72 60 49 61 38 62 39 63 43 64 40 65
REMARK SMILES IDX 42 66 41 67 60 68 61 69 65 70 62 71 64 72 63 73 50 74 51 75
REMARK SMILES IDX 55 76 52 77 54 78 53 79
REMARK H PARENT 5 13 70 47 48 58
REMARK Flexibility Score: inf
ROOT
ATOM      1  O   UNL A   1      35.602  20.316  24.943  1.00  0.00    -0.374 OA
ENDROOT
BRANCH   1   2
ATOM      2  C   UNL A   1      34.688  21.014  25.804  1.00  0.00     0.202 C 
BRANCH   2   3
ATOM      3  C   UNL A   1      33.287  20.329  25.809  1.00  0.00     0.261 C 
BRANCH   3   4
ATOM      4  O   UNL A   1      32.245  21.254  25.493  1.00  0.00    -0.462 OA
BRANCH   4   5
ATOM      5  C   UNL A   1      32.247  21.633  24.203  1.00  0.00     0.331 C 
ATOM      6  O   UNL A   1      32.199  20.836  23.265  1.00  0.00    -0.249 OA
BRANCH   5   7
ATOM      7  C   UNL A   1      32.332  23.160  24.072  1.00  0.00     0.135 C 
ATOM      8  C   UNL A   1      30.979  23.609  23.407  1.00  0.00     0.047 C 
BRANCH   7   9
ATOM      9  C   UNL A   1      33.464  23.601  23.109  1.00  0.00     0.037 C 
ATOM     10  C   UNL A   1      33.562  25.112  22.877  1.00  0.00     0.007 C 
ENDBRANCH   7   9
BRANCH   7  11
ATOM     11  N   UNL A   1      32.465  23.868  25.427  1.00  0.00    -0.336 N 
ATOM     12  C   UNL A   1      31.729  24.854  26.101  1.00  0.00     0.252 C 
ATOM     13  H   UNL A   1      33.246  23.560  25.941  1.00  0.00     0.165 HD
ATOM     14  O   UNL A   1      31.029  24.418  27.027  1.00  0.00    -0.269 OA
BRANCH  12  15
ATOM     15  C   UNL A   1      31.703  26.402  25.888  1.00  0.00     0.049 A 
ATOM     16  C   UNL A   1      32.789  26.927  26.596  1.00  0.00     0.014 A 
ATOM     17  C   UNL A   1      30.935  27.351  24.944  1.00  0.00     0.013 A 
ATOM     18  C   UNL A   1      33.113  28.271  26.512  1.00  0.00     0.003 A 
ATOM     19  C   UNL A   1      31.302  28.715  24.947  1.00  0.00     0.071 A 
ATOM     20  C   UNL A   1      29.887  27.201  23.929  1.00  0.00     0.013 A 
ATOM     21  C   UNL A   1      32.359  29.131  25.720  1.00  0.00     0.029 A 
ATOM     22  N   UNL A   1      30.759  29.710  24.200  1.00  0.00    -0.256 NA
ATOM     23  C   UNL A   1      29.317  28.193  23.124  1.00  0.00     0.021 A 
ATOM     24  C   UNL A   1      29.788  29.449  23.311  1.00  0.00     0.112 A 
ENDBRANCH  12  15
ENDBRANCH   7  11
ENDBRANCH   5   7
ENDBRANCH   4   5
ENDBRANCH   3   4
ENDBRANCH   2   3
ENDBRANCH   1   2
BRANCH   1  25
ATOM     25  C   UNL A   1      36.974  20.683  24.828  1.00  0.00     0.202 C 
BRANCH  25  26
ATOM     26  C   UNL A   1      37.329  22.274  24.585  1.00  0.00     0.261 C 
BRANCH  26  27
ATOM     27  O   UNL A   1      37.798  23.128  25.727  1.00  0.00    -0.460 OA
BRANCH  27  28
ATOM     28  C   UNL A   1      39.060  23.063  26.282  1.00  0.00     0.338 C 
ATOM     29  O   UNL A   1      39.773  22.071  26.218  1.00  0.00    -0.246 OA
BRANCH  28  30
ATOM     30  C   UNL A   1      39.566  24.362  26.941  1.00  0.00     0.060 A 
ATOM     31  C   UNL A   1      39.229  24.721  28.257  1.00  0.00     0.016 A 
ATOM     32  C   UNL A   1      40.225  25.359  26.213  1.00  0.00     0.016 A 
ATOM     33  C   UNL A   1      39.683  25.900  28.898  1.00  0.00     0.010 A 
ATOM     34  C   UNL A   1      40.611  26.597  26.822  1.00  0.00     0.010 A 
ATOM     35  C   UNL A   1      40.375  26.874  28.183  1.00  0.00    -0.014 A 
BRANCH  35  36
ATOM     36  C   UNL A   1      40.665  28.221  28.793  1.00  0.00     0.031 A 
ATOM     37  C   UNL A   1      42.052  28.508  29.325  1.00  0.00     0.074 A 
ATOM     38  C   UNL A   1      39.764  29.225  28.855  1.00  0.00     0.049 A 
ATOM     39  N   UNL A   1      42.474  29.483  30.094  1.00  0.00    -0.248 NA
ATOM     40  C   UNL A   1      43.106  27.571  28.912  1.00  0.00     0.031 C 
ATOM     41  C   UNL A   1      38.444  29.224  28.230  1.00  0.00     0.029 A 
ATOM     42  N   UNL A   1      39.828  30.454  29.487  1.00  0.00    -0.354 N 
ATOM     43  C   UNL A   1      43.831  29.247  30.299  1.00  0.00     0.074 A 
ATOM     44  C   UNL A   1      44.164  28.056  29.545  1.00  0.00     0.031 C 
ATOM     45  C   UNL A   1      37.811  30.374  28.539  1.00  0.00     0.029 A 
ATOM     46  C   UNL A   1      38.650  31.166  29.441  1.00  0.00     0.049 A 
ATOM     47  H   UNL A   1      40.640  30.788  29.931  1.00  0.00     0.167 HD
ATOM     48  C   UNL A   1      44.716  29.933  31.065  1.00  0.00     0.031 A 
ATOM     49  C   UNL A   1      38.264  32.288  30.091  1.00  0.00     0.031 A 
ATOM     50  C   UNL A   1      44.395  31.111  31.831  1.00  0.00     0.049 A 
ATOM     51  C   UNL A   1      39.207  32.957  31.066  1.00  0.00     0.074 A 
ATOM     52  C   UNL A   1      45.207  31.834  32.689  1.00  0.00     0.029 A 
ATOM     53  N   UNL A   1      43.161  31.740  31.828  1.00  0.00    -0.354 N 
ATOM     54  N   UNL A   1      40.453  32.663  31.349  1.00  0.00    -0.248 NA
ATOM     55  C   UNL A   1      38.680  34.103  31.830  1.00  0.00     0.031 C 
ATOM     56  C   UNL A   1      44.446  32.866  33.250  1.00  0.00     0.029 A 
ATOM     57  C   UNL A   1      43.180  32.826  32.688  1.00  0.00     0.049 A 
ATOM     58  H   UNL A   1      42.384  31.457  31.293  1.00  0.00     0.167 HD
ATOM     59  C   UNL A   1      40.863  33.594  32.300  1.00  0.00     0.074 A 
ATOM     60  C   UNL A   1      39.739  34.475  32.537  1.00  0.00     0.031 C 
ATOM     61  C   UNL A   1      42.063  33.705  32.920  1.00  0.00     0.031 A 
BRANCH  48  62
ATOM     62  C   UNL A   1      46.100  29.354  31.197  1.00  0.00    -0.014 A 
ATOM     63  C   UNL A   1      46.422  28.410  32.183  1.00  0.00     0.009 A 
ATOM     64  C   UNL A   1      47.105  29.780  30.313  1.00  0.00     0.009 A 
ATOM     65  C   UNL A   1      47.733  27.942  32.312  1.00  0.00     0.001 A 
ATOM     66  C   UNL A   1      48.407  29.290  30.424  1.00  0.00     0.001 A 
ATOM     67  C   UNL A   1      48.724  28.383  31.433  1.00  0.00     0.000 A 
ENDBRANCH  48  62
BRANCH  49  68
ATOM     68  C   UNL A   1      36.876  32.820  29.931  1.00  0.00    -0.014 A 
ATOM     69  C   UNL A   1      35.824  32.366  30.744  1.00  0.00     0.009 A 
ATOM     70  C   UNL A   1      36.584  33.749  28.918  1.00  0.00     0.009 A 
ATOM     71  C   UNL A   1      34.516  32.823  30.539  1.00  0.00     0.001 A 
ATOM     72  C   UNL A   1      35.284  34.227  28.736  1.00  0.00     0.001 A 
ATOM     73  C   UNL A   1      34.249  33.759  29.542  1.00  0.00     0.000 A 
ENDBRANCH  49  68
BRANCH  61  74
ATOM     74  C   UNL A   1      42.252  34.846  33.884  1.00  0.00    -0.014 A 
ATOM     75  C   UNL A   1      41.997  34.699  35.257  1.00  0.00     0.009 A 
ATOM     76  C   UNL A   1      42.746  36.075  33.416  1.00  0.00     0.009 A 
ATOM     77  C   UNL A   1      42.205  35.767  36.133  1.00  0.00     0.001 A 
ATOM     78  C   UNL A   1      42.979  37.132  34.298  1.00  0.00     0.001 A 
ATOM     79  C   UNL A   1      42.700  36.980  35.655  1.00  0.00     0.000 A 
ENDBRANCH  61  74
ENDBRANCH  35  36
ENDBRANCH  28  30
ENDBRANCH  27  28
ENDBRANCH  26  27
ENDBRANCH  25  26
ENDBRANCH   1  25
TORSDOF 17
ENDMDL
MODEL 3
REMARK VINA RESULT:     -10.2      4.777     10.084
REMARK SMILES CC[C@](C)(NC(=O)c1cccc2ncccc12)C(=O)OCCOCCOC(=O)c1ccc(-c2c3nc(c(-c4ccccc4)c4ccc([nH]4)c(-c4ccccc4)c4nc(c(-c5ccccc5)c5ccc2[nH]5)C=C4)C=C3)cc1
REMARK SMILES IDX 23 1 22 2 21 3 20 4 18 5 19 6 3 7 4 8 2 9 1 10 5 11 6 12
REMARK SMILES IDX 7 14 8 15 9 16 17 17 10 18 12 19 16 20 11 21 13 22 15 23
REMARK SMILES IDX 14 24 24 25 25 26 26 27 27 28 28 29 29 30 30 31 76 32 31 33
REMARK SMILES IDX 75 34 32 35 33 36 34 37 69 38 35 39 74 40 68 41 70 42 36 43
REMARK SMILES IDX 73 44 67 45 66 46 37 48 59 49 44 50 58 51 45 52 48 53 57 54
REMARK SMILES IDX 71 55 46 56 47 57 56 59 72 60 49 61 38 62 39 63 43 64 40 65
REMARK SMILES IDX 42 66 41 67 60 68 61 69 65 70 62 71 64 72 63 73 50 74 51 75
REMARK SMILES IDX 55 76 52 77 54 78 53 79
REMARK H PARENT 5 13 70 47 48 58
REMARK Flexibility Score: inf
ROOT
ATOM      1  O   UNL A   1      36.546  21.239  24.616  1.00  0.00    -0.374 OA
ENDROOT
BRANCH   1   2
ATOM      2  C   UNL A   1      37.083  22.554  24.406  1.00  0.00     0.202 C 
BRANCH   2   3
ATOM      3  C   UNL A   1      36.781  23.484  25.622  1.00  0.00     0.261 C 
BRANCH   3   4
ATOM      4  O   UNL A   1      35.642  23.038  26.358  1.00  0.00    -0.462 OA
BRANCH   4   5
ATOM      5  C   UNL A   1      34.529  23.744  26.092  1.00  0.00     0.331 C 
ATOM      6  O   UNL A   1      34.548  24.869  25.590  1.00  0.00    -0.249 OA
BRANCH   5   7
ATOM      7  C   UNL A   1      33.268  22.975  26.508  1.00  0.00     0.135 C 
ATOM      8  C   UNL A   1      33.719  22.007  27.663  1.00  0.00     0.047 C 
BRANCH   7   9
ATOM      9  C   UNL A   1      32.727  22.077  25.366  1.00  0.00     0.037 C 
ATOM     10  C   UNL A   1      32.997  22.599  23.952  1.00  0.00     0.007 C 
ENDBRANCH   7   9
BRANCH   7  11
ATOM     11  N   UNL A   1      32.161  23.891  27.048  1.00  0.00    -0.336 N 
ATOM     12  C   UNL A   1      31.077  24.572  26.473  1.00  0.00     0.252 C 
ATOM     13  H   UNL A   1      32.228  24.036  28.019  1.00  0.00     0.165 HD
ATOM     14  O   UNL A   1      29.976  24.045  26.691  1.00  0.00    -0.269 OA
BRANCH  12  15
ATOM     15  C   UNL A   1      31.054  25.903  25.654  1.00  0.00     0.049 A 
ATOM     16  C   UNL A   1      30.299  25.656  24.501  1.00  0.00     0.014 A 
ATOM     17  C   UNL A   1      31.455  27.363  25.951  1.00  0.00     0.013 A 
ATOM     18  C   UNL A   1      29.991  26.678  23.619  1.00  0.00     0.003 A 
ATOM     19  C   UNL A   1      31.138  28.339  24.980  1.00  0.00     0.071 A 
ATOM     20  C   UNL A   1      32.072  28.074  27.074  1.00  0.00     0.013 A 
ATOM     21  C   UNL A   1      30.431  27.976  23.859  1.00  0.00     0.029 A 
ATOM     22  N   UNL A   1      31.398  29.670  25.043  1.00  0.00    -0.256 NA
ATOM     23  C   UNL A   1      32.338  29.444  27.189  1.00  0.00     0.021 A 
ATOM     24  C   UNL A   1      31.987  30.204  26.124  1.00  0.00     0.112 A 
ENDBRANCH  12  15
ENDBRANCH   7  11
ENDBRANCH   5   7
ENDBRANCH   4   5
ENDBRANCH   3   4
ENDBRANCH   2   3
ENDBRANCH   1   2
BRANCH   1  25
ATOM     25  C   UNL A   1      37.349  20.148  25.056  1.00  0.00     0.202 C 
BRANCH  25  26
ATOM     26  C   UNL A   1      38.943  20.436  25.360  1.00  0.00     0.261 C 
BRANCH  26  27
ATOM     27  O   UNL A   1      39.855  19.310  25.753  1.00  0.00    -0.460 OA
BRANCH  27  28
ATOM     28  C   UNL A   1      41.208  19.448  25.992  1.00  0.00     0.338 C 
ATOM     29  O   UNL A   1      42.028  18.578  25.736  1.00  0.00    -0.246 OA
BRANCH  28  30
ATOM     30  C   UNL A   1      41.650  20.818  26.543  1.00  0.00     0.060 A 
ATOM     31  C   UNL A   1      41.342  21.242  27.847  1.00  0.00     0.016 A 
ATOM     32  C   UNL A   1      42.211  21.804  25.725  1.00  0.00     0.016 A 
ATOM     33  C   UNL A   1      41.741  22.487  28.391  1.00  0.00     0.010 A 
ATOM     34  C   UNL A   1      42.537  23.102  26.236  1.00  0.00     0.010 A 
ATOM     35  C   UNL A   1      42.337  23.454  27.586  1.00  0.00    -0.014 A 
BRANCH  35  36
ATOM     36  C   UNL A   1      42.560  24.854  28.095  1.00  0.00     0.031 A 
ATOM     37  C   UNL A   1      43.940  25.260  28.562  1.00  0.00     0.074 A 
ATOM     38  C   UNL A   1      41.600  25.805  28.119  1.00  0.00     0.049 A 
ATOM     39  N   UNL A   1      44.323  26.309  29.250  1.00  0.00    -0.248 NA
ATOM     40  C   UNL A   1      45.038  24.362  28.179  1.00  0.00     0.031 C 
ATOM     41  C   UNL A   1      40.266  25.681  27.539  1.00  0.00     0.029 A 
ATOM     42  N   UNL A   1      41.605  27.075  28.666  1.00  0.00    -0.354 N 
ATOM     43  C   UNL A   1      45.696  26.170  29.427  1.00  0.00     0.074 A 
ATOM     44  C   UNL A   1      46.082  24.952  28.744  1.00  0.00     0.031 C 
ATOM     45  C   UNL A   1      39.571  26.809  27.791  1.00  0.00     0.029 A 
ATOM     46  C   UNL A   1      40.384  27.710  28.610  1.00  0.00     0.049 A 
ATOM     47  H   UNL A   1      42.407  27.487  29.061  1.00  0.00     0.167 HD
ATOM     48  C   UNL A   1      46.558  26.959  30.117  1.00  0.00     0.031 A 
ATOM     49  C   UNL A   1      39.947  28.849  29.197  1.00  0.00     0.031 A 
ATOM     50  C   UNL A   1      46.187  28.165  30.813  1.00  0.00     0.049 A 
ATOM     51  C   UNL A   1      40.874  29.638  30.095  1.00  0.00     0.074 A 
ATOM     52  C   UNL A   1      46.976  28.992  31.594  1.00  0.00     0.029 A 
ATOM     53  N   UNL A   1      44.916  28.716  30.807  1.00  0.00    -0.354 N 
ATOM     54  N   UNL A   1      42.144  29.440  30.356  1.00  0.00    -0.248 NA
ATOM     55  C   UNL A   1      40.299  30.800  30.797  1.00  0.00     0.031 C 
ATOM     56  C   UNL A   1      46.168  30.013  32.109  1.00  0.00     0.029 A 
ATOM     57  C   UNL A   1      44.892  29.858  31.592  1.00  0.00     0.049 A 
ATOM     58  H   UNL A   1      44.144  28.351  30.318  1.00  0.00     0.167 HD
ATOM     59  C   UNL A   1      42.521  30.457  31.229  1.00  0.00     0.074 A 
ATOM     60  C   UNL A   1      41.352  31.282  31.443  1.00  0.00     0.031 C 
ATOM     61  C   UNL A   1      43.729  30.682  31.801  1.00  0.00     0.031 A 
BRANCH  48  62
ATOM     62  C   UNL A   1      47.979  26.475  30.242  1.00  0.00    -0.014 A 
ATOM     63  C   UNL A   1      48.940  26.719  29.250  1.00  0.00     0.009 A 
ATOM     64  C   UNL A   1      48.353  25.745  31.383  1.00  0.00     0.009 A 
ATOM     65  C   UNL A   1      50.233  26.200  29.376  1.00  0.00     0.001 A 
ATOM     66  C   UNL A   1      49.652  25.254  31.520  1.00  0.00     0.001 A 
ATOM     67  C   UNL A   1      50.586  25.468  30.510  1.00  0.00     0.000 A 
ENDBRANCH  48  62
BRANCH  49  68
ATOM     68  C   UNL A   1      38.525  29.284  29.047  1.00  0.00    -0.014 A 
ATOM     69  C   UNL A   1      38.094  29.985  27.908  1.00  0.00     0.009 A 
ATOM     70  C   UNL A   1      37.598  29.048  30.076  1.00  0.00     0.009 A 
ATOM     71  C   UNL A   1      36.776  30.445  27.810  1.00  0.00     0.001 A 
ATOM     72  C   UNL A   1      36.275  29.480  29.962  1.00  0.00     0.001 A 
ATOM     73  C   UNL A   1      35.865  30.184  28.833  1.00  0.00     0.000 A 
ENDBRANCH  49  68
BRANCH  61  74
ATOM     74  C   UNL A   1      43.874  31.896  32.681  1.00  0.00    -0.014 A 
ATOM     75  C   UNL A   1      44.250  33.142  32.158  1.00  0.00     0.009 A 
ATOM     76  C   UNL A   1      43.576  31.799  34.051  1.00  0.00     0.009 A 
ATOM     77  C   UNL A   1      44.353  34.258  32.993  1.00  0.00     0.001 A 
ATOM     78  C   UNL A   1      43.654  32.921  34.878  1.00  0.00     0.001 A 
ATOM     79  C   UNL A   1      44.050  34.148  34.350  1.00  0.00     0.000 A 
ENDBRANCH  61  74
ENDBRANCH  35  36
ENDBRANCH  28  30
ENDBRANCH  27  28
ENDBRANCH  26  27
ENDBRANCH  25  26
ENDBRANCH   1  25
TORSDOF 17
ENDMDL
