MODEL 1
REMARK VINA RESULT:     -10.0      0.000      0.000
REMARK SMILES Cc1ccc(S(=O)(=O)n2cc(C(=O)C(=O)N[C@H](Cc3c[nH]c4ccccc34)C(=O)NCC(=O)OCCOCCOC(=O)c3ccc(-c4c5nc(c(-c6ccccc6)c6ccc([nH]6)c(-c6ccccc6)c6nc(c(-c7ccccc7)c7ccc4[nH]7)C=C6)C=C5)cc3)c3ccccc32)cc1
REMARK SMILES IDX 35 1 34 2 32 3 33 4 31 5 30 6 28 7 29 8 17 10 16 11 14 12
REMARK SMILES IDX 15 13 12 15 13 16 11 17 9 18 10 19 96 20 91 21 95 22 92 23
REMARK SMILES IDX 94 24 93 25 6 26 7 27 8 28 5 29 1 30 2 31 3 32 98 33 4 34
REMARK SMILES IDX 97 35 18 36 19 37 20 38 27 39 21 40 22 41 26 42 23 44 25 45
REMARK SMILES IDX 24 46 36 47 37 48 38 49 39 50 40 51 41 52 42 53 43 54 44 55
REMARK SMILES IDX 90 56 45 57 89 58 46 59 47 60 48 61 83 62 49 63 88 64 82 65
REMARK SMILES IDX 84 66 50 67 87 68 81 69 80 70 51 72 73 73 58 74 72 75 59 76
REMARK SMILES IDX 62 77 71 78 85 79 60 80 61 81 70 83 86 84 63 85 52 86 53 87
REMARK SMILES IDX 57 88 54 89 56 90 55 91 74 92 75 93 79 94 76 95 78 96 77 97
REMARK SMILES IDX 64 98 65 99 69 100 66 101 68 102 67 103
REMARK H PARENT 30 9 16 14 21 43 84 71 62 82
REMARK Flexibility Score: inf
ROOT
ATOM      1  C   UNL A   1      44.770  27.301  27.927  1.00  0.00     0.261 C 
ENDROOT
BRANCH   1   2
ATOM      2  O   UNL A   1      43.657  26.603  28.490  1.00  0.00    -0.462 OA
BRANCH   2   3
ATOM      3  C   UNL A   1      42.650  26.247  27.643  1.00  0.00     0.325 C 
ATOM      4  O   UNL A   1      42.523  26.564  26.487  1.00  0.00    -0.250 OA
BRANCH   3   5
ATOM      5  C   UNL A   1      41.594  25.458  28.398  1.00  0.00     0.238 C 
BRANCH   5   6
ATOM      6  N   UNL A   1      41.990  24.086  28.610  1.00  0.00    -0.343 N 
ATOM      7  C   UNL A   1      41.865  22.971  27.859  1.00  0.00     0.243 C 
ATOM      8  O   UNL A   1      42.179  21.935  28.459  1.00  0.00    -0.273 OA
ATOM      9  H   UNL A   1      42.439  23.933  29.473  1.00  0.00     0.164 HD
BRANCH   7  10
ATOM     10  C   UNL A   1      41.340  22.915  26.392  1.00  0.00     0.176 C 
BRANCH  10  11
ATOM     11  N   UNL A   1      40.229  21.934  26.066  1.00  0.00    -0.337 N 
ATOM     12  C   UNL A   1      38.876  21.885  25.751  1.00  0.00     0.293 C 
ATOM     13  O   UNL A   1      38.384  20.785  25.500  1.00  0.00    -0.265 OA
ATOM     14  H   UNL A   1      40.590  21.019  26.084  1.00  0.00     0.164 HD
BRANCH  12  15
ATOM     15  C   UNL A   1      37.969  23.110  25.677  1.00  0.00     0.252 C 
ATOM     16  O   UNL A   1      38.360  24.072  26.336  1.00  0.00    -0.283 OA
BRANCH  15  17
ATOM     17  C   UNL A   1      36.642  23.189  25.009  1.00  0.00     0.054 A 
ATOM     18  N   UNL A   1      34.964  22.435  23.689  1.00  0.00    -0.240 N 
ATOM     19  C   UNL A   1      36.223  23.101  23.669  1.00  0.00     0.117 A 
ATOM     20  C   UNL A   1      34.878  22.003  24.980  1.00  0.00     0.065 A 
ATOM     21  C   UNL A   1      35.408  23.062  25.701  1.00  0.00     0.012 A 
ATOM     22  C   UNL A   1      34.336  20.917  25.584  1.00  0.00     0.028 A 
ATOM     23  C   UNL A   1      34.827  23.380  26.929  1.00  0.00     0.011 A 
ATOM     24  C   UNL A   1      33.803  21.237  26.817  1.00  0.00     0.002 A 
ATOM     25  C   UNL A   1      33.879  22.499  27.413  1.00  0.00     0.001 A 
BRANCH  18  26
ATOM     26  S   UNL A   1      33.456  23.199  23.081  1.00  0.00     0.268 S 
ATOM     27  O   UNL A   1      32.427  22.229  23.406  1.00  0.00    -0.201 OA
ATOM     28  O   UNL A   1      33.728  23.568  21.702  1.00  0.00    -0.201 OA
BRANCH  26  29
ATOM     29  C   UNL A   1      33.017  24.750  23.914  1.00  0.00     0.088 A 
ATOM     30  C   UNL A   1      33.230  27.881  26.959  1.00  0.00     0.044 C 
ATOM     31  C   UNL A   1      33.066  26.883  25.842  1.00  0.00    -0.051 A 
ATOM     32  C   UNL A   1      32.182  25.818  25.972  1.00  0.00     0.005 A 
ATOM     33  C   UNL A   1      33.871  26.909  24.699  1.00  0.00     0.005 A 
ATOM     34  C   UNL A   1      32.189  24.758  25.030  1.00  0.00     0.022 A 
ATOM     35  C   UNL A   1      33.845  25.861  23.747  1.00  0.00     0.022 A 
ENDBRANCH  26  29
ENDBRANCH  18  26
ENDBRANCH  15  17
ENDBRANCH  12  15
ENDBRANCH  10  11
BRANCH  10  36
ATOM     36  C   UNL A   1      42.365  23.288  25.278  1.00  0.00     0.072 C 
BRANCH  36  37
ATOM     37  C   UNL A   1      43.740  22.620  25.300  1.00  0.00    -0.020 A 
ATOM     38  C   UNL A   1      44.946  23.301  25.342  1.00  0.00     0.087 A 
ATOM     39  C   UNL A   1      44.096  21.218  25.341  1.00  0.00     0.003 A 
ATOM     40  N   UNL A   1      45.976  22.409  25.252  1.00  0.00    -0.361 N 
ATOM     41  C   UNL A   1      45.493  21.129  25.283  1.00  0.00     0.046 A 
ATOM     42  C   UNL A   1      43.378  20.003  25.396  1.00  0.00     0.010 A 
ATOM     43  H   UNL A   1      46.927  22.652  25.176  1.00  0.00     0.166 HD
ATOM     44  C   UNL A   1      46.196  19.916  25.253  1.00  0.00     0.026 A 
ATOM     45  C   UNL A   1      44.066  18.778  25.370  1.00  0.00     0.001 A 
ATOM     46  C   UNL A   1      45.456  18.737  25.295  1.00  0.00     0.002 A 
ENDBRANCH  36  37
ENDBRANCH  10  36
ENDBRANCH   7  10
ENDBRANCH   5   6
ENDBRANCH   3   5
ENDBRANCH   2   3
ENDBRANCH   1   2
BRANCH   1  47
ATOM     47  C   UNL A   1      44.627  28.759  28.302  1.00  0.00     0.202 C 
BRANCH  47  48
ATOM     48  O   UNL A   1      43.710  28.823  29.388  1.00  0.00    -0.374 OA
BRANCH  48  49
ATOM     49  C   UNL A   1      42.743  29.863  29.349  1.00  0.00     0.202 C 
BRANCH  49  50
ATOM     50  C   UNL A   1      41.434  29.501  30.064  1.00  0.00     0.261 C 
BRANCH  50  51
ATOM     51  O   UNL A   1      41.305  30.279  31.270  1.00  0.00    -0.460 OA
BRANCH  51  52
ATOM     52  C   UNL A   1      41.257  29.554  32.419  1.00  0.00     0.338 C 
ATOM     53  O   UNL A   1      41.550  28.373  32.528  1.00  0.00    -0.246 OA
BRANCH  52  54
ATOM     54  C   UNL A   1      40.481  30.294  33.454  1.00  0.00     0.060 A 
ATOM     55  C   UNL A   1      40.002  31.583  33.150  1.00  0.00     0.016 A 
ATOM     56  C   UNL A   1      40.647  29.907  34.778  1.00  0.00     0.016 A 
ATOM     57  C   UNL A   1      39.891  32.544  34.158  1.00  0.00     0.010 A 
ATOM     58  C   UNL A   1      40.719  30.903  35.723  1.00  0.00     0.010 A 
ATOM     59  C   UNL A   1      40.355  32.228  35.425  1.00  0.00    -0.014 A 
BRANCH  59  60
ATOM     60  C   UNL A   1      40.580  33.179  36.524  1.00  0.00     0.031 A 
ATOM     61  C   UNL A   1      39.406  33.362  37.461  1.00  0.00     0.074 A 
ATOM     62  C   UNL A   1      41.893  33.415  36.796  1.00  0.00     0.049 A 
ATOM     63  N   UNL A   1      39.309  34.205  38.436  1.00  0.00    -0.248 NA
ATOM     64  C   UNL A   1      38.155  32.584  37.308  1.00  0.00     0.031 C 
ATOM     65  C   UNL A   1      42.615  33.487  38.052  1.00  0.00     0.029 A 
ATOM     66  N   UNL A   1      42.890  33.801  35.911  1.00  0.00    -0.354 N 
ATOM     67  C   UNL A   1      38.239  33.789  39.222  1.00  0.00     0.074 A 
ATOM     68  C   UNL A   1      37.524  32.808  38.458  1.00  0.00     0.031 C 
ATOM     69  C   UNL A   1      43.776  34.138  37.948  1.00  0.00     0.029 A 
ATOM     70  C   UNL A   1      43.844  34.587  36.596  1.00  0.00     0.049 A 
ATOM     71  H   UNL A   1      42.925  33.566  34.956  1.00  0.00     0.167 HD
ATOM     72  C   UNL A   1      38.108  34.147  40.530  1.00  0.00     0.031 A 
ATOM     73  C   UNL A   1      44.094  35.879  36.262  1.00  0.00     0.031 A 
ATOM     74  C   UNL A   1      39.074  35.184  40.964  1.00  0.00     0.049 A 
ATOM     75  C   UNL A   1      43.534  36.822  37.315  1.00  0.00     0.074 A 
ATOM     76  C   UNL A   1      39.870  35.420  42.071  1.00  0.00     0.029 A 
ATOM     77  N   UNL A   1      39.510  36.169  40.040  1.00  0.00    -0.354 N 
ATOM     78  N   UNL A   1      42.414  36.671  37.988  1.00  0.00    -0.248 NA
ATOM     79  C   UNL A   1      44.319  37.976  37.750  1.00  0.00     0.031 C 
ATOM     80  C   UNL A   1      40.981  36.210  41.677  1.00  0.00     0.029 A 
ATOM     81  C   UNL A   1      40.712  36.724  40.427  1.00  0.00     0.049 A 
ATOM     82  H   UNL A   1      39.017  36.422  39.226  1.00  0.00     0.167 HD
ATOM     83  C   UNL A   1      42.318  37.706  38.900  1.00  0.00     0.074 A 
ATOM     84  C   UNL A   1      43.535  38.482  38.712  1.00  0.00     0.031 C 
ATOM     85  C   UNL A   1      41.330  37.893  39.829  1.00  0.00     0.031 A 
BRANCH  72  86
ATOM     86  C   UNL A   1      37.247  33.212  41.384  1.00  0.00    -0.014 A 
ATOM     87  C   UNL A   1      37.732  31.996  41.904  1.00  0.00     0.009 A 
ATOM     88  C   UNL A   1      35.864  33.405  41.551  1.00  0.00     0.009 A 
ATOM     89  C   UNL A   1      36.970  31.159  42.749  1.00  0.00     0.001 A 
ATOM     90  C   UNL A   1      35.063  32.515  42.304  1.00  0.00     0.001 A 
ATOM     91  C   UNL A   1      35.629  31.429  42.964  1.00  0.00     0.000 A 
ENDBRANCH  72  86
BRANCH  73  92
ATOM     92  C   UNL A   1      44.046  36.014  34.777  1.00  0.00    -0.014 A 
ATOM     93  C   UNL A   1      43.122  36.979  34.297  1.00  0.00     0.009 A 
ATOM     94  C   UNL A   1      45.218  35.778  34.048  1.00  0.00     0.009 A 
ATOM     95  C   UNL A   1      43.504  37.877  33.297  1.00  0.00     0.001 A 
ATOM     96  C   UNL A   1      45.577  36.667  33.028  1.00  0.00     0.001 A 
ATOM     97  C   UNL A   1      44.756  37.753  32.705  1.00  0.00     0.000 A 
ENDBRANCH  73  92
BRANCH  85  98
ATOM     98  C   UNL A   1      41.050  39.205  40.560  1.00  0.00    -0.014 A 
ATOM     99  C   UNL A   1      39.836  39.893  40.505  1.00  0.00     0.009 A 
ATOM    100  C   UNL A   1      42.013  39.721  41.466  1.00  0.00     0.009 A 
ATOM    101  C   UNL A   1      39.634  41.064  41.249  1.00  0.00     0.001 A 
ATOM    102  C   UNL A   1      41.817  40.876  42.217  1.00  0.00     0.001 A 
ATOM    103  C   UNL A   1      40.621  41.557  42.101  1.00  0.00     0.000 A 
ENDBRANCH  85  98
ENDBRANCH  59  60
ENDBRANCH  52  54
ENDBRANCH  51  52
ENDBRANCH  50  51
ENDBRANCH  49  50
ENDBRANCH  48  49
ENDBRANCH  47  48
ENDBRANCH   1  47
TORSDOF 23
ENDMDL
MODEL 2
REMARK VINA RESULT:      -9.9      5.970     11.439
REMARK SMILES Cc1ccc(S(=O)(=O)n2cc(C(=O)C(=O)N[C@H](Cc3c[nH]c4ccccc34)C(=O)NCC(=O)OCCOCCOC(=O)c3ccc(-c4c5nc(c(-c6ccccc6)c6ccc([nH]6)c(-c6ccccc6)c6nc(c(-c7ccccc7)c7ccc4[nH]7)C=C6)C=C5)cc3)c3ccccc32)cc1
REMARK SMILES IDX 35 1 34 2 32 3 33 4 31 5 30 6 28 7 29 8 17 10 16 11 14 12
REMARK SMILES IDX 15 13 12 15 13 16 11 17 9 18 10 19 96 20 91 21 95 22 92 23
REMARK SMILES IDX 94 24 93 25 6 26 7 27 8 28 5 29 1 30 2 31 3 32 98 33 4 34
REMARK SMILES IDX 97 35 18 36 19 37 20 38 27 39 21 40 22 41 26 42 23 44 25 45
REMARK SMILES IDX 24 46 36 47 37 48 38 49 39 50 40 51 41 52 42 53 43 54 44 55
REMARK SMILES IDX 90 56 45 57 89 58 46 59 47 60 48 61 83 62 49 63 88 64 82 65
REMARK SMILES IDX 84 66 50 67 87 68 81 69 80 70 51 72 73 73 58 74 72 75 59 76
REMARK SMILES IDX 62 77 71 78 85 79 60 80 61 81 70 83 86 84 63 85 52 86 53 87
REMARK SMILES IDX 57 88 54 89 56 90 55 91 74 92 75 93 79 94 76 95 78 96 77 97
REMARK SMILES IDX 64 98 65 99 69 100 66 101 68 102 67 103
REMARK H PARENT 30 9 16 14 21 43 84 71 62 82
REMARK Flexibility Score: inf
ROOT
ATOM      1  C   UNL A   1      38.491  27.955  31.026  1.00  0.00     0.261 C 
ENDROOT
BRANCH   1   2
ATOM      2  O   UNL A   1      38.537  29.255  30.434  1.00  0.00    -0.462 OA
BRANCH   2   3
ATOM      3  C   UNL A   1      38.978  29.340  29.147  1.00  0.00     0.325 C 
ATOM      4  O   UNL A   1      40.111  29.220  28.755  1.00  0.00    -0.250 OA
BRANCH   3   5
ATOM      5  C   UNL A   1      37.832  29.737  28.233  1.00  0.00     0.238 C 
BRANCH   5   6
ATOM      6  N   UNL A   1      37.703  31.170  28.114  1.00  0.00    -0.343 N 
ATOM      7  C   UNL A   1      36.698  32.025  28.399  1.00  0.00     0.243 C 
ATOM      8  O   UNL A   1      36.903  33.177  27.997  1.00  0.00    -0.273 OA
ATOM      9  H   UNL A   1      38.507  31.611  27.754  1.00  0.00     0.164 HD
BRANCH   7  10
ATOM     10  C   UNL A   1      35.364  31.656  29.117  1.00  0.00     0.176 C 
BRANCH  10  11
ATOM     11  N   UNL A   1      34.810  30.257  28.925  1.00  0.00    -0.337 N 
ATOM     12  C   UNL A   1      34.141  29.466  27.998  1.00  0.00     0.293 C 
ATOM     13  O   UNL A   1      33.937  28.288  28.288  1.00  0.00    -0.265 OA
ATOM     14  H   UNL A   1      34.984  29.727  29.736  1.00  0.00     0.164 HD
BRANCH  12  15
ATOM     15  C   UNL A   1      33.664  29.963  26.636  1.00  0.00     0.252 C 
ATOM     16  O   UNL A   1      33.442  31.171  26.585  1.00  0.00    -0.283 OA
BRANCH  15  17
ATOM     17  C   UNL A   1      33.334  29.122  25.454  1.00  0.00     0.054 A 
ATOM     18  N   UNL A   1      33.738  27.531  23.894  1.00  0.00    -0.240 N 
ATOM     19  C   UNL A   1      33.961  28.901  24.214  1.00  0.00     0.117 A 
ATOM     20  C   UNL A   1      33.215  27.037  25.053  1.00  0.00     0.065 A 
ATOM     21  C   UNL A   1      32.388  28.063  25.485  1.00  0.00     0.012 A 
ATOM     22  C   UNL A   1      33.280  25.843  25.691  1.00  0.00     0.028 A 
ATOM     23  C   UNL A   1      31.176  27.722  26.086  1.00  0.00     0.011 A 
ATOM     24  C   UNL A   1      32.088  25.538  26.317  1.00  0.00     0.002 A 
ATOM     25  C   UNL A   1      30.976  26.383  26.364  1.00  0.00     0.001 A 
BRANCH  18  26
ATOM     26  S   UNL A   1      32.846  27.014  22.423  1.00  0.00     0.268 S 
ATOM     27  O   UNL A   1      32.669  25.588  22.614  1.00  0.00    -0.201 OA
ATOM     28  O   UNL A   1      33.608  27.530  21.297  1.00  0.00    -0.201 OA
BRANCH  26  29
ATOM     29  C   UNL A   1      31.194  27.746  22.256  1.00  0.00     0.088 A 
ATOM     30  C   UNL A   1      27.652  30.001  23.476  1.00  0.00     0.044 C 
ATOM     31  C   UNL A   1      28.815  29.214  22.929  1.00  0.00    -0.051 A 
ATOM     32  C   UNL A   1      28.886  27.838  23.117  1.00  0.00     0.005 A 
ATOM     33  C   UNL A   1      29.915  29.836  22.330  1.00  0.00     0.005 A 
ATOM     34  C   UNL A   1      30.077  27.132  22.809  1.00  0.00     0.022 A 
ATOM     35  C   UNL A   1      31.086  29.112  21.995  1.00  0.00     0.022 A 
ENDBRANCH  26  29
ENDBRANCH  18  26
ENDBRANCH  15  17
ENDBRANCH  12  15
ENDBRANCH  10  11
BRANCH  10  36
ATOM     36  C   UNL A   1      34.371  32.830  29.371  1.00  0.00     0.072 C 
BRANCH  36  37
ATOM     37  C   UNL A   1      34.404  33.532  30.728  1.00  0.00    -0.020 A 
ATOM     38  C   UNL A   1      34.867  32.957  31.901  1.00  0.00     0.087 A 
ATOM     39  C   UNL A   1      34.047  34.888  31.087  1.00  0.00     0.003 A 
ATOM     40  N   UNL A   1      34.666  33.820  32.941  1.00  0.00    -0.361 N 
ATOM     41  C   UNL A   1      34.199  35.018  32.473  1.00  0.00     0.046 A 
ATOM     42  C   UNL A   1      33.584  36.021  30.383  1.00  0.00     0.010 A 
ATOM     43  H   UNL A   1      34.833  33.609  33.889  1.00  0.00     0.166 HD
ATOM     44  C   UNL A   1      33.895  36.188  33.185  1.00  0.00     0.026 A 
ATOM     45  C   UNL A   1      33.278  37.204  31.079  1.00  0.00     0.001 A 
ATOM     46  C   UNL A   1      33.428  37.282  32.461  1.00  0.00     0.002 A 
ENDBRANCH  36  37
ENDBRANCH  10  36
ENDBRANCH   7  10
ENDBRANCH   5   6
ENDBRANCH   3   5
ENDBRANCH   2   3
ENDBRANCH   1   2
BRANCH   1  47
ATOM     47  C   UNL A   1      39.368  27.985  32.258  1.00  0.00     0.202 C 
BRANCH  47  48
ATOM     48  O   UNL A   1      38.683  28.756  33.239  1.00  0.00    -0.374 OA
BRANCH  48  49
ATOM     49  C   UNL A   1      39.395  29.845  33.808  1.00  0.00     0.202 C 
BRANCH  49  50
ATOM     50  C   UNL A   1      38.485  30.998  34.254  1.00  0.00     0.261 C 
BRANCH  50  51
ATOM     51  O   UNL A   1      38.355  31.958  33.188  1.00  0.00    -0.460 OA
BRANCH  51  52
ATOM     52  C   UNL A   1      38.133  33.238  33.590  1.00  0.00     0.338 C 
ATOM     53  O   UNL A   1      37.287  33.593  34.397  1.00  0.00    -0.246 OA
BRANCH  52  54
ATOM     54  C   UNL A   1      38.823  34.186  32.670  1.00  0.00     0.060 A 
ATOM     55  C   UNL A   1      38.377  34.285  31.339  1.00  0.00     0.016 A 
ATOM     56  C   UNL A   1      40.113  34.578  33.003  1.00  0.00     0.016 A 
ATOM     57  C   UNL A   1      39.284  34.574  30.316  1.00  0.00     0.010 A 
ATOM     58  C   UNL A   1      41.029  34.671  31.982  1.00  0.00     0.010 A 
ATOM     59  C   UNL A   1      40.631  34.659  30.633  1.00  0.00    -0.014 A 
BRANCH  59  60
ATOM     60  C   UNL A   1      41.744  34.676  29.673  1.00  0.00     0.031 A 
ATOM     61  C   UNL A   1      42.481  33.363  29.526  1.00  0.00     0.074 A 
ATOM     62  C   UNL A   1      41.680  35.690  28.766  1.00  0.00     0.049 A 
ATOM     63  N   UNL A   1      43.548  33.141  28.831  1.00  0.00    -0.248 NA
ATOM     64  C   UNL A   1      42.059  32.144  30.252  1.00  0.00     0.031 C 
ATOM     65  C   UNL A   1      41.889  35.707  27.330  1.00  0.00     0.029 A 
ATOM     66  N   UNL A   1      41.531  37.046  29.014  1.00  0.00    -0.354 N 
ATOM     67  C   UNL A   1      43.663  31.760  28.702  1.00  0.00     0.074 A 
ATOM     68  C   UNL A   1      42.745  31.182  29.639  1.00  0.00     0.031 C 
ATOM     69  C   UNL A   1      42.148  36.928  26.857  1.00  0.00     0.029 A 
ATOM     70  C   UNL A   1      42.184  37.782  27.998  1.00  0.00     0.049 A 
ATOM     71  H   UNL A   1      41.048  37.436  29.778  1.00  0.00     0.167 HD
ATOM     72  C   UNL A   1      44.381  31.174  27.703  1.00  0.00     0.031 A 
ATOM     73  C   UNL A   1      43.221  38.618  28.261  1.00  0.00     0.031 A 
ATOM     74  C   UNL A   1      45.195  32.130  26.915  1.00  0.00     0.049 A 
ATOM     75  C   UNL A   1      44.526  38.023  27.755  1.00  0.00     0.074 A 
ATOM     76  C   UNL A   1      45.495  32.336  25.579  1.00  0.00     0.029 A 
ATOM     77  N   UNL A   1      45.740  33.277  27.547  1.00  0.00    -0.354 N 
ATOM     78  N   UNL A   1      44.870  36.754  27.772  1.00  0.00    -0.248 NA
ATOM     79  C   UNL A   1      45.498  38.877  27.073  1.00  0.00     0.031 C 
ATOM     80  C   UNL A   1      45.819  33.704  25.389  1.00  0.00     0.029 A 
ATOM     81  C   UNL A   1      46.032  34.265  26.630  1.00  0.00     0.049 A 
ATOM     82  H   UNL A   1      45.889  33.357  28.517  1.00  0.00     0.167 HD
ATOM     83  C   UNL A   1      46.098  36.632  27.147  1.00  0.00     0.074 A 
ATOM     84  C   UNL A   1      46.436  37.984  26.725  1.00  0.00     0.031 C 
ATOM     85  C   UNL A   1      46.786  35.474  26.908  1.00  0.00     0.031 A 
BRANCH  72  86
ATOM     86  C   UNL A   1      43.977  29.737  27.359  1.00  0.00    -0.014 A 
ATOM     87  C   UNL A   1      44.786  28.627  27.667  1.00  0.00     0.009 A 
ATOM     88  C   UNL A   1      42.867  29.441  26.549  1.00  0.00     0.009 A 
ATOM     89  C   UNL A   1      44.395  27.292  27.419  1.00  0.00     0.001 A 
ATOM     90  C   UNL A   1      42.522  28.115  26.197  1.00  0.00     0.001 A 
ATOM     91  C   UNL A   1      43.244  27.034  26.691  1.00  0.00     0.000 A 
ENDBRANCH  72  86
BRANCH  73  92
ATOM     92  C   UNL A   1      42.962  39.325  29.548  1.00  0.00    -0.014 A 
ATOM     93  C   UNL A   1      43.934  39.098  30.558  1.00  0.00     0.009 A 
ATOM     94  C   UNL A   1      42.300  40.558  29.509  1.00  0.00     0.009 A 
ATOM     95  C   UNL A   1      44.431  40.171  31.303  1.00  0.00     0.001 A 
ATOM     96  C   UNL A   1      42.789  41.618  30.281  1.00  0.00     0.001 A 
ATOM     97  C   UNL A   1      43.895  41.441  31.120  1.00  0.00     0.000 A 
ENDBRANCH  73  92
BRANCH  85  98
ATOM     98  C   UNL A   1      48.271  35.392  26.558  1.00  0.00    -0.014 A 
ATOM     99  C   UNL A   1      48.787  35.575  25.274  1.00  0.00     0.009 A 
ATOM    100  C   UNL A   1      49.229  35.254  27.597  1.00  0.00     0.009 A 
ATOM    101  C   UNL A   1      50.170  35.542  25.038  1.00  0.00     0.001 A 
ATOM    102  C   UNL A   1      50.602  35.231  27.374  1.00  0.00     0.001 A 
ATOM    103  C   UNL A   1      51.075  35.367  26.083  1.00  0.00     0.000 A 
ENDBRANCH  85  98
ENDBRANCH  59  60
ENDBRANCH  52  54
ENDBRANCH  51  52
ENDBRANCH  50  51
ENDBRANCH  49  50
ENDBRANCH  48  49
ENDBRANCH  47  48
ENDBRANCH   1  47
TORSDOF 23
ENDMDL
MODEL 3
REMARK VINA RESULT:      -9.6      5.497     12.068
REMARK SMILES Cc1ccc(S(=O)(=O)n2cc(C(=O)C(=O)N[C@H](Cc3c[nH]c4ccccc34)C(=O)NCC(=O)OCCOCCOC(=O)c3ccc(-c4c5nc(c(-c6ccccc6)c6ccc([nH]6)c(-c6ccccc6)c6nc(c(-c7ccccc7)c7ccc4[nH]7)C=C6)C=C5)cc3)c3ccccc32)cc1
REMARK SMILES IDX 35 1 34 2 32 3 33 4 31 5 30 6 28 7 29 8 17 10 16 11 14 12
REMARK SMILES IDX 15 13 12 15 13 16 11 17 9 18 10 19 96 20 91 21 95 22 92 23
REMARK SMILES IDX 94 24 93 25 6 26 7 27 8 28 5 29 1 30 2 31 3 32 98 33 4 34
REMARK SMILES IDX 97 35 18 36 19 37 20 38 27 39 21 40 22 41 26 42 23 44 25 45
REMARK SMILES IDX 24 46 36 47 37 48 38 49 39 50 40 51 41 52 42 53 43 54 44 55
REMARK SMILES IDX 90 56 45 57 89 58 46 59 47 60 48 61 83 62 49 63 88 64 82 65
REMARK SMILES IDX 84 66 50 67 87 68 81 69 80 70 51 72 73 73 58 74 72 75 59 76
REMARK SMILES IDX 62 77 71 78 85 79 60 80 61 81 70 83 86 84 63 85 52 86 53 87
REMARK SMILES IDX 57 88 54 89 56 90 55 91 74 92 75 93 79 94 76 95 78 96 77 97
REMARK SMILES IDX 64 98 65 99 69 100 66 101 68 102 67 103
REMARK H PARENT 30 9 16 14 21 43 84 71 62 82
REMARK Flexibility Score: inf
ROOT
ATOM      1  C   UNL A   1      43.781  37.115  31.256  1.00  0.00     0.261 C 
ENDROOT
BRANCH   1   2
ATOM      2  O   UNL A   1      43.590  36.750  32.625  1.00  0.00    -0.462 OA
BRANCH   2   3
ATOM      3  C   UNL A   1      42.872  35.619  32.876  1.00  0.00     0.325 C 
ATOM      4  O   UNL A   1      42.291  34.932  32.074  1.00  0.00    -0.250 OA
BRANCH   3   5
ATOM      5  C   UNL A   1      42.793  35.378  34.373  1.00  0.00     0.238 C 
BRANCH   5   6
ATOM      6  N   UNL A   1      41.639  36.013  34.965  1.00  0.00    -0.343 N 
ATOM      7  C   UNL A   1      40.398  35.569  35.254  1.00  0.00     0.243 C 
ATOM      8  O   UNL A   1      39.622  36.467  35.606  1.00  0.00    -0.273 OA
ATOM      9  H   UNL A   1      41.787  36.957  35.206  1.00  0.00     0.164 HD
BRANCH   7  10
ATOM     10  C   UNL A   1      39.907  34.093  35.134  1.00  0.00     0.176 C 
BRANCH  10  11
ATOM     11  N   UNL A   1      38.469  33.785  35.505  1.00  0.00    -0.337 N 
ATOM     12  C   UNL A   1      37.192  33.717  34.958  1.00  0.00     0.293 C 
ATOM     13  O   UNL A   1      36.274  33.344  35.687  1.00  0.00    -0.265 OA
ATOM     14  H   UNL A   1      38.424  33.553  36.460  1.00  0.00     0.164 HD
BRANCH  12  15
ATOM     15  C   UNL A   1      36.863  34.057  33.507  1.00  0.00     0.252 C 
ATOM     16  O   UNL A   1      36.472  35.209  33.331  1.00  0.00    -0.283 OA
BRANCH  15  17
ATOM     17  C   UNL A   1      36.852  33.111  32.359  1.00  0.00     0.054 A 
ATOM     18  N   UNL A   1      36.144  32.326  30.356  1.00  0.00    -0.240 N 
ATOM     19  C   UNL A   1      35.851  32.333  31.751  1.00  0.00     0.117 A 
ATOM     20  C   UNL A   1      37.128  33.266  30.256  1.00  0.00     0.065 A 
ATOM     21  C   UNL A   1      37.891  33.042  31.392  1.00  0.00     0.012 A 
ATOM     22  C   UNL A   1      37.487  34.168  29.311  1.00  0.00     0.028 A 
ATOM     23  C   UNL A   1      39.276  33.174  31.292  1.00  0.00     0.011 A 
ATOM     24  C   UNL A   1      38.858  34.321  29.252  1.00  0.00     0.002 A 
ATOM     25  C   UNL A   1      39.766  33.693  30.109  1.00  0.00     0.001 A 
BRANCH  18  26
ATOM     26  S   UNL A   1      36.492  30.816  29.448  1.00  0.00     0.268 S 
ATOM     27  O   UNL A   1      36.274  29.770  30.429  1.00  0.00    -0.201 OA
ATOM     28  O   UNL A   1      37.798  31.013  28.841  1.00  0.00    -0.201 OA
BRANCH  26  29
ATOM     29  C   UNL A   1      35.363  30.501  28.063  1.00  0.00     0.088 A 
ATOM     30  C   UNL A   1      31.777  29.005  26.058  1.00  0.00     0.044 C 
ATOM     31  C   UNL A   1      33.047  29.581  26.628  1.00  0.00    -0.051 A 
ATOM     32  C   UNL A   1      34.202  28.809  26.697  1.00  0.00     0.005 A 
ATOM     33  C   UNL A   1      33.088  30.848  27.218  1.00  0.00     0.005 A 
ATOM     34  C   UNL A   1      35.326  29.263  27.433  1.00  0.00     0.022 A 
ATOM     35  C   UNL A   1      34.230  31.303  27.922  1.00  0.00     0.022 A 
ENDBRANCH  26  29
ENDBRANCH  18  26
ENDBRANCH  15  17
ENDBRANCH  12  15
ENDBRANCH  10  11
BRANCH  10  36
ATOM     36  C   UNL A   1      40.988  32.989  35.332  1.00  0.00     0.072 C 
BRANCH  36  37
ATOM     37  C   UNL A   1      41.142  31.917  34.253  1.00  0.00    -0.020 A 
ATOM     38  C   UNL A   1      42.307  31.678  33.541  1.00  0.00     0.087 A 
ATOM     39  C   UNL A   1      40.202  30.921  33.787  1.00  0.00     0.003 A 
ATOM     40  N   UNL A   1      42.072  30.723  32.593  1.00  0.00    -0.361 N 
ATOM     41  C   UNL A   1      40.808  30.217  32.738  1.00  0.00     0.046 A 
ATOM     42  C   UNL A   1      38.881  30.553  34.127  1.00  0.00     0.010 A 
ATOM     43  H   UNL A   1      42.717  30.440  31.905  1.00  0.00     0.166 HD
ATOM     44  C   UNL A   1      40.171  29.204  32.008  1.00  0.00     0.026 A 
ATOM     45  C   UNL A   1      38.228  29.536  33.408  1.00  0.00     0.001 A 
ATOM     46  C   UNL A   1      38.864  28.876  32.361  1.00  0.00     0.002 A 
ENDBRANCH  36  37
ENDBRANCH  10  36
ENDBRANCH   7  10
ENDBRANCH   5   6
ENDBRANCH   3   5
ENDBRANCH   2   3
ENDBRANCH   1   2
BRANCH   1  47
ATOM     47  C   UNL A   1      44.215  38.563  31.229  1.00  0.00     0.202 C 
BRANCH  47  48
ATOM     48  O   UNL A   1      44.206  38.976  29.867  1.00  0.00    -0.374 OA
BRANCH  48  49
ATOM     49  C   UNL A   1      44.854  38.122  28.935  1.00  0.00     0.202 C 
BRANCH  49  50
ATOM     50  C   UNL A   1      44.307  38.258  27.507  1.00  0.00     0.261 C 
BRANCH  50  51
ATOM     51  O   UNL A   1      43.668  37.029  27.110  1.00  0.00    -0.460 OA
BRANCH  51  52
ATOM     52  C   UNL A   1      44.512  35.985  26.894  1.00  0.00     0.338 C 
ATOM     53  O   UNL A   1      45.515  36.014  26.195  1.00  0.00    -0.246 OA
BRANCH  52  54
ATOM     54  C   UNL A   1      43.875  34.716  27.344  1.00  0.00     0.060 A 
ATOM     55  C   UNL A   1      43.407  34.624  28.669  1.00  0.00     0.016 A 
ATOM     56  C   UNL A   1      44.169  33.562  26.628  1.00  0.00     0.016 A 
ATOM     57  C   UNL A   1      43.435  33.397  29.337  1.00  0.00     0.010 A 
ATOM     58  C   UNL A   1      44.373  32.407  27.346  1.00  0.00     0.010 A 
ATOM     59  C   UNL A   1      44.022  32.313  28.704  1.00  0.00    -0.014 A 
BRANCH  59  60
ATOM     60  C   UNL A   1      44.392  31.039  29.338  1.00  0.00     0.031 A 
ATOM     61  C   UNL A   1      43.300  29.993  29.355  1.00  0.00     0.074 A 
ATOM     62  C   UNL A   1      45.735  30.828  29.418  1.00  0.00     0.049 A 
ATOM     63  N   UNL A   1      43.334  28.838  29.936  1.00  0.00    -0.248 NA
ATOM     64  C   UNL A   1      41.984  30.226  28.718  1.00  0.00     0.031 C 
ATOM     65  C   UNL A   1      46.540  29.655  29.133  1.00  0.00     0.029 A 
ATOM     66  N   UNL A   1      46.699  31.672  29.949  1.00  0.00    -0.354 N 
ATOM     67  C   UNL A   1      42.287  28.090  29.404  1.00  0.00     0.074 A 
ATOM     68  C   UNL A   1      41.449  29.007  28.689  1.00  0.00     0.031 C 
ATOM     69  C   UNL A   1      47.740  29.694  29.716  1.00  0.00     0.029 A 
ATOM     70  C   UNL A   1      47.756  30.898  30.481  1.00  0.00     0.049 A 
ATOM     71  H   UNL A   1      46.654  32.655  29.955  1.00  0.00     0.167 HD
ATOM     72  C   UNL A   1      42.270  26.728  29.436  1.00  0.00     0.031 A 
ATOM     73  C   UNL A   1      48.086  30.930  31.798  1.00  0.00     0.031 A 
ATOM     74  C   UNL A   1      43.341  26.138  30.272  1.00  0.00     0.049 A 
ATOM     75  C   UNL A   1      47.672  29.637  32.483  1.00  0.00     0.074 A 
ATOM     76  C   UNL A   1      44.224  25.076  30.177  1.00  0.00     0.029 A 
ATOM     77  N   UNL A   1      43.794  26.829  31.425  1.00  0.00    -0.354 N 
ATOM     78  N   UNL A   1      46.590  28.930  32.240  1.00  0.00    -0.248 NA
ATOM     79  C   UNL A   1      48.574  29.002  33.444  1.00  0.00     0.031 C 
ATOM     80  C   UNL A   1      45.366  25.357  30.970  1.00  0.00     0.029 A 
ATOM     81  C   UNL A   1      45.059  26.420  31.793  1.00  0.00     0.049 A 
ATOM     82  H   UNL A   1      43.271  27.514  31.902  1.00  0.00     0.167 HD
ATOM     83  C   UNL A   1      46.636  27.790  33.021  1.00  0.00     0.074 A 
ATOM     84  C   UNL A   1      47.896  27.884  33.743  1.00  0.00     0.031 C 
ATOM     85  C   UNL A   1      45.728  26.766  33.033  1.00  0.00     0.031 A 
BRANCH  72  86
ATOM     86  C   UNL A   1      41.394  26.058  28.373  1.00  0.00    -0.014 A 
ATOM     87  C   UNL A   1      41.821  25.871  27.044  1.00  0.00     0.009 A 
ATOM     88  C   UNL A   1      40.040  25.755  28.596  1.00  0.00     0.009 A 
ATOM     89  C   UNL A   1      41.052  25.193  26.073  1.00  0.00     0.001 A 
ATOM     90  C   UNL A   1      39.221  25.176  27.598  1.00  0.00     0.001 A 
ATOM     91  C   UNL A   1      39.746  24.829  26.357  1.00  0.00     0.000 A 
ENDBRANCH  72  86
BRANCH  73  92
ATOM     92  C   UNL A   1      47.953  32.328  32.299  1.00  0.00    -0.014 A 
ATOM     93  C   UNL A   1      48.798  33.273  31.658  1.00  0.00     0.009 A 
ATOM     94  C   UNL A   1      46.706  32.749  32.776  1.00  0.00     0.009 A 
ATOM     95  C   UNL A   1      48.284  34.506  31.249  1.00  0.00     0.001 A 
ATOM     96  C   UNL A   1      46.213  33.999  32.384  1.00  0.00     0.001 A 
ATOM     97  C   UNL A   1      46.971  34.842  31.565  1.00  0.00     0.000 A 
ENDBRANCH  73  92
BRANCH  85  98
ATOM     98  C   UNL A   1      45.602  25.719  34.138  1.00  0.00    -0.014 A 
ATOM     99  C   UNL A   1      46.548  24.725  34.392  1.00  0.00     0.009 A 
ATOM    100  C   UNL A   1      44.534  25.809  35.070  1.00  0.00     0.009 A 
ATOM    101  C   UNL A   1      46.391  23.832  35.463  1.00  0.00     0.001 A 
ATOM    102  C   UNL A   1      44.375  24.935  36.141  1.00  0.00     0.001 A 
ATOM    103  C   UNL A   1      45.307  23.934  36.333  1.00  0.00     0.000 A 
ENDBRANCH  85  98
ENDBRANCH  59  60
ENDBRANCH  52  54
ENDBRANCH  51  52
ENDBRANCH  50  51
ENDBRANCH  49  50
ENDBRANCH  48  49
ENDBRANCH  47  48
ENDBRANCH   1  47
TORSDOF 23
ENDMDL
