MODEL 1
REMARK VINA RESULT:     -11.2      0.000      0.000
REMARK SMILES O=C(OCCOCCOC(=O)c1cc2ccccc2cc1NS(=O)(=O)c1ccccc1Br)c1ccc(-c2c3nc(c(-c4ccccc4)c4ccc([nH]4)c(-c4ccccc4)c4nc(c(-c5ccccc5)c5ccc2[nH]5)C=C4)C=C3)cc1
REMARK SMILES IDX 7 1 6 2 5 3 4 4 3 5 2 6 1 7 33 8 34 9 80 10 35 11 79 12
REMARK SMILES IDX 36 13 37 14 38 15 73 16 39 17 78 18 72 19 74 20 40 21 77 22
REMARK SMILES IDX 71 23 70 24 41 26 63 27 48 28 62 29 49 30 52 31 61 32 75 33
REMARK SMILES IDX 50 34 51 35 60 37 76 38 53 39 42 40 43 41 47 42 44 43 46 44
REMARK SMILES IDX 45 45 64 46 65 47 69 48 66 49 68 50 67 51 54 52 55 53 59 54
REMARK SMILES IDX 56 55 58 56 57 57 8 58 9 59 10 60 11 61 12 62 13 63 21 64
REMARK SMILES IDX 14 65 20 66 15 67 19 68 16 69 18 70 17 71 22 72 23 74 24 75
REMARK SMILES IDX 25 76 26 77 27 78 31 79 28 80 30 81 32 82 29 83
REMARK H PARENT 74 25 52 36 22 73
REMARK Flexibility Score: inf
ROOT
ATOM      1  C   UNL A   1      37.033  23.213  24.534  1.00  0.00     0.202 C 
ENDROOT
BRANCH   1   2
ATOM      2  O   UNL A   1      37.252  21.812  24.330  1.00  0.00    -0.374 OA
BRANCH   2   3
ATOM      3  C   UNL A   1      37.984  21.134  25.353  1.00  0.00     0.202 C 
BRANCH   3   4
ATOM      4  C   UNL A   1      38.557  19.784  24.912  1.00  0.00     0.261 C 
BRANCH   4   5
ATOM      5  O   UNL A   1      39.493  19.294  25.887  1.00  0.00    -0.460 OA
BRANCH   5   6
ATOM      6  C   UNL A   1      40.799  19.608  26.047  1.00  0.00     0.338 C 
ATOM      7  O   UNL A   1      41.643  18.788  25.690  1.00  0.00    -0.246 OA
BRANCH   6   8
ATOM      8  C   UNL A   1      41.293  20.900  26.621  1.00  0.00     0.060 A 
ATOM      9  C   UNL A   1      41.374  21.208  27.980  1.00  0.00     0.016 A 
ATOM     10  C   UNL A   1      41.786  21.852  25.708  1.00  0.00     0.016 A 
ATOM     11  C   UNL A   1      41.868  22.421  28.426  1.00  0.00     0.010 A 
ATOM     12  C   UNL A   1      42.305  23.073  26.145  1.00  0.00     0.010 A 
ATOM     13  C   UNL A   1      42.319  23.365  27.512  1.00  0.00    -0.014 A 
BRANCH  13  14
ATOM     14  C   UNL A   1      42.621  24.704  28.039  1.00  0.00     0.031 A 
ATOM     15  C   UNL A   1      44.061  25.102  28.140  1.00  0.00     0.074 A 
ATOM     16  C   UNL A   1      41.623  25.585  28.219  1.00  0.00     0.049 A 
ATOM     17  N   UNL A   1      44.581  26.244  28.498  1.00  0.00    -0.248 NA
ATOM     18  C   UNL A   1      45.052  24.079  27.758  1.00  0.00     0.031 C 
ATOM     19  C   UNL A   1      40.203  25.311  27.985  1.00  0.00     0.029 A 
ATOM     20  N   UNL A   1      41.655  26.903  28.583  1.00  0.00    -0.354 N 
ATOM     21  C   UNL A   1      45.955  26.067  28.413  1.00  0.00     0.074 A 
ATOM     22  C   UNL A   1      46.193  24.713  27.970  1.00  0.00     0.031 C 
ATOM     23  C   UNL A   1      39.503  26.442  28.176  1.00  0.00     0.029 A 
ATOM     24  C   UNL A   1      40.416  27.495  28.602  1.00  0.00     0.049 A 
ATOM     25  H   UNL A   1      42.485  27.380  28.809  1.00  0.00     0.167 HD
ATOM     26  C   UNL A   1      46.931  26.960  28.695  1.00  0.00     0.031 A 
ATOM     27  C   UNL A   1      40.072  28.750  28.946  1.00  0.00     0.031 A 
ATOM     28  C   UNL A   1      46.663  28.295  29.152  1.00  0.00     0.049 A 
ATOM     29  C   UNL A   1      41.171  29.688  29.362  1.00  0.00     0.074 A 
ATOM     30  C   UNL A   1      47.553  29.273  29.548  1.00  0.00     0.029 A 
ATOM     31  N   UNL A   1      45.388  28.833  29.274  1.00  0.00    -0.354 N 
ATOM     32  N   UNL A   1      42.469  29.495  29.354  1.00  0.00    -0.248 NA
ATOM     33  C   UNL A   1      40.760  31.013  29.841  1.00  0.00     0.031 C 
ATOM     34  C   UNL A   1      46.813  30.387  29.959  1.00  0.00     0.029 A 
ATOM     35  C   UNL A   1      45.464  30.125  29.758  1.00  0.00     0.049 A 
ATOM     36  H   UNL A   1      44.552  28.363  29.049  1.00  0.00     0.167 HD
ATOM     37  C   UNL A   1      43.033  30.681  29.802  1.00  0.00     0.074 A 
ATOM     38  C   UNL A   1      41.932  31.591  30.057  1.00  0.00     0.031 C 
ATOM     39  C   UNL A   1      44.339  30.995  29.990  1.00  0.00     0.031 A 
BRANCH  26  40
ATOM     40  C   UNL A   1      48.345  26.463  28.615  1.00  0.00    -0.014 A 
ATOM     41  C   UNL A   1      49.104  26.563  27.436  1.00  0.00     0.009 A 
ATOM     42  C   UNL A   1      48.906  25.819  29.729  1.00  0.00     0.009 A 
ATOM     43  C   UNL A   1      50.374  25.987  27.363  1.00  0.00     0.001 A 
ATOM     44  C   UNL A   1      50.187  25.268  29.660  1.00  0.00     0.001 A 
ATOM     45  C   UNL A   1      50.914  25.340  28.474  1.00  0.00     0.000 A 
ENDBRANCH  26  40
BRANCH  27  46
ATOM     46  C   UNL A   1      38.645  29.169  28.954  1.00  0.00    -0.014 A 
ATOM     47  C   UNL A   1      37.853  29.026  30.103  1.00  0.00     0.009 A 
ATOM     48  C   UNL A   1      38.056  29.704  27.794  1.00  0.00     0.009 A 
ATOM     49  C   UNL A   1      36.502  29.385  30.084  1.00  0.00     0.001 A 
ATOM     50  C   UNL A   1      36.714  30.092  27.788  1.00  0.00     0.001 A 
ATOM     51  C   UNL A   1      35.935  29.922  28.929  1.00  0.00     0.000 A 
ENDBRANCH  27  46
BRANCH  39  52
ATOM     52  C   UNL A   1      44.638  32.395  30.443  1.00  0.00    -0.014 A 
ATOM     53  C   UNL A   1      44.819  33.438  29.525  1.00  0.00     0.009 A 
ATOM     54  C   UNL A   1      44.697  32.671  31.818  1.00  0.00     0.009 A 
ATOM     55  C   UNL A   1      45.090  34.730  29.977  1.00  0.00     0.001 A 
ATOM     56  C   UNL A   1      44.936  33.969  32.266  1.00  0.00     0.001 A 
ATOM     57  C   UNL A   1      45.143  34.995  31.346  1.00  0.00     0.000 A 
ENDBRANCH  39  52
ENDBRANCH  13  14
ENDBRANCH   6   8
ENDBRANCH   5   6
ENDBRANCH   4   5
ENDBRANCH   3   4
ENDBRANCH   2   3
ENDBRANCH   1   2
BRANCH   1  58
ATOM     58  C   UNL A   1      36.616  23.453  25.984  1.00  0.00     0.261 C 
BRANCH  58  59
ATOM     59  O   UNL A   1      35.215  23.762  25.978  1.00  0.00    -0.460 OA
BRANCH  59  60
ATOM     60  C   UNL A   1      34.419  22.821  26.548  1.00  0.00     0.340 C 
ATOM     61  O   UNL A   1      34.123  22.734  27.730  1.00  0.00    -0.246 OA
BRANCH  60  62
ATOM     62  C   UNL A   1      33.770  22.016  25.486  1.00  0.00     0.084 A 
ATOM     63  C   UNL A   1      34.073  20.638  25.473  1.00  0.00     0.026 A 
ATOM     64  C   UNL A   1      32.819  22.516  24.587  1.00  0.00     0.064 A 
ATOM     65  C   UNL A   1      33.500  19.770  24.527  1.00  0.00    -0.017 A 
ATOM     66  C   UNL A   1      32.323  21.666  23.594  1.00  0.00     0.036 A 
ATOM     67  C   UNL A   1      33.701  18.379  24.550  1.00  0.00     0.009 A 
ATOM     68  C   UNL A   1      32.678  20.315  23.526  1.00  0.00    -0.016 A 
ATOM     69  C   UNL A   1      33.158  17.563  23.554  1.00  0.00     0.001 A 
ATOM     70  C   UNL A   1      32.186  19.497  22.499  1.00  0.00     0.009 A 
ATOM     71  C   UNL A   1      32.433  18.126  22.508  1.00  0.00     0.001 A 
BRANCH  64  72
ATOM     72  N   UNL A   1      32.259  23.838  24.675  1.00  0.00    -0.279 N 
ATOM     73  H   UNL A   1      31.606  24.056  25.379  1.00  0.00     0.180 HD
BRANCH  72  74
ATOM     74  S   UNL A   1      32.735  25.017  23.556  1.00  0.00     0.263 S 
ATOM     75  O   UNL A   1      34.041  24.647  23.060  1.00  0.00    -0.201 OA
ATOM     76  O   UNL A   1      31.628  25.201  22.641  1.00  0.00    -0.201 OA
BRANCH  74  77
ATOM     77  C   UNL A   1      32.900  26.473  24.553  1.00  0.00     0.101 A 
ATOM     78  C   UNL A   1      32.646  26.326  25.927  1.00  0.00     0.023 A 
ATOM     79  C   UNL A   1      33.448  27.663  24.062  1.00  0.00     0.038 A 
ATOM     80  C   UNL A   1      33.012  27.331  26.818  1.00  0.00     0.001 A 
ATOM     81  C   UNL A   1      33.813  28.667  24.971  1.00  0.00     0.017 A 
ATOM     82  Br  UNL A   1      33.866  27.994  22.240  1.00  0.00    -0.049 Br
ATOM     83  C   UNL A   1      33.613  28.492  26.342  1.00  0.00     0.001 A 
ENDBRANCH  74  77
ENDBRANCH  72  74
ENDBRANCH  64  72
ENDBRANCH  60  62
ENDBRANCH  59  60
ENDBRANCH  58  59
ENDBRANCH   1  58
TORSDOF 17
ENDMDL
MODEL 2
REMARK VINA RESULT:     -10.8      0.907      5.837
REMARK SMILES O=C(OCCOCCOC(=O)c1cc2ccccc2cc1NS(=O)(=O)c1ccccc1Br)c1ccc(-c2c3nc(c(-c4ccccc4)c4ccc([nH]4)c(-c4ccccc4)c4nc(c(-c5ccccc5)c5ccc2[nH]5)C=C4)C=C3)cc1
REMARK SMILES IDX 7 1 6 2 5 3 4 4 3 5 2 6 1 7 33 8 34 9 80 10 35 11 79 12
REMARK SMILES IDX 36 13 37 14 38 15 73 16 39 17 78 18 72 19 74 20 40 21 77 22
REMARK SMILES IDX 71 23 70 24 41 26 63 27 48 28 62 29 49 30 52 31 61 32 75 33
REMARK SMILES IDX 50 34 51 35 60 37 76 38 53 39 42 40 43 41 47 42 44 43 46 44
REMARK SMILES IDX 45 45 64 46 65 47 69 48 66 49 68 50 67 51 54 52 55 53 59 54
REMARK SMILES IDX 56 55 58 56 57 57 8 58 9 59 10 60 11 61 12 62 13 63 21 64
REMARK SMILES IDX 14 65 20 66 15 67 19 68 16 69 18 70 17 71 22 72 23 74 24 75
REMARK SMILES IDX 25 76 26 77 27 78 31 79 28 80 30 81 32 82 29 83
REMARK H PARENT 74 25 52 36 22 73
REMARK Flexibility Score: inf
ROOT
ATOM      1  C   UNL A   1      36.894  23.662  24.712  1.00  0.00     0.202 C 
ENDROOT
BRANCH   1   2
ATOM      2  O   UNL A   1      37.362  22.352  24.367  1.00  0.00    -0.374 OA
BRANCH   2   3
ATOM      3  C   UNL A   1      37.819  21.541  25.450  1.00  0.00     0.202 C 
BRANCH   3   4
ATOM      4  C   UNL A   1      38.379  20.184  25.014  1.00  0.00     0.261 C 
BRANCH   4   5
ATOM      5  O   UNL A   1      39.300  19.681  25.996  1.00  0.00    -0.460 OA
BRANCH   5   6
ATOM      6  C   UNL A   1      40.626  19.917  26.120  1.00  0.00     0.338 C 
ATOM      7  O   UNL A   1      41.408  19.041  25.757  1.00  0.00    -0.246 OA
BRANCH   6   8
ATOM      8  C   UNL A   1      41.212  21.185  26.660  1.00  0.00     0.060 A 
ATOM      9  C   UNL A   1      41.211  21.575  28.001  1.00  0.00     0.016 A 
ATOM     10  C   UNL A   1      41.885  22.013  25.742  1.00  0.00     0.016 A 
ATOM     11  C   UNL A   1      41.799  22.756  28.419  1.00  0.00     0.010 A 
ATOM     12  C   UNL A   1      42.501  23.199  26.154  1.00  0.00     0.010 A 
ATOM     13  C   UNL A   1      42.430  23.581  27.496  1.00  0.00    -0.014 A 
BRANCH  13  14
ATOM     14  C   UNL A   1      42.836  24.912  27.969  1.00  0.00     0.031 A 
ATOM     15  C   UNL A   1      41.756  25.916  28.228  1.00  0.00     0.074 A 
ATOM     16  C   UNL A   1      44.109  25.122  28.342  1.00  0.00     0.049 A 
ATOM     17  N   UNL A   1      41.847  27.122  28.716  1.00  0.00    -0.248 NA
ATOM     18  C   UNL A   1      40.379  25.491  27.917  1.00  0.00     0.031 C 
ATOM     19  C   UNL A   1      45.186  24.130  28.267  1.00  0.00     0.029 A 
ATOM     20  N   UNL A   1      44.701  26.215  28.913  1.00  0.00    -0.354 N 
ATOM     21  C   UNL A   1      40.547  27.609  28.745  1.00  0.00     0.074 A 
ATOM     22  C   UNL A   1      39.684  26.574  28.226  1.00  0.00     0.031 C 
ATOM     23  C   UNL A   1      46.299  24.652  28.808  1.00  0.00     0.029 A 
ATOM     24  C   UNL A   1      46.028  26.027  29.210  1.00  0.00     0.049 A 
ATOM     25  H   UNL A   1      44.221  27.055  29.093  1.00  0.00     0.167 HD
ATOM     26  C   UNL A   1      40.119  28.824  29.156  1.00  0.00     0.031 A 
ATOM     27  C   UNL A   1      46.919  26.888  29.735  1.00  0.00     0.031 A 
ATOM     28  C   UNL A   1      41.006  29.841  29.650  1.00  0.00     0.049 A 
ATOM     29  C   UNL A   1      46.437  28.270  30.080  1.00  0.00     0.074 A 
ATOM     30  C   UNL A   1      40.717  31.138  30.025  1.00  0.00     0.029 A 
ATOM     31  N   UNL A   1      42.371  29.660  29.832  1.00  0.00    -0.354 N 
ATOM     32  N   UNL A   1      45.218  28.755  30.035  1.00  0.00    -0.248 NA
ATOM     33  C   UNL A   1      47.451  29.225  30.543  1.00  0.00     0.031 C 
ATOM     34  C   UNL A   1      41.919  31.759  30.386  1.00  0.00     0.029 A 
ATOM     35  C   UNL A   1      42.945  30.828  30.296  1.00  0.00     0.049 A 
ATOM     36  H   UNL A   1      42.858  28.822  29.656  1.00  0.00     0.167 HD
ATOM     37  C   UNL A   1      45.312  30.064  30.485  1.00  0.00     0.074 A 
ATOM     38  C   UNL A   1      46.707  30.288  30.815  1.00  0.00     0.031 C 
ATOM     39  C   UNL A   1      44.340  31.001  30.616  1.00  0.00     0.031 A 
BRANCH  26  40
ATOM     40  C   UNL A   1      38.659  29.123  28.977  1.00  0.00    -0.014 A 
ATOM     41  C   UNL A   1      38.139  29.591  27.759  1.00  0.00     0.009 A 
ATOM     42  C   UNL A   1      37.796  28.994  30.077  1.00  0.00     0.009 A 
ATOM     43  C   UNL A   1      36.797  29.968  27.662  1.00  0.00     0.001 A 
ATOM     44  C   UNL A   1      36.450  29.345  29.968  1.00  0.00     0.001 A 
ATOM     45  C   UNL A   1      35.955  29.845  28.766  1.00  0.00     0.000 A 
ENDBRANCH  26  40
BRANCH  27  46
ATOM     46  C   UNL A   1      48.340  26.490  29.919  1.00  0.00    -0.014 A 
ATOM     47  C   UNL A   1      49.287  26.690  28.903  1.00  0.00     0.009 A 
ATOM     48  C   UNL A   1      48.758  25.886  31.118  1.00  0.00     0.009 A 
ATOM     49  C   UNL A   1      50.610  26.273  29.073  1.00  0.00     0.001 A 
ATOM     50  C   UNL A   1      50.088  25.499  31.297  1.00  0.00     0.001 A 
ATOM     51  C   UNL A   1      51.011  25.682  30.272  1.00  0.00     0.000 A 
ENDBRANCH  27  46
BRANCH  39  52
ATOM     52  C   UNL A   1      44.753  32.327  31.185  1.00  0.00    -0.014 A 
ATOM     53  C   UNL A   1      44.750  32.562  32.567  1.00  0.00     0.009 A 
ATOM     54  C   UNL A   1      45.190  33.339  30.317  1.00  0.00     0.009 A 
ATOM     55  C   UNL A   1      45.144  33.805  33.067  1.00  0.00     0.001 A 
ATOM     56  C   UNL A   1      45.614  34.566  30.821  1.00  0.00     0.001 A 
ATOM     57  C   UNL A   1      45.581  34.802  32.195  1.00  0.00     0.000 A 
ENDBRANCH  39  52
ENDBRANCH  13  14
ENDBRANCH   6   8
ENDBRANCH   5   6
ENDBRANCH   4   5
ENDBRANCH   3   4
ENDBRANCH   2   3
ENDBRANCH   1   2
BRANCH   1  58
ATOM     58  C   UNL A   1      36.277  23.625  26.109  1.00  0.00     0.261 C 
BRANCH  58  59
ATOM     59  O   UNL A   1      34.852  23.600  25.945  1.00  0.00    -0.460 OA
BRANCH  59  60
ATOM     60  C   UNL A   1      34.218  22.587  26.590  1.00  0.00     0.340 C 
ATOM     61  O   UNL A   1      33.987  22.516  27.787  1.00  0.00    -0.246 OA
BRANCH  60  62
ATOM     62  C   UNL A   1      33.643  21.653  25.594  1.00  0.00     0.084 A 
ATOM     63  C   UNL A   1      34.270  20.394  25.483  1.00  0.00     0.026 A 
ATOM     64  C   UNL A   1      32.482  21.906  24.853  1.00  0.00     0.064 A 
ATOM     65  C   UNL A   1      33.798  19.416  24.589  1.00  0.00    -0.017 A 
ATOM     66  C   UNL A   1      32.073  20.966  23.903  1.00  0.00     0.036 A 
ATOM     67  C   UNL A   1      34.336  18.119  24.528  1.00  0.00     0.009 A 
ATOM     68  C   UNL A   1      32.735  19.746  23.732  1.00  0.00    -0.016 A 
ATOM     69  C   UNL A   1      33.874  17.199  23.582  1.00  0.00     0.001 A 
ATOM     70  C   UNL A   1      32.318  18.838  22.748  1.00  0.00     0.009 A 
ATOM     71  C   UNL A   1      32.892  17.571  22.668  1.00  0.00     0.001 A 
BRANCH  64  72
ATOM     72  N   UNL A   1      31.632  23.048  25.071  1.00  0.00    -0.279 N 
ATOM     73  H   UNL A   1      31.130  23.141  25.912  1.00  0.00     0.180 HD
BRANCH  72  74
ATOM     74  S   UNL A   1      31.506  24.230  23.864  1.00  0.00     0.263 S 
ATOM     75  O   UNL A   1      32.752  24.241  23.131  1.00  0.00    -0.201 OA
ATOM     76  O   UNL A   1      30.254  23.998  23.176  1.00  0.00    -0.201 OA
BRANCH  74  77
ATOM     77  C   UNL A   1      31.381  25.736  24.790  1.00  0.00     0.101 A 
ATOM     78  C   UNL A   1      31.563  25.636  26.179  1.00  0.00     0.023 A 
ATOM     79  C   UNL A   1      31.309  26.992  24.177  1.00  0.00     0.038 A 
ATOM     80  C   UNL A   1      31.755  26.784  26.944  1.00  0.00     0.001 A 
ATOM     81  C   UNL A   1      31.504  28.139  24.960  1.00  0.00     0.017 A 
ATOM     82  Br  UNL A   1      31.089  27.278  22.313  1.00  0.00    -0.049 Br
ATOM     83  C   UNL A   1      31.745  28.034  26.331  1.00  0.00     0.001 A 
ENDBRANCH  74  77
ENDBRANCH  72  74
ENDBRANCH  64  72
ENDBRANCH  60  62
ENDBRANCH  59  60
ENDBRANCH  58  59
ENDBRANCH   1  58
TORSDOF 17
ENDMDL
MODEL 3
REMARK VINA RESULT:     -10.6      3.961      9.074
REMARK SMILES O=C(OCCOCCOC(=O)c1cc2ccccc2cc1NS(=O)(=O)c1ccccc1Br)c1ccc(-c2c3nc(c(-c4ccccc4)c4ccc([nH]4)c(-c4ccccc4)c4nc(c(-c5ccccc5)c5ccc2[nH]5)C=C4)C=C3)cc1
REMARK SMILES IDX 7 1 6 2 5 3 4 4 3 5 2 6 1 7 33 8 34 9 80 10 35 11 79 12
REMARK SMILES IDX 36 13 37 14 38 15 73 16 39 17 78 18 72 19 74 20 40 21 77 22
REMARK SMILES IDX 71 23 70 24 41 26 63 27 48 28 62 29 49 30 52 31 61 32 75 33
REMARK SMILES IDX 50 34 51 35 60 37 76 38 53 39 42 40 43 41 47 42 44 43 46 44
REMARK SMILES IDX 45 45 64 46 65 47 69 48 66 49 68 50 67 51 54 52 55 53 59 54
REMARK SMILES IDX 56 55 58 56 57 57 8 58 9 59 10 60 11 61 12 62 13 63 21 64
REMARK SMILES IDX 14 65 20 66 15 67 19 68 16 69 18 70 17 71 22 72 23 74 24 75
REMARK SMILES IDX 25 76 26 77 27 78 31 79 28 80 30 81 32 82 29 83
REMARK H PARENT 74 25 52 36 22 73
REMARK Flexibility Score: inf
ROOT
ATOM      1  C   UNL A   1      33.586  29.161  25.576  1.00  0.00     0.202 C 
ENDROOT
BRANCH   1   2
ATOM      2  O   UNL A   1      32.717  30.300  25.614  1.00  0.00    -0.374 OA
BRANCH   2   3
ATOM      3  C   UNL A   1      32.152  30.618  26.887  1.00  0.00     0.202 C 
BRANCH   3   4
ATOM      4  C   UNL A   1      31.400  31.952  26.915  1.00  0.00     0.261 C 
BRANCH   4   5
ATOM      5  O   UNL A   1      32.324  33.051  26.849  1.00  0.00    -0.460 OA
BRANCH   5   6
ATOM      6  C   UNL A   1      32.956  33.694  27.858  1.00  0.00     0.338 C 
ATOM      7  O   UNL A   1      32.412  34.682  28.348  1.00  0.00    -0.246 OA
BRANCH   6   8
ATOM      8  C   UNL A   1      34.274  33.276  28.433  1.00  0.00     0.060 A 
ATOM      9  C   UNL A   1      35.527  33.692  27.980  1.00  0.00     0.016 A 
ATOM     10  C   UNL A   1      34.235  32.452  29.573  1.00  0.00     0.016 A 
ATOM     11  C   UNL A   1      36.699  33.275  28.586  1.00  0.00     0.010 A 
ATOM     12  C   UNL A   1      35.410  32.038  30.208  1.00  0.00     0.010 A 
ATOM     13  C   UNL A   1      36.647  32.433  29.691  1.00  0.00    -0.014 A 
BRANCH  13  14
ATOM     14  C   UNL A   1      37.922  31.859  30.144  1.00  0.00     0.031 A 
ATOM     15  C   UNL A   1      38.549  32.442  31.371  1.00  0.00     0.074 A 
ATOM     16  C   UNL A   1      38.374  30.726  29.581  1.00  0.00     0.049 A 
ATOM     17  N   UNL A   1      39.623  32.067  32.011  1.00  0.00    -0.248 NA
ATOM     18  C   UNL A   1      37.854  33.593  31.978  1.00  0.00     0.031 C 
ATOM     19  C   UNL A   1      37.723  30.012  28.479  1.00  0.00     0.029 A 
ATOM     20  N   UNL A   1      39.453  29.946  29.895  1.00  0.00    -0.354 N 
ATOM     21  C   UNL A   1      39.747  32.950  33.075  1.00  0.00     0.074 A 
ATOM     22  C   UNL A   1      38.645  33.879  33.000  1.00  0.00     0.031 C 
ATOM     23  C   UNL A   1      38.398  28.876  28.236  1.00  0.00     0.029 A 
ATOM     24  C   UNL A   1      39.556  28.817  29.119  1.00  0.00     0.049 A 
ATOM     25  H   UNL A   1      40.092  30.171  30.608  1.00  0.00     0.167 HD
ATOM     26  C   UNL A   1      40.711  32.984  34.023  1.00  0.00     0.031 A 
ATOM     27  C   UNL A   1      40.499  27.858  29.124  1.00  0.00     0.031 A 
ATOM     28  C   UNL A   1      41.807  32.056  34.059  1.00  0.00     0.049 A 
ATOM     29  C   UNL A   1      41.621  27.984  30.119  1.00  0.00     0.074 A 
ATOM     30  C   UNL A   1      42.891  32.025  34.914  1.00  0.00     0.029 A 
ATOM     31  N   UNL A   1      41.949  30.986  33.185  1.00  0.00    -0.354 N 
ATOM     32  N   UNL A   1      41.778  28.865  31.079  1.00  0.00    -0.248 NA
ATOM     33  C   UNL A   1      42.696  26.989  30.028  1.00  0.00     0.031 C 
ATOM     34  C   UNL A   1      43.717  30.965  34.522  1.00  0.00     0.029 A 
ATOM     35  C   UNL A   1      43.114  30.298  33.464  1.00  0.00     0.049 A 
ATOM     36  H   UNL A   1      41.313  30.752  32.470  1.00  0.00     0.167 HD
ATOM     37  C   UNL A   1      42.957  28.519  31.723  1.00  0.00     0.074 A 
ATOM     38  C   UNL A   1      43.462  27.336  31.052  1.00  0.00     0.031 C 
ATOM     39  C   UNL A   1      43.572  29.120  32.772  1.00  0.00     0.031 A 
BRANCH  26  40
ATOM     40  C   UNL A   1      40.656  34.121  35.001  1.00  0.00    -0.014 A 
ATOM     41  C   UNL A   1      39.996  34.009  36.236  1.00  0.00     0.009 A 
ATOM     42  C   UNL A   1      41.224  35.355  34.646  1.00  0.00     0.009 A 
ATOM     43  C   UNL A   1      39.865  35.122  37.071  1.00  0.00     0.001 A 
ATOM     44  C   UNL A   1      41.115  36.457  35.495  1.00  0.00     0.001 A 
ATOM     45  C   UNL A   1      40.424  36.344  36.700  1.00  0.00     0.000 A 
ENDBRANCH  26  40
BRANCH  27  46
ATOM     46  C   UNL A   1      40.449  26.740  28.144  1.00  0.00    -0.014 A 
ATOM     47  C   UNL A   1      41.059  26.852  26.886  1.00  0.00     0.009 A 
ATOM     48  C   UNL A   1      39.769  25.551  28.459  1.00  0.00     0.009 A 
ATOM     49  C   UNL A   1      40.968  25.810  25.958  1.00  0.00     0.001 A 
ATOM     50  C   UNL A   1      39.707  24.499  27.542  1.00  0.00     0.001 A 
ATOM     51  C   UNL A   1      40.297  24.633  26.288  1.00  0.00     0.000 A 
ENDBRANCH  27  46
BRANCH  39  52
ATOM     52  C   UNL A   1      44.826  28.470  33.281  1.00  0.00    -0.014 A 
ATOM     53  C   UNL A   1      44.785  27.465  34.257  1.00  0.00     0.009 A 
ATOM     54  C   UNL A   1      46.063  28.850  32.738  1.00  0.00     0.009 A 
ATOM     55  C   UNL A   1      45.967  26.876  34.707  1.00  0.00     0.001 A 
ATOM     56  C   UNL A   1      47.239  28.237  33.166  1.00  0.00     0.001 A 
ATOM     57  C   UNL A   1      47.191  27.258  34.158  1.00  0.00     0.000 A 
ENDBRANCH  39  52
ENDBRANCH  13  14
ENDBRANCH   6   8
ENDBRANCH   5   6
ENDBRANCH   4   5
ENDBRANCH   3   4
ENDBRANCH   2   3
ENDBRANCH   1   2
BRANCH   1  58
ATOM     58  C   UNL A   1      34.018  28.904  24.134  1.00  0.00     0.261 C 
BRANCH  58  59
ATOM     59  O   UNL A   1      33.857  27.500  23.886  1.00  0.00    -0.460 OA
BRANCH  59  60
ATOM     60  C   UNL A   1      33.199  27.192  22.739  1.00  0.00     0.340 C 
ATOM     61  O   UNL A   1      33.694  26.769  21.705  1.00  0.00    -0.246 OA
BRANCH  60  62
ATOM     62  C   UNL A   1      31.738  27.239  22.981  1.00  0.00     0.084 A 
ATOM     63  C   UNL A   1      31.070  28.404  22.548  1.00  0.00     0.026 A 
ATOM     64  C   UNL A   1      30.991  26.177  23.507  1.00  0.00     0.064 A 
ATOM     65  C   UNL A   1      29.680  28.553  22.703  1.00  0.00    -0.017 A 
ATOM     66  C   UNL A   1      29.626  26.368  23.740  1.00  0.00     0.036 A 
ATOM     67  C   UNL A   1      28.971  29.654  22.193  1.00  0.00     0.009 A 
ATOM     68  C   UNL A   1      28.969  27.550  23.384  1.00  0.00    -0.016 A 
ATOM     69  C   UNL A   1      27.599  29.787  22.422  1.00  0.00     0.001 A 
ATOM     70  C   UNL A   1      27.605  27.722  23.660  1.00  0.00     0.009 A 
ATOM     71  C   UNL A   1      26.924  28.841  23.188  1.00  0.00     0.001 A 
BRANCH  64  72
ATOM     72  N   UNL A   1      31.532  24.866  23.746  1.00  0.00    -0.279 N 
ATOM     73  H   UNL A   1      31.521  24.185  23.035  1.00  0.00     0.180 HD
BRANCH  72  74
ATOM     74  S   UNL A   1      32.191  24.505  25.265  1.00  0.00     0.263 S 
ATOM     75  O   UNL A   1      32.263  25.739  26.014  1.00  0.00    -0.201 OA
ATOM     76  O   UNL A   1      31.453  23.374  25.786  1.00  0.00    -0.201 OA
BRANCH  74  77
ATOM     77  C   UNL A   1      33.839  23.983  24.873  1.00  0.00     0.101 A 
ATOM     78  C   UNL A   1      34.878  24.578  25.607  1.00  0.00     0.023 A 
ATOM     79  C   UNL A   1      34.103  22.895  24.033  1.00  0.00     0.038 A 
ATOM     80  C   UNL A   1      36.161  24.041  25.565  1.00  0.00     0.001 A 
ATOM     81  C   UNL A   1      35.401  22.364  24.001  1.00  0.00     0.017 A 
ATOM     82  Br  UNL A   1      32.799  21.978  23.003  1.00  0.00    -0.049 Br
ATOM     83  C   UNL A   1      36.418  22.922  24.778  1.00  0.00     0.001 A 
ENDBRANCH  74  77
ENDBRANCH  72  74
ENDBRANCH  64  72
ENDBRANCH  60  62
ENDBRANCH  59  60
ENDBRANCH  58  59
ENDBRANCH   1  58
TORSDOF 17
ENDMDL
