MODEL 1
REMARK VINA RESULT:     -10.3      0.000      0.000
REMARK SMILES COc1ccc2cc([C@@H](O)[C@H](F)C(=O)OCCOCCOC(=O)c3ccc(-c4c5nc(c(-c6ccccc6)c6ccc([nH]6)c(-c6ccccc6)c6nc(c(-c7ccccc7)c7ccc4[nH]7)C=C6)C=C5)cc3)ccc2c1
REMARK SMILES IDX 17 1 16 2 15 3 13 4 14 5 11 6 12 7 9 8 8 9 3 10 4 11 75 12
REMARK SMILES IDX 5 13 74 14 6 15 73 16 7 17 72 18 2 19 1 20 10 21 18 23 19 24
REMARK SMILES IDX 20 25 21 26 22 27 23 28 24 29 25 30 71 31 26 32 70 33 27 34
REMARK SMILES IDX 28 35 29 36 64 37 30 38 69 39 63 40 65 41 31 42 68 43 62 44
REMARK SMILES IDX 61 45 32 47 54 48 39 49 53 50 40 51 43 52 52 53 66 54 41 55
REMARK SMILES IDX 42 56 51 58 67 59 44 60 33 61 34 62 38 63 35 64 37 65 36 66
REMARK SMILES IDX 55 67 56 68 60 69 57 70 59 71 58 72 45 73 46 74 50 75 47 76
REMARK SMILES IDX 49 77 48 78
REMARK H PARENT 10 22 65 46 43 57
REMARK Flexibility Score: inf
ROOT
ATOM      1  C   UNL A   1      32.027  28.363  27.628  1.00  0.00     0.202 C 
ENDROOT
BRANCH   1   2
ATOM      2  C   UNL A   1      31.470  27.448  26.532  1.00  0.00     0.261 C 
BRANCH   2   3
ATOM      3  O   UNL A   1      32.266  26.257  26.466  1.00  0.00    -0.461 OA
BRANCH   3   4
ATOM      4  C   UNL A   1      31.614  25.069  26.311  1.00  0.00     0.343 C 
ATOM      5  O   UNL A   1      30.993  24.474  27.181  1.00  0.00    -0.249 OA
BRANCH   4   6
ATOM      6  C   UNL A   1      31.718  24.613  24.871  1.00  0.00     0.308 C 
ATOM      7  F   UNL A   1      32.094  23.296  24.798  1.00  0.00    -0.232 F 
BRANCH   6   8
ATOM      8  C   UNL A   1      30.399  24.853  24.121  1.00  0.00     0.190 C 
BRANCH   8   9
ATOM      9  C   UNL A   1      30.301  26.224  23.480  1.00  0.00    -0.015 A 
ATOM     10  C   UNL A   1      28.774  30.854  22.043  1.00  0.00     0.119 A 
ATOM     11  C   UNL A   1      27.659  30.238  22.608  1.00  0.00     0.047 A 
ATOM     12  C   UNL A   1      29.973  30.146  21.930  1.00  0.00     0.055 A 
ATOM     13  C   UNL A   1      27.758  28.934  23.096  1.00  0.00     0.012 A 
ATOM     14  C   UNL A   1      30.093  28.837  22.423  1.00  0.00    -0.015 A 
ATOM     15  C   UNL A   1      28.971  28.232  23.023  1.00  0.00    -0.018 A 
ATOM     16  C   UNL A   1      31.299  28.118  22.346  1.00  0.00     0.009 A 
ATOM     17  C   UNL A   1      29.091  26.940  23.546  1.00  0.00     0.015 A 
ATOM     18  C   UNL A   1      31.404  26.825  22.869  1.00  0.00     0.007 A 
BRANCH  10  19
ATOM     19  O   UNL A   1      28.793  32.127  21.543  1.00  0.00    -0.497 OA
ATOM     20  C   UNL A   1      27.730  32.441  20.647  1.00  0.00     0.278 C 
ENDBRANCH  10  19
ENDBRANCH   8   9
BRANCH   8  21
ATOM     21  O   UNL A   1      30.168  23.884  23.088  1.00  0.00    -0.385 OA
ATOM     22  H   UNL A   1      29.856  23.056  23.485  1.00  0.00     0.211 HD
ENDBRANCH   8  21
ENDBRANCH   6   8
ENDBRANCH   4   6
ENDBRANCH   3   4
ENDBRANCH   2   3
ENDBRANCH   1   2
BRANCH   1  23
ATOM     23  O   UNL A   1      32.609  29.580  27.155  1.00  0.00    -0.374 OA
BRANCH  23  24
ATOM     24  C   UNL A   1      31.749  30.480  26.455  1.00  0.00     0.202 C 
BRANCH  24  25
ATOM     25  C   UNL A   1      31.674  31.904  27.020  1.00  0.00     0.261 C 
BRANCH  25  26
ATOM     26  O   UNL A   1      32.944  32.577  26.957  1.00  0.00    -0.460 OA
BRANCH  26  27
ATOM     27  C   UNL A   1      33.140  33.519  27.905  1.00  0.00     0.338 C 
ATOM     28  O   UNL A   1      32.362  34.400  28.256  1.00  0.00    -0.246 OA
BRANCH  27  29
ATOM     29  C   UNL A   1      34.405  33.264  28.613  1.00  0.00     0.060 A 
ATOM     30  C   UNL A   1      35.595  33.582  27.949  1.00  0.00     0.016 A 
ATOM     31  C   UNL A   1      34.434  32.650  29.870  1.00  0.00     0.016 A 
ATOM     32  C   UNL A   1      36.821  33.248  28.519  1.00  0.00     0.010 A 
ATOM     33  C   UNL A   1      35.666  32.309  30.435  1.00  0.00     0.010 A 
ATOM     34  C   UNL A   1      36.863  32.578  29.748  1.00  0.00    -0.014 A 
BRANCH  34  35
ATOM     35  C   UNL A   1      38.152  32.044  30.248  1.00  0.00     0.031 A 
ATOM     36  C   UNL A   1      38.665  30.740  29.705  1.00  0.00     0.074 A 
ATOM     37  C   UNL A   1      38.872  32.727  31.153  1.00  0.00     0.049 A 
ATOM     38  N   UNL A   1      39.765  30.094  30.002  1.00  0.00    -0.248 NA
ATOM     39  C   UNL A   1      37.830  30.076  28.692  1.00  0.00     0.031 C 
ATOM     40  C   UNL A   1      38.508  34.025  31.720  1.00  0.00     0.029 A 
ATOM     41  N   UNL A   1      40.067  32.418  31.753  1.00  0.00    -0.354 N 
ATOM     42  C   UNL A   1      39.748  28.945  29.221  1.00  0.00     0.074 A 
ATOM     43  C   UNL A   1      38.520  28.969  28.457  1.00  0.00     0.031 C 
ATOM     44  C   UNL A   1      39.466  34.405  32.582  1.00  0.00     0.029 A 
ATOM     45  C   UNL A   1      40.490  33.364  32.652  1.00  0.00     0.049 A 
ATOM     46  H   UNL A   1      40.572  31.595  31.557  1.00  0.00     0.167 HD
ATOM     47  C   UNL A   1      40.673  27.958  29.145  1.00  0.00     0.031 A 
ATOM     48  C   UNL A   1      41.575  33.382  33.450  1.00  0.00     0.031 A 
ATOM     49  C   UNL A   1      41.889  27.924  29.913  1.00  0.00     0.049 A 
ATOM     50  C   UNL A   1      42.541  32.230  33.415  1.00  0.00     0.074 A 
ATOM     51  C   UNL A   1      42.905  26.985  29.879  1.00  0.00     0.029 A 
ATOM     52  N   UNL A   1      42.246  28.867  30.863  1.00  0.00    -0.354 N 
ATOM     53  N   UNL A   1      42.532  31.166  32.649  1.00  0.00    -0.248 NA
ATOM     54  C   UNL A   1      43.668  32.283  34.358  1.00  0.00     0.031 C 
ATOM     55  C   UNL A   1      43.850  27.328  30.853  1.00  0.00     0.029 A 
ATOM     56  C   UNL A   1      43.448  28.511  31.453  1.00  0.00     0.049 A 
ATOM     57  H   UNL A   1      41.724  29.672  31.086  1.00  0.00     0.167 HD
ATOM     58  C   UNL A   1      43.662  30.437  32.997  1.00  0.00     0.074 A 
ATOM     59  C   UNL A   1      44.337  31.184  34.039  1.00  0.00     0.031 C 
ATOM     60  C   UNL A   1      44.104  29.258  32.495  1.00  0.00     0.031 A 
BRANCH  47  61
ATOM     61  C   UNL A   1      40.374  26.808  28.227  1.00  0.00    -0.014 A 
ATOM     62  C   UNL A   1      39.617  25.706  28.657  1.00  0.00     0.009 A 
ATOM     63  C   UNL A   1      40.847  26.834  26.906  1.00  0.00     0.009 A 
ATOM     64  C   UNL A   1      39.377  24.635  27.792  1.00  0.00     0.001 A 
ATOM     65  C   UNL A   1      40.583  25.774  26.037  1.00  0.00     0.001 A 
ATOM     66  C   UNL A   1      39.857  24.671  26.484  1.00  0.00     0.000 A 
ENDBRANCH  47  61
BRANCH  48  67
ATOM     67  C   UNL A   1      41.807  34.532  34.359  1.00  0.00    -0.014 A 
ATOM     68  C   UNL A   1      41.212  34.565  35.629  1.00  0.00     0.009 A 
ATOM     69  C   UNL A   1      42.620  35.604  33.962  1.00  0.00     0.009 A 
ATOM     70  C   UNL A   1      41.416  35.657  36.477  1.00  0.00     0.001 A 
ATOM     71  C   UNL A   1      42.842  36.683  34.820  1.00  0.00     0.001 A 
ATOM     72  C   UNL A   1      42.235  36.710  36.075  1.00  0.00     0.000 A 
ENDBRANCH  48  67
BRANCH  60  73
ATOM     73  C   UNL A   1      45.392  28.716  33.046  1.00  0.00    -0.014 A 
ATOM     74  C   UNL A   1      45.401  27.826  34.132  1.00  0.00     0.009 A 
ATOM     75  C   UNL A   1      46.610  29.067  32.443  1.00  0.00     0.009 A 
ATOM     76  C   UNL A   1      46.609  27.322  34.620  1.00  0.00     0.001 A 
ATOM     77  C   UNL A   1      47.813  28.542  32.916  1.00  0.00     0.001 A 
ATOM     78  C   UNL A   1      47.812  27.676  34.010  1.00  0.00     0.000 A 
ENDBRANCH  60  73
ENDBRANCH  34  35
ENDBRANCH  27  29
ENDBRANCH  26  27
ENDBRANCH  25  26
ENDBRANCH  24  25
ENDBRANCH  23  24
ENDBRANCH   1  23
TORSDOF 18
ENDMDL
MODEL 2
REMARK VINA RESULT:     -10.2      4.285      9.325
REMARK SMILES COc1ccc2cc([C@@H](O)[C@H](F)C(=O)OCCOCCOC(=O)c3ccc(-c4c5nc(c(-c6ccccc6)c6ccc([nH]6)c(-c6ccccc6)c6nc(c(-c7ccccc7)c7ccc4[nH]7)C=C6)C=C5)cc3)ccc2c1
REMARK SMILES IDX 17 1 16 2 15 3 13 4 14 5 11 6 12 7 9 8 8 9 3 10 4 11 75 12
REMARK SMILES IDX 5 13 74 14 6 15 73 16 7 17 72 18 2 19 1 20 10 21 18 23 19 24
REMARK SMILES IDX 20 25 21 26 22 27 23 28 24 29 25 30 71 31 26 32 70 33 27 34
REMARK SMILES IDX 28 35 29 36 64 37 30 38 69 39 63 40 65 41 31 42 68 43 62 44
REMARK SMILES IDX 61 45 32 47 54 48 39 49 53 50 40 51 43 52 52 53 66 54 41 55
REMARK SMILES IDX 42 56 51 58 67 59 44 60 33 61 34 62 38 63 35 64 37 65 36 66
REMARK SMILES IDX 55 67 56 68 60 69 57 70 59 71 58 72 45 73 46 74 50 75 47 76
REMARK SMILES IDX 49 77 48 78
REMARK H PARENT 10 22 65 46 43 57
REMARK Flexibility Score: inf
ROOT
ATOM      1  C   UNL A   1      37.049  22.565  24.043  1.00  0.00     0.202 C 
ENDROOT
BRANCH   1   2
ATOM      2  C   UNL A   1      35.544  22.431  23.787  1.00  0.00     0.261 C 
BRANCH   2   3
ATOM      3  O   UNL A   1      35.140  23.428  22.838  1.00  0.00    -0.461 OA
BRANCH   3   4
ATOM      4  C   UNL A   1      34.122  24.263  23.194  1.00  0.00     0.343 C 
ATOM      5  O   UNL A   1      34.149  25.072  24.111  1.00  0.00    -0.249 OA
BRANCH   4   6
ATOM      6  C   UNL A   1      32.958  24.085  22.243  1.00  0.00     0.308 C 
ATOM      7  F   UNL A   1      33.303  23.278  21.189  1.00  0.00    -0.232 F 
BRANCH   6   8
ATOM      8  C   UNL A   1      31.726  23.536  22.978  1.00  0.00     0.190 C 
BRANCH   8   9
ATOM      9  C   UNL A   1      31.968  22.207  23.667  1.00  0.00    -0.015 A 
ATOM     10  C   UNL A   1      33.060  17.345  24.669  1.00  0.00     0.119 A 
ATOM     11  C   UNL A   1      32.880  17.424  23.290  1.00  0.00     0.047 A 
ATOM     12  C   UNL A   1      32.872  18.483  25.459  1.00  0.00     0.055 A 
ATOM     13  C   UNL A   1      32.555  18.646  22.700  1.00  0.00     0.012 A 
ATOM     14  C   UNL A   1      32.554  19.722  24.881  1.00  0.00    -0.015 A 
ATOM     15  C   UNL A   1      32.406  19.801  23.482  1.00  0.00    -0.018 A 
ATOM     16  C   UNL A   1      32.390  20.886  25.654  1.00  0.00     0.009 A 
ATOM     17  C   UNL A   1      32.121  21.040  22.895  1.00  0.00     0.015 A 
ATOM     18  C   UNL A   1      32.100  22.116  25.054  1.00  0.00     0.007 A 
BRANCH  10  19
ATOM     19  O   UNL A   1      33.387  16.205  25.351  1.00  0.00    -0.497 OA
ATOM     20  C   UNL A   1      34.762  15.835  25.287  1.00  0.00     0.278 C 
ENDBRANCH  10  19
ENDBRANCH   8   9
BRANCH   8  21
ATOM     21  O   UNL A   1      31.227  24.444  23.971  1.00  0.00    -0.385 OA
ATOM     22  H   UNL A   1      31.914  24.603  24.638  1.00  0.00     0.211 HD
ENDBRANCH   8  21
ENDBRANCH   6   8
ENDBRANCH   4   6
ENDBRANCH   3   4
ENDBRANCH   2   3
ENDBRANCH   1   2
BRANCH   1  23
ATOM     23  O   UNL A   1      37.396  23.072  25.334  1.00  0.00    -0.374 OA
BRANCH  23  24
ATOM     24  C   UNL A   1      38.257  22.265  26.138  1.00  0.00     0.202 C 
BRANCH  24  25
ATOM     25  C   UNL A   1      38.838  21.024  25.450  1.00  0.00     0.261 C 
BRANCH  25  26
ATOM     26  O   UNL A   1      39.505  20.153  26.381  1.00  0.00    -0.460 OA
BRANCH  26  27
ATOM     27  C   UNL A   1      40.834  20.015  26.183  1.00  0.00     0.338 C 
ATOM     28  O   UNL A   1      41.412  19.112  25.587  1.00  0.00    -0.246 OA
BRANCH  27  29
ATOM     29  C   UNL A   1      41.541  21.214  26.662  1.00  0.00     0.060 A 
ATOM     30  C   UNL A   1      41.475  21.501  28.031  1.00  0.00     0.016 A 
ATOM     31  C   UNL A   1      42.189  22.087  25.783  1.00  0.00     0.016 A 
ATOM     32  C   UNL A   1      42.020  22.685  28.521  1.00  0.00     0.010 A 
ATOM     33  C   UNL A   1      42.726  23.279  26.276  1.00  0.00     0.010 A 
ATOM     34  C   UNL A   1      42.616  23.598  27.642  1.00  0.00    -0.014 A 
BRANCH  34  35
ATOM     35  C   UNL A   1      43.006  24.941  28.133  1.00  0.00     0.031 A 
ATOM     36  C   UNL A   1      41.940  25.977  28.355  1.00  0.00     0.074 A 
ATOM     37  C   UNL A   1      44.290  25.225  28.407  1.00  0.00     0.049 A 
ATOM     38  N   UNL A   1      42.059  27.211  28.778  1.00  0.00    -0.248 NA
ATOM     39  C   UNL A   1      40.557  25.571  28.062  1.00  0.00     0.031 C 
ATOM     40  C   UNL A   1      45.409  24.292  28.281  1.00  0.00     0.029 A 
ATOM     41  N   UNL A   1      44.866  26.388  28.852  1.00  0.00    -0.354 N 
ATOM     42  C   UNL A   1      40.771  27.730  28.793  1.00  0.00     0.074 A 
ATOM     43  C   UNL A   1      39.889  26.687  28.314  1.00  0.00     0.031 C 
ATOM     44  C   UNL A   1      46.539  24.919  28.649  1.00  0.00     0.029 A 
ATOM     45  C   UNL A   1      46.227  26.303  29.003  1.00  0.00     0.049 A 
ATOM     46  H   UNL A   1      44.351  27.205  29.045  1.00  0.00     0.167 HD
ATOM     47  C   UNL A   1      40.357  28.962  29.174  1.00  0.00     0.031 A 
ATOM     48  C   UNL A   1      47.122  27.239  29.371  1.00  0.00     0.031 A 
ATOM     49  C   UNL A   1      41.233  30.004  29.639  1.00  0.00     0.049 A 
ATOM     50  C   UNL A   1      46.648  28.629  29.700  1.00  0.00     0.074 A 
ATOM     51  C   UNL A   1      40.904  31.274  30.081  1.00  0.00     0.029 A 
ATOM     52  N   UNL A   1      42.612  29.900  29.710  1.00  0.00    -0.354 N 
ATOM     53  N   UNL A   1      45.424  29.097  29.743  1.00  0.00    -0.248 NA
ATOM     54  C   UNL A   1      47.684  29.618  30.032  1.00  0.00     0.031 C 
ATOM     55  C   UNL A   1      42.091  31.959  30.364  1.00  0.00     0.029 A 
ATOM     56  C   UNL A   1      43.155  31.097  30.150  1.00  0.00     0.049 A 
ATOM     57  H   UNL A   1      43.131  29.094  29.482  1.00  0.00     0.167 HD
ATOM     58  C   UNL A   1      45.540  30.426  30.131  1.00  0.00     0.074 A 
ATOM     59  C   UNL A   1      46.952  30.686  30.318  1.00  0.00     0.031 C 
ATOM     60  C   UNL A   1      44.562  31.345  30.322  1.00  0.00     0.031 A 
BRANCH  47  61
ATOM     61  C   UNL A   1      38.890  29.259  29.054  1.00  0.00    -0.014 A 
ATOM     62  C   UNL A   1      38.329  29.702  27.846  1.00  0.00     0.009 A 
ATOM     63  C   UNL A   1      38.054  29.082  30.168  1.00  0.00     0.009 A 
ATOM     64  C   UNL A   1      36.966  29.999  27.768  1.00  0.00     0.001 A 
ATOM     65  C   UNL A   1      36.688  29.356  30.079  1.00  0.00     0.001 A 
ATOM     66  C   UNL A   1      36.147  29.824  28.883  1.00  0.00     0.000 A 
ENDBRANCH  47  61
BRANCH  48  67
ATOM     67  C   UNL A   1      48.565  26.898  29.445  1.00  0.00    -0.014 A 
ATOM     68  C   UNL A   1      49.116  26.397  30.634  1.00  0.00     0.009 A 
ATOM     69  C   UNL A   1      49.398  27.072  28.330  1.00  0.00     0.009 A 
ATOM     70  C   UNL A   1      50.478  26.093  30.708  1.00  0.00     0.001 A 
ATOM     71  C   UNL A   1      50.754  26.746  28.399  1.00  0.00     0.001 A 
ATOM     72  C   UNL A   1      51.293  26.262  29.590  1.00  0.00     0.000 A 
ENDBRANCH  48  67
BRANCH  60  73
ATOM     73  C   UNL A   1      44.984  32.712  30.780  1.00  0.00    -0.014 A 
ATOM     74  C   UNL A   1      45.291  33.726  29.860  1.00  0.00     0.009 A 
ATOM     75  C   UNL A   1      45.034  33.001  32.154  1.00  0.00     0.009 A 
ATOM     76  C   UNL A   1      45.667  34.995  30.308  1.00  0.00     0.001 A 
ATOM     77  C   UNL A   1      45.386  34.276  32.598  1.00  0.00     0.001 A 
ATOM     78  C   UNL A   1      45.710  35.270  31.674  1.00  0.00     0.000 A 
ENDBRANCH  60  73
ENDBRANCH  34  35
ENDBRANCH  27  29
ENDBRANCH  26  27
ENDBRANCH  25  26
ENDBRANCH  24  25
ENDBRANCH  23  24
ENDBRANCH   1  23
TORSDOF 18
ENDMDL
MODEL 3
REMARK VINA RESULT:     -10.0      3.962      8.692
REMARK SMILES COc1ccc2cc([C@@H](O)[C@H](F)C(=O)OCCOCCOC(=O)c3ccc(-c4c5nc(c(-c6ccccc6)c6ccc([nH]6)c(-c6ccccc6)c6nc(c(-c7ccccc7)c7ccc4[nH]7)C=C6)C=C5)cc3)ccc2c1
REMARK SMILES IDX 17 1 16 2 15 3 13 4 14 5 11 6 12 7 9 8 8 9 3 10 4 11 75 12
REMARK SMILES IDX 5 13 74 14 6 15 73 16 7 17 72 18 2 19 1 20 10 21 18 23 19 24
REMARK SMILES IDX 20 25 21 26 22 27 23 28 24 29 25 30 71 31 26 32 70 33 27 34
REMARK SMILES IDX 28 35 29 36 64 37 30 38 69 39 63 40 65 41 31 42 68 43 62 44
REMARK SMILES IDX 61 45 32 47 54 48 39 49 53 50 40 51 43 52 52 53 66 54 41 55
REMARK SMILES IDX 42 56 51 58 67 59 44 60 33 61 34 62 38 63 35 64 37 65 36 66
REMARK SMILES IDX 55 67 56 68 60 69 57 70 59 71 58 72 45 73 46 74 50 75 47 76
REMARK SMILES IDX 49 77 48 78
REMARK H PARENT 10 22 65 46 43 57
REMARK Flexibility Score: inf
ROOT
ATOM      1  C   UNL A   1      36.303  21.766  24.743  1.00  0.00     0.202 C 
ENDROOT
BRANCH   1   2
ATOM      2  C   UNL A   1      35.260  20.965  25.530  1.00  0.00     0.261 C 
BRANCH   2   3
ATOM      3  O   UNL A   1      34.371  20.320  24.608  1.00  0.00    -0.461 OA
BRANCH   3   4
ATOM      4  C   UNL A   1      33.039  20.593  24.718  1.00  0.00     0.343 C 
ATOM      5  O   UNL A   1      32.179  19.815  25.109  1.00  0.00    -0.249 OA
BRANCH   4   6
ATOM      6  C   UNL A   1      32.780  22.035  24.339  1.00  0.00     0.308 C 
ATOM      7  F   UNL A   1      32.016  22.115  23.202  1.00  0.00    -0.232 F 
BRANCH   6   8
ATOM      8  C   UNL A   1      32.125  22.800  25.499  1.00  0.00     0.190 C 
BRANCH   8   9
ATOM      9  C   UNL A   1      32.588  24.239  25.620  1.00  0.00    -0.015 A 
ATOM     10  C   UNL A   1      33.006  29.157  26.834  1.00  0.00     0.119 A 
ATOM     11  C   UNL A   1      31.713  28.780  27.192  1.00  0.00     0.047 A 
ATOM     12  C   UNL A   1      33.852  28.232  26.217  1.00  0.00     0.055 A 
ATOM     13  C   UNL A   1      31.285  27.470  26.971  1.00  0.00     0.012 A 
ATOM     14  C   UNL A   1      33.441  26.908  25.995  1.00  0.00    -0.015 A 
ATOM     15  C   UNL A   1      32.144  26.525  26.390  1.00  0.00    -0.018 A 
ATOM     16  C   UNL A   1      34.287  25.953  25.403  1.00  0.00     0.009 A 
ATOM     17  C   UNL A   1      31.737  25.198  26.202  1.00  0.00     0.015 A 
ATOM     18  C   UNL A   1      33.866  24.633  25.217  1.00  0.00     0.007 A 
BRANCH  10  19
ATOM     19  O   UNL A   1      33.532  30.408  27.012  1.00  0.00    -0.497 OA
ATOM     20  C   UNL A   1      32.576  31.462  27.083  1.00  0.00     0.278 C 
ENDBRANCH  10  19
ENDBRANCH   8   9
BRANCH   8  21
ATOM     21  O   UNL A   1      30.694  22.821  25.407  1.00  0.00    -0.385 OA
ATOM     22  H   UNL A   1      30.358  23.656  25.770  1.00  0.00     0.211 HD
ENDBRANCH   8  21
ENDBRANCH   6   8
ENDBRANCH   4   6
ENDBRANCH   3   4
ENDBRANCH   2   3
ENDBRANCH   1   2
BRANCH   1  23
ATOM     23  O   UNL A   1      37.369  20.988  24.194  1.00  0.00    -0.374 OA
BRANCH  23  24
ATOM     24  C   UNL A   1      37.879  19.926  25.002  1.00  0.00     0.202 C 
BRANCH  24  25
ATOM     25  C   UNL A   1      39.238  20.187  25.661  1.00  0.00     0.261 C 
BRANCH  25  26
ATOM     26  O   UNL A   1      40.091  19.029  25.617  1.00  0.00    -0.460 OA
BRANCH  26  27
ATOM     27  C   UNL A   1      41.358  19.236  26.037  1.00  0.00     0.338 C 
ATOM     28  O   UNL A   1      42.312  18.470  25.943  1.00  0.00    -0.246 OA
BRANCH  27  29
ATOM     29  C   UNL A   1      41.509  20.620  26.516  1.00  0.00     0.060 A 
ATOM     30  C   UNL A   1      41.914  21.586  25.588  1.00  0.00     0.016 A 
ATOM     31  C   UNL A   1      41.339  20.954  27.863  1.00  0.00     0.016 A 
ATOM     32  C   UNL A   1      42.192  22.884  26.010  1.00  0.00     0.010 A 
ATOM     33  C   UNL A   1      41.627  22.256  28.286  1.00  0.00     0.010 A 
ATOM     34  C   UNL A   1      42.085  23.217  27.366  1.00  0.00    -0.014 A 
BRANCH  34  35
ATOM     35  C   UNL A   1      42.578  24.532  27.839  1.00  0.00     0.031 A 
ATOM     36  C   UNL A   1      41.588  25.627  28.123  1.00  0.00     0.074 A 
ATOM     37  C   UNL A   1      43.889  24.740  28.041  1.00  0.00     0.049 A 
ATOM     38  N   UNL A   1      41.801  26.849  28.543  1.00  0.00    -0.248 NA
ATOM     39  C   UNL A   1      40.169  25.302  27.906  1.00  0.00     0.031 C 
ATOM     40  C   UNL A   1      44.945  23.746  27.851  1.00  0.00     0.029 A 
ATOM     41  N   UNL A   1      44.556  25.865  28.458  1.00  0.00    -0.354 N 
ATOM     42  C   UNL A   1      40.547  27.440  28.632  1.00  0.00     0.074 A 
ATOM     43  C   UNL A   1      39.581  26.453  28.199  1.00  0.00     0.031 C 
ATOM     44  C   UNL A   1      46.127  24.305  28.157  1.00  0.00     0.029 A 
ATOM     45  C   UNL A   1      45.916  25.702  28.532  1.00  0.00     0.049 A 
ATOM     46  H   UNL A   1      44.100  26.710  28.682  1.00  0.00     0.167 HD
ATOM     47  C   UNL A   1      40.227  28.691  29.039  1.00  0.00     0.031 A 
ATOM     48  C   UNL A   1      46.882  26.583  28.854  1.00  0.00     0.031 A 
ATOM     49  C   UNL A   1      41.185  29.679  29.458  1.00  0.00     0.049 A 
ATOM     50  C   UNL A   1      46.508  27.995  29.213  1.00  0.00     0.074 A 
ATOM     51  C   UNL A   1      40.955  30.962  29.922  1.00  0.00     0.029 A 
ATOM     52  N   UNL A   1      42.558  29.496  29.452  1.00  0.00    -0.354 N 
ATOM     53  N   UNL A   1      45.317  28.533  29.326  1.00  0.00    -0.248 NA
ATOM     54  C   UNL A   1      47.616  28.922  29.490  1.00  0.00     0.031 C 
ATOM     55  C   UNL A   1      42.194  31.577  30.140  1.00  0.00     0.029 A 
ATOM     56  C   UNL A   1      43.192  30.656  29.865  1.00  0.00     0.049 A 
ATOM     57  H   UNL A   1      43.017  28.663  29.193  1.00  0.00     0.167 HD
ATOM     58  C   UNL A   1      45.530  29.850  29.711  1.00  0.00     0.074 A 
ATOM     59  C   UNL A   1      46.963  30.028  29.820  1.00  0.00     0.031 C 
ATOM     60  C   UNL A   1      44.619  30.823  29.959  1.00  0.00     0.031 A 
BRANCH  47  61
ATOM     61  C   UNL A   1      38.775  29.073  29.002  1.00  0.00    -0.014 A 
ATOM     62  C   UNL A   1      38.188  29.611  27.846  1.00  0.00     0.009 A 
ATOM     63  C   UNL A   1      37.978  28.880  30.141  1.00  0.00     0.009 A 
ATOM     64  C   UNL A   1      36.842  29.985  27.846  1.00  0.00     0.001 A 
ATOM     65  C   UNL A   1      36.627  29.230  30.130  1.00  0.00     0.001 A 
ATOM     66  C   UNL A   1      36.063  29.792  28.986  1.00  0.00     0.000 A 
ENDBRANCH  47  61
BRANCH  48  67
ATOM     67  C   UNL A   1      48.304  26.159  28.846  1.00  0.00    -0.014 A 
ATOM     68  C   UNL A   1      48.904  25.665  30.014  1.00  0.00     0.009 A 
ATOM     69  C   UNL A   1      49.070  26.249  27.674  1.00  0.00     0.009 A 
ATOM     70  C   UNL A   1      50.248  25.283  30.010  1.00  0.00     0.001 A 
ATOM     71  C   UNL A   1      50.407  25.845  27.667  1.00  0.00     0.001 A 
ATOM     72  C   UNL A   1      50.996  25.368  28.837  1.00  0.00     0.000 A 
ENDBRANCH  48  67
BRANCH  60  73
ATOM     73  C   UNL A   1      45.144  32.160  30.398  1.00  0.00    -0.014 A 
ATOM     74  C   UNL A   1      45.387  32.439  31.752  1.00  0.00     0.009 A 
ATOM     75  C   UNL A   1      45.438  33.141  29.437  1.00  0.00     0.009 A 
ATOM     76  C   UNL A   1      45.889  33.684  32.137  1.00  0.00     0.001 A 
ATOM     77  C   UNL A   1      45.963  34.376  29.823  1.00  0.00     0.001 A 
ATOM     78  C   UNL A   1      46.180  34.649  31.173  1.00  0.00     0.000 A 
ENDBRANCH  60  73
ENDBRANCH  34  35
ENDBRANCH  27  29
ENDBRANCH  26  27
ENDBRANCH  25  26
ENDBRANCH  24  25
ENDBRANCH  23  24
ENDBRANCH   1  23
TORSDOF 18
ENDMDL
