MODEL 1
REMARK VINA RESULT:      -9.0      0.000      0.000
REMARK SMILES C#CC[N@@H+](CC(=O)NC(=O)NC)CC(=O)OCCOCCOC(=O)c1ccc(-c2c3nc(c(-c4ccccc4)c4ccc([nH]4)c(-c4ccccc4)c4nc(c(-c5ccccc5)c5ccc2[nH]5)C=C4)C=C3)cc1
REMARK SMILES IDX 18 1 17 2 16 3 14 4 15 5 13 6 4 7 3 9 2 10 1 11 5 12 6 13
REMARK SMILES IDX 7 14 8 15 9 16 10 18 11 19 12 20 19 22 20 23 21 24 22 25
REMARK SMILES IDX 23 26 24 27 25 28 26 29 72 30 27 31 71 32 28 33 29 34 30 35
REMARK SMILES IDX 65 36 31 37 70 38 64 39 66 40 32 41 69 42 63 43 62 44 33 46
REMARK SMILES IDX 55 47 40 48 54 49 41 50 44 51 53 52 67 53 42 54 43 55 52 57
REMARK SMILES IDX 68 58 45 59 34 60 35 61 39 62 36 63 38 64 37 65 56 66 57 67
REMARK SMILES IDX 61 68 58 69 60 70 59 71 46 72 47 73 51 74 48 75 50 76 49 77
REMARK H PARENT 4 8 8 17 11 21 66 45 44 56
REMARK Flexibility Score: inf
ROOT
ATOM      1  C   UNL A   1      35.250  20.447  24.929  1.00  0.00     0.202 C 
ENDROOT
BRANCH   1   2
ATOM      2  C   UNL A   1      33.995  20.733  25.755  1.00  0.00     0.261 C 
BRANCH   2   3
ATOM      3  O   UNL A   1      33.548  22.084  25.535  1.00  0.00    -0.459 OA
BRANCH   3   4
ATOM      4  C   UNL A   1      33.518  22.900  26.617  1.00  0.00     0.361 C 
ATOM      5  O   UNL A   1      34.247  22.786  27.596  1.00  0.00    -0.245 OA
BRANCH   4   6
ATOM      6  C   UNL A   1      32.414  23.944  26.539  1.00  0.00     0.387 C 
BRANCH   6   7
ATOM      7  N   UNL A   1      32.498  24.944  25.460  1.00  0.00    -0.308 N 
ATOM      8  H   UNL A   1      32.441  25.728  26.112  1.00  0.00     0.349 HD
BRANCH   7   9
ATOM      9  C   UNL A   1      33.763  25.505  25.022  1.00  0.00     0.354 C 
BRANCH   9  10
ATOM     10  C   UNL A   1      33.757  27.016  25.188  1.00  0.00    -0.047 C 
ATOM     11  C   UNL A   1      33.753  28.312  25.331  1.00  0.00     0.010 C 
ENDBRANCH   9  10
ENDBRANCH   7   9
BRANCH   7  12
ATOM     12  C   UNL A   1      31.332  25.089  24.602  1.00  0.00     0.365 C 
BRANCH  12  13
ATOM     13  C   UNL A   1      31.369  24.270  23.326  1.00  0.00     0.283 C 
ATOM     14  O   UNL A   1      31.052  23.073  23.334  1.00  0.00    -0.268 OA
ATOM     15  N   UNL A   1      31.770  24.787  22.107  1.00  0.00    -0.273 N 
ATOM     16  C   UNL A   1      32.298  25.904  21.521  1.00  0.00     0.321 C 
ATOM     17  H   UNL A   1      31.624  24.107  21.412  1.00  0.00     0.175 HD
ATOM     18  O   UNL A   1      33.203  25.777  20.695  1.00  0.00    -0.248 OA
ATOM     19  N   UNL A   1      31.880  27.146  21.808  1.00  0.00    -0.341 N 
ATOM     20  C   UNL A   1      30.744  27.626  22.545  1.00  0.00     0.144 C 
ATOM     21  H   UNL A   1      32.457  27.857  21.449  1.00  0.00     0.165 HD
ENDBRANCH  12  13
ENDBRANCH   7  12
ENDBRANCH   6   7
ENDBRANCH   4   6
ENDBRANCH   3   4
ENDBRANCH   2   3
ENDBRANCH   1   2
BRANCH   1  22
ATOM     22  O   UNL A   1      36.454  21.027  25.434  1.00  0.00    -0.374 OA
BRANCH  22  23
ATOM     23  C   UNL A   1      37.668  20.485  24.915  1.00  0.00     0.202 C 
BRANCH  23  24
ATOM     24  C   UNL A   1      38.945  20.966  25.618  1.00  0.00     0.261 C 
BRANCH  24  25
ATOM     25  O   UNL A   1      39.680  19.866  26.191  1.00  0.00    -0.460 OA
BRANCH  25  26
ATOM     26  C   UNL A   1      41.020  19.894  25.969  1.00  0.00     0.338 C 
ATOM     27  O   UNL A   1      41.673  19.136  25.279  1.00  0.00    -0.246 OA
BRANCH  26  28
ATOM     28  C   UNL A   1      41.588  21.132  26.542  1.00  0.00     0.060 A 
ATOM     29  C   UNL A   1      41.533  21.288  27.929  1.00  0.00     0.016 A 
ATOM     30  C   UNL A   1      42.117  22.146  25.744  1.00  0.00     0.016 A 
ATOM     31  C   UNL A   1      41.966  22.478  28.515  1.00  0.00     0.010 A 
ATOM     32  C   UNL A   1      42.631  23.303  26.341  1.00  0.00     0.010 A 
ATOM     33  C   UNL A   1      42.492  23.512  27.726  1.00  0.00    -0.014 A 
BRANCH  33  34
ATOM     34  C   UNL A   1      42.690  24.865  28.323  1.00  0.00     0.031 A 
ATOM     35  C   UNL A   1      44.084  25.290  28.728  1.00  0.00     0.074 A 
ATOM     36  C   UNL A   1      41.677  25.746  28.433  1.00  0.00     0.049 A 
ATOM     37  N   UNL A   1      44.497  26.438  29.210  1.00  0.00    -0.248 NA
ATOM     38  C   UNL A   1      45.153  24.289  28.583  1.00  0.00     0.031 C 
ATOM     39  C   UNL A   1      40.283  25.492  28.070  1.00  0.00     0.029 A 
ATOM     40  N   UNL A   1      41.673  27.052  28.870  1.00  0.00    -0.354 N 
ATOM     41  C   UNL A   1      45.861  26.285  29.431  1.00  0.00     0.074 A 
ATOM     42  C   UNL A   1      46.196  24.921  29.095  1.00  0.00     0.031 C 
ATOM     43  C   UNL A   1      39.567  26.613  28.268  1.00  0.00     0.029 A 
ATOM     44  C   UNL A   1      40.440  27.654  28.808  1.00  0.00     0.049 A 
ATOM     45  H   UNL A   1      42.481  27.511  29.198  1.00  0.00     0.167 HD
ATOM     46  C   UNL A   1      46.770  27.199  29.846  1.00  0.00     0.031 A 
ATOM     47  C   UNL A   1      40.053  28.900  29.149  1.00  0.00     0.031 A 
ATOM     48  C   UNL A   1      46.461  28.563  30.172  1.00  0.00     0.049 A 
ATOM     49  C   UNL A   1      41.070  29.883  29.670  1.00  0.00     0.074 A 
ATOM     50  C   UNL A   1      47.323  29.569  30.573  1.00  0.00     0.029 A 
ATOM     51  N   UNL A   1      45.190  29.113  30.138  1.00  0.00    -0.354 N 
ATOM     52  N   UNL A   1      42.364  29.733  29.828  1.00  0.00    -0.248 NA
ATOM     53  C   UNL A   1      40.572  31.214  30.049  1.00  0.00     0.031 C 
ATOM     54  C   UNL A   1      46.564  30.710  30.846  1.00  0.00     0.029 A 
ATOM     55  C   UNL A   1      45.240  30.435  30.544  1.00  0.00     0.049 A 
ATOM     56  H   UNL A   1      44.373  28.635  29.865  1.00  0.00     0.167 HD
ATOM     57  C   UNL A   1      42.834  30.956  30.293  1.00  0.00     0.074 A 
ATOM     58  C   UNL A   1      41.694  31.842  30.374  1.00  0.00     0.031 C 
ATOM     59  C   UNL A   1      44.101  31.312  30.621  1.00  0.00     0.031 A 
BRANCH  46  60
ATOM     60  C   UNL A   1      48.196  26.738  29.988  1.00  0.00    -0.014 A 
ATOM     61  C   UNL A   1      49.108  26.836  28.924  1.00  0.00     0.009 A 
ATOM     62  C   UNL A   1      48.640  26.224  31.217  1.00  0.00     0.009 A 
ATOM     63  C   UNL A   1      50.422  26.390  29.075  1.00  0.00     0.001 A 
ATOM     64  C   UNL A   1      49.964  25.811  31.375  1.00  0.00     0.001 A 
ATOM     65  C   UNL A   1      50.851  25.885  30.302  1.00  0.00     0.000 A 
ENDBRANCH  46  60
BRANCH  47  66
ATOM     66  C   UNL A   1      38.624  29.301  29.023  1.00  0.00    -0.014 A 
ATOM     67  C   UNL A   1      37.753  29.230  30.123  1.00  0.00     0.009 A 
ATOM     68  C   UNL A   1      38.113  29.721  27.785  1.00  0.00     0.009 A 
ATOM     69  C   UNL A   1      36.399  29.542  29.977  1.00  0.00     0.001 A 
ATOM     70  C   UNL A   1      36.765  30.064  27.649  1.00  0.00     0.001 A 
ATOM     71  C   UNL A   1      35.908  29.963  28.743  1.00  0.00     0.000 A 
ENDBRANCH  47  66
BRANCH  59  72
ATOM     72  C   UNL A   1      44.336  32.732  31.062  1.00  0.00    -0.014 A 
ATOM     73  C   UNL A   1      44.600  33.754  30.137  1.00  0.00     0.009 A 
ATOM     74  C   UNL A   1      44.241  33.060  32.424  1.00  0.00     0.009 A 
ATOM     75  C   UNL A   1      44.798  35.067  30.572  1.00  0.00     0.001 A 
ATOM     76  C   UNL A   1      44.407  34.377  32.852  1.00  0.00     0.001 A 
ATOM     77  C   UNL A   1      44.695  35.378  31.927  1.00  0.00     0.000 A 
ENDBRANCH  59  72
ENDBRANCH  33  34
ENDBRANCH  26  28
ENDBRANCH  25  26
ENDBRANCH  24  25
ENDBRANCH  23  24
ENDBRANCH  22  23
ENDBRANCH   1  22
TORSDOF 19
ENDMDL
MODEL 2
REMARK VINA RESULT:      -9.0      2.155      7.600
REMARK SMILES C#CC[N@@H+](CC(=O)NC(=O)NC)CC(=O)OCCOCCOC(=O)c1ccc(-c2c3nc(c(-c4ccccc4)c4ccc([nH]4)c(-c4ccccc4)c4nc(c(-c5ccccc5)c5ccc2[nH]5)C=C4)C=C3)cc1
REMARK SMILES IDX 18 1 17 2 16 3 14 4 15 5 13 6 4 7 3 9 2 10 1 11 5 12 6 13
REMARK SMILES IDX 7 14 8 15 9 16 10 18 11 19 12 20 19 22 20 23 21 24 22 25
REMARK SMILES IDX 23 26 24 27 25 28 26 29 72 30 27 31 71 32 28 33 29 34 30 35
REMARK SMILES IDX 65 36 31 37 70 38 64 39 66 40 32 41 69 42 63 43 62 44 33 46
REMARK SMILES IDX 55 47 40 48 54 49 41 50 44 51 53 52 67 53 42 54 43 55 52 57
REMARK SMILES IDX 68 58 45 59 34 60 35 61 39 62 36 63 38 64 37 65 56 66 57 67
REMARK SMILES IDX 61 68 58 69 60 70 59 71 46 72 47 73 51 74 48 75 50 76 49 77
REMARK H PARENT 4 8 8 17 11 21 66 45 44 56
REMARK Flexibility Score: inf
ROOT
ATOM      1  C   UNL A   1      33.063  27.267  25.921  1.00  0.00     0.202 C 
ENDROOT
BRANCH   1   2
ATOM      2  C   UNL A   1      31.768  26.457  25.984  1.00  0.00     0.261 C 
BRANCH   2   3
ATOM      3  O   UNL A   1      31.851  25.459  27.018  1.00  0.00    -0.459 OA
BRANCH   3   4
ATOM      4  C   UNL A   1      31.515  24.193  26.671  1.00  0.00     0.361 C 
ATOM      5  O   UNL A   1      31.091  23.345  27.449  1.00  0.00    -0.245 OA
BRANCH   4   6
ATOM      6  C   UNL A   1      31.796  23.888  25.207  1.00  0.00     0.387 C 
BRANCH   6   7
ATOM      7  N   UNL A   1      33.040  23.167  24.887  1.00  0.00    -0.308 N 
ATOM      8  H   UNL A   1      32.758  22.340  25.415  1.00  0.00     0.349 HD
BRANCH   7   9
ATOM      9  C   UNL A   1      33.152  22.292  23.734  1.00  0.00     0.354 C 
BRANCH   9  10
ATOM     10  C   UNL A   1      32.766  20.871  24.109  1.00  0.00    -0.047 C 
ATOM     11  C   UNL A   1      32.435  19.651  24.431  1.00  0.00     0.010 C 
ENDBRANCH   9  10
ENDBRANCH   7   9
BRANCH   7  12
ATOM     12  C   UNL A   1      34.257  23.626  25.539  1.00  0.00     0.365 C 
BRANCH  12  13
ATOM     13  C   UNL A   1      34.967  22.582  26.380  1.00  0.00     0.283 C 
ATOM     14  O   UNL A   1      34.347  21.926  27.228  1.00  0.00    -0.268 OA
ATOM     15  N   UNL A   1      36.321  22.319  26.273  1.00  0.00    -0.273 N 
ATOM     16  C   UNL A   1      37.466  22.747  25.661  1.00  0.00     0.321 C 
ATOM     17  H   UNL A   1      36.539  21.547  26.842  1.00  0.00     0.175 HD
ATOM     18  O   UNL A   1      38.501  22.842  26.324  1.00  0.00    -0.248 OA
ATOM     19  N   UNL A   1      37.520  23.077  24.362  1.00  0.00    -0.341 N 
ATOM     20  C   UNL A   1      36.583  22.894  23.289  1.00  0.00     0.144 C 
ATOM     21  H   UNL A   1      38.353  23.529  24.097  1.00  0.00     0.165 HD
ENDBRANCH  12  13
ENDBRANCH   7  12
ENDBRANCH   6   7
ENDBRANCH   4   6
ENDBRANCH   3   4
ENDBRANCH   2   3
ENDBRANCH   1   2
BRANCH   1  22
ATOM     22  O   UNL A   1      32.969  28.510  25.222  1.00  0.00    -0.374 OA
BRANCH  22  23
ATOM     23  C   UNL A   1      32.295  29.560  25.913  1.00  0.00     0.202 C 
BRANCH  23  24
ATOM     24  C   UNL A   1      32.922  29.960  27.257  1.00  0.00     0.261 C 
BRANCH  24  25
ATOM     25  O   UNL A   1      34.156  30.684  27.070  1.00  0.00    -0.460 OA
BRANCH  25  26
ATOM     26  C   UNL A   1      34.765  31.082  28.217  1.00  0.00     0.338 C 
ATOM     27  O   UNL A   1      34.302  31.779  29.098  1.00  0.00    -0.246 OA
BRANCH  26  28
ATOM     28  C   UNL A   1      36.054  30.374  28.362  1.00  0.00     0.060 A 
ATOM     29  C   UNL A   1      36.329  29.777  29.595  1.00  0.00     0.016 A 
ATOM     30  C   UNL A   1      37.000  30.334  27.338  1.00  0.00     0.016 A 
ATOM     31  C   UNL A   1      37.570  29.179  29.819  1.00  0.00     0.010 A 
ATOM     32  C   UNL A   1      38.209  29.657  27.537  1.00  0.00     0.010 A 
ATOM     33  C   UNL A   1      38.537  29.139  28.803  1.00  0.00    -0.014 A 
BRANCH  33  34
ATOM     34  C   UNL A   1      39.938  28.751  29.137  1.00  0.00     0.031 A 
ATOM     35  C   UNL A   1      40.435  27.381  28.732  1.00  0.00     0.074 A 
ATOM     36  C   UNL A   1      40.795  29.616  29.713  1.00  0.00     0.049 A 
ATOM     37  N   UNL A   1      41.629  26.855  28.865  1.00  0.00    -0.248 NA
ATOM     38  C   UNL A   1      39.458  26.478  28.102  1.00  0.00     0.031 C 
ATOM     39  C   UNL A   1      40.472  30.976  30.144  1.00  0.00     0.029 A 
ATOM     40  N   UNL A   1      42.131  29.479  30.018  1.00  0.00    -0.354 N 
ATOM     41  C   UNL A   1      41.535  25.567  28.350  1.00  0.00     0.074 A 
ATOM     42  C   UNL A   1      40.159  25.365  27.960  1.00  0.00     0.031 C 
ATOM     43  C   UNL A   1      41.583  31.557  30.628  1.00  0.00     0.029 A 
ATOM     44  C   UNL A   1      42.689  30.603  30.577  1.00  0.00     0.049 A 
ATOM     45  H   UNL A   1      42.638  28.652  29.851  1.00  0.00     0.167 HD
ATOM     46  C   UNL A   1      42.505  24.638  28.180  1.00  0.00     0.031 A 
ATOM     47  C   UNL A   1      43.947  30.839  31.004  1.00  0.00     0.031 A 
ATOM     48  C   UNL A   1      43.881  24.824  28.548  1.00  0.00     0.049 A 
ATOM     49  C   UNL A   1      44.998  29.768  30.864  1.00  0.00     0.074 A 
ATOM     50  C   UNL A   1      44.941  23.949  28.386  1.00  0.00     0.029 A 
ATOM     51  N   UNL A   1      44.389  25.962  29.152  1.00  0.00    -0.354 N 
ATOM     52  N   UNL A   1      44.899  28.573  30.331  1.00  0.00    -0.248 NA
ATOM     53  C   UNL A   1      46.340  30.084  31.376  1.00  0.00     0.031 C 
ATOM     54  C   UNL A   1      46.077  24.530  28.954  1.00  0.00     0.029 A 
ATOM     55  C   UNL A   1      45.740  25.797  29.402  1.00  0.00     0.049 A 
ATOM     56  H   UNL A   1      43.867  26.767  29.372  1.00  0.00     0.167 HD
ATOM     57  C   UNL A   1      46.169  28.012  30.417  1.00  0.00     0.074 A 
ATOM     58  C   UNL A   1      47.024  29.001  31.034  1.00  0.00     0.031 C 
ATOM     59  C   UNL A   1      46.587  26.786  30.016  1.00  0.00     0.031 A 
BRANCH  46  60
ATOM     60  C   UNL A   1      42.099  23.318  27.582  1.00  0.00    -0.014 A 
ATOM     61  C   UNL A   1      42.230  23.066  26.206  1.00  0.00     0.009 A 
ATOM     62  C   UNL A   1      41.604  22.301  28.413  1.00  0.00     0.009 A 
ATOM     63  C   UNL A   1      41.835  21.839  25.671  1.00  0.00     0.001 A 
ATOM     64  C   UNL A   1      41.242  21.063  27.880  1.00  0.00     0.001 A 
ATOM     65  C   UNL A   1      41.348  20.837  26.509  1.00  0.00     0.000 A 
ENDBRANCH  46  60
BRANCH  47  66
ATOM     66  C   UNL A   1      44.294  32.149  31.621  1.00  0.00    -0.014 A 
ATOM     67  C   UNL A   1      44.792  33.207  30.842  1.00  0.00     0.009 A 
ATOM     68  C   UNL A   1      44.166  32.336  33.007  1.00  0.00     0.009 A 
ATOM     69  C   UNL A   1      45.180  34.408  31.441  1.00  0.00     0.001 A 
ATOM     70  C   UNL A   1      44.523  33.549  33.599  1.00  0.00     0.001 A 
ATOM     71  C   UNL A   1      45.041  34.580  32.817  1.00  0.00     0.000 A 
ENDBRANCH  47  66
BRANCH  59  72
ATOM     72  C   UNL A   1      48.044  26.452  30.194  1.00  0.00    -0.014 A 
ATOM     73  C   UNL A   1      48.516  25.818  31.353  1.00  0.00     0.009 A 
ATOM     74  C   UNL A   1      48.950  26.733  29.158  1.00  0.00     0.009 A 
ATOM     75  C   UNL A   1      49.871  25.505  31.485  1.00  0.00     0.001 A 
ATOM     76  C   UNL A   1      50.297  26.390  29.279  1.00  0.00     0.001 A 
ATOM     77  C   UNL A   1      50.759  25.785  30.447  1.00  0.00     0.000 A 
ENDBRANCH  59  72
ENDBRANCH  33  34
ENDBRANCH  26  28
ENDBRANCH  25  26
ENDBRANCH  24  25
ENDBRANCH  23  24
ENDBRANCH  22  23
ENDBRANCH   1  22
TORSDOF 19
ENDMDL
MODEL 3
REMARK VINA RESULT:      -8.9      2.444      7.712
REMARK SMILES C#CC[N@@H+](CC(=O)NC(=O)NC)CC(=O)OCCOCCOC(=O)c1ccc(-c2c3nc(c(-c4ccccc4)c4ccc([nH]4)c(-c4ccccc4)c4nc(c(-c5ccccc5)c5ccc2[nH]5)C=C4)C=C3)cc1
REMARK SMILES IDX 18 1 17 2 16 3 14 4 15 5 13 6 4 7 3 9 2 10 1 11 5 12 6 13
REMARK SMILES IDX 7 14 8 15 9 16 10 18 11 19 12 20 19 22 20 23 21 24 22 25
REMARK SMILES IDX 23 26 24 27 25 28 26 29 72 30 27 31 71 32 28 33 29 34 30 35
REMARK SMILES IDX 65 36 31 37 70 38 64 39 66 40 32 41 69 42 63 43 62 44 33 46
REMARK SMILES IDX 55 47 40 48 54 49 41 50 44 51 53 52 67 53 42 54 43 55 52 57
REMARK SMILES IDX 68 58 45 59 34 60 35 61 39 62 36 63 38 64 37 65 56 66 57 67
REMARK SMILES IDX 61 68 58 69 60 70 59 71 46 72 47 73 51 74 48 75 50 76 49 77
REMARK H PARENT 4 8 8 17 11 21 66 45 44 56
REMARK Flexibility Score: inf
ROOT
ATOM      1  C   UNL A   1      33.311  27.043  25.761  1.00  0.00     0.202 C 
ENDROOT
BRANCH   1   2
ATOM      2  C   UNL A   1      32.006  26.248  25.698  1.00  0.00     0.261 C 
BRANCH   2   3
ATOM      3  O   UNL A   1      31.873  25.410  26.861  1.00  0.00    -0.459 OA
BRANCH   3   4
ATOM      4  C   UNL A   1      31.545  24.113  26.643  1.00  0.00     0.361 C 
ATOM      5  O   UNL A   1      31.185  23.329  27.514  1.00  0.00    -0.245 OA
BRANCH   4   6
ATOM      6  C   UNL A   1      31.749  23.688  25.196  1.00  0.00     0.387 C 
BRANCH   6   7
ATOM      7  N   UNL A   1      32.973  22.937  24.872  1.00  0.00    -0.308 N 
ATOM      8  H   UNL A   1      32.650  22.099  25.358  1.00  0.00     0.349 HD
BRANCH   7   9
ATOM      9  C   UNL A   1      33.081  22.109  23.685  1.00  0.00     0.354 C 
BRANCH   9  10
ATOM     10  C   UNL A   1      32.763  20.661  24.019  1.00  0.00    -0.047 C 
ATOM     11  C   UNL A   1      32.490  19.418  24.305  1.00  0.00     0.010 C 
ENDBRANCH   9  10
ENDBRANCH   7   9
BRANCH   7  12
ATOM     12  C   UNL A   1      34.191  23.324  25.570  1.00  0.00     0.365 C 
BRANCH  12  13
ATOM     13  C   UNL A   1      34.904  22.194  26.289  1.00  0.00     0.283 C 
ATOM     14  O   UNL A   1      34.284  21.439  27.050  1.00  0.00    -0.268 OA
ATOM     15  N   UNL A   1      36.260  21.955  26.161  1.00  0.00    -0.273 N 
ATOM     16  C   UNL A   1      37.406  22.459  25.611  1.00  0.00     0.321 C 
ATOM     17  H   UNL A   1      36.481  21.124  26.639  1.00  0.00     0.175 HD
ATOM     18  O   UNL A   1      38.436  22.484  26.288  1.00  0.00    -0.248 OA
ATOM     19  N   UNL A   1      37.466  22.939  24.361  1.00  0.00    -0.341 N 
ATOM     20  C   UNL A   1      36.537  22.874  23.266  1.00  0.00     0.144 C 
ATOM     21  H   UNL A   1      38.297  23.424  24.155  1.00  0.00     0.165 HD
ENDBRANCH  12  13
ENDBRANCH   7  12
ENDBRANCH   6   7
ENDBRANCH   4   6
ENDBRANCH   3   4
ENDBRANCH   2   3
ENDBRANCH   1   2
BRANCH   1  22
ATOM     22  O   UNL A   1      33.237  28.373  25.245  1.00  0.00    -0.374 OA
BRANCH  22  23
ATOM     23  C   UNL A   1      32.358  29.259  25.936  1.00  0.00     0.202 C 
BRANCH  23  24
ATOM     24  C   UNL A   1      32.904  29.812  27.261  1.00  0.00     0.261 C 
BRANCH  24  25
ATOM     25  O   UNL A   1      33.862  30.867  27.039  1.00  0.00    -0.460 OA
BRANCH  25  26
ATOM     26  C   UNL A   1      34.523  31.284  28.150  1.00  0.00     0.338 C 
ATOM     27  O   UNL A   1      34.128  32.058  29.000  1.00  0.00    -0.246 OA
BRANCH  26  28
ATOM     28  C   UNL A   1      35.763  30.497  28.310  1.00  0.00     0.060 A 
ATOM     29  C   UNL A   1      35.972  29.861  29.536  1.00  0.00     0.016 A 
ATOM     30  C   UNL A   1      36.730  30.421  27.308  1.00  0.00     0.016 A 
ATOM     31  C   UNL A   1      37.170  29.186  29.777  1.00  0.00     0.010 A 
ATOM     32  C   UNL A   1      37.892  29.669  27.520  1.00  0.00     0.010 A 
ATOM     33  C   UNL A   1      38.157  29.108  28.782  1.00  0.00    -0.014 A 
BRANCH  33  34
ATOM     34  C   UNL A   1      39.525  28.630  29.140  1.00  0.00     0.031 A 
ATOM     35  C   UNL A   1      40.375  29.470  30.066  1.00  0.00     0.074 A 
ATOM     36  C   UNL A   1      39.988  27.434  28.728  1.00  0.00     0.049 A 
ATOM     37  N   UNL A   1      41.566  29.223  30.557  1.00  0.00    -0.248 NA
ATOM     38  C   UNL A   1      39.819  30.766  30.489  1.00  0.00     0.031 C 
ATOM     39  C   UNL A   1      39.280  26.503  27.849  1.00  0.00     0.029 A 
ATOM     40  N   UNL A   1      41.168  26.786  29.016  1.00  0.00    -0.354 N 
ATOM     41  C   UNL A   1      41.895  30.332  31.328  1.00  0.00     0.074 A 
ATOM     42  C   UNL A   1      40.814  31.279  31.192  1.00  0.00     0.031 C 
ATOM     43  C   UNL A   1      40.025  25.394  27.695  1.00  0.00     0.029 A 
ATOM     44  C   UNL A   1      41.278  25.548  28.432  1.00  0.00     0.049 A 
ATOM     45  H   UNL A   1      41.869  27.177  29.587  1.00  0.00     0.167 HD
ATOM     46  C   UNL A   1      42.980  30.541  32.110  1.00  0.00     0.031 A 
ATOM     47  C   UNL A   1      42.274  24.639  28.480  1.00  0.00     0.031 A 
ATOM     48  C   UNL A   1      44.059  29.606  32.270  1.00  0.00     0.049 A 
ATOM     49  C   UNL A   1      43.503  24.920  29.306  1.00  0.00     0.074 A 
ATOM     50  C   UNL A   1      45.186  29.721  33.065  1.00  0.00     0.029 A 
ATOM     51  N   UNL A   1      44.147  28.385  31.622  1.00  0.00    -0.354 N 
ATOM     52  N   UNL A   1      43.774  25.955  30.065  1.00  0.00    -0.248 NA
ATOM     53  C   UNL A   1      44.561  23.898  29.290  1.00  0.00     0.031 C 
ATOM     54  C   UNL A   1      45.989  28.599  32.847  1.00  0.00     0.029 A 
ATOM     55  C   UNL A   1      45.327  27.752  31.973  1.00  0.00     0.049 A 
ATOM     56  H   UNL A   1      43.472  28.022  31.005  1.00  0.00     0.167 HD
ATOM     57  C   UNL A   1      45.014  25.693  30.638  1.00  0.00     0.074 A 
ATOM     58  C   UNL A   1      45.434  24.396  30.154  1.00  0.00     0.031 C 
ATOM     59  C   UNL A   1      45.738  26.460  31.490  1.00  0.00     0.031 A 
BRANCH  46  60
ATOM     60  C   UNL A   1      43.060  31.853  32.842  1.00  0.00    -0.014 A 
ATOM     61  C   UNL A   1      43.523  33.019  32.209  1.00  0.00     0.009 A 
ATOM     62  C   UNL A   1      42.641  31.930  34.180  1.00  0.00     0.009 A 
ATOM     63  C   UNL A   1      43.602  34.222  32.912  1.00  0.00     0.001 A 
ATOM     64  C   UNL A   1      42.688  33.142  34.870  1.00  0.00     0.001 A 
ATOM     65  C   UNL A   1      43.178  34.284  34.239  1.00  0.00     0.000 A 
ENDBRANCH  46  60
BRANCH  47  66
ATOM     66  C   UNL A   1      42.166  23.368  27.711  1.00  0.00    -0.014 A 
ATOM     67  C   UNL A   1      42.639  23.278  26.392  1.00  0.00     0.009 A 
ATOM     68  C   UNL A   1      41.548  22.244  28.284  1.00  0.00     0.009 A 
ATOM     69  C   UNL A   1      42.469  22.102  25.656  1.00  0.00     0.001 A 
ATOM     70  C   UNL A   1      41.410  21.060  27.558  1.00  0.00     0.001 A 
ATOM     71  C   UNL A   1      41.860  20.994  26.241  1.00  0.00     0.000 A 
ENDBRANCH  47  66
BRANCH  59  72
ATOM     72  C   UNL A   1      47.045  25.905  31.991  1.00  0.00    -0.014 A 
ATOM     73  C   UNL A   1      48.241  26.088  31.282  1.00  0.00     0.009 A 
ATOM     74  C   UNL A   1      47.083  25.231  33.223  1.00  0.00     0.009 A 
ATOM     75  C   UNL A   1      49.443  25.576  31.778  1.00  0.00     0.001 A 
ATOM     76  C   UNL A   1      48.290  24.749  33.732  1.00  0.00     0.001 A 
ATOM     77  C   UNL A   1      49.467  24.913  33.005  1.00  0.00     0.000 A 
ENDBRANCH  59  72
ENDBRANCH  33  34
ENDBRANCH  26  28
ENDBRANCH  25  26
ENDBRANCH  24  25
ENDBRANCH  23  24
ENDBRANCH  22  23
ENDBRANCH   1  22
TORSDOF 19
ENDMDL
