MODEL 1
REMARK VINA RESULT:      -9.2      0.000      0.000
REMARK SMILES Cc1ccc(-c2cc(Cl)cc3c2O[C@H](C(F)(F)F)C(C(=O)OCCOCCOC(=O)c2ccc(-c4c5nc(c(-c6ccccc6)c6ccc([nH]6)c(-c6ccccc6)c6nc(c(-c7ccccc7)c7ccc4[nH]7)C=C6)C=C5)cc2)=C3)cc1F
REMARK SMILES IDX 26 1 25 2 24 3 23 4 22 5 20 6 21 7 19 8 6 9 7 10 12 11 8 12
REMARK SMILES IDX 11 13 13 14 9 15 10 16 79 17 14 18 5 19 1 20 2 21 3 22 81 23
REMARK SMILES IDX 4 24 80 25 82 26 15 27 16 28 17 29 18 30 27 31 28 32 29 33
REMARK SMILES IDX 30 34 31 35 32 36 78 37 33 38 77 39 34 40 35 41 36 42 71 43
REMARK SMILES IDX 37 44 76 45 70 46 72 47 38 48 75 49 69 50 68 51 39 53 61 54
REMARK SMILES IDX 46 55 60 56 47 57 50 58 59 59 73 60 48 61 49 62 58 64 74 65
REMARK SMILES IDX 51 66 40 67 41 68 45 69 42 70 44 71 43 72 62 73 63 74 67 75
REMARK SMILES IDX 64 76 66 77 65 78 52 79 53 80 57 81 54 82 56 83 55 84
REMARK H PARENT 72 52 50 63
REMARK Flexibility Score: inf
ROOT
ATOM      1  C   UNL A   1      32.645  36.041  31.272  1.00  0.00     0.202 C 
ENDROOT
BRANCH   1   2
ATOM      2  O   UNL A   1      32.603  34.977  32.220  1.00  0.00    -0.374 OA
BRANCH   2   3
ATOM      3  C   UNL A   1      33.829  34.478  32.745  1.00  0.00     0.202 C 
BRANCH   3   4
ATOM      4  C   UNL A   1      34.737  35.456  33.497  1.00  0.00     0.261 C 
BRANCH   4   5
ATOM      5  O   UNL A   1      36.041  34.909  33.740  1.00  0.00    -0.460 OA
BRANCH   5   6
ATOM      6  C   UNL A   1      36.088  34.010  34.751  1.00  0.00     0.338 C 
ATOM      7  O   UNL A   1      35.290  33.894  35.666  1.00  0.00    -0.246 OA
BRANCH   6   8
ATOM      8  C   UNL A   1      37.206  33.072  34.536  1.00  0.00     0.087 C 
ATOM      9  C   UNL A   1      40.084  30.051  34.244  1.00  0.00     0.026 A 
ATOM     10  C   UNL A   1      39.806  28.949  33.413  1.00  0.00     0.033 A 
ATOM     11  C   UNL A   1      39.167  31.125  34.258  1.00  0.00     0.135 A 
ATOM     12  C   UNL A   1      38.657  28.923  32.624  1.00  0.00     0.042 A 
ATOM     13  C   UNL A   1      37.993  31.068  33.498  1.00  0.00     0.019 A 
ATOM     14  O   UNL A   1      39.493  32.223  35.012  1.00  0.00    -0.475 OA
ATOM     15  Cl  UNL A   1      38.339  27.562  31.621  1.00  0.00    -0.084 Cl
ATOM     16  C   UNL A   1      37.748  29.974  32.663  1.00  0.00     0.032 A 
ATOM     17  C   UNL A   1      36.988  32.105  33.637  1.00  0.00     0.027 C 
ATOM     18  C   UNL A   1      38.478  33.212  35.322  1.00  0.00     0.316 C 
BRANCH   9  19
ATOM     19  C   UNL A   1      41.278  30.029  35.109  1.00  0.00    -0.012 A 
ATOM     20  C   UNL A   1      44.784  29.915  37.647  1.00  0.00     0.047 C 
ATOM     21  C   UNL A   1      43.576  29.977  36.765  1.00  0.00    -0.015 A 
ATOM     22  C   UNL A   1      42.775  31.122  36.699  1.00  0.00     0.007 A 
ATOM     23  C   UNL A   1      43.222  28.873  35.991  1.00  0.00     0.126 A 
ATOM     24  C   UNL A   1      41.641  31.146  35.880  1.00  0.00     0.009 A 
ATOM     25  C   UNL A   1      42.098  28.892  35.171  1.00  0.00     0.048 A 
ATOM     26  F   UNL A   1      43.974  27.763  36.031  1.00  0.00    -0.207 F 
ENDBRANCH   9  19
BRANCH  18  27
ATOM     27  C   UNL A   1      38.244  33.207  36.840  1.00  0.00     0.430 C 
ATOM     28  F   UNL A   1      37.272  32.329  37.183  1.00  0.00    -0.167 F 
ATOM     29  F   UNL A   1      39.355  32.839  37.521  1.00  0.00    -0.167 F 
ATOM     30  F   UNL A   1      37.872  34.424  37.297  1.00  0.00    -0.167 F 
ENDBRANCH  18  27
ENDBRANCH   6   8
ENDBRANCH   5   6
ENDBRANCH   4   5
ENDBRANCH   3   4
ENDBRANCH   2   3
ENDBRANCH   1   2
BRANCH   1  31
ATOM     31  C   UNL A   1      33.747  36.031  30.205  1.00  0.00     0.261 C 
BRANCH  31  32
ATOM     32  O   UNL A   1      33.246  35.792  28.879  1.00  0.00    -0.460 OA
BRANCH  32  33
ATOM     33  C   UNL A   1      33.127  34.483  28.543  1.00  0.00     0.338 C 
ATOM     34  O   UNL A   1      32.176  33.939  28.002  1.00  0.00    -0.246 OA
BRANCH  33  35
ATOM     35  C   UNL A   1      34.422  33.809  28.747  1.00  0.00     0.060 A 
ATOM     36  C   UNL A   1      35.546  34.167  28.003  1.00  0.00     0.016 A 
ATOM     37  C   UNL A   1      34.509  32.830  29.746  1.00  0.00     0.016 A 
ATOM     38  C   UNL A   1      36.770  33.552  28.280  1.00  0.00     0.010 A 
ATOM     39  C   UNL A   1      35.732  32.218  30.020  1.00  0.00     0.010 A 
ATOM     40  C   UNL A   1      36.878  32.590  29.303  1.00  0.00    -0.014 A 
BRANCH  40  41
ATOM     41  C   UNL A   1      38.208  32.069  29.700  1.00  0.00     0.031 A 
ATOM     42  C   UNL A   1      39.110  32.841  30.618  1.00  0.00     0.074 A 
ATOM     43  C   UNL A   1      38.600  30.874  29.216  1.00  0.00     0.049 A 
ATOM     44  N   UNL A   1      40.266  32.483  31.118  1.00  0.00    -0.248 NA
ATOM     45  C   UNL A   1      38.665  34.182  31.030  1.00  0.00     0.031 C 
ATOM     46  C   UNL A   1      37.813  30.043  28.302  1.00  0.00     0.029 A 
ATOM     47  N   UNL A   1      39.739  30.140  29.436  1.00  0.00    -0.354 N 
ATOM     48  C   UNL A   1      40.675  33.538  31.922  1.00  0.00     0.074 A 
ATOM     49  C   UNL A   1      39.670  34.573  31.805  1.00  0.00     0.031 C 
ATOM     50  C   UNL A   1      38.468  28.893  28.082  1.00  0.00     0.029 A 
ATOM     51  C   UNL A   1      39.739  28.921  28.800  1.00  0.00     0.049 A 
ATOM     52  H   UNL A   1      40.484  30.456  29.997  1.00  0.00     0.167 HD
ATOM     53  C   UNL A   1      41.776  33.619  32.706  1.00  0.00     0.031 A 
ATOM     54  C   UNL A   1      40.653  27.931  28.799  1.00  0.00     0.031 A 
ATOM     55  C   UNL A   1      42.779  32.589  32.807  1.00  0.00     0.049 A 
ATOM     56  C   UNL A   1      41.903  28.086  29.625  1.00  0.00     0.074 A 
ATOM     57  C   UNL A   1      43.918  32.580  33.595  1.00  0.00     0.029 A 
ATOM     58  N   UNL A   1      42.772  31.396  32.102  1.00  0.00    -0.354 N 
ATOM     59  N   UNL A   1      42.238  29.058  30.437  1.00  0.00    -0.248 NA
ATOM     60  C   UNL A   1      42.893  27.002  29.545  1.00  0.00     0.031 C 
ATOM     61  C   UNL A   1      44.636  31.419  33.314  1.00  0.00     0.029 A 
ATOM     62  C   UNL A   1      43.903  30.661  32.415  1.00  0.00     0.049 A 
ATOM     63  H   UNL A   1      42.069  31.114  31.473  1.00  0.00     0.167 HD
ATOM     64  C   UNL A   1      43.456  28.687  30.991  1.00  0.00     0.074 A 
ATOM     65  C   UNL A   1      43.793  27.393  30.438  1.00  0.00     0.031 C 
ATOM     66  C   UNL A   1      44.226  29.363  31.877  1.00  0.00     0.031 A 
BRANCH  53  67
ATOM     67  C   UNL A   1      41.968  34.845  33.556  1.00  0.00    -0.014 A 
ATOM     68  C   UNL A   1      42.745  35.915  33.081  1.00  0.00     0.009 A 
ATOM     69  C   UNL A   1      41.529  34.865  34.889  1.00  0.00     0.009 A 
ATOM     70  C   UNL A   1      43.109  36.960  33.934  1.00  0.00     0.001 A 
ATOM     71  C   UNL A   1      41.870  35.927  35.730  1.00  0.00     0.001 A 
ATOM     72  C   UNL A   1      42.673  36.963  35.257  1.00  0.00     0.000 A 
ENDBRANCH  53  67
BRANCH  54  73
ATOM     73  C   UNL A   1      40.400  26.686  28.023  1.00  0.00    -0.014 A 
ATOM     74  C   UNL A   1      40.911  26.529  26.724  1.00  0.00     0.009 A 
ATOM     75  C   UNL A   1      39.634  25.647  28.574  1.00  0.00     0.009 A 
ATOM     76  C   UNL A   1      40.644  25.372  25.988  1.00  0.00     0.001 A 
ATOM     77  C   UNL A   1      39.402  24.473  27.852  1.00  0.00     0.001 A 
ATOM     78  C   UNL A   1      39.898  24.341  26.557  1.00  0.00     0.000 A 
ENDBRANCH  54  73
BRANCH  66  79
ATOM     79  C   UNL A   1      45.506  28.724  32.346  1.00  0.00    -0.014 A 
ATOM     80  C   UNL A   1      46.708  28.999  31.672  1.00  0.00     0.009 A 
ATOM     81  C   UNL A   1      45.508  27.759  33.363  1.00  0.00     0.009 A 
ATOM     82  C   UNL A   1      47.877  28.305  31.988  1.00  0.00     0.001 A 
ATOM     83  C   UNL A   1      46.687  27.093  33.704  1.00  0.00     0.001 A 
ATOM     84  C   UNL A   1      47.867  27.354  33.007  1.00  0.00     0.000 A 
ENDBRANCH  66  79
ENDBRANCH  40  41
ENDBRANCH  33  35
ENDBRANCH  32  33
ENDBRANCH  31  32
ENDBRANCH   1  31
TORSDOF 16
ENDMDL
MODEL 2
REMARK VINA RESULT:      -9.1      0.951      5.809
REMARK SMILES Cc1ccc(-c2cc(Cl)cc3c2O[C@H](C(F)(F)F)C(C(=O)OCCOCCOC(=O)c2ccc(-c4c5nc(c(-c6ccccc6)c6ccc([nH]6)c(-c6ccccc6)c6nc(c(-c7ccccc7)c7ccc4[nH]7)C=C6)C=C5)cc2)=C3)cc1F
REMARK SMILES IDX 26 1 25 2 24 3 23 4 22 5 20 6 21 7 19 8 6 9 7 10 12 11 8 12
REMARK SMILES IDX 11 13 13 14 9 15 10 16 79 17 14 18 5 19 1 20 2 21 3 22 81 23
REMARK SMILES IDX 4 24 80 25 82 26 15 27 16 28 17 29 18 30 27 31 28 32 29 33
REMARK SMILES IDX 30 34 31 35 32 36 78 37 33 38 77 39 34 40 35 41 36 42 71 43
REMARK SMILES IDX 37 44 76 45 70 46 72 47 38 48 75 49 69 50 68 51 39 53 61 54
REMARK SMILES IDX 46 55 60 56 47 57 50 58 59 59 73 60 48 61 49 62 58 64 74 65
REMARK SMILES IDX 51 66 40 67 41 68 45 69 42 70 44 71 43 72 62 73 63 74 67 75
REMARK SMILES IDX 64 76 66 77 65 78 52 79 53 80 57 81 54 82 56 83 55 84
REMARK H PARENT 72 52 50 63
REMARK Flexibility Score: inf
ROOT
ATOM      1  C   UNL A   1      33.017  36.113  31.281  1.00  0.00     0.202 C 
ENDROOT
BRANCH   1   2
ATOM      2  O   UNL A   1      32.796  35.034  32.186  1.00  0.00    -0.374 OA
BRANCH   2   3
ATOM      3  C   UNL A   1      33.906  34.499  32.899  1.00  0.00     0.202 C 
BRANCH   3   4
ATOM      4  C   UNL A   1      34.789  35.473  33.685  1.00  0.00     0.261 C 
BRANCH   4   5
ATOM      5  O   UNL A   1      36.131  34.988  33.838  1.00  0.00    -0.460 OA
BRANCH   5   6
ATOM      6  C   UNL A   1      36.275  34.041  34.795  1.00  0.00     0.338 C 
ATOM      7  O   UNL A   1      35.558  33.868  35.767  1.00  0.00    -0.246 OA
BRANCH   6   8
ATOM      8  C   UNL A   1      37.382  33.133  34.440  1.00  0.00     0.087 C 
ATOM      9  C   UNL A   1      40.322  30.220  33.836  1.00  0.00     0.026 A 
ATOM     10  C   UNL A   1      39.950  29.028  33.188  1.00  0.00     0.033 A 
ATOM     11  C   UNL A   1      39.363  31.251  33.941  1.00  0.00     0.135 A 
ATOM     12  C   UNL A   1      38.668  28.872  32.662  1.00  0.00     0.042 A 
ATOM     13  C   UNL A   1      38.064  31.066  33.452  1.00  0.00     0.019 A 
ATOM     14  O   UNL A   1      39.766  32.434  34.506  1.00  0.00    -0.475 OA
ATOM     15  Cl  UNL A   1      38.239  27.402  31.878  1.00  0.00    -0.084 Cl
ATOM     16  C   UNL A   1      37.723  29.883  32.792  1.00  0.00     0.032 A 
ATOM     17  C   UNL A   1      37.046  32.070  33.700  1.00  0.00     0.027 C 
ATOM     18  C   UNL A   1      38.775  33.407  34.927  1.00  0.00     0.316 C 
BRANCH   9  19
ATOM     19  C   UNL A   1      41.666  30.338  34.432  1.00  0.00    -0.012 A 
ATOM     20  C   UNL A   1      45.606  30.731  36.183  1.00  0.00     0.047 C 
ATOM     21  C   UNL A   1      44.245  30.572  35.581  1.00  0.00    -0.015 A 
ATOM     22  C   UNL A   1      43.901  29.439  34.836  1.00  0.00     0.007 A 
ATOM     23  C   UNL A   1      43.287  31.571  35.752  1.00  0.00     0.126 A 
ATOM     24  C   UNL A   1      42.627  29.325  34.269  1.00  0.00     0.009 A 
ATOM     25  C   UNL A   1      42.017  31.460  35.196  1.00  0.00     0.048 A 
ATOM     26  F   UNL A   1      43.587  32.666  36.466  1.00  0.00    -0.207 F 
ENDBRANCH   9  19
BRANCH  18  27
ATOM     27  C   UNL A   1      38.856  33.549  36.454  1.00  0.00     0.430 C 
ATOM     28  F   UNL A   1      38.489  34.791  36.851  1.00  0.00    -0.167 F 
ATOM     29  F   UNL A   1      38.032  32.682  37.087  1.00  0.00    -0.167 F 
ATOM     30  F   UNL A   1      40.108  33.330  36.915  1.00  0.00    -0.167 F 
ENDBRANCH  18  27
ENDBRANCH   6   8
ENDBRANCH   5   6
ENDBRANCH   4   5
ENDBRANCH   3   4
ENDBRANCH   2   3
ENDBRANCH   1   2
BRANCH   1  31
ATOM     31  C   UNL A   1      33.071  35.812  29.778  1.00  0.00     0.261 C 
BRANCH  31  32
ATOM     32  O   UNL A   1      32.509  34.534  29.437  1.00  0.00    -0.460 OA
BRANCH  32  33
ATOM     33  C   UNL A   1      33.147  33.880  28.434  1.00  0.00     0.338 C 
ATOM     34  O   UNL A   1      32.776  33.753  27.277  1.00  0.00    -0.246 OA
BRANCH  33  35
ATOM     35  C   UNL A   1      34.494  33.490  28.887  1.00  0.00     0.060 A 
ATOM     36  C   UNL A   1      34.676  32.765  30.065  1.00  0.00     0.016 A 
ATOM     37  C   UNL A   1      35.589  33.823  28.079  1.00  0.00     0.016 A 
ATOM     38  C   UNL A   1      35.963  32.353  30.420  1.00  0.00     0.010 A 
ATOM     39  C   UNL A   1      36.872  33.412  28.436  1.00  0.00     0.010 A 
ATOM     40  C   UNL A   1      37.067  32.655  29.599  1.00  0.00    -0.014 A 
BRANCH  40  41
ATOM     41  C   UNL A   1      38.398  32.072  29.896  1.00  0.00     0.031 A 
ATOM     42  C   UNL A   1      38.779  30.703  29.415  1.00  0.00     0.074 A 
ATOM     43  C   UNL A   1      39.272  32.803  30.616  1.00  0.00     0.049 A 
ATOM     44  N   UNL A   1      39.931  30.090  29.525  1.00  0.00    -0.248 NA
ATOM     45  C   UNL A   1      37.745  29.920  28.721  1.00  0.00     0.031 C 
ATOM     46  C   UNL A   1      39.004  34.139  31.151  1.00  0.00     0.029 A 
ATOM     47  N   UNL A   1      40.563  32.542  31.004  1.00  0.00    -0.354 N 
ATOM     48  C   UNL A   1      39.771  28.863  28.896  1.00  0.00     0.074 A 
ATOM     49  C   UNL A   1      38.396  28.794  28.449  1.00  0.00     0.031 C 
ATOM     50  C   UNL A   1      40.112  34.601  31.751  1.00  0.00     0.029 A 
ATOM     51  C   UNL A   1      41.153  33.581  31.684  1.00  0.00     0.049 A 
ATOM     52  H   UNL A   1      41.023  31.692  30.812  1.00  0.00     0.167 HD
ATOM     53  C   UNL A   1      40.697  27.897  28.689  1.00  0.00     0.031 A 
ATOM     54  C   UNL A   1      42.396  33.705  32.191  1.00  0.00     0.031 A 
ATOM     55  C   UNL A   1      42.061  27.968  29.150  1.00  0.00     0.049 A 
ATOM     56  C   UNL A   1      43.379  32.580  32.007  1.00  0.00     0.074 A 
ATOM     57  C   UNL A   1      43.074  27.041  28.964  1.00  0.00     0.029 A 
ATOM     58  N   UNL A   1      42.602  29.010  29.885  1.00  0.00    -0.354 N 
ATOM     59  N   UNL A   1      43.233  31.458  31.345  1.00  0.00    -0.248 NA
ATOM     60  C   UNL A   1      44.702  32.742  32.627  1.00  0.00     0.031 C 
ATOM     61  C   UNL A   1      44.204  27.486  29.649  1.00  0.00     0.029 A 
ATOM     62  C   UNL A   1      43.925  28.731  30.188  1.00  0.00     0.049 A 
ATOM     63  H   UNL A   1      42.119  29.825  30.153  1.00  0.00     0.167 HD
ATOM     64  C   UNL A   1      44.453  30.801  31.438  1.00  0.00     0.074 A 
ATOM     65  C   UNL A   1      45.335  31.656  32.204  1.00  0.00     0.031 C 
ATOM     66  C   UNL A   1      44.806  29.594  30.934  1.00  0.00     0.031 A 
BRANCH  53  67
ATOM     67  C   UNL A   1      40.303  26.676  27.906  1.00  0.00    -0.014 A 
ATOM     68  C   UNL A   1      39.642  25.613  28.544  1.00  0.00     0.009 A 
ATOM     69  C   UNL A   1      40.742  26.505  26.583  1.00  0.00     0.009 A 
ATOM     70  C   UNL A   1      39.463  24.393  27.888  1.00  0.00     0.001 A 
ATOM     71  C   UNL A   1      40.533  25.293  25.920  1.00  0.00     0.001 A 
ATOM     72  C   UNL A   1      39.910  24.234  26.578  1.00  0.00     0.000 A 
ENDBRANCH  53  67
BRANCH  54  73
ATOM     73  C   UNL A   1      42.794  34.961  32.884  1.00  0.00    -0.014 A 
ATOM     74  C   UNL A   1      42.542  35.140  34.254  1.00  0.00     0.009 A 
ATOM     75  C   UNL A   1      43.421  35.998  32.175  1.00  0.00     0.009 A 
ATOM     76  C   UNL A   1      42.889  36.334  34.893  1.00  0.00     0.001 A 
ATOM     77  C   UNL A   1      43.803  37.175  32.824  1.00  0.00     0.001 A 
ATOM     78  C   UNL A   1      43.528  37.345  34.179  1.00  0.00     0.000 A 
ENDBRANCH  54  73
BRANCH  66  79
ATOM     79  C   UNL A   1      46.215  29.112  31.156  1.00  0.00    -0.014 A 
ATOM     80  C   UNL A   1      47.198  29.368  30.184  1.00  0.00     0.009 A 
ATOM     81  C   UNL A   1      46.544  28.302  32.252  1.00  0.00     0.009 A 
ATOM     82  C   UNL A   1      48.469  28.803  30.291  1.00  0.00     0.001 A 
ATOM     83  C   UNL A   1      47.829  27.770  32.378  1.00  0.00     0.001 A 
ATOM     84  C   UNL A   1      48.786  28.007  31.391  1.00  0.00     0.000 A 
ENDBRANCH  66  79
ENDBRANCH  40  41
ENDBRANCH  33  35
ENDBRANCH  32  33
ENDBRANCH  31  32
ENDBRANCH   1  31
TORSDOF 16
ENDMDL
MODEL 3
REMARK VINA RESULT:      -8.2      6.165     11.092
REMARK SMILES Cc1ccc(-c2cc(Cl)cc3c2O[C@H](C(F)(F)F)C(C(=O)OCCOCCOC(=O)c2ccc(-c4c5nc(c(-c6ccccc6)c6ccc([nH]6)c(-c6ccccc6)c6nc(c(-c7ccccc7)c7ccc4[nH]7)C=C6)C=C5)cc2)=C3)cc1F
REMARK SMILES IDX 26 1 25 2 24 3 23 4 22 5 20 6 21 7 19 8 6 9 7 10 12 11 8 12
REMARK SMILES IDX 11 13 13 14 9 15 10 16 79 17 14 18 5 19 1 20 2 21 3 22 81 23
REMARK SMILES IDX 4 24 80 25 82 26 15 27 16 28 17 29 18 30 27 31 28 32 29 33
REMARK SMILES IDX 30 34 31 35 32 36 78 37 33 38 77 39 34 40 35 41 36 42 71 43
REMARK SMILES IDX 37 44 76 45 70 46 72 47 38 48 75 49 69 50 68 51 39 53 61 54
REMARK SMILES IDX 46 55 60 56 47 57 50 58 59 59 73 60 48 61 49 62 58 64 74 65
REMARK SMILES IDX 51 66 40 67 41 68 45 69 42 70 44 71 43 72 62 73 63 74 67 75
REMARK SMILES IDX 64 76 66 77 65 78 52 79 53 80 57 81 54 82 56 83 55 84
REMARK H PARENT 72 52 50 63
REMARK Flexibility Score: inf
ROOT
ATOM      1  C   UNL A   1      32.020  31.020  26.629  1.00  0.00     0.202 C 
ENDROOT
BRANCH   1   2
ATOM      2  O   UNL A   1      31.668  30.467  25.362  1.00  0.00    -0.374 OA
BRANCH   2   3
ATOM      3  C   UNL A   1      32.228  29.215  24.981  1.00  0.00     0.202 C 
BRANCH   3   4
ATOM      4  C   UNL A   1      31.674  28.534  23.726  1.00  0.00     0.261 C 
BRANCH   4   5
ATOM      5  O   UNL A   1      31.973  27.131  23.692  1.00  0.00    -0.460 OA
BRANCH   5   6
ATOM      6  C   UNL A   1      31.452  26.426  24.724  1.00  0.00     0.338 C 
ATOM      7  O   UNL A   1      30.423  26.669  25.331  1.00  0.00    -0.246 OA
BRANCH   6   8
ATOM      8  C   UNL A   1      32.256  25.211  24.957  1.00  0.00     0.087 C 
ATOM      9  C   UNL A   1      34.784  21.884  25.127  1.00  0.00     0.026 A 
ATOM     10  C   UNL A   1      36.142  22.099  25.426  1.00  0.00     0.033 A 
ATOM     11  C   UNL A   1      33.906  22.988  25.180  1.00  0.00     0.135 A 
ATOM     12  C   UNL A   1      36.606  23.368  25.768  1.00  0.00     0.042 A 
ATOM     13  C   UNL A   1      34.390  24.268  25.478  1.00  0.00     0.019 A 
ATOM     14  O   UNL A   1      32.574  22.747  24.962  1.00  0.00    -0.475 OA
ATOM     15  Cl  UNL A   1      38.272  23.603  26.125  1.00  0.00    -0.084 Cl
ATOM     16  C   UNL A   1      35.738  24.454  25.793  1.00  0.00     0.032 A 
ATOM     17  C   UNL A   1      33.509  25.417  25.380  1.00  0.00     0.027 C 
ATOM     18  C   UNL A   1      31.674  23.853  24.692  1.00  0.00     0.316 C 
BRANCH   9  19
ATOM     19  C   UNL A   1      34.332  20.542  24.715  1.00  0.00    -0.012 A 
ATOM     20  C   UNL A   1      33.049  16.587  23.507  1.00  0.00     0.047 C 
ATOM     21  C   UNL A   1      33.471  17.960  23.931  1.00  0.00    -0.015 A 
ATOM     22  C   UNL A   1      32.640  19.070  23.747  1.00  0.00     0.007 A 
ATOM     23  C   UNL A   1      34.720  18.154  24.517  1.00  0.00     0.126 A 
ATOM     24  C   UNL A   1      33.067  20.345  24.135  1.00  0.00     0.009 A 
ATOM     25  C   UNL A   1      35.148  19.418  24.911  1.00  0.00     0.048 A 
ATOM     26  F   UNL A   1      35.535  17.106  24.711  1.00  0.00    -0.207 F 
ENDBRANCH   9  19
BRANCH  18  27
ATOM     27  C   UNL A   1      31.137  23.702  23.262  1.00  0.00     0.430 C 
ATOM     28  F   UNL A   1      31.033  22.398  22.912  1.00  0.00    -0.167 F 
ATOM     29  F   UNL A   1      29.902  24.238  23.127  1.00  0.00    -0.167 F 
ATOM     30  F   UNL A   1      31.942  24.302  22.355  1.00  0.00    -0.167 F 
ENDBRANCH  18  27
ENDBRANCH   6   8
ENDBRANCH   5   6
ENDBRANCH   4   5
ENDBRANCH   3   4
ENDBRANCH   2   3
ENDBRANCH   1   2
BRANCH   1  31
ATOM     31  C   UNL A   1      33.230  30.439  27.372  1.00  0.00     0.261 C 
BRANCH  31  32
ATOM     32  O   UNL A   1      34.358  31.331  27.398  1.00  0.00    -0.460 OA
BRANCH  32  33
ATOM     33  C   UNL A   1      34.900  31.529  28.626  1.00  0.00     0.338 C 
ATOM     34  O   UNL A   1      34.382  32.081  29.585  1.00  0.00    -0.246 OA
BRANCH  33  35
ATOM     35  C   UNL A   1      36.173  30.793  28.719  1.00  0.00     0.060 A 
ATOM     36  C   UNL A   1      36.995  30.630  27.604  1.00  0.00     0.016 A 
ATOM     37  C   UNL A   1      36.563  30.300  29.972  1.00  0.00     0.016 A 
ATOM     38  C   UNL A   1      38.228  29.989  27.755  1.00  0.00     0.010 A 
ATOM     39  C   UNL A   1      37.793  29.660  30.118  1.00  0.00     0.010 A 
ATOM     40  C   UNL A   1      38.645  29.517  29.015  1.00  0.00    -0.014 A 
BRANCH  40  41
ATOM     41  C   UNL A   1      40.020  28.991  29.196  1.00  0.00     0.031 A 
ATOM     42  C   UNL A   1      40.373  27.579  28.833  1.00  0.00     0.074 A 
ATOM     43  C   UNL A   1      40.960  29.815  29.700  1.00  0.00     0.049 A 
ATOM     44  N   UNL A   1      41.547  26.999  28.858  1.00  0.00    -0.248 NA
ATOM     45  C   UNL A   1      39.279  26.706  28.382  1.00  0.00     0.031 C 
ATOM     46  C   UNL A   1      40.726  31.202  30.105  1.00  0.00     0.029 A 
ATOM     47  N   UNL A   1      42.298  29.619  29.938  1.00  0.00    -0.354 N 
ATOM     48  C   UNL A   1      41.340  25.704  28.405  1.00  0.00     0.074 A 
ATOM     49  C   UNL A   1      39.920  25.563  28.159  1.00  0.00     0.031 C 
ATOM     50  C   UNL A   1      41.890  31.747  30.492  1.00  0.00     0.029 A 
ATOM     51  C   UNL A   1      42.943  30.740  30.406  1.00  0.00     0.049 A 
ATOM     52  H   UNL A   1      42.752  28.758  29.788  1.00  0.00     0.167 HD
ATOM     53  C   UNL A   1      42.257  24.731  28.190  1.00  0.00     0.031 A 
ATOM     54  C   UNL A   1      44.237  30.940  30.722  1.00  0.00     0.031 A 
ATOM     55  C   UNL A   1      43.668  24.874  28.451  1.00  0.00     0.049 A 
ATOM     56  C   UNL A   1      45.219  29.814  30.541  1.00  0.00     0.074 A 
ATOM     57  C   UNL A   1      44.673  23.945  28.241  1.00  0.00     0.029 A 
ATOM     58  N   UNL A   1      44.271  26.004  28.979  1.00  0.00    -0.354 N 
ATOM     59  N   UNL A   1      45.019  28.619  30.041  1.00  0.00    -0.248 NA
ATOM     60  C   UNL A   1      46.608  30.067  30.954  1.00  0.00     0.031 C 
ATOM     61  C   UNL A   1      45.871  24.483  28.710  1.00  0.00     0.029 A 
ATOM     62  C   UNL A   1      45.630  25.781  29.131  1.00  0.00     0.049 A 
ATOM     63  H   UNL A   1      43.805  26.840  29.212  1.00  0.00     0.167 HD
ATOM     64  C   UNL A   1      46.260  27.993  30.046  1.00  0.00     0.074 A 
ATOM     65  C   UNL A   1      47.210  28.945  30.579  1.00  0.00     0.031 C 
ATOM     66  C   UNL A   1      46.577  26.738  29.645  1.00  0.00     0.031 A 
BRANCH  53  67
ATOM     67  C   UNL A   1      41.799  23.419  27.616  1.00  0.00    -0.014 A 
ATOM     68  C   UNL A   1      41.377  22.387  28.470  1.00  0.00     0.009 A 
ATOM     69  C   UNL A   1      41.951  23.148  26.247  1.00  0.00     0.009 A 
ATOM     70  C   UNL A   1      41.155  21.100  27.972  1.00  0.00     0.001 A 
ATOM     71  C   UNL A   1      41.698  21.868  25.748  1.00  0.00     0.001 A 
ATOM     72  C   UNL A   1      41.317  20.843  26.612  1.00  0.00     0.000 A 
ENDBRANCH  53  67
BRANCH  54  73
ATOM     73  C   UNL A   1      44.687  32.276  31.203  1.00  0.00    -0.014 A 
ATOM     74  C   UNL A   1      45.153  33.248  30.302  1.00  0.00     0.009 A 
ATOM     75  C   UNL A   1      44.663  32.584  32.572  1.00  0.00     0.009 A 
ATOM     76  C   UNL A   1      45.604  34.487  30.762  1.00  0.00     0.001 A 
ATOM     77  C   UNL A   1      45.076  33.840  33.026  1.00  0.00     0.001 A 
ATOM     78  C   UNL A   1      45.555  34.786  32.122  1.00  0.00     0.000 A 
ENDBRANCH  54  73
BRANCH  66  79
ATOM     79  C   UNL A   1      48.017  26.305  29.730  1.00  0.00    -0.014 A 
ATOM     80  C   UNL A   1      48.827  26.357  28.582  1.00  0.00     0.009 A 
ATOM     81  C   UNL A   1      48.536  25.729  30.898  1.00  0.00     0.009 A 
ATOM     82  C   UNL A   1      50.114  25.820  28.594  1.00  0.00     0.001 A 
ATOM     83  C   UNL A   1      49.840  25.227  30.919  1.00  0.00     0.001 A 
ATOM     84  C   UNL A   1      50.622  25.258  29.765  1.00  0.00     0.000 A 
ENDBRANCH  66  79
ENDBRANCH  40  41
ENDBRANCH  33  35
ENDBRANCH  32  33
ENDBRANCH  31  32
ENDBRANCH   1  31
TORSDOF 16
ENDMDL
