MODEL 1
REMARK VINA RESULT:     -10.3      0.000      0.000
REMARK SMILES C[C@H](C(=O)OCCOCCOC(=O)c1ccc(-c2c3nc(c(-c4ccccc4)c4ccc([nH]4)c(-c4ccccc4)c4nc(c(-c5ccccc5)c5ccc2[nH]5)C=C4)C=C3)cc1)[C@@H](C(=O)c1ccccc1)c1ccc(F)cc1
REMARK SMILES IDX 7 1 6 2 5 3 3 4 4 5 2 6 1 7 62 8 63 9 64 10 65 11 66 12
REMARK SMILES IDX 70 13 67 14 69 15 68 16 71 17 72 18 77 19 73 20 76 21 74 22
REMARK SMILES IDX 75 23 8 24 9 25 10 26 11 27 12 28 13 29 14 30 15 31 61 32
REMARK SMILES IDX 16 33 60 34 17 35 18 36 19 37 54 38 20 39 59 40 53 41 55 42
REMARK SMILES IDX 21 43 58 44 52 45 51 46 22 48 44 49 29 50 43 51 30 52 33 53
REMARK SMILES IDX 42 54 56 55 31 56 32 57 41 59 57 60 34 61 23 62 24 63 28 64
REMARK SMILES IDX 25 65 27 66 26 67 45 68 46 69 50 70 47 71 49 72 48 73 35 74
REMARK SMILES IDX 36 75 40 76 37 77 39 78 38 79
REMARK H PARENT 55 47 33 58
REMARK Flexibility Score: inf
ROOT
ATOM      1  C   UNL A   1      35.030  21.312  24.918  1.00  0.00     0.202 C 
ENDROOT
BRANCH   1   2
ATOM      2  C   UNL A   1      35.021  22.588  24.084  1.00  0.00     0.261 C 
BRANCH   2   3
ATOM      3  O   UNL A   1      33.842  23.342  24.438  1.00  0.00    -0.463 OA
BRANCH   3   4
ATOM      4  C   UNL A   1      33.389  24.204  23.509  1.00  0.00     0.309 C 
ATOM      5  O   UNL A   1      34.126  24.917  22.835  1.00  0.00    -0.252 OA
BRANCH   4   6
ATOM      6  C   UNL A   1      31.866  24.241  23.372  1.00  0.00     0.111 C 
ATOM      7  C   UNL A   1      31.474  22.747  23.193  1.00  0.00     0.021 C 
BRANCH   6   8
ATOM      8  C   UNL A   1      30.958  24.882  24.470  1.00  0.00     0.105 C 
BRANCH   8   9
ATOM      9  C   UNL A   1      31.414  25.269  25.912  1.00  0.00     0.171 C 
ATOM     10  O   UNL A   1      31.448  24.418  26.811  1.00  0.00    -0.293 OA
BRANCH   9  11
ATOM     11  C   UNL A   1      31.997  26.566  26.287  1.00  0.00     0.018 A 
ATOM     12  C   UNL A   1      33.353  26.740  25.986  1.00  0.00     0.012 A 
ATOM     13  C   UNL A   1      31.305  27.567  26.961  1.00  0.00     0.012 A 
ATOM     14  C   UNL A   1      33.972  27.949  26.263  1.00  0.00     0.001 A 
ATOM     15  C   UNL A   1      31.911  28.806  27.160  1.00  0.00     0.001 A 
ATOM     16  C   UNL A   1      33.236  29.003  26.789  1.00  0.00     0.000 A 
ENDBRANCH   9  11
ENDBRANCH   8   9
BRANCH   8  17
ATOM     17  C   UNL A   1      30.366  26.194  23.894  1.00  0.00    -0.036 A 
ATOM     18  C   UNL A   1      28.995  26.473  24.062  1.00  0.00     0.007 A 
ATOM     19  C   UNL A   1      31.160  27.076  23.143  1.00  0.00     0.007 A 
ATOM     20  C   UNL A   1      28.426  27.597  23.469  1.00  0.00     0.039 A 
ATOM     21  C   UNL A   1      30.587  28.213  22.570  1.00  0.00     0.039 A 
ATOM     22  C   UNL A   1      29.227  28.456  22.729  1.00  0.00     0.123 A 
ATOM     23  F   UNL A   1      28.676  29.532  22.151  1.00  0.00    -0.207 F 
ENDBRANCH   8  17
ENDBRANCH   6   8
ENDBRANCH   4   6
ENDBRANCH   3   4
ENDBRANCH   2   3
ENDBRANCH   1   2
BRANCH   1  24
ATOM     24  O   UNL A   1      36.261  21.104  25.618  1.00  0.00    -0.374 OA
BRANCH  24  25
ATOM     25  C   UNL A   1      37.460  21.238  24.858  1.00  0.00     0.202 C 
BRANCH  25  26
ATOM     26  C   UNL A   1      38.456  20.086  25.000  1.00  0.00     0.261 C 
BRANCH  26  27
ATOM     27  O   UNL A   1      39.136  20.096  26.269  1.00  0.00    -0.460 OA
BRANCH  27  28
ATOM     28  C   UNL A   1      40.475  19.899  26.196  1.00  0.00     0.338 C 
ATOM     29  O   UNL A   1      41.053  18.931  25.719  1.00  0.00    -0.246 OA
BRANCH  28  30
ATOM     30  C   UNL A   1      41.195  21.101  26.659  1.00  0.00     0.060 A 
ATOM     31  C   UNL A   1      41.210  21.379  28.033  1.00  0.00     0.016 A 
ATOM     32  C   UNL A   1      41.789  21.984  25.757  1.00  0.00     0.016 A 
ATOM     33  C   UNL A   1      41.789  22.558  28.509  1.00  0.00     0.010 A 
ATOM     34  C   UNL A   1      42.374  23.163  26.237  1.00  0.00     0.010 A 
ATOM     35  C   UNL A   1      42.356  23.475  27.615  1.00  0.00    -0.014 A 
BRANCH  35  36
ATOM     36  C   UNL A   1      42.820  24.814  28.078  1.00  0.00     0.031 A 
ATOM     37  C   UNL A   1      41.795  25.892  28.284  1.00  0.00     0.074 A 
ATOM     38  C   UNL A   1      44.120  25.097  28.298  1.00  0.00     0.049 A 
ATOM     39  N   UNL A   1      41.969  27.140  28.638  1.00  0.00    -0.248 NA
ATOM     40  C   UNL A   1      40.390  25.516  28.064  1.00  0.00     0.031 C 
ATOM     41  C   UNL A   1      45.214  24.141  28.205  1.00  0.00     0.029 A 
ATOM     42  N   UNL A   1      44.749  26.274  28.627  1.00  0.00    -0.354 N 
ATOM     43  C   UNL A   1      40.698  27.693  28.681  1.00  0.00     0.074 A 
ATOM     44  C   UNL A   1      39.770  26.668  28.256  1.00  0.00     0.031 C 
ATOM     45  C   UNL A   1      46.385  24.768  28.405  1.00  0.00     0.029 A 
ATOM     46  C   UNL A   1      46.122  26.176  28.673  1.00  0.00     0.049 A 
ATOM     47  H   UNL A   1      44.262  27.109  28.813  1.00  0.00     0.167 HD
ATOM     48  C   UNL A   1      40.329  28.936  29.070  1.00  0.00     0.031 A 
ATOM     49  C   UNL A   1      47.064  27.107  28.916  1.00  0.00     0.031 A 
ATOM     50  C   UNL A   1      41.246  29.960  29.487  1.00  0.00     0.049 A 
ATOM     51  C   UNL A   1      46.635  28.507  29.258  1.00  0.00     0.074 A 
ATOM     52  C   UNL A   1      40.961  31.238  29.932  1.00  0.00     0.029 A 
ATOM     53  N   UNL A   1      42.626  29.828  29.498  1.00  0.00    -0.354 N 
ATOM     54  N   UNL A   1      45.422  28.993  29.366  1.00  0.00    -0.248 NA
ATOM     55  C   UNL A   1      47.701  29.477  29.546  1.00  0.00     0.031 C 
ATOM     56  C   UNL A   1      42.171  31.904  30.149  1.00  0.00     0.029 A 
ATOM     57  C   UNL A   1      43.208  31.016  29.908  1.00  0.00     0.049 A 
ATOM     58  H   UNL A   1      43.118  29.013  29.251  1.00  0.00     0.167 HD
ATOM     59  C   UNL A   1      45.578  30.310  29.780  1.00  0.00     0.074 A 
ATOM     60  C   UNL A   1      47.002  30.544  29.911  1.00  0.00     0.031 C 
ATOM     61  C   UNL A   1      44.626  31.238  30.037  1.00  0.00     0.031 A 
BRANCH  48  62
ATOM     62  C   UNL A   1      38.861  29.248  29.032  1.00  0.00    -0.014 A 
ATOM     63  C   UNL A   1      38.057  29.117  30.176  1.00  0.00     0.009 A 
ATOM     64  C   UNL A   1      38.273  29.675  27.832  1.00  0.00     0.009 A 
ATOM     65  C   UNL A   1      36.684  29.361  30.107  1.00  0.00     0.001 A 
ATOM     66  C   UNL A   1      36.907  29.953  27.775  1.00  0.00     0.001 A 
ATOM     67  C   UNL A   1      36.112  29.783  28.908  1.00  0.00     0.000 A 
ENDBRANCH  48  62
BRANCH  49  68
ATOM     68  C   UNL A   1      48.510  26.752  28.886  1.00  0.00    -0.014 A 
ATOM     69  C   UNL A   1      49.247  26.854  27.695  1.00  0.00     0.009 A 
ATOM     70  C   UNL A   1      49.153  26.270  30.038  1.00  0.00     0.009 A 
ATOM     71  C   UNL A   1      50.582  26.444  27.646  1.00  0.00     0.001 A 
ATOM     72  C   UNL A   1      50.497  25.888  29.993  1.00  0.00     0.001 A 
ATOM     73  C   UNL A   1      51.206  25.963  28.796  1.00  0.00     0.000 A 
ENDBRANCH  49  68
BRANCH  61  74
ATOM     74  C   UNL A   1      45.083  32.582  30.531  1.00  0.00    -0.014 A 
ATOM     75  C   UNL A   1      45.229  32.850  31.901  1.00  0.00     0.009 A 
ATOM     76  C   UNL A   1      45.418  33.581  29.603  1.00  0.00     0.009 A 
ATOM     77  C   UNL A   1      45.672  34.102  32.331  1.00  0.00     0.001 A 
ATOM     78  C   UNL A   1      45.894  34.819  30.035  1.00  0.00     0.001 A 
ATOM     79  C   UNL A   1      46.011  35.083  31.398  1.00  0.00     0.000 A 
ENDBRANCH  61  74
ENDBRANCH  35  36
ENDBRANCH  28  30
ENDBRANCH  27  28
ENDBRANCH  26  27
ENDBRANCH  25  26
ENDBRANCH  24  25
ENDBRANCH   1  24
TORSDOF 18
ENDMDL
MODEL 2
REMARK VINA RESULT:     -10.3      3.026      7.754
REMARK SMILES C[C@H](C(=O)OCCOCCOC(=O)c1ccc(-c2c3nc(c(-c4ccccc4)c4ccc([nH]4)c(-c4ccccc4)c4nc(c(-c5ccccc5)c5ccc2[nH]5)C=C4)C=C3)cc1)[C@@H](C(=O)c1ccccc1)c1ccc(F)cc1
REMARK SMILES IDX 7 1 6 2 5 3 3 4 4 5 2 6 1 7 62 8 63 9 64 10 65 11 66 12
REMARK SMILES IDX 70 13 67 14 69 15 68 16 71 17 72 18 77 19 73 20 76 21 74 22
REMARK SMILES IDX 75 23 8 24 9 25 10 26 11 27 12 28 13 29 14 30 15 31 61 32
REMARK SMILES IDX 16 33 60 34 17 35 18 36 19 37 54 38 20 39 59 40 53 41 55 42
REMARK SMILES IDX 21 43 58 44 52 45 51 46 22 48 44 49 29 50 43 51 30 52 33 53
REMARK SMILES IDX 42 54 56 55 31 56 32 57 41 59 57 60 34 61 23 62 24 63 28 64
REMARK SMILES IDX 25 65 27 66 26 67 45 68 46 69 50 70 47 71 49 72 48 73 35 74
REMARK SMILES IDX 36 75 40 76 37 77 39 78 38 79
REMARK H PARENT 55 47 33 58
REMARK Flexibility Score: inf
ROOT
ATOM      1  C   UNL A   1      31.214  26.062  24.555  1.00  0.00     0.202 C 
ENDROOT
BRANCH   1   2
ATOM      2  C   UNL A   1      31.446  24.788  25.358  1.00  0.00     0.261 C 
BRANCH   2   3
ATOM      3  O   UNL A   1      31.633  23.702  24.424  1.00  0.00    -0.463 OA
BRANCH   3   4
ATOM      4  C   UNL A   1      31.557  22.460  24.938  1.00  0.00     0.309 C 
ATOM      5  O   UNL A   1      30.945  22.191  25.967  1.00  0.00    -0.252 OA
BRANCH   4   6
ATOM      6  C   UNL A   1      32.318  21.401  24.139  1.00  0.00     0.111 C 
ATOM      7  C   UNL A   1      32.398  22.002  22.708  1.00  0.00     0.021 C 
BRANCH   6   8
ATOM      8  C   UNL A   1      33.738  20.910  24.570  1.00  0.00     0.105 C 
BRANCH   8   9
ATOM      9  C   UNL A   1      34.505  21.366  25.850  1.00  0.00     0.171 C 
ATOM     10  O   UNL A   1      34.085  21.066  26.976  1.00  0.00    -0.293 OA
BRANCH   9  11
ATOM     11  C   UNL A   1      35.832  22.000  25.851  1.00  0.00     0.018 A 
ATOM     12  C   UNL A   1      36.920  21.150  25.619  1.00  0.00     0.012 A 
ATOM     13  C   UNL A   1      36.054  23.345  26.126  1.00  0.00     0.012 A 
ATOM     14  C   UNL A   1      38.203  21.671  25.557  1.00  0.00     0.001 A 
ATOM     15  C   UNL A   1      37.335  23.875  25.980  1.00  0.00     0.001 A 
ATOM     16  C   UNL A   1      38.403  23.041  25.672  1.00  0.00     0.000 A 
ENDBRANCH   9  11
ENDBRANCH   8   9
BRANCH   8  17
ATOM     17  C   UNL A   1      33.694  19.365  24.684  1.00  0.00    -0.036 A 
ATOM     18  C   UNL A   1      32.531  18.734  25.169  1.00  0.00     0.007 A 
ATOM     19  C   UNL A   1      34.822  18.586  24.381  1.00  0.00     0.007 A 
ATOM     20  C   UNL A   1      32.507  17.356  25.371  1.00  0.00     0.039 A 
ATOM     21  C   UNL A   1      34.784  17.202  24.566  1.00  0.00     0.039 A 
ATOM     22  C   UNL A   1      33.633  16.604  25.067  1.00  0.00     0.123 A 
ATOM     23  F   UNL A   1      33.612  15.280  25.270  1.00  0.00    -0.207 F 
ENDBRANCH   8  17
ENDBRANCH   6   8
ENDBRANCH   4   6
ENDBRANCH   3   4
ENDBRANCH   2   3
ENDBRANCH   1   2
BRANCH   1  24
ATOM     24  O   UNL A   1      31.524  27.254  25.284  1.00  0.00    -0.374 OA
BRANCH  24  25
ATOM     25  C   UNL A   1      32.901  27.614  25.366  1.00  0.00     0.202 C 
BRANCH  25  26
ATOM     26  C   UNL A   1      33.304  28.376  26.630  1.00  0.00     0.261 C 
BRANCH  26  27
ATOM     27  O   UNL A   1      34.089  29.548  26.343  1.00  0.00    -0.460 OA
BRANCH  27  28
ATOM     28  C   UNL A   1      34.333  30.342  27.413  1.00  0.00     0.338 C 
ATOM     29  O   UNL A   1      33.555  31.120  27.948  1.00  0.00    -0.246 OA
BRANCH  28  30
ATOM     30  C   UNL A   1      35.669  30.052  27.972  1.00  0.00     0.060 A 
ATOM     31  C   UNL A   1      36.768  30.060  27.102  1.00  0.00     0.016 A 
ATOM     32  C   UNL A   1      35.836  29.707  29.313  1.00  0.00     0.016 A 
ATOM     33  C   UNL A   1      38.035  29.690  27.562  1.00  0.00     0.010 A 
ATOM     34  C   UNL A   1      37.108  29.343  29.773  1.00  0.00     0.010 A 
ATOM     35  C   UNL A   1      38.215  29.305  28.897  1.00  0.00    -0.014 A 
BRANCH  35  36
ATOM     36  C   UNL A   1      39.512  28.740  29.366  1.00  0.00     0.031 A 
ATOM     37  C   UNL A   1      40.362  29.570  30.284  1.00  0.00     0.074 A 
ATOM     38  C   UNL A   1      39.957  27.525  28.983  1.00  0.00     0.049 A 
ATOM     39  N   UNL A   1      41.543  29.305  30.782  1.00  0.00    -0.248 NA
ATOM     40  C   UNL A   1      39.810  30.870  30.696  1.00  0.00     0.031 C 
ATOM     41  C   UNL A   1      39.217  26.584  28.155  1.00  0.00     0.029 A 
ATOM     42  N   UNL A   1      41.145  26.878  29.223  1.00  0.00    -0.354 N 
ATOM     43  C   UNL A   1      41.871  30.403  31.563  1.00  0.00     0.074 A 
ATOM     44  C   UNL A   1      40.800  31.364  31.422  1.00  0.00     0.031 C 
ATOM     45  C   UNL A   1      39.979  25.508  27.897  1.00  0.00     0.029 A 
ATOM     46  C   UNL A   1      41.260  25.670  28.571  1.00  0.00     0.049 A 
ATOM     47  H   UNL A   1      41.848  27.244  29.807  1.00  0.00     0.167 HD
ATOM     48  C   UNL A   1      42.954  30.585  32.353  1.00  0.00     0.031 A 
ATOM     49  C   UNL A   1      42.274  24.784  28.530  1.00  0.00     0.031 A 
ATOM     50  C   UNL A   1      44.025  29.638  32.491  1.00  0.00     0.049 A 
ATOM     51  C   UNL A   1      43.509  25.051  29.346  1.00  0.00     0.074 A 
ATOM     52  C   UNL A   1      45.147  29.722  33.296  1.00  0.00     0.029 A 
ATOM     53  N   UNL A   1      44.115  28.440  31.799  1.00  0.00    -0.354 N 
ATOM     54  N   UNL A   1      43.771  26.062  30.137  1.00  0.00    -0.248 NA
ATOM     55  C   UNL A   1      44.573  24.038  29.291  1.00  0.00     0.031 C 
ATOM     56  C   UNL A   1      45.950  28.606  33.042  1.00  0.00     0.029 A 
ATOM     57  C   UNL A   1      45.293  27.793  32.132  1.00  0.00     0.049 A 
ATOM     58  H   UNL A   1      43.442  28.102  31.166  1.00  0.00     0.167 HD
ATOM     59  C   UNL A   1      45.005  25.785  30.710  1.00  0.00     0.074 A 
ATOM     60  C   UNL A   1      45.437  24.507  30.181  1.00  0.00     0.031 C 
ATOM     61  C   UNL A   1      45.712  26.520  31.602  1.00  0.00     0.031 A 
BRANCH  48  62
ATOM     62  C   UNL A   1      43.031  31.882  33.106  1.00  0.00    -0.014 A 
ATOM     63  C   UNL A   1      43.745  32.980  32.598  1.00  0.00     0.009 A 
ATOM     64  C   UNL A   1      42.382  32.006  34.344  1.00  0.00     0.009 A 
ATOM     65  C   UNL A   1      43.848  34.159  33.338  1.00  0.00     0.001 A 
ATOM     66  C   UNL A   1      42.457  33.198  35.064  1.00  0.00     0.001 A 
ATOM     67  C   UNL A   1      43.201  34.268  34.568  1.00  0.00     0.000 A 
ENDBRANCH  48  62
BRANCH  49  68
ATOM     68  C   UNL A   1      42.165  23.539  27.720  1.00  0.00    -0.014 A 
ATOM     69  C   UNL A   1      42.579  23.519  26.379  1.00  0.00     0.009 A 
ATOM     70  C   UNL A   1      41.607  22.374  28.271  1.00  0.00     0.009 A 
ATOM     71  C   UNL A   1      42.401  22.376  25.596  1.00  0.00     0.001 A 
ATOM     72  C   UNL A   1      41.456  21.222  27.493  1.00  0.00     0.001 A 
ATOM     73  C   UNL A   1      41.842  21.229  26.154  1.00  0.00     0.000 A 
ENDBRANCH  49  68
BRANCH  61  74
ATOM     74  C   UNL A   1      47.008  25.945  32.102  1.00  0.00    -0.014 A 
ATOM     75  C   UNL A   1      48.225  26.203  31.454  1.00  0.00     0.009 A 
ATOM     76  C   UNL A   1      47.012  25.169  33.273  1.00  0.00     0.009 A 
ATOM     77  C   UNL A   1      49.416  25.669  31.951  1.00  0.00     0.001 A 
ATOM     78  C   UNL A   1      48.208  24.667  33.787  1.00  0.00     0.001 A 
ATOM     79  C   UNL A   1      49.407  24.909  33.120  1.00  0.00     0.000 A 
ENDBRANCH  61  74
ENDBRANCH  35  36
ENDBRANCH  28  30
ENDBRANCH  27  28
ENDBRANCH  26  27
ENDBRANCH  25  26
ENDBRANCH  24  25
ENDBRANCH   1  24
TORSDOF 18
ENDMDL
MODEL 3
REMARK VINA RESULT:     -10.3      2.429      7.113
REMARK SMILES C[C@H](C(=O)OCCOCCOC(=O)c1ccc(-c2c3nc(c(-c4ccccc4)c4ccc([nH]4)c(-c4ccccc4)c4nc(c(-c5ccccc5)c5ccc2[nH]5)C=C4)C=C3)cc1)[C@@H](C(=O)c1ccccc1)c1ccc(F)cc1
REMARK SMILES IDX 7 1 6 2 5 3 3 4 4 5 2 6 1 7 62 8 63 9 64 10 65 11 66 12
REMARK SMILES IDX 70 13 67 14 69 15 68 16 71 17 72 18 77 19 73 20 76 21 74 22
REMARK SMILES IDX 75 23 8 24 9 25 10 26 11 27 12 28 13 29 14 30 15 31 61 32
REMARK SMILES IDX 16 33 60 34 17 35 18 36 19 37 54 38 20 39 59 40 53 41 55 42
REMARK SMILES IDX 21 43 58 44 52 45 51 46 22 48 44 49 29 50 43 51 30 52 33 53
REMARK SMILES IDX 42 54 56 55 31 56 32 57 41 59 57 60 34 61 23 62 24 63 28 64
REMARK SMILES IDX 25 65 27 66 26 67 45 68 46 69 50 70 47 71 49 72 48 73 35 74
REMARK SMILES IDX 36 75 40 76 37 77 39 78 38 79
REMARK H PARENT 55 47 33 58
REMARK Flexibility Score: inf
ROOT
ATOM      1  C   UNL A   1      33.759  23.614  23.779  1.00  0.00     0.202 C 
ENDROOT
BRANCH   1   2
ATOM      2  C   UNL A   1      33.273  23.974  22.380  1.00  0.00     0.261 C 
BRANCH   2   3
ATOM      3  O   UNL A   1      33.748  25.302  22.072  1.00  0.00    -0.463 OA
BRANCH   3   4
ATOM      4  C   UNL A   1      32.842  26.293  22.173  1.00  0.00     0.309 C 
ATOM      5  O   UNL A   1      31.739  26.256  21.637  1.00  0.00    -0.252 OA
BRANCH   4   6
ATOM      6  C   UNL A   1      33.309  27.491  23.002  1.00  0.00     0.111 C 
ATOM      7  C   UNL A   1      34.188  28.306  22.011  1.00  0.00     0.021 C 
BRANCH   6   8
ATOM      8  C   UNL A   1      32.295  28.452  23.699  1.00  0.00     0.105 C 
BRANCH   8   9
ATOM      9  C   UNL A   1      30.816  28.106  24.058  1.00  0.00     0.171 C 
ATOM     10  O   UNL A   1      30.559  27.191  24.854  1.00  0.00    -0.293 OA
BRANCH   9  11
ATOM     11  C   UNL A   1      29.647  28.905  23.660  1.00  0.00     0.018 A 
ATOM     12  C   UNL A   1      28.532  28.185  23.215  1.00  0.00     0.012 A 
ATOM     13  C   UNL A   1      29.623  30.296  23.645  1.00  0.00     0.012 A 
ATOM     14  C   UNL A   1      27.371  28.857  22.866  1.00  0.00     0.001 A 
ATOM     15  C   UNL A   1      28.428  30.959  23.371  1.00  0.00     0.001 A 
ATOM     16  C   UNL A   1      27.298  30.237  23.005  1.00  0.00     0.000 A 
ENDBRANCH   9  11
ENDBRANCH   8   9
BRANCH   8  17
ATOM     17  C   UNL A   1      32.915  28.906  25.045  1.00  0.00    -0.036 A 
ATOM     18  C   UNL A   1      32.476  30.102  25.649  1.00  0.00     0.007 A 
ATOM     19  C   UNL A   1      33.961  28.182  25.639  1.00  0.00     0.007 A 
ATOM     20  C   UNL A   1      33.088  30.575  26.806  1.00  0.00     0.039 A 
ATOM     21  C   UNL A   1      34.556  28.651  26.812  1.00  0.00     0.039 A 
ATOM     22  C   UNL A   1      34.121  29.846  27.377  1.00  0.00     0.123 A 
ATOM     23  F   UNL A   1      34.716  30.307  28.485  1.00  0.00    -0.207 F 
ENDBRANCH   8  17
ENDBRANCH   6   8
ENDBRANCH   4   6
ENDBRANCH   3   4
ENDBRANCH   2   3
ENDBRANCH   1   2
BRANCH   1  24
ATOM     24  O   UNL A   1      34.594  22.452  23.806  1.00  0.00    -0.374 OA
BRANCH  24  25
ATOM     25  C   UNL A   1      35.999  22.676  23.892  1.00  0.00     0.202 C 
BRANCH  25  26
ATOM     26  C   UNL A   1      36.678  22.097  25.134  1.00  0.00     0.261 C 
BRANCH  26  27
ATOM     27  O   UNL A   1      37.331  23.104  25.929  1.00  0.00    -0.460 OA
BRANCH  27  28
ATOM     28  C   UNL A   1      38.646  22.877  26.163  1.00  0.00     0.338 C 
ATOM     29  O   UNL A   1      39.292  21.889  25.842  1.00  0.00    -0.246 OA
BRANCH  28  30
ATOM     30  C   UNL A   1      39.273  24.072  26.762  1.00  0.00     0.060 A 
ATOM     31  C   UNL A   1      39.067  24.317  28.126  1.00  0.00     0.016 A 
ATOM     32  C   UNL A   1      39.995  24.979  25.986  1.00  0.00     0.016 A 
ATOM     33  C   UNL A   1      39.552  25.488  28.715  1.00  0.00     0.010 A 
ATOM     34  C   UNL A   1      40.486  26.149  26.580  1.00  0.00     0.010 A 
ATOM     35  C   UNL A   1      40.246  26.428  27.944  1.00  0.00    -0.014 A 
BRANCH  35  36
ATOM     36  C   UNL A   1      40.618  27.759  28.505  1.00  0.00     0.031 A 
ATOM     37  C   UNL A   1      42.027  27.963  28.985  1.00  0.00     0.074 A 
ATOM     38  C   UNL A   1      39.737  28.773  28.614  1.00  0.00     0.049 A 
ATOM     39  N   UNL A   1      42.563  29.015  29.546  1.00  0.00    -0.248 NA
ATOM     40  C   UNL A   1      42.953  26.833  28.806  1.00  0.00     0.031 C 
ATOM     41  C   UNL A   1      38.363  28.746  28.134  1.00  0.00     0.029 A 
ATOM     42  N   UNL A   1      39.855  30.021  29.180  1.00  0.00    -0.354 N 
ATOM     43  C   UNL A   1      43.885  28.673  29.788  1.00  0.00     0.074 A 
ATOM     44  C   UNL A   1      44.054  27.298  29.373  1.00  0.00     0.031 C 
ATOM     45  C   UNL A   1      37.738  29.886  28.475  1.00  0.00     0.029 A 
ATOM     46  C   UNL A   1      38.684  30.745  29.176  1.00  0.00     0.049 A 
ATOM     47  H   UNL A   1      40.699  30.363  29.553  1.00  0.00     0.167 HD
ATOM     48  C   UNL A   1      44.882  29.444  30.283  1.00  0.00     0.031 A 
ATOM     49  C   UNL A   1      38.402  31.967  29.668  1.00  0.00     0.031 A 
ATOM     50  C   UNL A   1      44.719  30.808  30.703  1.00  0.00     0.049 A 
ATOM     51  C   UNL A   1      39.506  32.772  30.297  1.00  0.00     0.074 A 
ATOM     52  C   UNL A   1      45.680  31.678  31.185  1.00  0.00     0.029 A 
ATOM     53  N   UNL A   1      43.515  31.496  30.704  1.00  0.00    -0.354 N 
ATOM     54  N   UNL A   1      40.769  32.459  30.450  1.00  0.00    -0.248 NA
ATOM     55  C   UNL A   1      39.153  34.112  30.789  1.00  0.00     0.031 C 
ATOM     56  C   UNL A   1      45.046  32.872  31.541  1.00  0.00     0.029 A 
ATOM     57  C   UNL A   1      43.703  32.770  31.213  1.00  0.00     0.049 A 
ATOM     58  H   UNL A   1      42.657  31.133  30.390  1.00  0.00     0.167 HD
ATOM     59  C   UNL A   1      41.371  33.578  31.011  1.00  0.00     0.074 A 
ATOM     60  C   UNL A   1      40.336  34.580  31.164  1.00  0.00     0.031 C 
ATOM     61  C   UNL A   1      42.667  33.760  31.359  1.00  0.00     0.031 A 
BRANCH  48  62
ATOM     62  C   UNL A   1      46.232  28.800  30.415  1.00  0.00    -0.014 A 
ATOM     63  C   UNL A   1      47.176  28.867  29.378  1.00  0.00     0.009 A 
ATOM     64  C   UNL A   1      46.561  28.112  31.593  1.00  0.00     0.009 A 
ATOM     65  C   UNL A   1      48.406  28.218  29.499  1.00  0.00     0.001 A 
ATOM     66  C   UNL A   1      47.805  27.494  31.724  1.00  0.00     0.001 A 
ATOM     67  C   UNL A   1      48.720  27.535  30.673  1.00  0.00     0.000 A 
ENDBRANCH  48  62
BRANCH  49  68
ATOM     68  C   UNL A   1      37.029  32.533  29.558  1.00  0.00    -0.014 A 
ATOM     69  C   UNL A   1      36.125  32.428  30.627  1.00  0.00     0.009 A 
ATOM     70  C   UNL A   1      36.600  33.146  28.370  1.00  0.00     0.009 A 
ATOM     71  C   UNL A   1      34.811  32.886  30.496  1.00  0.00     0.001 A 
ATOM     72  C   UNL A   1      35.294  33.630  28.251  1.00  0.00     0.001 A 
ATOM     73  C   UNL A   1      34.398  33.488  29.309  1.00  0.00     0.000 A 
ENDBRANCH  49  68
BRANCH  61  74
ATOM     74  C   UNL A   1      43.057  35.108  31.898  1.00  0.00    -0.014 A 
ATOM     75  C   UNL A   1      43.596  36.104  31.068  1.00  0.00     0.009 A 
ATOM     76  C   UNL A   1      42.834  35.400  33.253  1.00  0.00     0.009 A 
ATOM     77  C   UNL A   1      43.933  37.353  31.593  1.00  0.00     0.001 A 
ATOM     78  C   UNL A   1      43.139  36.661  33.768  1.00  0.00     0.001 A 
ATOM     79  C   UNL A   1      43.697  37.632  32.940  1.00  0.00     0.000 A 
ENDBRANCH  61  74
ENDBRANCH  35  36
ENDBRANCH  28  30
ENDBRANCH  27  28
ENDBRANCH  26  27
ENDBRANCH  25  26
ENDBRANCH  24  25
ENDBRANCH   1  24
TORSDOF 18
ENDMDL
