MODEL 1
REMARK VINA RESULT:      -8.6      0.000      0.000
REMARK SMILES C[C@@H](C(=O)OCCOCCOC(=O)c1ccc(-c2c3nc(c(-c4ccccc4)c4ccc([nH]4)c(-c4ccccc4)c4nc(c(-c5ccccc5)c5ccc2[nH]5)C=C4)C=C3)cc1)c1ccc(Cc2ccoc2)cc1F
REMARK SMILES IDX 7 1 6 2 5 3 3 4 4 5 2 6 1 7 62 8 63 9 73 10 64 11 72 12
REMARK SMILES IDX 74 13 65 14 66 15 67 16 68 17 71 18 69 19 70 20 8 21 9 22
REMARK SMILES IDX 10 23 11 24 12 25 13 26 14 27 15 28 61 29 16 30 60 31 17 32
REMARK SMILES IDX 18 33 19 34 54 35 20 36 59 37 53 38 55 39 21 40 58 41 52 42
REMARK SMILES IDX 51 43 22 45 44 46 29 47 43 48 30 49 33 50 42 51 56 52 31 53
REMARK SMILES IDX 32 54 41 56 57 57 34 58 23 59 24 60 28 61 25 62 27 63 26 64
REMARK SMILES IDX 45 65 46 66 50 67 47 68 49 69 48 70 35 71 36 72 40 73 37 74
REMARK SMILES IDX 39 75 38 76
REMARK H PARENT 55 44 33 55
REMARK Flexibility Score: inf
ROOT
ATOM      1  C   UNL A   1      35.069  34.943  34.117  1.00  0.00     0.202 C 
ENDROOT
BRANCH   1   2
ATOM      2  C   UNL A   1      36.083  33.798  34.045  1.00  0.00     0.261 C 
BRANCH   2   3
ATOM      3  O   UNL A   1      36.465  33.385  35.366  1.00  0.00    -0.463 OA
BRANCH   3   4
ATOM      4  C   UNL A   1      37.693  33.802  35.783  1.00  0.00     0.313 C 
ATOM      5  O   UNL A   1      38.256  34.805  35.359  1.00  0.00    -0.252 OA
BRANCH   4   6
ATOM      6  C   UNL A   1      38.228  32.958  36.945  1.00  0.00     0.129 C 
ATOM      7  C   UNL A   1      38.472  33.793  38.211  1.00  0.00     0.025 C 
BRANCH   6   8
ATOM      8  C   UNL A   1      39.432  32.093  36.568  1.00  0.00     0.002 A 
ATOM      9  C   UNL A   1      40.737  32.361  37.012  1.00  0.00     0.008 A 
ATOM     10  C   UNL A   1      39.266  30.999  35.707  1.00  0.00     0.127 A 
ATOM     11  C   UNL A   1      41.820  31.574  36.599  1.00  0.00     0.004 A 
ATOM     12  C   UNL A   1      40.342  30.213  35.285  1.00  0.00     0.043 A 
ATOM     13  F   UNL A   1      38.043  30.688  35.253  1.00  0.00    -0.207 F 
ATOM     14  C   UNL A   1      41.642  30.501  35.715  1.00  0.00    -0.041 A 
BRANCH  14  15
ATOM     15  C   UNL A   1      42.819  29.677  35.245  1.00  0.00     0.074 C 
BRANCH  15  16
ATOM     16  C   UNL A   1      42.437  28.241  35.377  1.00  0.00    -0.005 A 
ATOM     17  C   UNL A   1      42.215  27.286  34.338  1.00  0.00     0.046 A 
ATOM     18  C   UNL A   1      42.285  27.526  36.551  1.00  0.00     0.198 A 
ATOM     19  C   UNL A   1      41.927  26.090  34.951  1.00  0.00     0.195 A 
ATOM     20  O   UNL A   1      41.975  26.229  36.298  1.00  0.00    -0.472 OA
ENDBRANCH  15  16
ENDBRANCH  14  15
ENDBRANCH   6   8
ENDBRANCH   4   6
ENDBRANCH   3   4
ENDBRANCH   2   3
ENDBRANCH   1   2
BRANCH   1  21
ATOM     21  O   UNL A   1      34.980  35.773  32.958  1.00  0.00    -0.374 OA
BRANCH  21  22
ATOM     22  C   UNL A   1      33.800  36.563  32.797  1.00  0.00     0.202 C 
BRANCH  22  23
ATOM     23  C   UNL A   1      33.143  36.553  31.411  1.00  0.00     0.261 C 
BRANCH  23  24
ATOM     24  O   UNL A   1      32.812  35.225  30.961  1.00  0.00    -0.460 OA
BRANCH  24  25
ATOM     25  C   UNL A   1      33.167  34.956  29.682  1.00  0.00     0.338 C 
ATOM     26  O   UNL A   1      32.684  35.430  28.662  1.00  0.00    -0.246 OA
BRANCH  25  27
ATOM     27  C   UNL A   1      34.371  34.108  29.646  1.00  0.00     0.060 A 
ATOM     28  C   UNL A   1      34.506  33.137  30.646  1.00  0.00     0.016 A 
ATOM     29  C   UNL A   1      35.398  34.327  28.725  1.00  0.00     0.016 A 
ATOM     30  C   UNL A   1      35.691  32.414  30.760  1.00  0.00     0.010 A 
ATOM     31  C   UNL A   1      36.591  33.606  28.848  1.00  0.00     0.010 A 
ATOM     32  C   UNL A   1      36.757  32.672  29.887  1.00  0.00    -0.014 A 
BRANCH  32  33
ATOM     33  C   UNL A   1      38.083  32.066  30.160  1.00  0.00     0.031 A 
ATOM     34  C   UNL A   1      39.064  32.805  31.029  1.00  0.00     0.074 A 
ATOM     35  C   UNL A   1      38.398  30.852  29.676  1.00  0.00     0.049 A 
ATOM     36  N   UNL A   1      40.274  32.460  31.392  1.00  0.00    -0.248 NA
ATOM     37  C   UNL A   1      38.621  34.104  31.563  1.00  0.00     0.031 C 
ATOM     38  C   UNL A   1      37.523  30.013  28.861  1.00  0.00     0.029 A 
ATOM     39  N   UNL A   1      39.549  30.115  29.805  1.00  0.00    -0.354 N 
ATOM     40  C   UNL A   1      40.737  33.497  32.194  1.00  0.00     0.074 A 
ATOM     41  C   UNL A   1      39.690  34.496  32.240  1.00  0.00     0.031 C 
ATOM     42  C   UNL A   1      38.171  28.875  28.556  1.00  0.00     0.029 A 
ATOM     43  C   UNL A   1      39.515  28.919  29.131  1.00  0.00     0.049 A 
ATOM     44  H   UNL A   1      40.325  30.415  30.331  1.00  0.00     0.167 HD
ATOM     45  C   UNL A   1      41.922  33.605  32.840  1.00  0.00     0.031 A 
ATOM     46  C   UNL A   1      40.465  27.977  28.978  1.00  0.00     0.031 A 
ATOM     47  C   UNL A   1      42.972  32.625  32.784  1.00  0.00     0.049 A 
ATOM     48  C   UNL A   1      41.804  28.159  29.641  1.00  0.00     0.074 A 
ATOM     49  C   UNL A   1      44.206  32.646  33.411  1.00  0.00     0.029 A 
ATOM     50  N   UNL A   1      42.913  31.449  32.054  1.00  0.00    -0.354 N 
ATOM     51  N   UNL A   1      42.220  29.133  30.412  1.00  0.00    -0.248 NA
ATOM     52  C   UNL A   1      42.803  27.103  29.414  1.00  0.00     0.031 C 
ATOM     53  C   UNL A   1      44.915  31.505  33.019  1.00  0.00     0.029 A 
ATOM     54  C   UNL A   1      44.099  30.748  32.193  1.00  0.00     0.049 A 
ATOM     55  H   UNL A   1      42.143  31.155  31.517  1.00  0.00     0.167 HD
ATOM     56  C   UNL A   1      43.516  28.797  30.783  1.00  0.00     0.074 A 
ATOM     57  C   UNL A   1      43.813  27.523  30.164  1.00  0.00     0.031 C 
ATOM     58  C   UNL A   1      44.383  29.482  31.569  1.00  0.00     0.031 A 
BRANCH  45  59
ATOM     59  C   UNL A   1      42.156  34.855  33.643  1.00  0.00    -0.014 A 
ATOM     60  C   UNL A   1      41.688  34.971  34.960  1.00  0.00     0.009 A 
ATOM     61  C   UNL A   1      42.884  35.916  33.082  1.00  0.00     0.009 A 
ATOM     62  C   UNL A   1      41.917  36.140  35.690  1.00  0.00     0.001 A 
ATOM     63  C   UNL A   1      43.133  37.073  33.823  1.00  0.00     0.001 A 
ATOM     64  C   UNL A   1      42.643  37.187  35.123  1.00  0.00     0.000 A 
ENDBRANCH  45  59
BRANCH  46  65
ATOM     65  C   UNL A   1      40.194  26.779  28.142  1.00  0.00    -0.014 A 
ATOM     66  C   UNL A   1      39.505  25.676  28.668  1.00  0.00     0.009 A 
ATOM     67  C   UNL A   1      40.648  26.727  26.815  1.00  0.00     0.009 A 
ATOM     68  C   UNL A   1      39.296  24.537  27.888  1.00  0.00     0.001 A 
ATOM     69  C   UNL A   1      40.414  25.597  26.029  1.00  0.00     0.001 A 
ATOM     70  C   UNL A   1      39.746  24.499  26.569  1.00  0.00     0.000 A 
ENDBRANCH  46  65
BRANCH  58  71
ATOM     71  C   UNL A   1      45.721  28.853  31.830  1.00  0.00    -0.014 A 
ATOM     72  C   UNL A   1      45.918  27.981  32.913  1.00  0.00     0.009 A 
ATOM     73  C   UNL A   1      46.790  29.104  30.955  1.00  0.00     0.009 A 
ATOM     74  C   UNL A   1      47.168  27.397  33.130  1.00  0.00     0.001 A 
ATOM     75  C   UNL A   1      48.031  28.498  31.160  1.00  0.00     0.001 A 
ATOM     76  C   UNL A   1      48.221  27.652  32.251  1.00  0.00     0.000 A 
ENDBRANCH  58  71
ENDBRANCH  32  33
ENDBRANCH  25  27
ENDBRANCH  24  25
ENDBRANCH  23  24
ENDBRANCH  22  23
ENDBRANCH  21  22
ENDBRANCH   1  21
TORSDOF 17
ENDMDL
MODEL 2
REMARK VINA RESULT:      -8.4      0.325      5.994
REMARK SMILES C[C@@H](C(=O)OCCOCCOC(=O)c1ccc(-c2c3nc(c(-c4ccccc4)c4ccc([nH]4)c(-c4ccccc4)c4nc(c(-c5ccccc5)c5ccc2[nH]5)C=C4)C=C3)cc1)c1ccc(Cc2ccoc2)cc1F
REMARK SMILES IDX 7 1 6 2 5 3 3 4 4 5 2 6 1 7 62 8 63 9 73 10 64 11 72 12
REMARK SMILES IDX 74 13 65 14 66 15 67 16 68 17 71 18 69 19 70 20 8 21 9 22
REMARK SMILES IDX 10 23 11 24 12 25 13 26 14 27 15 28 61 29 16 30 60 31 17 32
REMARK SMILES IDX 18 33 19 34 54 35 20 36 59 37 53 38 55 39 21 40 58 41 52 42
REMARK SMILES IDX 51 43 22 45 44 46 29 47 43 48 30 49 33 50 42 51 56 52 31 53
REMARK SMILES IDX 32 54 41 56 57 57 34 58 23 59 24 60 28 61 25 62 27 63 26 64
REMARK SMILES IDX 45 65 46 66 50 67 47 68 49 69 48 70 35 71 36 72 40 73 37 74
REMARK SMILES IDX 39 75 38 76
REMARK H PARENT 55 44 33 55
REMARK Flexibility Score: inf
ROOT
ATOM      1  C   UNL A   1      34.935  34.960  33.974  1.00  0.00     0.202 C 
ENDROOT
BRANCH   1   2
ATOM      2  C   UNL A   1      35.950  33.813  33.980  1.00  0.00     0.261 C 
BRANCH   2   3
ATOM      3  O   UNL A   1      36.322  33.482  35.326  1.00  0.00    -0.463 OA
BRANCH   3   4
ATOM      4  C   UNL A   1      37.600  33.792  35.679  1.00  0.00     0.313 C 
ATOM      5  O   UNL A   1      38.249  34.701  35.173  1.00  0.00    -0.252 OA
BRANCH   4   6
ATOM      6  C   UNL A   1      38.087  32.972  36.878  1.00  0.00     0.129 C 
ATOM      7  C   UNL A   1      38.256  33.826  38.143  1.00  0.00     0.025 C 
BRANCH   6   8
ATOM      8  C   UNL A   1      39.319  32.119  36.575  1.00  0.00     0.002 A 
ATOM      9  C   UNL A   1      40.580  32.363  37.144  1.00  0.00     0.008 A 
ATOM     10  C   UNL A   1      39.231  31.062  35.658  1.00  0.00     0.127 A 
ATOM     11  C   UNL A   1      41.695  31.590  36.797  1.00  0.00     0.004 A 
ATOM     12  C   UNL A   1      40.341  30.290  35.302  1.00  0.00     0.043 A 
ATOM     13  F   UNL A   1      38.054  30.774  35.084  1.00  0.00    -0.207 F 
ATOM     14  C   UNL A   1      41.597  30.555  35.857  1.00  0.00    -0.041 A 
BRANCH  14  15
ATOM     15  C   UNL A   1      42.812  29.747  35.460  1.00  0.00     0.074 C 
BRANCH  15  16
ATOM     16  C   UNL A   1      42.406  28.311  35.451  1.00  0.00    -0.005 A 
ATOM     17  C   UNL A   1      42.222  27.452  34.325  1.00  0.00     0.046 A 
ATOM     18  C   UNL A   1      42.190  27.502  36.551  1.00  0.00     0.198 A 
ATOM     19  C   UNL A   1      41.891  26.213  34.819  1.00  0.00     0.195 A 
ATOM     20  O   UNL A   1      41.877  26.236  36.174  1.00  0.00    -0.472 OA
ENDBRANCH  15  16
ENDBRANCH  14  15
ENDBRANCH   6   8
ENDBRANCH   4   6
ENDBRANCH   3   4
ENDBRANCH   2   3
ENDBRANCH   1   2
BRANCH   1  21
ATOM     21  O   UNL A   1      34.811  35.679  32.746  1.00  0.00    -0.374 OA
BRANCH  21  22
ATOM     22  C   UNL A   1      33.596  36.396  32.517  1.00  0.00     0.202 C 
BRANCH  22  23
ATOM     23  C   UNL A   1      33.003  36.323  31.105  1.00  0.00     0.261 C 
BRANCH  23  24
ATOM     24  O   UNL A   1      32.744  34.971  30.679  1.00  0.00    -0.460 OA
BRANCH  24  25
ATOM     25  C   UNL A   1      33.179  34.679  29.430  1.00  0.00     0.338 C 
ATOM     26  O   UNL A   1      32.712  35.072  28.369  1.00  0.00    -0.246 OA
BRANCH  25  27
ATOM     27  C   UNL A   1      34.443  33.924  29.485  1.00  0.00     0.060 A 
ATOM     28  C   UNL A   1      34.579  32.966  30.498  1.00  0.00     0.016 A 
ATOM     29  C   UNL A   1      35.514  34.221  28.640  1.00  0.00     0.016 A 
ATOM     30  C   UNL A   1      35.804  32.335  30.702  1.00  0.00     0.010 A 
ATOM     31  C   UNL A   1      36.747  33.592  28.853  1.00  0.00     0.010 A 
ATOM     32  C   UNL A   1      36.907  32.674  29.907  1.00  0.00    -0.014 A 
BRANCH  32  33
ATOM     33  C   UNL A   1      38.252  32.170  30.278  1.00  0.00     0.031 A 
ATOM     34  C   UNL A   1      38.714  30.844  29.736  1.00  0.00     0.074 A 
ATOM     35  C   UNL A   1      39.073  32.901  31.052  1.00  0.00     0.049 A 
ATOM     36  N   UNL A   1      39.847  30.217  29.933  1.00  0.00    -0.248 NA
ATOM     37  C   UNL A   1      37.777  30.132  28.852  1.00  0.00     0.031 C 
ATOM     38  C   UNL A   1      38.765  34.218  31.603  1.00  0.00     0.029 A 
ATOM     39  N   UNL A   1      40.338  32.630  31.508  1.00  0.00    -0.354 N 
ATOM     40  C   UNL A   1      39.758  29.039  29.201  1.00  0.00     0.074 A 
ATOM     41  C   UNL A   1      38.451  29.025  28.580  1.00  0.00     0.031 C 
ATOM     42  C   UNL A   1      39.813  34.641  32.331  1.00  0.00     0.029 A 
ATOM     43  C   UNL A   1      40.852  33.613  32.318  1.00  0.00     0.049 A 
ATOM     44  H   UNL A   1      40.831  31.810  31.277  1.00  0.00     0.167 HD
ATOM     45  C   UNL A   1      40.683  28.061  29.053  1.00  0.00     0.031 A 
ATOM     46  C   UNL A   1      42.019  33.668  32.989  1.00  0.00     0.031 A 
ATOM     47  C   UNL A   1      41.977  28.062  29.681  1.00  0.00     0.049 A 
ATOM     48  C   UNL A   1      42.998  32.530  32.872  1.00  0.00     0.074 A 
ATOM     49  C   UNL A   1      42.983  27.116  29.584  1.00  0.00     0.029 A 
ATOM     50  N   UNL A   1      42.439  29.055  30.528  1.00  0.00    -0.354 N 
ATOM     51  N   UNL A   1      42.909  31.434  32.160  1.00  0.00    -0.248 NA
ATOM     52  C   UNL A   1      44.241  32.645  33.649  1.00  0.00     0.031 C 
ATOM     53  C   UNL A   1      44.037  27.514  30.414  1.00  0.00     0.029 A 
ATOM     54  C   UNL A   1      43.707  28.733  30.983  1.00  0.00     0.049 A 
ATOM     55  H   UNL A   1      41.942  29.869  30.771  1.00  0.00     0.167 HD
ATOM     56  C   UNL A   1      44.093  30.741  32.382  1.00  0.00     0.074 A 
ATOM     57  C   UNL A   1      44.889  31.547  33.283  1.00  0.00     0.031 C 
ATOM     58  C   UNL A   1      44.487  29.544  31.882  1.00  0.00     0.031 A 
BRANCH  45  59
ATOM     59  C   UNL A   1      40.309  26.886  28.194  1.00  0.00    -0.014 A 
ATOM     60  C   UNL A   1      40.710  26.808  26.852  1.00  0.00     0.009 A 
ATOM     61  C   UNL A   1      39.573  25.825  28.747  1.00  0.00     0.009 A 
ATOM     62  C   UNL A   1      40.354  25.706  26.071  1.00  0.00     0.001 A 
ATOM     63  C   UNL A   1      39.240  24.714  27.970  1.00  0.00     0.001 A 
ATOM     64  C   UNL A   1      39.623  24.659  26.632  1.00  0.00     0.000 A 
ENDBRANCH  45  59
BRANCH  46  65
ATOM     65  C   UNL A   1      42.323  34.837  33.855  1.00  0.00    -0.014 A 
ATOM     66  C   UNL A   1      43.020  35.944  33.350  1.00  0.00     0.009 A 
ATOM     67  C   UNL A   1      41.933  34.837  35.204  1.00  0.00     0.009 A 
ATOM     68  C   UNL A   1      43.340  37.017  34.183  1.00  0.00     0.001 A 
ATOM     69  C   UNL A   1      42.231  35.923  36.028  1.00  0.00     0.001 A 
ATOM     70  C   UNL A   1      42.942  37.009  35.520  1.00  0.00     0.000 A 
ENDBRANCH  46  65
BRANCH  58  71
ATOM     71  C   UNL A   1      45.850  29.049  32.271  1.00  0.00    -0.014 A 
ATOM     72  C   UNL A   1      46.989  29.382  31.520  1.00  0.00     0.009 A 
ATOM     73  C   UNL A   1      46.004  28.274  33.432  1.00  0.00     0.009 A 
ATOM     74  C   UNL A   1      48.249  28.920  31.907  1.00  0.00     0.001 A 
ATOM     75  C   UNL A   1      47.268  27.837  33.831  1.00  0.00     0.001 A 
ATOM     76  C   UNL A   1      48.388  28.154  33.065  1.00  0.00     0.000 A 
ENDBRANCH  58  71
ENDBRANCH  32  33
ENDBRANCH  25  27
ENDBRANCH  24  25
ENDBRANCH  23  24
ENDBRANCH  22  23
ENDBRANCH  21  22
ENDBRANCH   1  21
TORSDOF 17
ENDMDL
MODEL 3
REMARK VINA RESULT:      -8.0      6.280     12.016
REMARK SMILES C[C@@H](C(=O)OCCOCCOC(=O)c1ccc(-c2c3nc(c(-c4ccccc4)c4ccc([nH]4)c(-c4ccccc4)c4nc(c(-c5ccccc5)c5ccc2[nH]5)C=C4)C=C3)cc1)c1ccc(Cc2ccoc2)cc1F
REMARK SMILES IDX 7 1 6 2 5 3 3 4 4 5 2 6 1 7 62 8 63 9 73 10 64 11 72 12
REMARK SMILES IDX 74 13 65 14 66 15 67 16 68 17 71 18 69 19 70 20 8 21 9 22
REMARK SMILES IDX 10 23 11 24 12 25 13 26 14 27 15 28 61 29 16 30 60 31 17 32
REMARK SMILES IDX 18 33 19 34 54 35 20 36 59 37 53 38 55 39 21 40 58 41 52 42
REMARK SMILES IDX 51 43 22 45 44 46 29 47 43 48 30 49 33 50 42 51 56 52 31 53
REMARK SMILES IDX 32 54 41 56 57 57 34 58 23 59 24 60 28 61 25 62 27 63 26 64
REMARK SMILES IDX 45 65 46 66 50 67 47 68 49 69 48 70 35 71 36 72 40 73 37 74
REMARK SMILES IDX 39 75 38 76
REMARK H PARENT 55 44 33 55
REMARK Flexibility Score: inf
ROOT
ATOM      1  C   UNL A   1      33.925  19.612  24.687  1.00  0.00     0.202 C 
ENDROOT
BRANCH   1   2
ATOM      2  C   UNL A   1      32.745  20.493  24.266  1.00  0.00     0.261 C 
BRANCH   2   3
ATOM      3  O   UNL A   1      31.844  20.682  25.367  1.00  0.00    -0.463 OA
BRANCH   3   4
ATOM      4  C   UNL A   1      31.583  21.976  25.701  1.00  0.00     0.313 C 
ATOM      5  O   UNL A   1      30.455  22.446  25.796  1.00  0.00    -0.252 OA
BRANCH   4   6
ATOM      6  C   UNL A   1      32.853  22.742  26.087  1.00  0.00     0.129 C 
ATOM      7  C   UNL A   1      33.227  22.552  27.564  1.00  0.00     0.025 C 
BRANCH   6   8
ATOM      8  C   UNL A   1      32.829  24.214  25.670  1.00  0.00     0.002 A 
ATOM      9  C   UNL A   1      32.295  25.231  26.478  1.00  0.00     0.008 A 
ATOM     10  C   UNL A   1      33.316  24.594  24.412  1.00  0.00     0.127 A 
ATOM     11  C   UNL A   1      32.244  26.559  26.035  1.00  0.00     0.004 A 
ATOM     12  C   UNL A   1      33.263  25.915  23.959  1.00  0.00     0.043 A 
ATOM     13  F   UNL A   1      33.843  23.670  23.595  1.00  0.00    -0.207 F 
ATOM     14  C   UNL A   1      32.709  26.918  24.762  1.00  0.00    -0.041 A 
BRANCH  14  15
ATOM     15  C   UNL A   1      32.618  28.346  24.276  1.00  0.00     0.074 C 
BRANCH  15  16
ATOM     16  C   UNL A   1      31.358  28.467  23.485  1.00  0.00    -0.005 A 
ATOM     17  C   UNL A   1      30.067  27.940  23.793  1.00  0.00     0.046 A 
ATOM     18  C   UNL A   1      31.178  29.181  22.315  1.00  0.00     0.198 A 
ATOM     19  C   UNL A   1      29.221  28.347  22.790  1.00  0.00     0.195 A 
ATOM     20  O   UNL A   1      29.890  29.109  21.891  1.00  0.00    -0.472 OA
ENDBRANCH  15  16
ENDBRANCH  14  15
ENDBRANCH   6   8
ENDBRANCH   4   6
ENDBRANCH   3   4
ENDBRANCH   2   3
ENDBRANCH   1   2
BRANCH   1  21
ATOM     21  O   UNL A   1      35.198  20.257  24.741  1.00  0.00    -0.374 OA
BRANCH  21  22
ATOM     22  C   UNL A   1      36.345  19.442  24.990  1.00  0.00     0.202 C 
BRANCH  22  23
ATOM     23  C   UNL A   1      37.710  20.029  24.609  1.00  0.00     0.261 C 
BRANCH  23  24
ATOM     24  O   UNL A   1      38.087  21.145  25.438  1.00  0.00    -0.460 OA
BRANCH  24  25
ATOM     25  C   UNL A   1      39.270  20.998  26.080  1.00  0.00     0.338 C 
ATOM     26  O   UNL A   1      40.008  20.021  26.063  1.00  0.00    -0.246 OA
BRANCH  25  27
ATOM     27  C   UNL A   1      39.681  22.266  26.709  1.00  0.00     0.060 A 
ATOM     28  C   UNL A   1      39.034  23.434  26.287  1.00  0.00     0.016 A 
ATOM     29  C   UNL A   1      40.748  22.329  27.607  1.00  0.00     0.016 A 
ATOM     30  C   UNL A   1      39.484  24.678  26.725  1.00  0.00     0.010 A 
ATOM     31  C   UNL A   1      41.205  23.581  28.038  1.00  0.00     0.010 A 
ATOM     32  C   UNL A   1      40.598  24.761  27.570  1.00  0.00    -0.014 A 
BRANCH  32  33
ATOM     33  C   UNL A   1      41.206  26.087  27.843  1.00  0.00     0.031 A 
ATOM     34  C   UNL A   1      42.539  26.423  27.232  1.00  0.00     0.074 A 
ATOM     35  C   UNL A   1      40.561  27.000  28.591  1.00  0.00     0.049 A 
ATOM     36  N   UNL A   1      43.248  27.519  27.341  1.00  0.00    -0.248 NA
ATOM     37  C   UNL A   1      43.153  25.390  26.383  1.00  0.00     0.031 C 
ATOM     38  C   UNL A   1      39.246  26.817  29.202  1.00  0.00     0.029 A 
ATOM     39  N   UNL A   1      40.932  28.268  28.961  1.00  0.00    -0.354 N 
ATOM     40  C   UNL A   1      44.389  27.307  26.577  1.00  0.00     0.074 A 
ATOM     41  C   UNL A   1      44.293  25.968  26.035  1.00  0.00     0.031 C 
ATOM     42  C   UNL A   1      38.922  27.932  29.878  1.00  0.00     0.029 A 
ATOM     43  C   UNL A   1      40.017  28.895  29.770  1.00  0.00     0.049 A 
ATOM     44  H   UNL A   1      41.775  28.688  28.674  1.00  0.00     0.167 HD
ATOM     45  C   UNL A   1      45.422  28.152  26.342  1.00  0.00     0.031 A 
ATOM     46  C   UNL A   1      40.065  30.099  30.371  1.00  0.00     0.031 A 
ATOM     47  C   UNL A   1      45.531  29.476  26.891  1.00  0.00     0.049 A 
ATOM     48  C   UNL A   1      41.262  30.988  30.159  1.00  0.00     0.074 A 
ATOM     49  C   UNL A   1      46.539  30.406  26.704  1.00  0.00     0.029 A 
ATOM     50  N   UNL A   1      44.603  30.055  27.741  1.00  0.00    -0.354 N 
ATOM     51  N   UNL A   1      42.323  30.782  29.418  1.00  0.00    -0.248 NA
ATOM     52  C   UNL A   1      41.260  32.279  30.863  1.00  0.00     0.031 C 
ATOM     53  C   UNL A   1      46.244  31.532  27.481  1.00  0.00     0.029 A 
ATOM     54  C   UNL A   1      45.026  31.321  28.108  1.00  0.00     0.049 A 
ATOM     55  H   UNL A   1      43.767  29.630  28.039  1.00  0.00     0.167 HD
ATOM     56  C   UNL A   1      43.102  31.925  29.546  1.00  0.00     0.074 A 
ATOM     57  C   UNL A   1      42.385  32.826  30.424  1.00  0.00     0.031 C 
ATOM     58  C   UNL A   1      44.304  32.206  28.984  1.00  0.00     0.031 A 
BRANCH  45  59
ATOM     59  C   UNL A   1      46.537  27.648  25.469  1.00  0.00    -0.014 A 
ATOM     60  C   UNL A   1      46.639  28.033  24.124  1.00  0.00     0.009 A 
ATOM     61  C   UNL A   1      47.518  26.802  26.012  1.00  0.00     0.009 A 
ATOM     62  C   UNL A   1      47.684  27.555  23.330  1.00  0.00     0.001 A 
ATOM     63  C   UNL A   1      48.575  26.346  25.222  1.00  0.00     0.001 A 
ATOM     64  C   UNL A   1      48.653  26.716  23.881  1.00  0.00     0.000 A 
ENDBRANCH  45  59
BRANCH  46  65
ATOM     65  C   UNL A   1      38.952  30.532  31.255  1.00  0.00    -0.014 A 
ATOM     66  C   UNL A   1      39.011  30.321  32.641  1.00  0.00     0.009 A 
ATOM     67  C   UNL A   1      37.812  31.142  30.708  1.00  0.00     0.009 A 
ATOM     68  C   UNL A   1      37.940  30.691  33.457  1.00  0.00     0.001 A 
ATOM     69  C   UNL A   1      36.755  31.535  31.530  1.00  0.00     0.001 A 
ATOM     70  C   UNL A   1      36.816  31.301  32.903  1.00  0.00     0.000 A 
ENDBRANCH  46  65
BRANCH  58  71
ATOM     71  C   UNL A   1      44.904  33.552  29.275  1.00  0.00    -0.014 A 
ATOM     72  C   UNL A   1      44.607  34.669  28.479  1.00  0.00     0.009 A 
ATOM     73  C   UNL A   1      45.745  33.713  30.389  1.00  0.00     0.009 A 
ATOM     74  C   UNL A   1      45.167  35.915  28.775  1.00  0.00     0.001 A 
ATOM     75  C   UNL A   1      46.280  34.964  30.697  1.00  0.00     0.001 A 
ATOM     76  C   UNL A   1      45.998  36.061  29.886  1.00  0.00     0.000 A 
ENDBRANCH  58  71
ENDBRANCH  32  33
ENDBRANCH  25  27
ENDBRANCH  24  25
ENDBRANCH  23  24
ENDBRANCH  22  23
ENDBRANCH  21  22
ENDBRANCH   1  21
TORSDOF 17
ENDMDL
