MODEL 1
REMARK VINA RESULT:     -10.7      0.000      0.000
REMARK SMILES O=C(OCCOCCOC(=O)c1cc(=O)[nH]c2c(Br)cccc12)c1ccc(-c2c3nc(c(-c4ccccc4)c4ccc([nH]4)c(-c4ccccc4)c4nc(c(-c5ccccc5)c5ccc2[nH]5)C=C4)C=C3)cc1
REMARK SMILES IDX 5 1 4 2 3 3 2 4 1 5 24 6 25 7 71 8 26 9 70 10 27 11 28 12
REMARK SMILES IDX 29 13 64 14 30 15 69 16 63 17 65 18 31 19 68 20 62 21 61 22
REMARK SMILES IDX 32 24 54 25 39 26 53 27 40 28 43 29 52 30 66 31 41 32 42 33
REMARK SMILES IDX 51 35 67 36 44 37 33 38 34 39 38 40 35 41 37 42 36 43 55 44
REMARK SMILES IDX 56 45 60 46 57 47 59 48 58 49 45 50 46 51 50 52 47 53 49 54
REMARK SMILES IDX 48 55 6 56 7 57 8 58 9 59 10 60 11 61 12 62 13 63 23 64
REMARK SMILES IDX 14 65 17 66 22 67 15 68 16 69 18 70 21 71 19 73 20 74
REMARK H PARENT 65 23 43 34 16 72
REMARK Flexibility Score: inf
ROOT
ATOM      1  C   UNL A   1      37.020  19.907  24.931  1.00  0.00     0.202 C 
ENDROOT
BRANCH   1   2
ATOM      2  C   UNL A   1      38.417  20.486  25.130  1.00  0.00     0.261 C 
BRANCH   2   3
ATOM      3  O   UNL A   1      39.386  19.497  25.497  1.00  0.00    -0.460 OA
BRANCH   3   4
ATOM      4  C   UNL A   1      40.645  19.655  25.966  1.00  0.00     0.338 C 
ATOM      5  O   UNL A   1      41.409  18.694  25.863  1.00  0.00    -0.246 OA
BRANCH   4   6
ATOM      6  C   UNL A   1      41.195  20.909  26.591  1.00  0.00     0.060 A 
ATOM      7  C   UNL A   1      41.664  21.888  25.692  1.00  0.00     0.016 A 
ATOM      8  C   UNL A   1      41.268  21.207  27.957  1.00  0.00     0.016 A 
ATOM      9  C   UNL A   1      42.198  23.098  26.141  1.00  0.00     0.010 A 
ATOM     10  C   UNL A   1      41.822  22.405  28.416  1.00  0.00     0.010 A 
ATOM     11  C   UNL A   1      42.281  23.358  27.509  1.00  0.00    -0.014 A 
BRANCH  11  12
ATOM     12  C   UNL A   1      42.707  24.680  27.998  1.00  0.00     0.031 A 
ATOM     13  C   UNL A   1      44.154  25.037  28.096  1.00  0.00     0.074 A 
ATOM     14  C   UNL A   1      41.745  25.539  28.377  1.00  0.00     0.049 A 
ATOM     15  N   UNL A   1      44.690  26.203  28.346  1.00  0.00    -0.248 NA
ATOM     16  C   UNL A   1      45.127  23.952  27.897  1.00  0.00     0.031 C 
ATOM     17  C   UNL A   1      40.309  25.241  28.368  1.00  0.00     0.029 A 
ATOM     18  N   UNL A   1      41.819  26.827  28.832  1.00  0.00    -0.354 N 
ATOM     19  C   UNL A   1      46.062  26.003  28.303  1.00  0.00     0.074 A 
ATOM     20  C   UNL A   1      46.280  24.593  28.054  1.00  0.00     0.031 C 
ATOM     21  C   UNL A   1      39.637  26.327  28.774  1.00  0.00     0.029 A 
ATOM     22  C   UNL A   1      40.590  27.393  29.063  1.00  0.00     0.049 A 
ATOM     23  H   UNL A   1      42.670  27.300  28.980  1.00  0.00     0.167 HD
ATOM     24  C   UNL A   1      47.039  26.927  28.447  1.00  0.00     0.031 A 
ATOM     25  C   UNL A   1      40.267  28.648  29.423  1.00  0.00     0.031 A 
ATOM     26  C   UNL A   1      46.784  28.316  28.734  1.00  0.00     0.049 A 
ATOM     27  C   UNL A   1      41.367  29.659  29.551  1.00  0.00     0.074 A 
ATOM     28  C   UNL A   1      47.693  29.352  28.859  1.00  0.00     0.029 A 
ATOM     29  N   UNL A   1      45.525  28.858  28.950  1.00  0.00    -0.354 N 
ATOM     30  N   UNL A   1      42.659  29.489  29.396  1.00  0.00    -0.248 NA
ATOM     31  C   UNL A   1      40.970  31.039  29.857  1.00  0.00     0.031 C 
ATOM     32  C   UNL A   1      46.988  30.508  29.206  1.00  0.00     0.029 A 
ATOM     33  C   UNL A   1      45.635  30.209  29.229  1.00  0.00     0.049 A 
ATOM     34  H   UNL A   1      44.679  28.355  28.912  1.00  0.00     0.167 HD
ATOM     35  C   UNL A   1      43.227  30.745  29.549  1.00  0.00     0.074 A 
ATOM     36  C   UNL A   1      42.137  31.667  29.803  1.00  0.00     0.031 C 
ATOM     37  C   UNL A   1      44.532  31.103  29.477  1.00  0.00     0.031 A 
BRANCH  24  38
ATOM     38  C   UNL A   1      48.469  26.493  28.283  1.00  0.00    -0.014 A 
ATOM     39  C   UNL A   1      49.048  26.436  27.005  1.00  0.00     0.009 A 
ATOM     40  C   UNL A   1      49.208  26.021  29.381  1.00  0.00     0.009 A 
ATOM     41  C   UNL A   1      50.326  25.899  26.826  1.00  0.00     0.001 A 
ATOM     42  C   UNL A   1      50.494  25.506  29.203  1.00  0.00     0.001 A 
ATOM     43  C   UNL A   1      51.047  25.435  27.925  1.00  0.00     0.000 A 
ENDBRANCH  24  38
BRANCH  25  44
ATOM     44  C   UNL A   1      38.833  29.013  29.558  1.00  0.00    -0.014 A 
ATOM     45  C   UNL A   1      38.113  29.505  28.457  1.00  0.00     0.009 A 
ATOM     46  C   UNL A   1      38.208  28.963  30.812  1.00  0.00     0.009 A 
ATOM     47  C   UNL A   1      36.802  29.959  28.616  1.00  0.00     0.001 A 
ATOM     48  C   UNL A   1      36.887  29.393  30.961  1.00  0.00     0.001 A 
ATOM     49  C   UNL A   1      36.189  29.901  29.866  1.00  0.00     0.000 A 
ENDBRANCH  25  44
BRANCH  37  50
ATOM     50  C   UNL A   1      44.860  32.557  29.650  1.00  0.00    -0.014 A 
ATOM     51  C   UNL A   1      44.928  33.391  28.522  1.00  0.00     0.009 A 
ATOM     52  C   UNL A   1      45.192  33.082  30.908  1.00  0.00     0.009 A 
ATOM     53  C   UNL A   1      45.330  34.720  28.648  1.00  0.00     0.001 A 
ATOM     54  C   UNL A   1      45.566  34.420  31.035  1.00  0.00     0.001 A 
ATOM     55  C   UNL A   1      45.643  35.235  29.904  1.00  0.00     0.000 A 
ENDBRANCH  37  50
ENDBRANCH  11  12
ENDBRANCH   4   6
ENDBRANCH   3   4
ENDBRANCH   2   3
ENDBRANCH   1   2
BRANCH   1  56
ATOM     56  O   UNL A   1      36.021  20.890  24.683  1.00  0.00    -0.374 OA
BRANCH  56  57
ATOM     57  C   UNL A   1      34.823  20.712  25.445  1.00  0.00     0.202 C 
BRANCH  57  58
ATOM     58  C   UNL A   1      33.793  19.823  24.739  1.00  0.00     0.261 C 
BRANCH  58  59
ATOM     59  O   UNL A   1      32.481  20.408  24.824  1.00  0.00    -0.460 OA
BRANCH  59  60
ATOM     60  C   UNL A   1      32.287  21.596  24.187  1.00  0.00     0.339 C 
ATOM     61  O   UNL A   1      32.248  21.774  22.981  1.00  0.00    -0.246 OA
BRANCH  60  62
ATOM     62  C   UNL A   1      31.935  22.624  25.204  1.00  0.00     0.074 A 
ATOM     63  C   UNL A   1      30.841  22.382  25.944  1.00  0.00     0.088 A 
ATOM     64  C   UNL A   1      32.643  23.917  25.328  1.00  0.00     0.014 A 
ATOM     65  C   UNL A   1      30.287  23.406  26.849  1.00  0.00     0.249 A 
ATOM     66  C   UNL A   1      32.040  24.934  26.087  1.00  0.00     0.063 A 
ATOM     67  C   UNL A   1      33.850  24.205  24.672  1.00  0.00     0.011 A 
ATOM     68  O   UNL A   1      29.310  23.161  27.546  1.00  0.00    -0.270 OA
ATOM     69  N   UNL A   1      30.885  24.631  26.826  1.00  0.00    -0.321 N 
ATOM     70  C   UNL A   1      32.587  26.225  26.112  1.00  0.00     0.042 A 
ATOM     71  C   UNL A   1      34.390  25.494  24.690  1.00  0.00     0.002 A 
ATOM     72  H   UNL A   1      30.480  25.351  27.362  1.00  0.00     0.170 HD
ATOM     73  Br  UNL A   1      31.768  27.632  27.087  1.00  0.00    -0.049 Br
ATOM     74  C   UNL A   1      33.749  26.509  25.396  1.00  0.00     0.018 A 
ENDBRANCH  60  62
ENDBRANCH  59  60
ENDBRANCH  58  59
ENDBRANCH  57  58
ENDBRANCH  56  57
ENDBRANCH   1  56
TORSDOF 14
ENDMDL
MODEL 2
REMARK VINA RESULT:     -10.5      4.535      9.161
REMARK SMILES O=C(OCCOCCOC(=O)c1cc(=O)[nH]c2c(Br)cccc12)c1ccc(-c2c3nc(c(-c4ccccc4)c4ccc([nH]4)c(-c4ccccc4)c4nc(c(-c5ccccc5)c5ccc2[nH]5)C=C4)C=C3)cc1
REMARK SMILES IDX 5 1 4 2 3 3 2 4 1 5 24 6 25 7 71 8 26 9 70 10 27 11 28 12
REMARK SMILES IDX 29 13 64 14 30 15 69 16 63 17 65 18 31 19 68 20 62 21 61 22
REMARK SMILES IDX 32 24 54 25 39 26 53 27 40 28 43 29 52 30 66 31 41 32 42 33
REMARK SMILES IDX 51 35 67 36 44 37 33 38 34 39 38 40 35 41 37 42 36 43 55 44
REMARK SMILES IDX 56 45 60 46 57 47 59 48 58 49 45 50 46 51 50 52 47 53 49 54
REMARK SMILES IDX 48 55 6 56 7 57 8 58 9 59 10 60 11 61 12 62 13 63 23 64
REMARK SMILES IDX 14 65 17 66 22 67 15 68 16 69 18 70 21 71 19 73 20 74
REMARK H PARENT 65 23 43 34 16 72
REMARK Flexibility Score: inf
ROOT
ATOM      1  C   UNL A   1      32.301  31.172  26.487  1.00  0.00     0.202 C 
ENDROOT
BRANCH   1   2
ATOM      2  C   UNL A   1      31.413  32.266  27.069  1.00  0.00     0.261 C 
BRANCH   2   3
ATOM      3  O   UNL A   1      32.060  33.543  27.125  1.00  0.00    -0.460 OA
BRANCH   3   4
ATOM      4  C   UNL A   1      32.852  34.068  28.088  1.00  0.00     0.338 C 
ATOM      5  O   UNL A   1      32.528  35.164  28.548  1.00  0.00    -0.246 OA
BRANCH   4   6
ATOM      6  C   UNL A   1      34.087  33.420  28.654  1.00  0.00     0.060 A 
ATOM      7  C   UNL A   1      35.298  33.731  28.001  1.00  0.00     0.016 A 
ATOM      8  C   UNL A   1      34.158  32.566  29.760  1.00  0.00     0.016 A 
ATOM      9  C   UNL A   1      36.516  33.197  28.427  1.00  0.00     0.010 A 
ATOM     10  C   UNL A   1      35.370  32.009  30.179  1.00  0.00     0.010 A 
ATOM     11  C   UNL A   1      36.553  32.330  29.519  1.00  0.00    -0.014 A 
BRANCH  11  12
ATOM     12  C   UNL A   1      37.840  31.871  30.069  1.00  0.00     0.031 A 
ATOM     13  C   UNL A   1      38.492  32.587  31.206  1.00  0.00     0.074 A 
ATOM     14  C   UNL A   1      38.416  30.804  29.489  1.00  0.00     0.049 A 
ATOM     15  N   UNL A   1      39.531  32.220  31.910  1.00  0.00    -0.248 NA
ATOM     16  C   UNL A   1      37.915  33.879  31.605  1.00  0.00     0.031 C 
ATOM     17  C   UNL A   1      37.870  30.087  28.332  1.00  0.00     0.029 A 
ATOM     18  N   UNL A   1      39.569  30.132  29.788  1.00  0.00    -0.354 N 
ATOM     19  C   UNL A   1      39.715  33.218  32.856  1.00  0.00     0.074 A 
ATOM     20  C   UNL A   1      38.713  34.232  32.606  1.00  0.00     0.031 C 
ATOM     21  C   UNL A   1      38.677  29.058  28.036  1.00  0.00     0.029 A 
ATOM     22  C   UNL A   1      39.787  29.041  28.983  1.00  0.00     0.049 A 
ATOM     23  H   UNL A   1      40.183  30.404  30.509  1.00  0.00     0.167 HD
ATOM     24  C   UNL A   1      40.635  33.261  33.847  1.00  0.00     0.031 A 
ATOM     25  C   UNL A   1      40.751  28.104  29.033  1.00  0.00     0.031 A 
ATOM     26  C   UNL A   1      41.644  32.250  34.040  1.00  0.00     0.049 A 
ATOM     27  C   UNL A   1      41.743  28.161  30.157  1.00  0.00     0.074 A 
ATOM     28  C   UNL A   1      42.602  32.167  35.034  1.00  0.00     0.029 A 
ATOM     29  N   UNL A   1      41.828  31.152  33.212  1.00  0.00    -0.354 N 
ATOM     30  N   UNL A   1      41.842  29.048  31.119  1.00  0.00    -0.248 NA
ATOM     31  C   UNL A   1      42.725  27.073  30.232  1.00  0.00     0.031 C 
ATOM     32  C   UNL A   1      43.401  31.050  34.776  1.00  0.00     0.029 A 
ATOM     33  C   UNL A   1      42.898  30.398  33.661  1.00  0.00     0.049 A 
ATOM     34  H   UNL A   1      41.280  30.942  32.421  1.00  0.00     0.167 HD
ATOM     35  C   UNL A   1      42.872  28.606  31.935  1.00  0.00     0.074 A 
ATOM     36  C   UNL A   1      43.362  27.370  31.357  1.00  0.00     0.031 C 
ATOM     37  C   UNL A   1      43.362  29.170  33.066  1.00  0.00     0.031 A 
BRANCH  24  38
ATOM     38  C   UNL A   1      40.599  34.414  34.812  1.00  0.00    -0.014 A 
ATOM     39  C   UNL A   1      41.451  35.515  34.628  1.00  0.00     0.009 A 
ATOM     40  C   UNL A   1      39.809  34.356  35.971  1.00  0.00     0.009 A 
ATOM     41  C   UNL A   1      41.528  36.523  35.593  1.00  0.00     0.001 A 
ATOM     42  C   UNL A   1      39.871  35.377  36.923  1.00  0.00     0.001 A 
ATOM     43  C   UNL A   1      40.738  36.453  36.739  1.00  0.00     0.000 A 
ENDBRANCH  24  38
BRANCH  25  44
ATOM     44  C   UNL A   1      40.722  26.987  28.055  1.00  0.00    -0.014 A 
ATOM     45  C   UNL A   1      41.363  27.108  26.811  1.00  0.00     0.009 A 
ATOM     46  C   UNL A   1      39.971  25.834  28.322  1.00  0.00     0.009 A 
ATOM     47  C   UNL A   1      41.233  26.105  25.848  1.00  0.00     0.001 A 
ATOM     48  C   UNL A   1      39.865  24.820  27.367  1.00  0.00     0.001 A 
ATOM     49  C   UNL A   1      40.487  24.961  26.127  1.00  0.00     0.000 A 
ENDBRANCH  25  44
BRANCH  37  50
ATOM     50  C   UNL A   1      44.471  28.447  33.774  1.00  0.00    -0.014 A 
ATOM     51  C   UNL A   1      44.161  27.527  34.788  1.00  0.00     0.009 A 
ATOM     52  C   UNL A   1      45.816  28.740  33.505  1.00  0.00     0.009 A 
ATOM     53  C   UNL A   1      45.175  26.921  35.527  1.00  0.00     0.001 A 
ATOM     54  C   UNL A   1      46.831  28.110  34.228  1.00  0.00     0.001 A 
ATOM     55  C   UNL A   1      46.509  27.208  35.243  1.00  0.00     0.000 A 
ENDBRANCH  37  50
ENDBRANCH  11  12
ENDBRANCH   4   6
ENDBRANCH   3   4
ENDBRANCH   2   3
ENDBRANCH   1   2
BRANCH   1  56
ATOM     56  O   UNL A   1      32.607  30.131  27.407  1.00  0.00    -0.374 OA
BRANCH  56  57
ATOM     57  C   UNL A   1      31.863  28.927  27.198  1.00  0.00     0.202 C 
BRANCH  57  58
ATOM     58  C   UNL A   1      31.500  28.697  25.726  1.00  0.00     0.261 C 
BRANCH  58  59
ATOM     59  O   UNL A   1      31.673  27.312  25.375  1.00  0.00    -0.460 OA
BRANCH  59  60
ATOM     60  C   UNL A   1      30.631  26.692  24.758  1.00  0.00     0.339 C 
ATOM     61  O   UNL A   1      29.832  27.205  23.991  1.00  0.00    -0.246 OA
BRANCH  60  62
ATOM     62  C   UNL A   1      30.732  25.230  25.015  1.00  0.00     0.074 A 
ATOM     63  C   UNL A   1      30.176  24.783  26.152  1.00  0.00     0.088 A 
ATOM     64  C   UNL A   1      31.514  24.309  24.159  1.00  0.00     0.014 A 
ATOM     65  C   UNL A   1      30.372  23.393  26.606  1.00  0.00     0.249 A 
ATOM     66  C   UNL A   1      31.809  23.029  24.659  1.00  0.00     0.063 A 
ATOM     67  C   UNL A   1      32.035  24.670  22.907  1.00  0.00     0.011 A 
ATOM     68  O   UNL A   1      29.830  22.987  27.626  1.00  0.00    -0.270 OA
ATOM     69  N   UNL A   1      31.215  22.621  25.864  1.00  0.00    -0.321 N 
ATOM     70  C   UNL A   1      32.673  22.173  23.961  1.00  0.00     0.042 A 
ATOM     71  C   UNL A   1      32.903  23.820  22.216  1.00  0.00     0.002 A 
ATOM     72  H   UNL A   1      31.423  21.716  26.195  1.00  0.00     0.170 HD
ATOM     73  Br  UNL A   1      33.130  20.459  24.633  1.00  0.00    -0.049 Br
ATOM     74  C   UNL A   1      33.237  22.578  22.751  1.00  0.00     0.018 A 
ENDBRANCH  60  62
ENDBRANCH  59  60
ENDBRANCH  58  59
ENDBRANCH  57  58
ENDBRANCH  56  57
ENDBRANCH   1  56
TORSDOF 14
ENDMDL
MODEL 3
REMARK VINA RESULT:     -10.5      1.356      1.794
REMARK SMILES O=C(OCCOCCOC(=O)c1cc(=O)[nH]c2c(Br)cccc12)c1ccc(-c2c3nc(c(-c4ccccc4)c4ccc([nH]4)c(-c4ccccc4)c4nc(c(-c5ccccc5)c5ccc2[nH]5)C=C4)C=C3)cc1
REMARK SMILES IDX 5 1 4 2 3 3 2 4 1 5 24 6 25 7 71 8 26 9 70 10 27 11 28 12
REMARK SMILES IDX 29 13 64 14 30 15 69 16 63 17 65 18 31 19 68 20 62 21 61 22
REMARK SMILES IDX 32 24 54 25 39 26 53 27 40 28 43 29 52 30 66 31 41 32 42 33
REMARK SMILES IDX 51 35 67 36 44 37 33 38 34 39 38 40 35 41 37 42 36 43 55 44
REMARK SMILES IDX 56 45 60 46 57 47 59 48 58 49 45 50 46 51 50 52 47 53 49 54
REMARK SMILES IDX 48 55 6 56 7 57 8 58 9 59 10 60 11 61 12 62 13 63 23 64
REMARK SMILES IDX 14 65 17 66 22 67 15 68 16 69 18 70 21 71 19 73 20 74
REMARK H PARENT 65 23 43 34 16 72
REMARK Flexibility Score: inf
ROOT
ATOM      1  C   UNL A   1      37.863  19.589  24.924  1.00  0.00     0.202 C 
ENDROOT
BRANCH   1   2
ATOM      2  C   UNL A   1      39.034  20.033  25.796  1.00  0.00     0.261 C 
BRANCH   2   3
ATOM      3  O   UNL A   1      40.192  19.203  25.645  1.00  0.00    -0.460 OA
BRANCH   3   4
ATOM      4  C   UNL A   1      41.488  19.473  25.919  1.00  0.00     0.338 C 
ATOM      5  O   UNL A   1      42.314  18.597  25.656  1.00  0.00    -0.246 OA
BRANCH   4   6
ATOM      6  C   UNL A   1      42.010  20.759  26.503  1.00  0.00     0.060 A 
ATOM      7  C   UNL A   1      42.371  21.754  25.573  1.00  0.00     0.016 A 
ATOM      8  C   UNL A   1      42.153  21.069  27.860  1.00  0.00     0.016 A 
ATOM      9  C   UNL A   1      42.868  22.993  25.983  1.00  0.00     0.010 A 
ATOM     10  C   UNL A   1      42.671  22.298  28.280  1.00  0.00     0.010 A 
ATOM     11  C   UNL A   1      43.022  23.267  27.343  1.00  0.00    -0.014 A 
BRANCH  11  12
ATOM     12  C   UNL A   1      43.408  24.612  27.798  1.00  0.00     0.031 A 
ATOM     13  C   UNL A   1      44.840  25.038  27.821  1.00  0.00     0.074 A 
ATOM     14  C   UNL A   1      42.426  25.429  28.219  1.00  0.00     0.049 A 
ATOM     15  N   UNL A   1      45.331  26.231  28.034  1.00  0.00    -0.248 NA
ATOM     16  C   UNL A   1      45.853  23.999  27.582  1.00  0.00     0.031 C 
ATOM     17  C   UNL A   1      41.008  25.063  28.284  1.00  0.00     0.029 A 
ATOM     18  N   UNL A   1      42.461  26.723  28.659  1.00  0.00    -0.354 N 
ATOM     19  C   UNL A   1      46.707  26.096  27.924  1.00  0.00     0.074 A 
ATOM     20  C   UNL A   1      46.979  24.696  27.675  1.00  0.00     0.031 C 
ATOM     21  C   UNL A   1      40.305  26.121  28.715  1.00  0.00     0.029 A 
ATOM     22  C   UNL A   1      41.220  27.234  28.947  1.00  0.00     0.049 A 
ATOM     23  H   UNL A   1      43.295  27.238  28.760  1.00  0.00     0.167 HD
ATOM     24  C   UNL A   1      47.645  27.067  28.011  1.00  0.00     0.031 A 
ATOM     25  C   UNL A   1      40.855  28.475  29.313  1.00  0.00     0.031 A 
ATOM     26  C   UNL A   1      47.338  28.446  28.299  1.00  0.00     0.049 A 
ATOM     27  C   UNL A   1      41.911  29.539  29.377  1.00  0.00     0.074 A 
ATOM     28  C   UNL A   1      48.201  29.524  28.371  1.00  0.00     0.029 A 
ATOM     29  N   UNL A   1      46.067  28.929  28.574  1.00  0.00    -0.354 N 
ATOM     30  N   UNL A   1      43.200  29.428  29.159  1.00  0.00    -0.248 NA
ATOM     31  C   UNL A   1      41.463  30.901  29.692  1.00  0.00     0.031 C 
ATOM     32  C   UNL A   1      47.460  30.649  28.743  1.00  0.00     0.029 A 
ATOM     33  C   UNL A   1      46.126  30.286  28.837  1.00  0.00     0.049 A 
ATOM     34  H   UNL A   1      45.245  28.386  28.583  1.00  0.00     0.167 HD
ATOM     35  C   UNL A   1      43.714  30.711  29.273  1.00  0.00     0.074 A 
ATOM     36  C   UNL A   1      42.595  31.583  29.574  1.00  0.00     0.031 C 
ATOM     37  C   UNL A   1      44.995  31.130  29.132  1.00  0.00     0.031 A 
BRANCH  24  38
ATOM     38  C   UNL A   1      49.084  26.699  27.779  1.00  0.00    -0.014 A 
ATOM     39  C   UNL A   1      49.593  26.630  26.472  1.00  0.00     0.009 A 
ATOM     40  C   UNL A   1      49.905  26.301  28.847  1.00  0.00     0.009 A 
ATOM     41  C   UNL A   1      50.885  26.152  26.237  1.00  0.00     0.001 A 
ATOM     42  C   UNL A   1      51.204  25.845  28.611  1.00  0.00     0.001 A 
ATOM     43  C   UNL A   1      51.689  25.760  27.306  1.00  0.00     0.000 A 
ENDBRANCH  24  38
BRANCH  25  44
ATOM     44  C   UNL A   1      39.414  28.773  29.517  1.00  0.00    -0.014 A 
ATOM     45  C   UNL A   1      38.641  29.315  28.478  1.00  0.00     0.009 A 
ATOM     46  C   UNL A   1      38.832  28.607  30.781  1.00  0.00     0.009 A 
ATOM     47  C   UNL A   1      37.320  29.706  28.708  1.00  0.00     0.001 A 
ATOM     48  C   UNL A   1      37.502  28.973  31.002  1.00  0.00     0.001 A 
ATOM     49  C   UNL A   1      36.750  29.532  29.968  1.00  0.00     0.000 A 
ENDBRANCH  25  44
BRANCH  37  50
ATOM     50  C   UNL A   1      45.262  32.600  29.278  1.00  0.00    -0.014 A 
ATOM     51  C   UNL A   1      45.211  33.428  28.144  1.00  0.00     0.009 A 
ATOM     52  C   UNL A   1      45.651  33.149  30.508  1.00  0.00     0.009 A 
ATOM     53  C   UNL A   1      45.554  34.775  28.238  1.00  0.00     0.001 A 
ATOM     54  C   UNL A   1      45.966  34.505  30.604  1.00  0.00     0.001 A 
ATOM     55  C   UNL A   1      45.925  35.315  29.468  1.00  0.00     0.000 A 
ENDBRANCH  37  50
ENDBRANCH  11  12
ENDBRANCH   4   6
ENDBRANCH   3   4
ENDBRANCH   2   3
ENDBRANCH   1   2
BRANCH   1  56
ATOM     56  O   UNL A   1      36.768  20.497  24.929  1.00  0.00    -0.374 OA
BRANCH  56  57
ATOM     57  C   UNL A   1      37.098  21.811  25.389  1.00  0.00     0.202 C 
BRANCH  57  58
ATOM     58  C   UNL A   1      36.706  22.908  24.393  1.00  0.00     0.261 C 
BRANCH  58  59
ATOM     59  O   UNL A   1      35.825  22.382  23.385  1.00  0.00    -0.460 OA
BRANCH  59  60
ATOM     60  C   UNL A   1      34.633  23.017  23.207  1.00  0.00     0.339 C 
ATOM     61  O   UNL A   1      34.352  23.792  22.308  1.00  0.00    -0.246 OA
BRANCH  60  62
ATOM     62  C   UNL A   1      33.654  22.464  24.181  1.00  0.00     0.074 A 
ATOM     63  C   UNL A   1      33.442  21.139  24.129  1.00  0.00     0.088 A 
ATOM     64  C   UNL A   1      32.837  23.312  25.078  1.00  0.00     0.014 A 
ATOM     65  C   UNL A   1      32.364  20.505  24.912  1.00  0.00     0.249 A 
ATOM     66  C   UNL A   1      31.730  22.728  25.717  1.00  0.00     0.063 A 
ATOM     67  C   UNL A   1      33.066  24.683  25.269  1.00  0.00     0.011 A 
ATOM     68  O   UNL A   1      32.204  19.292  24.885  1.00  0.00    -0.270 OA
ATOM     69  N   UNL A   1      31.545  21.340  25.613  1.00  0.00    -0.321 N 
ATOM     70  C   UNL A   1      30.833  23.516  26.453  1.00  0.00     0.042 A 
ATOM     71  C   UNL A   1      32.167  25.470  25.995  1.00  0.00     0.002 A 
ATOM     72  H   UNL A   1      30.771  20.943  26.076  1.00  0.00     0.170 HD
ATOM     73  Br  UNL A   1      29.303  22.764  27.286  1.00  0.00    -0.049 Br
ATOM     74  C   UNL A   1      31.041  24.889  26.573  1.00  0.00     0.018 A 
ENDBRANCH  60  62
ENDBRANCH  59  60
ENDBRANCH  58  59
ENDBRANCH  57  58
ENDBRANCH  56  57
ENDBRANCH   1  56
TORSDOF 14
ENDMDL
