MODEL 1
REMARK VINA RESULT:     -10.5      0.000      0.000
REMARK SMILES CC(C)(C)OC(=O)Nc1ccc(-c2cccc(Cl)c2C(=O)OCCOCCOC(=O)c2ccc(-c3c4nc(c(-c5ccccc5)c5ccc([nH]5)c(-c5ccccc5)c5nc(c(-c6ccccc6)c6ccc3[nH]6)C=C5)C=C4)cc2)cc1
REMARK SMILES IDX 24 1 23 2 22 3 20 4 21 5 19 6 13 7 14 8 15 9 17 10 16 11
REMARK SMILES IDX 18 12 12 13 9 14 10 15 80 16 11 17 79 18 8 19 6 20 7 21 5 23
REMARK SMILES IDX 2 24 1 25 3 26 4 27 25 28 26 29 27 30 28 31 29 32 30 33
REMARK SMILES IDX 31 34 32 35 78 36 33 37 77 38 34 39 35 40 36 41 71 42 37 43
REMARK SMILES IDX 76 44 70 45 72 46 38 47 75 48 69 49 68 50 39 52 61 53 46 54
REMARK SMILES IDX 60 55 47 56 50 57 59 58 73 59 48 60 49 61 58 63 74 64 51 65
REMARK SMILES IDX 40 66 41 67 45 68 42 69 44 70 43 71 62 72 63 73 67 74 64 75
REMARK SMILES IDX 66 76 65 77 52 78 53 79 57 80 54 81 56 82 55 83
REMARK H PARENT 8 22 72 51 50 62
REMARK Flexibility Score: inf
ROOT
ATOM      1  C   UNL A   1      33.179  29.592  26.275  1.00  0.00     0.202 C 
ENDROOT
BRANCH   1   2
ATOM      2  C   UNL A   1      32.334  29.544  25.002  1.00  0.00     0.261 C 
BRANCH   2   3
ATOM      3  O   UNL A   1      31.843  28.215  24.786  1.00  0.00    -0.460 OA
BRANCH   3   4
ATOM      4  C   UNL A   1      31.487  27.932  23.513  1.00  0.00     0.340 C 
ATOM      5  O   UNL A   1      32.238  27.732  22.574  1.00  0.00    -0.246 OA
BRANCH   4   6
ATOM      6  C   UNL A   1      30.015  27.845  23.406  1.00  0.00     0.086 A 
ATOM      7  C   UNL A   1      29.297  26.747  23.933  1.00  0.00    -0.002 A 
ATOM      8  C   UNL A   1      27.888  26.830  23.944  1.00  0.00     0.010 A 
ATOM      9  C   UNL A   1      27.211  27.922  23.401  1.00  0.00     0.002 A 
ATOM     10  C   UNL A   1      29.329  28.918  22.811  1.00  0.00     0.056 A 
ATOM     11  C   UNL A   1      27.932  28.951  22.808  1.00  0.00     0.021 A 
ATOM     12  Cl  UNL A   1      30.138  30.204  21.979  1.00  0.00    -0.083 Cl
BRANCH   7  13
ATOM     13  C   UNL A   1      29.923  25.518  24.456  1.00  0.00    -0.017 A 
ATOM     14  C   UNL A   1      31.222  23.236  25.508  1.00  0.00     0.044 A 
ATOM     15  C   UNL A   1      30.655  24.173  26.368  1.00  0.00     0.027 A 
ATOM     16  C   UNL A   1      31.058  23.399  24.131  1.00  0.00     0.027 A 
ATOM     17  C   UNL A   1      30.021  25.305  25.846  1.00  0.00     0.011 A 
ATOM     18  C   UNL A   1      30.440  24.536  23.609  1.00  0.00     0.011 A 
BRANCH  14  19
ATOM     19  N   UNL A   1      31.952  22.175  26.071  1.00  0.00    -0.291 N 
ATOM     20  C   UNL A   1      33.285  22.153  26.399  1.00  0.00     0.412 C 
ATOM     21  O   UNL A   1      33.822  21.136  26.822  1.00  0.00    -0.224 OA
ATOM     22  H   UNL A   1      31.447  21.349  26.250  1.00  0.00     0.173 HD
BRANCH  20  23
ATOM     23  O   UNL A   1      33.880  23.362  26.294  1.00  0.00    -0.444 OA
BRANCH  23  24
ATOM     24  C   UNL A   1      34.743  23.724  25.194  1.00  0.00     0.106 C 
ATOM     25  C   UNL A   1      36.150  23.779  25.808  1.00  0.00     0.056 C 
ATOM     26  C   UNL A   1      34.382  25.112  24.674  1.00  0.00     0.056 C 
ATOM     27  C   UNL A   1      34.718  22.657  24.099  1.00  0.00     0.056 C 
ENDBRANCH  23  24
ENDBRANCH  20  23
ENDBRANCH  14  19
ENDBRANCH   7  13
ENDBRANCH   4   6
ENDBRANCH   3   4
ENDBRANCH   2   3
ENDBRANCH   1   2
BRANCH   1  28
ATOM     28  O   UNL A   1      33.047  30.751  27.098  1.00  0.00    -0.374 OA
BRANCH  28  29
ATOM     29  C   UNL A   1      31.892  31.569  26.929  1.00  0.00     0.202 C 
BRANCH  29  30
ATOM     30  C   UNL A   1      32.075  33.094  26.977  1.00  0.00     0.261 C 
BRANCH  30  31
ATOM     31  O   UNL A   1      32.128  33.648  28.302  1.00  0.00    -0.460 OA
BRANCH  31  32
ATOM     32  C   UNL A   1      33.178  34.479  28.515  1.00  0.00     0.338 C 
ATOM     33  O   UNL A   1      33.156  35.695  28.606  1.00  0.00    -0.246 OA
BRANCH  32  34
ATOM     34  C   UNL A   1      34.404  33.705  28.779  1.00  0.00     0.060 A 
ATOM     35  C   UNL A   1      34.434  32.920  29.938  1.00  0.00     0.016 A 
ATOM     36  C   UNL A   1      35.541  33.836  27.980  1.00  0.00     0.016 A 
ATOM     37  C   UNL A   1      35.616  32.290  30.321  1.00  0.00     0.010 A 
ATOM     38  C   UNL A   1      36.730  33.209  28.372  1.00  0.00     0.010 A 
ATOM     39  C   UNL A   1      36.781  32.457  29.560  1.00  0.00    -0.014 A 
BRANCH  39  40
ATOM     40  C   UNL A   1      38.063  31.924  30.083  1.00  0.00     0.031 A 
ATOM     41  C   UNL A   1      38.587  30.606  29.580  1.00  0.00     0.074 A 
ATOM     42  C   UNL A   1      38.790  32.646  30.954  1.00  0.00     0.049 A 
ATOM     43  N   UNL A   1      39.709  29.993  29.871  1.00  0.00    -0.248 NA
ATOM     44  C   UNL A   1      37.736  29.880  28.625  1.00  0.00     0.031 C 
ATOM     45  C   UNL A   1      38.406  33.946  31.507  1.00  0.00     0.029 A 
ATOM     46  N   UNL A   1      40.012  32.387  31.519  1.00  0.00    -0.354 N 
ATOM     47  C   UNL A   1      39.698  28.813  29.137  1.00  0.00     0.074 A 
ATOM     48  C   UNL A   1      38.441  28.777  28.418  1.00  0.00     0.031 C 
ATOM     49  C   UNL A   1      39.380  34.374  32.327  1.00  0.00     0.029 A 
ATOM     50  C   UNL A   1      40.441  33.372  32.372  1.00  0.00     0.049 A 
ATOM     51  H   UNL A   1      40.532  31.572  31.330  1.00  0.00     0.167 HD
ATOM     52  C   UNL A   1      40.650  27.850  29.059  1.00  0.00     0.031 A 
ATOM     53  C   UNL A   1      41.561  33.452  33.114  1.00  0.00     0.031 A 
ATOM     54  C   UNL A   1      41.891  27.871  29.791  1.00  0.00     0.049 A 
ATOM     55  C   UNL A   1      42.572  32.341  33.058  1.00  0.00     0.074 A 
ATOM     56  C   UNL A   1      42.923  26.948  29.768  1.00  0.00     0.029 A 
ATOM     57  N   UNL A   1      42.264  28.863  30.685  1.00  0.00    -0.354 N 
ATOM     58  N   UNL A   1      42.559  31.242  32.345  1.00  0.00    -0.248 NA
ATOM     59  C   UNL A   1      43.759  32.495  33.912  1.00  0.00     0.031 C 
ATOM     60  C   UNL A   1      43.893  27.351  30.694  1.00  0.00     0.029 A 
ATOM     61  C   UNL A   1      43.497  28.560  31.241  1.00  0.00     0.049 A 
ATOM     62  H   UNL A   1      41.733  29.664  30.893  1.00  0.00     0.167 HD
ATOM     63  C   UNL A   1      43.739  30.578  32.655  1.00  0.00     0.074 A 
ATOM     64  C   UNL A   1      44.456  31.413  33.597  1.00  0.00     0.031 C 
ATOM     65  C   UNL A   1      44.188  29.381  32.202  1.00  0.00     0.031 A 
BRANCH  52  66
ATOM     66  C   UNL A   1      40.365  26.670  28.170  1.00  0.00    -0.014 A 
ATOM     67  C   UNL A   1      39.614  25.574  28.627  1.00  0.00     0.009 A 
ATOM     68  C   UNL A   1      40.830  26.666  26.846  1.00  0.00     0.009 A 
ATOM     69  C   UNL A   1      39.372  24.483  27.788  1.00  0.00     0.001 A 
ATOM     70  C   UNL A   1      40.561  25.587  26.000  1.00  0.00     0.001 A 
ATOM     71  C   UNL A   1      39.841  24.493  26.475  1.00  0.00     0.000 A 
ENDBRANCH  52  66
BRANCH  53  72
ATOM     72  C   UNL A   1      41.788  34.617  34.004  1.00  0.00    -0.014 A 
ATOM     73  C   UNL A   1      42.461  35.757  33.543  1.00  0.00     0.009 A 
ATOM     74  C   UNL A   1      41.362  34.569  35.339  1.00  0.00     0.009 A 
ATOM     75  C   UNL A   1      42.716  36.824  34.409  1.00  0.00     0.001 A 
ATOM     76  C   UNL A   1      41.603  35.644  36.196  1.00  0.00     0.001 A 
ATOM     77  C   UNL A   1      42.282  36.769  35.733  1.00  0.00     0.000 A 
ENDBRANCH  53  72
BRANCH  65  78
ATOM     78  C   UNL A   1      45.526  28.921  32.714  1.00  0.00    -0.014 A 
ATOM     79  C   UNL A   1      46.717  29.260  32.053  1.00  0.00     0.009 A 
ATOM     80  C   UNL A   1      45.594  28.128  33.871  1.00  0.00     0.009 A 
ATOM     81  C   UNL A   1      47.944  28.773  32.511  1.00  0.00     0.001 A 
ATOM     82  C   UNL A   1      46.823  27.671  34.345  1.00  0.00     0.001 A 
ATOM     83  C   UNL A   1      47.995  27.981  33.658  1.00  0.00     0.000 A 
ENDBRANCH  65  78
ENDBRANCH  39  40
ENDBRANCH  32  34
ENDBRANCH  31  32
ENDBRANCH  30  31
ENDBRANCH  29  30
ENDBRANCH  28  29
ENDBRANCH   1  28
TORSDOF 18
ENDMDL
MODEL 2
REMARK VINA RESULT:     -10.3      1.515      5.758
REMARK SMILES CC(C)(C)OC(=O)Nc1ccc(-c2cccc(Cl)c2C(=O)OCCOCCOC(=O)c2ccc(-c3c4nc(c(-c5ccccc5)c5ccc([nH]5)c(-c5ccccc5)c5nc(c(-c6ccccc6)c6ccc3[nH]6)C=C5)C=C4)cc2)cc1
REMARK SMILES IDX 24 1 23 2 22 3 20 4 21 5 19 6 13 7 14 8 15 9 17 10 16 11
REMARK SMILES IDX 18 12 12 13 9 14 10 15 80 16 11 17 79 18 8 19 6 20 7 21 5 23
REMARK SMILES IDX 2 24 1 25 3 26 4 27 25 28 26 29 27 30 28 31 29 32 30 33
REMARK SMILES IDX 31 34 32 35 78 36 33 37 77 38 34 39 35 40 36 41 71 42 37 43
REMARK SMILES IDX 76 44 70 45 72 46 38 47 75 48 69 49 68 50 39 52 61 53 46 54
REMARK SMILES IDX 60 55 47 56 50 57 59 58 73 59 48 60 49 61 58 63 74 64 51 65
REMARK SMILES IDX 40 66 41 67 45 68 42 69 44 70 43 71 62 72 63 73 67 74 64 75
REMARK SMILES IDX 66 76 65 77 52 78 53 79 57 80 54 81 56 82 55 83
REMARK H PARENT 8 22 72 51 50 62
REMARK Flexibility Score: inf
ROOT
ATOM      1  C   UNL A   1      32.587  30.033  26.195  1.00  0.00     0.202 C 
ENDROOT
BRANCH   1   2
ATOM      2  C   UNL A   1      31.507  29.780  25.143  1.00  0.00     0.261 C 
BRANCH   2   3
ATOM      3  O   UNL A   1      31.590  28.430  24.666  1.00  0.00    -0.460 OA
BRANCH   3   4
ATOM      4  C   UNL A   1      31.177  28.243  23.393  1.00  0.00     0.340 C 
ATOM      5  O   UNL A   1      31.881  28.184  22.399  1.00  0.00    -0.246 OA
BRANCH   4   6
ATOM      6  C   UNL A   1      29.709  28.066  23.357  1.00  0.00     0.086 A 
ATOM      7  C   UNL A   1      29.088  26.915  23.894  1.00  0.00    -0.002 A 
ATOM      8  C   UNL A   1      27.679  26.909  23.976  1.00  0.00     0.010 A 
ATOM      9  C   UNL A   1      26.909  27.966  23.493  1.00  0.00     0.002 A 
ATOM     10  C   UNL A   1      28.929  29.106  22.821  1.00  0.00     0.056 A 
ATOM     11  C   UNL A   1      27.534  29.050  22.889  1.00  0.00     0.021 A 
ATOM     12  Cl  UNL A   1      29.613  30.456  21.981  1.00  0.00    -0.083 Cl
BRANCH   7  13
ATOM     13  C   UNL A   1      29.816  25.718  24.357  1.00  0.00    -0.017 A 
ATOM     14  C   UNL A   1      31.114  23.348  25.193  1.00  0.00     0.044 A 
ATOM     15  C   UNL A   1      31.018  23.648  23.837  1.00  0.00     0.027 A 
ATOM     16  C   UNL A   1      30.642  24.276  26.124  1.00  0.00     0.027 A 
ATOM     17  C   UNL A   1      30.368  24.816  23.425  1.00  0.00     0.011 A 
ATOM     18  C   UNL A   1      29.979  25.433  25.714  1.00  0.00     0.011 A 
BRANCH  14  19
ATOM     19  N   UNL A   1      31.669  22.110  25.561  1.00  0.00    -0.291 N 
ATOM     20  C   UNL A   1      32.955  21.852  25.964  1.00  0.00     0.412 C 
ATOM     21  O   UNL A   1      33.336  20.710  26.192  1.00  0.00    -0.224 OA
ATOM     22  H   UNL A   1      31.062  21.336  25.523  1.00  0.00     0.173 HD
BRANCH  20  23
ATOM     23  O   UNL A   1      33.687  22.971  26.163  1.00  0.00    -0.444 OA
BRANCH  23  24
ATOM     24  C   UNL A   1      34.752  23.385  25.281  1.00  0.00     0.106 C 
ATOM     25  C   UNL A   1      34.579  24.905  25.152  1.00  0.00     0.056 C 
ATOM     26  C   UNL A   1      34.573  22.753  23.903  1.00  0.00     0.056 C 
ATOM     27  C   UNL A   1      36.122  23.089  25.893  1.00  0.00     0.056 C 
ENDBRANCH  23  24
ENDBRANCH  20  23
ENDBRANCH  14  19
ENDBRANCH   7  13
ENDBRANCH   4   6
ENDBRANCH   3   4
ENDBRANCH   2   3
ENDBRANCH   1   2
BRANCH   1  28
ATOM     28  O   UNL A   1      32.263  30.934  27.253  1.00  0.00    -0.374 OA
BRANCH  28  29
ATOM     29  C   UNL A   1      31.731  32.212  26.912  1.00  0.00     0.202 C 
BRANCH  29  30
ATOM     30  C   UNL A   1      32.610  33.448  27.157  1.00  0.00     0.261 C 
BRANCH  30  31
ATOM     31  O   UNL A   1      32.151  34.306  28.215  1.00  0.00    -0.460 OA
BRANCH  31  32
ATOM     32  C   UNL A   1      33.135  35.017  28.819  1.00  0.00     0.338 C 
ATOM     33  O   UNL A   1      33.081  36.168  29.220  1.00  0.00    -0.246 OA
BRANCH  32  34
ATOM     34  C   UNL A   1      34.305  34.159  29.082  1.00  0.00     0.060 A 
ATOM     35  C   UNL A   1      34.111  33.033  29.891  1.00  0.00     0.016 A 
ATOM     36  C   UNL A   1      35.584  34.511  28.650  1.00  0.00     0.016 A 
ATOM     37  C   UNL A   1      35.203  32.274  30.301  1.00  0.00     0.010 A 
ATOM     38  C   UNL A   1      36.683  33.751  29.070  1.00  0.00     0.010 A 
ATOM     39  C   UNL A   1      36.501  32.646  29.923  1.00  0.00    -0.014 A 
BRANCH  39  40
ATOM     40  C   UNL A   1      37.655  31.928  30.515  1.00  0.00     0.031 A 
ATOM     41  C   UNL A   1      38.088  32.236  31.923  1.00  0.00     0.074 A 
ATOM     42  C   UNL A   1      38.272  30.953  29.823  1.00  0.00     0.049 A 
ATOM     43  N   UNL A   1      39.036  31.684  32.640  1.00  0.00    -0.248 NA
ATOM     44  C   UNL A   1      37.361  33.311  32.615  1.00  0.00     0.031 C 
ATOM     45  C   UNL A   1      37.939  30.542  28.458  1.00  0.00     0.029 A 
ATOM     46  N   UNL A   1      39.304  30.127  30.182  1.00  0.00    -0.354 N 
ATOM     47  C   UNL A   1      39.019  32.341  33.864  1.00  0.00     0.074 A 
ATOM     48  C   UNL A   1      37.993  33.360  33.779  1.00  0.00     0.031 C 
ATOM     49  C   UNL A   1      38.750  29.533  28.099  1.00  0.00     0.029 A 
ATOM     50  C   UNL A   1      39.668  29.243  29.196  1.00  0.00     0.049 A 
ATOM     51  H   UNL A   1      39.743  30.162  31.063  1.00  0.00     0.167 HD
ATOM     52  C   UNL A   1      39.780  32.114  34.963  1.00  0.00     0.031 A 
ATOM     53  C   UNL A   1      40.639  28.312  29.180  1.00  0.00     0.031 A 
ATOM     54  C   UNL A   1      40.817  31.118  35.044  1.00  0.00     0.049 A 
ATOM     55  C   UNL A   1      41.511  28.122  30.389  1.00  0.00     0.074 A 
ATOM     56  C   UNL A   1      41.632  30.804  36.119  1.00  0.00     0.029 A 
ATOM     57  N   UNL A   1      41.188  30.278  34.005  1.00  0.00    -0.354 N 
ATOM     58  N   UNL A   1      41.470  28.737  31.546  1.00  0.00    -0.248 NA
ATOM     59  C   UNL A   1      42.561  27.099  30.284  1.00  0.00     0.031 C 
ATOM     60  C   UNL A   1      42.538  29.817  35.710  1.00  0.00     0.029 A 
ATOM     61  C   UNL A   1      42.240  29.468  34.403  1.00  0.00     0.049 A 
ATOM     62  H   UNL A   1      40.768  30.260  33.116  1.00  0.00     0.167 HD
ATOM     63  C   UNL A   1      42.480  28.167  32.310  1.00  0.00     0.074 A 
ATOM     64  C   UNL A   1      43.095  27.138  31.495  1.00  0.00     0.031 C 
ATOM     65  C   UNL A   1      42.866  28.469  33.575  1.00  0.00     0.031 A 
BRANCH  52  66
ATOM     66  C   UNL A   1      39.536  32.990  36.163  1.00  0.00    -0.014 A 
ATOM     67  C   UNL A   1      38.600  32.635  37.149  1.00  0.00     0.009 A 
ATOM     68  C   UNL A   1      40.273  34.173  36.325  1.00  0.00     0.009 A 
ATOM     69  C   UNL A   1      38.381  33.469  38.249  1.00  0.00     0.001 A 
ATOM     70  C   UNL A   1      40.074  34.988  37.441  1.00  0.00     0.001 A 
ATOM     71  C   UNL A   1      39.121  34.641  38.396  1.00  0.00     0.000 A 
ENDBRANCH  52  66
BRANCH  53  72
ATOM     72  C   UNL A   1      40.869  27.493  27.964  1.00  0.00    -0.014 A 
ATOM     73  C   UNL A   1      40.255  26.243  27.810  1.00  0.00     0.009 A 
ATOM     74  C   UNL A   1      41.745  27.950  26.969  1.00  0.00     0.009 A 
ATOM     75  C   UNL A   1      40.525  25.458  26.685  1.00  0.00     0.001 A 
ATOM     76  C   UNL A   1      41.999  27.171  25.839  1.00  0.00     0.001 A 
ATOM     77  C   UNL A   1      41.391  25.926  25.698  1.00  0.00     0.000 A 
ENDBRANCH  53  72
BRANCH  65  78
ATOM     78  C   UNL A   1      43.998  27.662  34.150  1.00  0.00    -0.014 A 
ATOM     79  C   UNL A   1      45.336  28.044  33.964  1.00  0.00     0.009 A 
ATOM     80  C   UNL A   1      43.721  26.496  34.882  1.00  0.00     0.009 A 
ATOM     81  C   UNL A   1      46.374  27.248  34.456  1.00  0.00     0.001 A 
ATOM     82  C   UNL A   1      44.758  25.721  35.400  1.00  0.00     0.001 A 
ATOM     83  C   UNL A   1      46.083  26.089  35.175  1.00  0.00     0.000 A 
ENDBRANCH  65  78
ENDBRANCH  39  40
ENDBRANCH  32  34
ENDBRANCH  31  32
ENDBRANCH  30  31
ENDBRANCH  29  30
ENDBRANCH  28  29
ENDBRANCH   1  28
TORSDOF 18
ENDMDL
MODEL 3
REMARK VINA RESULT:     -10.2      2.176      6.526
REMARK SMILES CC(C)(C)OC(=O)Nc1ccc(-c2cccc(Cl)c2C(=O)OCCOCCOC(=O)c2ccc(-c3c4nc(c(-c5ccccc5)c5ccc([nH]5)c(-c5ccccc5)c5nc(c(-c6ccccc6)c6ccc3[nH]6)C=C5)C=C4)cc2)cc1
REMARK SMILES IDX 24 1 23 2 22 3 20 4 21 5 19 6 13 7 14 8 15 9 17 10 16 11
REMARK SMILES IDX 18 12 12 13 9 14 10 15 80 16 11 17 79 18 8 19 6 20 7 21 5 23
REMARK SMILES IDX 2 24 1 25 3 26 4 27 25 28 26 29 27 30 28 31 29 32 30 33
REMARK SMILES IDX 31 34 32 35 78 36 33 37 77 38 34 39 35 40 36 41 71 42 37 43
REMARK SMILES IDX 76 44 70 45 72 46 38 47 75 48 69 49 68 50 39 52 61 53 46 54
REMARK SMILES IDX 60 55 47 56 50 57 59 58 73 59 48 60 49 61 58 63 74 64 51 65
REMARK SMILES IDX 40 66 41 67 45 68 42 69 44 70 43 71 62 72 63 73 67 74 64 75
REMARK SMILES IDX 66 76 65 77 52 78 53 79 57 80 54 81 56 82 55 83
REMARK H PARENT 8 22 72 51 50 62
REMARK Flexibility Score: inf
ROOT
ATOM      1  C   UNL A   1      33.535  28.185  25.621  1.00  0.00     0.202 C 
ENDROOT
BRANCH   1   2
ATOM      2  C   UNL A   1      33.065  29.035  24.441  1.00  0.00     0.261 C 
BRANCH   2   3
ATOM      3  O   UNL A   1      31.645  28.914  24.282  1.00  0.00    -0.460 OA
BRANCH   3   4
ATOM      4  C   UNL A   1      31.246  28.176  23.223  1.00  0.00     0.340 C 
ATOM      5  O   UNL A   1      31.963  27.662  22.380  1.00  0.00    -0.246 OA
BRANCH   4   6
ATOM      6  C   UNL A   1      29.775  28.023  23.238  1.00  0.00     0.086 A 
ATOM      7  C   UNL A   1      29.152  26.909  23.845  1.00  0.00    -0.002 A 
ATOM      8  C   UNL A   1      27.746  26.931  23.969  1.00  0.00     0.010 A 
ATOM      9  C   UNL A   1      26.979  27.978  23.460  1.00  0.00     0.002 A 
ATOM     10  C   UNL A   1      28.996  29.050  22.677  1.00  0.00     0.056 A 
ATOM     11  C   UNL A   1      27.603  29.021  22.788  1.00  0.00     0.021 A 
ATOM     12  Cl  UNL A   1      29.676  30.348  21.755  1.00  0.00    -0.083 Cl
BRANCH   7  13
ATOM     13  C   UNL A   1      29.874  25.722  24.342  1.00  0.00    -0.017 A 
ATOM     14  C   UNL A   1      31.157  23.371  25.253  1.00  0.00     0.044 A 
ATOM     15  C   UNL A   1      30.997  23.592  23.888  1.00  0.00     0.027 A 
ATOM     16  C   UNL A   1      30.757  24.365  26.149  1.00  0.00     0.027 A 
ATOM     17  C   UNL A   1      30.354  24.751  23.440  1.00  0.00     0.011 A 
ATOM     18  C   UNL A   1      30.102  25.514  25.704  1.00  0.00     0.011 A 
BRANCH  14  19
ATOM     19  N   UNL A   1      31.700  22.142  25.667  1.00  0.00    -0.291 N 
ATOM     20  C   UNL A   1      33.008  21.862  25.974  1.00  0.00     0.412 C 
ATOM     21  O   UNL A   1      33.369  20.726  26.256  1.00  0.00    -0.224 OA
ATOM     22  H   UNL A   1      31.066  21.393  25.743  1.00  0.00     0.173 HD
BRANCH  20  23
ATOM     23  O   UNL A   1      33.793  22.962  26.019  1.00  0.00    -0.444 OA
BRANCH  23  24
ATOM     24  C   UNL A   1      34.844  23.221  25.065  1.00  0.00     0.106 C 
ATOM     25  C   UNL A   1      34.764  24.732  24.801  1.00  0.00     0.056 C 
ATOM     26  C   UNL A   1      34.568  22.482  23.759  1.00  0.00     0.056 C 
ATOM     27  C   UNL A   1      36.217  22.890  25.652  1.00  0.00     0.056 C 
ENDBRANCH  23  24
ENDBRANCH  20  23
ENDBRANCH  14  19
ENDBRANCH   7  13
ENDBRANCH   4   6
ENDBRANCH   3   4
ENDBRANCH   2   3
ENDBRANCH   1   2
BRANCH   1  28
ATOM     28  O   UNL A   1      33.564  28.812  26.903  1.00  0.00    -0.374 OA
BRANCH  28  29
ATOM     29  C   UNL A   1      32.570  29.791  27.196  1.00  0.00     0.202 C 
BRANCH  29  30
ATOM     30  C   UNL A   1      33.030  31.239  27.427  1.00  0.00     0.261 C 
BRANCH  30  31
ATOM     31  O   UNL A   1      34.456  31.418  27.431  1.00  0.00    -0.460 OA
BRANCH  31  32
ATOM     32  C   UNL A   1      35.003  31.489  28.669  1.00  0.00     0.338 C 
ATOM     33  O   UNL A   1      34.528  32.014  29.662  1.00  0.00    -0.246 OA
BRANCH  32  34
ATOM     34  C   UNL A   1      36.245  30.697  28.731  1.00  0.00     0.060 A 
ATOM     35  C   UNL A   1      36.809  30.479  29.994  1.00  0.00     0.016 A 
ATOM     36  C   UNL A   1      36.908  30.282  27.575  1.00  0.00     0.016 A 
ATOM     37  C   UNL A   1      38.058  29.874  30.102  1.00  0.00     0.010 A 
ATOM     38  C   UNL A   1      38.169  29.681  27.687  1.00  0.00     0.010 A 
ATOM     39  C   UNL A   1      38.763  29.502  28.949  1.00  0.00    -0.014 A 
BRANCH  39  40
ATOM     40  C   UNL A   1      40.161  29.023  29.085  1.00  0.00     0.031 A 
ATOM     41  C   UNL A   1      41.201  29.915  29.709  1.00  0.00     0.074 A 
ATOM     42  C   UNL A   1      40.485  27.771  28.716  1.00  0.00     0.049 A 
ATOM     43  N   UNL A   1      42.461  29.665  29.966  1.00  0.00    -0.248 NA
ATOM     44  C   UNL A   1      40.766  31.267  30.091  1.00  0.00     0.031 C 
ATOM     45  C   UNL A   1      39.569  26.799  28.117  1.00  0.00     0.029 A 
ATOM     46  N   UNL A   1      41.678  27.102  28.802  1.00  0.00    -0.354 N 
ATOM     47  C   UNL A   1      42.969  30.825  30.539  1.00  0.00     0.074 A 
ATOM     48  C   UNL A   1      41.891  31.792  30.555  1.00  0.00     0.031 C 
ATOM     49  C   UNL A   1      40.235  25.654  27.896  1.00  0.00     0.029 A 
ATOM     50  C   UNL A   1      41.623  25.819  28.318  1.00  0.00     0.049 A 
ATOM     51  H   UNL A   1      42.496  27.503  29.176  1.00  0.00     0.167 HD
ATOM     52  C   UNL A   1      44.215  31.064  31.016  1.00  0.00     0.031 A 
ATOM     53  C   UNL A   1      42.587  24.886  28.218  1.00  0.00     0.031 A 
ATOM     54  C   UNL A   1      45.297  30.113  30.981  1.00  0.00     0.049 A 
ATOM     55  C   UNL A   1      43.978  25.197  28.698  1.00  0.00     0.074 A 
ATOM     56  C   UNL A   1      46.591  30.258  31.453  1.00  0.00     0.029 A 
ATOM     57  N   UNL A   1      45.213  28.841  30.435  1.00  0.00    -0.354 N 
ATOM     58  N   UNL A   1      44.438  26.290  29.255  1.00  0.00    -0.248 NA
ATOM     59  C   UNL A   1      44.978  24.132  28.536  1.00  0.00     0.031 C 
ATOM     60  C   UNL A   1      47.307  29.096  31.136  1.00  0.00     0.029 A 
ATOM     61  C   UNL A   1      46.440  28.203  30.531  1.00  0.00     0.049 A 
ATOM     62  H   UNL A   1      44.403  28.450  30.038  1.00  0.00     0.167 HD
ATOM     63  C   UNL A   1      45.778  26.041  29.521  1.00  0.00     0.074 A 
ATOM     64  C   UNL A   1      46.047  24.683  29.091  1.00  0.00     0.031 C 
ATOM     65  C   UNL A   1      46.706  26.863  30.071  1.00  0.00     0.031 A 
BRANCH  52  66
ATOM     66  C   UNL A   1      44.483  32.428  31.592  1.00  0.00    -0.014 A 
ATOM     67  C   UNL A   1      44.368  32.677  32.970  1.00  0.00     0.009 A 
ATOM     68  C   UNL A   1      44.885  33.475  30.747  1.00  0.00     0.009 A 
ATOM     69  C   UNL A   1      44.610  33.954  33.482  1.00  0.00     0.001 A 
ATOM     70  C   UNL A   1      45.156  34.744  31.266  1.00  0.00     0.001 A 
ATOM     71  C   UNL A   1      45.007  34.984  32.630  1.00  0.00     0.000 A 
ENDBRANCH  52  66
BRANCH  53  72
ATOM     72  C   UNL A   1      42.290  23.564  27.613  1.00  0.00    -0.014 A 
ATOM     73  C   UNL A   1      42.500  23.334  26.246  1.00  0.00     0.009 A 
ATOM     74  C   UNL A   1      41.752  22.539  28.402  1.00  0.00     0.009 A 
ATOM     75  C   UNL A   1      42.163  22.102  25.678  1.00  0.00     0.001 A 
ATOM     76  C   UNL A   1      41.432  21.304  27.835  1.00  0.00     0.001 A 
ATOM     77  C   UNL A   1      41.635  21.086  26.475  1.00  0.00     0.000 A 
ENDBRANCH  53  72
BRANCH  65  78
ATOM     78  C   UNL A   1      48.090  26.302  30.248  1.00  0.00    -0.014 A 
ATOM     79  C   UNL A   1      48.463  25.636  31.427  1.00  0.00     0.009 A 
ATOM     80  C   UNL A   1      49.038  26.450  29.223  1.00  0.00     0.009 A 
ATOM     81  C   UNL A   1      49.771  25.175  31.595  1.00  0.00     0.001 A 
ATOM     82  C   UNL A   1      50.335  25.959  29.380  1.00  0.00     0.001 A 
ATOM     83  C   UNL A   1      50.704  25.335  30.570  1.00  0.00     0.000 A 
ENDBRANCH  65  78
ENDBRANCH  39  40
ENDBRANCH  32  34
ENDBRANCH  31  32
ENDBRANCH  30  31
ENDBRANCH  29  30
ENDBRANCH  28  29
ENDBRANCH   1  28
TORSDOF 18
ENDMDL
