MODEL 1
REMARK VINA RESULT:     -11.4      0.000      0.000
REMARK SMILES O=C(OCCOCCOC(=O)c1ccc(-c2c3nc(c(-c4ccccc4)c4ccc([nH]4)c(-c4ccccc4)c4nc(c(-c5ccccc5)c5ccc2[nH]5)C=C4)C=C3)cc1)C1=Cc2cc(S(F)(F)(F)(F)F)ccc2O[C@H]1C(F)(F)F
REMARK SMILES IDX 7 1 6 2 5 3 4 4 3 5 2 6 1 7 60 8 61 9 75 10 62 11 74 12
REMARK SMILES IDX 63 13 73 14 64 15 72 16 71 17 76 18 77 19 78 20 79 21 65 22
REMARK SMILES IDX 66 23 67 24 68 25 69 26 70 27 8 28 9 29 10 30 11 31 12 32
REMARK SMILES IDX 13 33 59 34 14 35 58 36 15 37 16 38 17 39 52 40 18 41 57 42
REMARK SMILES IDX 51 43 53 44 19 45 56 46 50 47 49 48 20 50 42 51 27 52 41 53
REMARK SMILES IDX 28 54 31 55 40 56 54 57 29 58 30 59 39 61 55 62 32 63 21 64
REMARK SMILES IDX 22 65 26 66 23 67 25 68 24 69 43 70 44 71 48 72 45 73 47 74
REMARK SMILES IDX 46 75 33 76 34 77 38 78 35 79 37 80 36 81
REMARK H PARENT 53 49 31 60
REMARK Flexibility Score: inf
ROOT
ATOM      1  C   UNL A   1      37.532  20.230  24.854  1.00  0.00     0.202 C 
ENDROOT
BRANCH   1   2
ATOM      2  O   UNL A   1      37.099  21.477  24.332  1.00  0.00    -0.374 OA
BRANCH   2   3
ATOM      3  C   UNL A   1      36.954  22.411  25.393  1.00  0.00     0.202 C 
BRANCH   3   4
ATOM      4  C   UNL A   1      35.543  22.976  25.380  1.00  0.00     0.261 C 
BRANCH   4   5
ATOM      5  O   UNL A   1      35.159  23.261  24.043  1.00  0.00    -0.460 OA
BRANCH   5   6
ATOM      6  C   UNL A   1      33.821  23.034  23.626  1.00  0.00     0.338 C 
ATOM      7  O   UNL A   1      33.561  22.855  22.394  1.00  0.00    -0.246 OA
BRANCH   6   8
ATOM      8  C   UNL A   1      32.699  23.004  24.651  1.00  0.00     0.087 C 
ATOM      9  C   UNL A   1      32.285  24.159  25.240  1.00  0.00     0.027 C 
ATOM     10  C   UNL A   1      32.040  21.685  25.020  1.00  0.00     0.316 C 
ATOM     11  C   UNL A   1      32.945  25.478  24.872  1.00  0.00     0.019 A 
ATOM     12  O   UNL A   1      32.957  24.669  22.638  1.00  0.00    -0.475 OA
ATOM     13  C   UNL A   1      33.269  26.421  25.834  1.00  0.00     0.036 A 
ATOM     14  C   UNL A   1      33.149  25.713  23.581  1.00  0.00     0.128 A 
ATOM     15  C   UNL A   1      33.539  27.707  25.308  1.00  0.00     0.107 A 
ATOM     16  C   UNL A   1      33.545  26.956  23.150  1.00  0.00     0.048 A 
ATOM     17  C   UNL A   1      33.824  27.954  24.042  1.00  0.00     0.028 A 
BRANCH  10  18
ATOM     18  C   UNL A   1      32.683  20.559  24.226  1.00  0.00     0.430 C 
ATOM     19  F   UNL A   1      32.376  20.671  22.937  1.00  0.00    -0.167 F 
ATOM     20  F   UNL A   1      34.003  20.590  24.373  1.00  0.00    -0.167 F 
ATOM     21  F   UNL A   1      32.211  19.407  24.694  1.00  0.00    -0.167 F 
ENDBRANCH  10  18
BRANCH  15  22
ATOM     22  S   UNL A   1      33.490  29.110  26.450  1.00  0.00     0.310 S 
ATOM     23  F   UNL A   1      33.380  28.162  27.717  1.00  0.00    -0.094 F 
ATOM     24  F   UNL A   1      31.916  29.077  26.375  1.00  0.00    -0.094 F 
ATOM     25  F   UNL A   1      33.445  30.319  27.427  1.00  0.00    -0.094 F 
ATOM     26  F   UNL A   1      35.058  29.038  26.623  1.00  0.00    -0.094 F 
ATOM     27  F   UNL A   1      33.545  27.812  25.548  1.00  0.00    -0.094 F 
ENDBRANCH  15  22
ENDBRANCH   6   8
ENDBRANCH   5   6
ENDBRANCH   4   5
ENDBRANCH   3   4
ENDBRANCH   2   3
ENDBRANCH   1   2
BRANCH   1  28
ATOM     28  C   UNL A   1      38.763  20.444  25.719  1.00  0.00     0.261 C 
BRANCH  28  29
ATOM     29  O   UNL A   1      39.694  19.397  25.486  1.00  0.00    -0.460 OA
BRANCH  29  30
ATOM     30  C   UNL A   1      41.024  19.510  25.970  1.00  0.00     0.338 C 
ATOM     31  O   UNL A   1      41.814  18.518  25.897  1.00  0.00    -0.246 OA
BRANCH  30  32
ATOM     32  C   UNL A   1      41.503  20.819  26.577  1.00  0.00     0.060 A 
ATOM     33  C   UNL A   1      41.453  21.044  27.943  1.00  0.00     0.016 A 
ATOM     34  C   UNL A   1      41.881  21.775  25.736  1.00  0.00     0.016 A 
ATOM     35  C   UNL A   1      41.544  22.408  28.304  1.00  0.00     0.010 A 
ATOM     36  C   UNL A   1      42.084  23.058  26.181  1.00  0.00     0.010 A 
ATOM     37  C   UNL A   1      41.993  23.364  27.511  1.00  0.00    -0.014 A 
BRANCH  37  38
ATOM     38  C   UNL A   1      42.388  24.731  28.046  1.00  0.00     0.031 A 
ATOM     39  C   UNL A   1      43.765  24.943  28.124  1.00  0.00     0.074 A 
ATOM     40  C   UNL A   1      41.439  25.704  28.310  1.00  0.00     0.049 A 
ATOM     41  N   UNL A   1      44.398  26.079  28.420  1.00  0.00    -0.248 NA
ATOM     42  C   UNL A   1      44.773  23.902  27.877  1.00  0.00     0.031 C 
ATOM     43  C   UNL A   1      40.048  25.501  28.225  1.00  0.00     0.029 A 
ATOM     44  N   UNL A   1      41.651  27.010  28.693  1.00  0.00    -0.354 N 
ATOM     45  C   UNL A   1      45.719  25.895  28.377  1.00  0.00     0.074 A 
ATOM     46  C   UNL A   1      45.980  24.490  28.033  1.00  0.00     0.031 C 
ATOM     47  C   UNL A   1      39.430  26.664  28.563  1.00  0.00     0.029 A 
ATOM     48  C   UNL A   1      40.425  27.613  28.865  1.00  0.00     0.049 A 
ATOM     49  H   UNL A   1      42.528  27.439  28.822  1.00  0.00     0.167 HD
ATOM     50  C   UNL A   1      46.717  26.843  28.609  1.00  0.00     0.031 A 
ATOM     51  C   UNL A   1      40.168  28.916  29.262  1.00  0.00     0.031 A 
ATOM     52  C   UNL A   1      46.460  28.157  28.964  1.00  0.00     0.049 A 
ATOM     53  C   UNL A   1      41.167  29.849  29.550  1.00  0.00     0.074 A 
ATOM     54  C   UNL A   1      47.453  29.128  29.193  1.00  0.00     0.029 A 
ATOM     55  N   UNL A   1      45.233  28.754  29.160  1.00  0.00    -0.354 N 
ATOM     56  N   UNL A   1      42.487  29.675  29.469  1.00  0.00    -0.248 NA
ATOM     57  C   UNL A   1      40.906  31.222  30.004  1.00  0.00     0.031 C 
ATOM     58  C   UNL A   1      46.835  30.291  29.532  1.00  0.00     0.029 A 
ATOM     59  C   UNL A   1      45.446  30.066  29.520  1.00  0.00     0.049 A 
ATOM     60  H   UNL A   1      44.356  28.317  29.058  1.00  0.00     0.167 HD
ATOM     61  C   UNL A   1      43.120  30.801  29.806  1.00  0.00     0.074 A 
ATOM     62  C   UNL A   1      42.112  31.811  30.161  1.00  0.00     0.031 C 
ATOM     63  C   UNL A   1      44.497  31.029  29.827  1.00  0.00     0.031 A 
BRANCH  50  64
ATOM     64  C   UNL A   1      48.167  26.410  28.463  1.00  0.00    -0.014 A 
ATOM     65  C   UNL A   1      48.813  26.472  27.240  1.00  0.00     0.009 A 
ATOM     66  C   UNL A   1      48.761  25.893  29.533  1.00  0.00     0.009 A 
ATOM     67  C   UNL A   1      49.994  25.694  27.176  1.00  0.00     0.001 A 
ATOM     68  C   UNL A   1      49.979  25.266  29.420  1.00  0.00     0.001 A 
ATOM     69  C   UNL A   1      50.648  25.238  28.228  1.00  0.00     0.000 A 
ENDBRANCH  50  64
BRANCH  51  70
ATOM     70  C   UNL A   1      38.719  29.353  29.391  1.00  0.00    -0.014 A 
ATOM     71  C   UNL A   1      38.160  30.003  28.302  1.00  0.00     0.009 A 
ATOM     72  C   UNL A   1      37.997  29.073  30.469  1.00  0.00     0.009 A 
ATOM     73  C   UNL A   1      36.895  30.578  28.565  1.00  0.00     0.001 A 
ATOM     74  C   UNL A   1      36.717  29.555  30.600  1.00  0.00     0.001 A 
ATOM     75  C   UNL A   1      36.123  30.256  29.587  1.00  0.00     0.000 A 
ENDBRANCH  51  70
BRANCH  63  76
ATOM     76  C   UNL A   1      44.986  32.416  30.210  1.00  0.00    -0.014 A 
ATOM     77  C   UNL A   1      45.194  33.411  29.269  1.00  0.00     0.009 A 
ATOM     78  C   UNL A   1      45.311  32.595  31.485  1.00  0.00     0.009 A 
ATOM     79  C   UNL A   1      46.024  34.464  29.721  1.00  0.00     0.001 A 
ATOM     80  C   UNL A   1      46.005  33.714  31.879  1.00  0.00     0.001 A 
ATOM     81  C   UNL A   1      46.296  34.710  30.990  1.00  0.00     0.000 A 
ENDBRANCH  63  76
ENDBRANCH  37  38
ENDBRANCH  30  32
ENDBRANCH  29  30
ENDBRANCH  28  29
ENDBRANCH   1  28
TORSDOF 16
ENDMDL
MODEL 2
REMARK VINA RESULT:     -11.4      3.922      8.839
REMARK SMILES O=C(OCCOCCOC(=O)c1ccc(-c2c3nc(c(-c4ccccc4)c4ccc([nH]4)c(-c4ccccc4)c4nc(c(-c5ccccc5)c5ccc2[nH]5)C=C4)C=C3)cc1)C1=Cc2cc(S(F)(F)(F)(F)F)ccc2O[C@H]1C(F)(F)F
REMARK SMILES IDX 7 1 6 2 5 3 4 4 3 5 2 6 1 7 60 8 61 9 75 10 62 11 74 12
REMARK SMILES IDX 63 13 73 14 64 15 72 16 71 17 76 18 77 19 78 20 79 21 65 22
REMARK SMILES IDX 66 23 67 24 68 25 69 26 70 27 8 28 9 29 10 30 11 31 12 32
REMARK SMILES IDX 13 33 59 34 14 35 58 36 15 37 16 38 17 39 52 40 18 41 57 42
REMARK SMILES IDX 51 43 53 44 19 45 56 46 50 47 49 48 20 50 42 51 27 52 41 53
REMARK SMILES IDX 28 54 31 55 40 56 54 57 29 58 30 59 39 61 55 62 32 63 21 64
REMARK SMILES IDX 22 65 26 66 23 67 25 68 24 69 43 70 44 71 48 72 45 73 47 74
REMARK SMILES IDX 46 75 33 76 34 77 38 78 35 79 37 80 36 81
REMARK H PARENT 53 49 31 60
REMARK Flexibility Score: inf
ROOT
ATOM      1  C   UNL A   1      31.896  31.113  26.425  1.00  0.00     0.202 C 
ENDROOT
BRANCH   1   2
ATOM      2  O   UNL A   1      32.513  30.148  27.265  1.00  0.00    -0.374 OA
BRANCH   2   3
ATOM      3  C   UNL A   1      33.792  29.813  26.743  1.00  0.00     0.202 C 
BRANCH   3   4
ATOM      4  C   UNL A   1      33.978  28.306  26.788  1.00  0.00     0.261 C 
BRANCH   4   5
ATOM      5  O   UNL A   1      33.890  27.778  25.472  1.00  0.00    -0.460 OA
BRANCH   5   6
ATOM      6  C   UNL A   1      32.672  27.209  25.016  1.00  0.00     0.338 C 
ATOM      7  O   UNL A   1      31.654  27.191  25.777  1.00  0.00    -0.246 OA
BRANCH   6   8
ATOM      8  C   UNL A   1      32.584  26.621  23.617  1.00  0.00     0.087 C 
ATOM      9  C   UNL A   1      33.146  25.411  23.351  1.00  0.00     0.027 C 
ATOM     10  C   UNL A   1      31.871  27.386  22.514  1.00  0.00     0.316 C 
ATOM     11  C   UNL A   1      33.861  24.647  24.454  1.00  0.00     0.019 A 
ATOM     12  O   UNL A   1      32.112  25.385  25.884  1.00  0.00    -0.475 OA
ATOM     13  C   UNL A   1      35.064  23.999  24.226  1.00  0.00     0.036 A 
ATOM     14  C   UNL A   1      33.256  24.581  25.635  1.00  0.00     0.128 A 
ATOM     15  C   UNL A   1      35.408  23.060  25.228  1.00  0.00     0.107 A 
ATOM     16  C   UNL A   1      33.727  23.744  26.616  1.00  0.00     0.048 A 
ATOM     17  C   UNL A   1      34.877  23.026  26.437  1.00  0.00     0.028 A 
BRANCH  10  18
ATOM     18  C   UNL A   1      31.338  28.698  23.070  1.00  0.00     0.430 C 
ATOM     19  F   UNL A   1      30.358  28.465  23.938  1.00  0.00    -0.167 F 
ATOM     20  F   UNL A   1      32.314  29.370  23.671  1.00  0.00    -0.167 F 
ATOM     21  F   UNL A   1      30.868  29.413  22.052  1.00  0.00    -0.167 F 
ENDBRANCH  10  18
BRANCH  15  22
ATOM     22  S   UNL A   1      36.663  21.820  24.824  1.00  0.00     0.310 S 
ATOM     23  F   UNL A   1      36.728  22.282  23.307  1.00  0.00    -0.094 F 
ATOM     24  F   UNL A   1      35.508  20.834  24.402  1.00  0.00    -0.094 F 
ATOM     25  F   UNL A   1      37.739  20.751  24.480  1.00  0.00    -0.094 F 
ATOM     26  F   UNL A   1      37.808  22.868  25.116  1.00  0.00    -0.094 F 
ATOM     27  F   UNL A   1      35.586  22.952  25.068  1.00  0.00    -0.094 F 
ENDBRANCH  15  22
ENDBRANCH   6   8
ENDBRANCH   5   6
ENDBRANCH   4   5
ENDBRANCH   3   4
ENDBRANCH   2   3
ENDBRANCH   1   2
BRANCH   1  28
ATOM     28  C   UNL A   1      31.341  32.243  27.276  1.00  0.00     0.261 C 
BRANCH  28  29
ATOM     29  O   UNL A   1      32.087  33.427  27.039  1.00  0.00    -0.460 OA
BRANCH  29  30
ATOM     30  C   UNL A   1      32.880  33.985  28.076  1.00  0.00     0.338 C 
ATOM     31  O   UNL A   1      32.500  35.043  28.668  1.00  0.00    -0.246 OA
BRANCH  30  32
ATOM     32  C   UNL A   1      34.185  33.317  28.477  1.00  0.00     0.060 A 
ATOM     33  C   UNL A   1      34.231  32.369  29.486  1.00  0.00     0.016 A 
ATOM     34  C   UNL A   1      35.294  33.749  27.888  1.00  0.00     0.016 A 
ATOM     35  C   UNL A   1      35.527  32.147  30.007  1.00  0.00     0.010 A 
ATOM     36  C   UNL A   1      36.529  33.384  28.367  1.00  0.00     0.010 A 
ATOM     37  C   UNL A   1      36.648  32.496  29.400  1.00  0.00    -0.014 A 
BRANCH  37  38
ATOM     38  C   UNL A   1      37.997  31.941  29.828  1.00  0.00     0.031 A 
ATOM     39  C   UNL A   1      38.649  32.702  30.800  1.00  0.00     0.074 A 
ATOM     40  C   UNL A   1      38.455  30.721  29.364  1.00  0.00     0.049 A 
ATOM     41  N   UNL A   1      39.768  32.394  31.458  1.00  0.00    -0.248 NA
ATOM     42  C   UNL A   1      38.182  34.014  31.269  1.00  0.00     0.031 C 
ATOM     43  C   UNL A   1      37.799  29.942  28.390  1.00  0.00     0.029 A 
ATOM     44  N   UNL A   1      39.597  30.047  29.741  1.00  0.00    -0.354 N 
ATOM     45  C   UNL A   1      40.073  33.362  32.324  1.00  0.00     0.074 A 
ATOM     46  C   UNL A   1      39.061  34.422  32.210  1.00  0.00     0.031 C 
ATOM     47  C   UNL A   1      38.539  28.823  28.175  1.00  0.00     0.029 A 
ATOM     48  C   UNL A   1      39.670  28.882  29.011  1.00  0.00     0.049 A 
ATOM     49  H   UNL A   1      40.247  30.347  30.416  1.00  0.00     0.167 HD
ATOM     50  C   UNL A   1      41.156  33.404  33.205  1.00  0.00     0.031 A 
ATOM     51  C   UNL A   1      40.660  27.912  29.057  1.00  0.00     0.031 A 
ATOM     52  C   UNL A   1      42.122  32.414  33.281  1.00  0.00     0.049 A 
ATOM     53  C   UNL A   1      41.773  27.981  29.897  1.00  0.00     0.074 A 
ATOM     54  C   UNL A   1      43.214  32.435  34.169  1.00  0.00     0.029 A 
ATOM     55  N   UNL A   1      42.209  31.259  32.534  1.00  0.00    -0.354 N 
ATOM     56  N   UNL A   1      42.058  28.930  30.790  1.00  0.00    -0.248 NA
ATOM     57  C   UNL A   1      42.845  26.977  29.930  1.00  0.00     0.031 C 
ATOM     58  C   UNL A   1      43.955  31.315  33.953  1.00  0.00     0.029 A 
ATOM     59  C   UNL A   1      43.337  30.575  32.927  1.00  0.00     0.049 A 
ATOM     60  H   UNL A   1      41.572  30.973  31.838  1.00  0.00     0.167 HD
ATOM     61  C   UNL A   1      43.199  28.642  31.419  1.00  0.00     0.074 A 
ATOM     62  C   UNL A   1      43.725  27.384  30.870  1.00  0.00     0.031 C 
ATOM     63  C   UNL A   1      43.820  29.374  32.433  1.00  0.00     0.031 A 
BRANCH  50  64
ATOM     64  C   UNL A   1      41.279  34.601  34.134  1.00  0.00    -0.014 A 
ATOM     65  C   UNL A   1      42.001  35.723  33.764  1.00  0.00     0.009 A 
ATOM     66  C   UNL A   1      40.740  34.495  35.343  1.00  0.00     0.009 A 
ATOM     67  C   UNL A   1      42.345  36.566  34.847  1.00  0.00     0.001 A 
ATOM     68  C   UNL A   1      41.011  35.429  36.314  1.00  0.00     0.001 A 
ATOM     69  C   UNL A   1      41.766  36.534  36.034  1.00  0.00     0.000 A 
ENDBRANCH  50  64
BRANCH  51  70
ATOM     70  C   UNL A   1      40.526  26.708  28.140  1.00  0.00    -0.014 A 
ATOM     71  C   UNL A   1      41.120  26.801  26.891  1.00  0.00     0.009 A 
ATOM     72  C   UNL A   1      39.924  25.592  28.534  1.00  0.00     0.009 A 
ATOM     73  C   UNL A   1      40.770  25.750  26.011  1.00  0.00     0.001 A 
ATOM     74  C   UNL A   1      39.738  24.550  27.658  1.00  0.00     0.001 A 
ATOM     75  C   UNL A   1      40.246  24.599  26.389  1.00  0.00     0.000 A 
ENDBRANCH  51  70
BRANCH  63  76
ATOM     76  C   UNL A   1      45.105  28.821  33.028  1.00  0.00    -0.014 A 
ATOM     77  C   UNL A   1      45.112  28.057  34.183  1.00  0.00     0.009 A 
ATOM     78  C   UNL A   1      46.236  29.203  32.447  1.00  0.00     0.009 A 
ATOM     79  C   UNL A   1      46.376  27.985  34.815  1.00  0.00     0.001 A 
ATOM     80  C   UNL A   1      47.446  28.979  33.058  1.00  0.00     0.001 A 
ATOM     81  C   UNL A   1      47.523  28.281  34.231  1.00  0.00     0.000 A 
ENDBRANCH  63  76
ENDBRANCH  37  38
ENDBRANCH  30  32
ENDBRANCH  29  30
ENDBRANCH  28  29
ENDBRANCH   1  28
TORSDOF 16
ENDMDL
MODEL 3
REMARK VINA RESULT:     -11.3      2.998      7.798
REMARK SMILES O=C(OCCOCCOC(=O)c1ccc(-c2c3nc(c(-c4ccccc4)c4ccc([nH]4)c(-c4ccccc4)c4nc(c(-c5ccccc5)c5ccc2[nH]5)C=C4)C=C3)cc1)C1=Cc2cc(S(F)(F)(F)(F)F)ccc2O[C@H]1C(F)(F)F
REMARK SMILES IDX 7 1 6 2 5 3 4 4 3 5 2 6 1 7 60 8 61 9 75 10 62 11 74 12
REMARK SMILES IDX 63 13 73 14 64 15 72 16 71 17 76 18 77 19 78 20 79 21 65 22
REMARK SMILES IDX 66 23 67 24 68 25 69 26 70 27 8 28 9 29 10 30 11 31 12 32
REMARK SMILES IDX 13 33 59 34 14 35 58 36 15 37 16 38 17 39 52 40 18 41 57 42
REMARK SMILES IDX 51 43 53 44 19 45 56 46 50 47 49 48 20 50 42 51 27 52 41 53
REMARK SMILES IDX 28 54 31 55 40 56 54 57 29 58 30 59 39 61 55 62 32 63 21 64
REMARK SMILES IDX 22 65 26 66 23 67 25 68 24 69 43 70 44 71 48 72 45 73 47 74
REMARK SMILES IDX 46 75 33 76 34 77 38 78 35 79 37 80 36 81
REMARK H PARENT 53 49 31 60
REMARK Flexibility Score: inf
ROOT
ATOM      1  C   UNL A   1      33.270  31.303  27.260  1.00  0.00     0.202 C 
ENDROOT
BRANCH   1   2
ATOM      2  O   UNL A   1      33.231  29.895  27.081  1.00  0.00    -0.374 OA
BRANCH   2   3
ATOM      3  C   UNL A   1      31.889  29.441  27.189  1.00  0.00     0.202 C 
BRANCH   3   4
ATOM      4  C   UNL A   1      31.873  27.923  27.271  1.00  0.00     0.261 C 
BRANCH   4   5
ATOM      5  O   UNL A   1      32.297  27.377  26.031  1.00  0.00    -0.460 OA
BRANCH   5   6
ATOM      6  C   UNL A   1      31.383  26.647  25.227  1.00  0.00     0.338 C 
ATOM      7  O   UNL A   1      30.265  26.281  25.708  1.00  0.00    -0.246 OA
BRANCH   6   8
ATOM      8  C   UNL A   1      31.742  26.302  23.790  1.00  0.00     0.087 C 
ATOM      9  C   UNL A   1      32.699  25.371  23.533  1.00  0.00     0.027 C 
ATOM     10  C   UNL A   1      31.031  26.997  22.641  1.00  0.00     0.316 C 
ATOM     11  C   UNL A   1      33.411  24.676  24.683  1.00  0.00     0.019 A 
ATOM     12  O   UNL A   1      31.292  24.620  25.755  1.00  0.00    -0.475 OA
ATOM     13  C   UNL A   1      34.779  24.455  24.663  1.00  0.00     0.036 A 
ATOM     14  C   UNL A   1      32.658  24.239  25.686  1.00  0.00     0.128 A 
ATOM     15  C   UNL A   1      35.220  23.504  25.613  1.00  0.00     0.107 A 
ATOM     16  C   UNL A   1      33.189  23.424  26.656  1.00  0.00     0.048 A 
ATOM     17  C   UNL A   1      34.520  23.115  26.664  1.00  0.00     0.028 A 
BRANCH  10  18
ATOM     18  C   UNL A   1      30.015  27.984  23.197  1.00  0.00     0.430 C 
ATOM     19  F   UNL A   1      28.991  27.332  23.740  1.00  0.00    -0.167 F 
ATOM     20  F   UNL A   1      30.584  28.760  24.112  1.00  0.00    -0.167 F 
ATOM     21  F   UNL A   1      29.578  28.733  22.188  1.00  0.00    -0.167 F 
ENDBRANCH  10  18
BRANCH  15  22
ATOM     22  S   UNL A   1      36.857  22.771  25.373  1.00  0.00     0.310 S 
ATOM     23  F   UNL A   1      37.139  23.656  24.086  1.00  0.00    -0.094 F 
ATOM     24  F   UNL A   1      36.205  21.705  24.413  1.00  0.00    -0.094 F 
ATOM     25  F   UNL A   1      38.262  22.136  25.169  1.00  0.00    -0.094 F 
ATOM     26  F   UNL A   1      37.513  23.930  26.223  1.00  0.00    -0.094 F 
ATOM     27  F   UNL A   1      35.456  23.493  25.498  1.00  0.00    -0.094 F 
ENDBRANCH  15  22
ENDBRANCH   6   8
ENDBRANCH   5   6
ENDBRANCH   4   5
ENDBRANCH   3   4
ENDBRANCH   2   3
ENDBRANCH   1   2
BRANCH   1  28
ATOM     28  C   UNL A   1      34.482  31.673  28.100  1.00  0.00     0.261 C 
BRANCH  28  29
ATOM     29  O   UNL A   1      35.143  30.491  28.525  1.00  0.00    -0.460 OA
BRANCH  29  30
ATOM     30  C   UNL A   1      36.117  30.555  29.556  1.00  0.00     0.338 C 
ATOM     31  O   UNL A   1      35.780  30.912  30.728  1.00  0.00    -0.246 OA
BRANCH  30  32
ATOM     32  C   UNL A   1      37.564  30.196  29.258  1.00  0.00     0.060 A 
ATOM     33  C   UNL A   1      38.025  30.074  27.958  1.00  0.00     0.016 A 
ATOM     34  C   UNL A   1      38.343  29.910  30.295  1.00  0.00     0.016 A 
ATOM     35  C   UNL A   1      39.241  29.359  27.845  1.00  0.00     0.010 A 
ATOM     36  C   UNL A   1      39.577  29.336  30.105  1.00  0.00     0.010 A 
ATOM     37  C   UNL A   1      40.071  29.132  28.846  1.00  0.00    -0.014 A 
BRANCH  37  38
ATOM     38  C   UNL A   1      41.500  28.668  28.613  1.00  0.00     0.031 A 
ATOM     39  C   UNL A   1      41.620  27.314  28.295  1.00  0.00     0.074 A 
ATOM     40  C   UNL A   1      42.557  29.561  28.603  1.00  0.00     0.049 A 
ATOM     41  N   UNL A   1      42.718  26.663  27.908  1.00  0.00    -0.248 NA
ATOM     42  C   UNL A   1      40.505  26.356  28.338  1.00  0.00     0.031 C 
ATOM     43  C   UNL A   1      42.444  30.931  28.913  1.00  0.00     0.029 A 
ATOM     44  N   UNL A   1      43.877  29.306  28.303  1.00  0.00    -0.354 N 
ATOM     45  C   UNL A   1      42.435  25.380  27.676  1.00  0.00     0.074 A 
ATOM     46  C   UNL A   1      41.008  25.162  27.955  1.00  0.00     0.031 C 
ATOM     47  C   UNL A   1      43.678  31.490  28.814  1.00  0.00     0.029 A 
ATOM     48  C   UNL A   1      44.584  30.480  28.439  1.00  0.00     0.049 A 
ATOM     49  H   UNL A   1      44.251  28.435  28.038  1.00  0.00     0.167 HD
ATOM     50  C   UNL A   1      43.309  24.382  27.241  1.00  0.00     0.031 A 
ATOM     51  C   UNL A   1      45.943  30.679  28.251  1.00  0.00     0.031 A 
ATOM     52  C   UNL A   1      44.660  24.591  27.012  1.00  0.00     0.049 A 
ATOM     53  C   UNL A   1      46.829  29.668  27.872  1.00  0.00     0.074 A 
ATOM     54  C   UNL A   1      45.553  23.599  26.565  1.00  0.00     0.029 A 
ATOM     55  N   UNL A   1      45.372  25.760  27.171  1.00  0.00    -0.354 N 
ATOM     56  N   UNL A   1      46.538  28.394  27.602  1.00  0.00    -0.248 NA
ATOM     57  C   UNL A   1      48.276  29.860  27.702  1.00  0.00     0.031 C 
ATOM     58  C   UNL A   1      46.789  24.159  26.466  1.00  0.00     0.029 A 
ATOM     59  C   UNL A   1      46.687  25.510  26.848  1.00  0.00     0.049 A 
ATOM     60  H   UNL A   1      45.003  26.625  27.464  1.00  0.00     0.167 HD
ATOM     61  C   UNL A   1      47.645  27.734  27.255  1.00  0.00     0.074 A 
ATOM     62  C   UNL A   1      48.780  28.666  27.321  1.00  0.00     0.031 C 
ATOM     63  C   UNL A   1      47.754  26.394  26.881  1.00  0.00     0.031 A 
BRANCH  50  64
ATOM     64  C   UNL A   1      42.748  22.989  27.005  1.00  0.00    -0.014 A 
ATOM     65  C   UNL A   1      42.304  22.599  25.752  1.00  0.00     0.009 A 
ATOM     66  C   UNL A   1      42.624  22.192  28.060  1.00  0.00     0.009 A 
ATOM     67  C   UNL A   1      41.475  21.452  25.770  1.00  0.00     0.001 A 
ATOM     68  C   UNL A   1      41.913  21.020  27.971  1.00  0.00     0.001 A 
ATOM     69  C   UNL A   1      41.396  20.601  26.776  1.00  0.00     0.000 A 
ENDBRANCH  50  64
BRANCH  51  70
ATOM     70  C   UNL A   1      46.500  32.076  28.471  1.00  0.00    -0.014 A 
ATOM     71  C   UNL A   1      46.947  32.378  29.747  1.00  0.00     0.009 A 
ATOM     72  C   UNL A   1      46.613  32.949  27.477  1.00  0.00     0.009 A 
ATOM     73  C   UNL A   1      47.240  33.749  29.941  1.00  0.00     0.001 A 
ATOM     74  C   UNL A   1      47.036  34.233  27.719  1.00  0.00     0.001 A 
ATOM     75  C   UNL A   1      47.438  34.619  28.968  1.00  0.00     0.000 A 
ENDBRANCH  51  70
BRANCH  63  76
ATOM     76  C   UNL A   1      49.126  25.872  26.487  1.00  0.00    -0.014 A 
ATOM     77  C   UNL A   1      49.964  25.243  27.393  1.00  0.00     0.009 A 
ATOM     78  C   UNL A   1      49.530  26.148  25.252  1.00  0.00     0.009 A 
ATOM     79  C   UNL A   1      51.319  25.203  26.989  1.00  0.00     0.001 A 
ATOM     80  C   UNL A   1      50.841  25.957  24.886  1.00  0.00     0.001 A 
ATOM     81  C   UNL A   1      51.738  25.395  25.751  1.00  0.00     0.000 A 
ENDBRANCH  63  76
ENDBRANCH  37  38
ENDBRANCH  30  32
ENDBRANCH  29  30
ENDBRANCH  28  29
ENDBRANCH   1  28
TORSDOF 16
ENDMDL
