MODEL 1
REMARK VINA RESULT:     -10.0      0.000      0.000
REMARK SMILES O=C(OCCOCCOC(=O)[C@H]1C[C@H](O)CN1C(=O)CS[C@H]1CCS(=O)(=O)C1)c1ccc(-c2c3nc(c(-c4ccccc4)c4ccc([nH]4)c(-c4ccccc4)c4nc(c(-c5ccccc5)c5ccc2[nH]5)C=C4)C=C3)cc1
REMARK SMILES IDX 7 1 6 2 5 3 4 4 3 5 2 6 1 7 29 8 30 9 76 10 31 11 75 12
REMARK SMILES IDX 32 13 33 14 34 15 69 16 35 17 74 18 68 19 70 20 36 21 73 22
REMARK SMILES IDX 67 23 66 24 37 26 59 27 44 28 58 29 45 30 48 31 57 32 71 33
REMARK SMILES IDX 46 34 47 35 56 37 72 38 49 39 38 40 39 41 43 42 40 43 42 44
REMARK SMILES IDX 41 45 60 46 61 47 65 48 62 49 64 50 63 51 50 52 51 53 55 54
REMARK SMILES IDX 52 55 54 56 53 57 8 58 9 59 10 60 11 61 12 62 13 63 17 64
REMARK SMILES IDX 14 65 16 66 18 67 19 68 20 69 21 70 22 71 23 72 28 73 24 74
REMARK SMILES IDX 25 75 26 76 27 77 15 78
REMARK H PARENT 70 25 48 36 15 79
REMARK Flexibility Score: inf
ROOT
ATOM      1  C   UNL A   1      32.629  29.956  27.153  1.00  0.00     0.202 C 
ENDROOT
BRANCH   1   2
ATOM      2  O   UNL A   1      31.722  30.745  26.383  1.00  0.00    -0.374 OA
BRANCH   2   3
ATOM      3  C   UNL A   1      31.539  32.109  26.772  1.00  0.00     0.202 C 
BRANCH   3   4
ATOM      4  C   UNL A   1      32.767  32.853  27.301  1.00  0.00     0.261 C 
BRANCH   4   5
ATOM      5  O   UNL A   1      32.383  34.065  27.955  1.00  0.00    -0.460 OA
BRANCH   5   6
ATOM      6  C   UNL A   1      33.095  34.718  28.901  1.00  0.00     0.338 C 
ATOM      7  O   UNL A   1      32.725  35.835  29.258  1.00  0.00    -0.246 OA
BRANCH   6   8
ATOM      8  C   UNL A   1      34.313  34.147  29.550  1.00  0.00     0.060 A 
ATOM      9  C   UNL A   1      34.314  33.258  30.630  1.00  0.00     0.016 A 
ATOM     10  C   UNL A   1      35.543  34.458  28.954  1.00  0.00     0.016 A 
ATOM     11  C   UNL A   1      35.465  32.675  31.103  1.00  0.00     0.010 A 
ATOM     12  C   UNL A   1      36.721  33.883  29.426  1.00  0.00     0.010 A 
ATOM     13  C   UNL A   1      36.667  32.987  30.498  1.00  0.00    -0.014 A 
BRANCH  13  14
ATOM     14  C   UNL A   1      37.865  32.469  31.149  1.00  0.00     0.031 A 
ATOM     15  C   UNL A   1      38.585  31.366  30.459  1.00  0.00     0.074 A 
ATOM     16  C   UNL A   1      38.339  33.093  32.236  1.00  0.00     0.049 A 
ATOM     17  N   UNL A   1      39.582  30.646  30.883  1.00  0.00    -0.248 NA
ATOM     18  C   UNL A   1      38.119  31.033  29.100  1.00  0.00     0.031 C 
ATOM     19  C   UNL A   1      37.772  34.307  32.832  1.00  0.00     0.029 A 
ATOM     20  N   UNL A   1      39.413  32.799  33.024  1.00  0.00    -0.354 N 
ATOM     21  C   UNL A   1      39.822  29.730  29.869  1.00  0.00     0.074 A 
ATOM     22  C   UNL A   1      38.884  29.996  28.804  1.00  0.00     0.031 C 
ATOM     23  C   UNL A   1      38.497  34.641  33.910  1.00  0.00     0.029 A 
ATOM     24  C   UNL A   1      39.513  33.618  34.119  1.00  0.00     0.049 A 
ATOM     25  H   UNL A   1      40.050  32.075  32.826  1.00  0.00     0.167 HD
ATOM     26  C   UNL A   1      40.734  28.734  29.868  1.00  0.00     0.031 A 
ATOM     27  C   UNL A   1      40.297  33.490  35.203  1.00  0.00     0.031 A 
ATOM     28  C   UNL A   1      41.617  28.510  30.976  1.00  0.00     0.049 A 
ATOM     29  C   UNL A   1      41.223  32.307  35.241  1.00  0.00     0.074 A 
ATOM     30  C   UNL A   1      42.550  27.509  31.157  1.00  0.00     0.029 A 
ATOM     31  N   UNL A   1      41.659  29.316  32.110  1.00  0.00    -0.354 N 
ATOM     32  N   UNL A   1      41.405  31.377  34.330  1.00  0.00    -0.248 NA
ATOM     33  C   UNL A   1      42.040  32.142  36.445  1.00  0.00     0.031 C 
ATOM     34  C   UNL A   1      43.109  27.675  32.430  1.00  0.00     0.029 A 
ATOM     35  C   UNL A   1      42.581  28.823  33.010  1.00  0.00     0.049 A 
ATOM     36  H   UNL A   1      41.111  30.122  32.250  1.00  0.00     0.167 HD
ATOM     37  C   UNL A   1      42.372  30.525  34.838  1.00  0.00     0.074 A 
ATOM     38  C   UNL A   1      42.742  31.058  36.138  1.00  0.00     0.031 C 
ATOM     39  C   UNL A   1      42.910  29.407  34.289  1.00  0.00     0.031 A 
BRANCH  26  40
ATOM     40  C   UNL A   1      40.687  27.781  28.709  1.00  0.00    -0.014 A 
ATOM     41  C   UNL A   1      41.381  28.022  27.512  1.00  0.00     0.009 A 
ATOM     42  C   UNL A   1      39.842  26.662  28.787  1.00  0.00     0.009 A 
ATOM     43  C   UNL A   1      41.179  27.200  26.400  1.00  0.00     0.001 A 
ATOM     44  C   UNL A   1      39.670  25.823  27.686  1.00  0.00     0.001 A 
ATOM     45  C   UNL A   1      40.323  26.103  26.487  1.00  0.00     0.000 A 
ENDBRANCH  26  40
BRANCH  27  46
ATOM     46  C   UNL A   1      40.152  34.440  36.335  1.00  0.00    -0.014 A 
ATOM     47  C   UNL A   1      40.850  35.655  36.358  1.00  0.00     0.009 A 
ATOM     48  C   UNL A   1      39.261  34.155  37.386  1.00  0.00     0.009 A 
ATOM     49  C   UNL A   1      40.667  36.557  37.411  1.00  0.00     0.001 A 
ATOM     50  C   UNL A   1      39.057  35.071  38.421  1.00  0.00     0.001 A 
ATOM     51  C   UNL A   1      39.766  36.268  38.437  1.00  0.00     0.000 A 
ENDBRANCH  27  46
BRANCH  39  52
ATOM     52  C   UNL A   1      43.990  28.722  35.071  1.00  0.00    -0.014 A 
ATOM     53  C   UNL A   1      45.334  29.097  34.943  1.00  0.00     0.009 A 
ATOM     54  C   UNL A   1      43.629  27.762  36.029  1.00  0.00     0.009 A 
ATOM     55  C   UNL A   1      46.303  28.508  35.756  1.00  0.00     0.001 A 
ATOM     56  C   UNL A   1      44.594  27.201  36.862  1.00  0.00     0.001 A 
ATOM     57  C   UNL A   1      45.931  27.572  36.722  1.00  0.00     0.000 A 
ENDBRANCH  39  52
ENDBRANCH  13  14
ENDBRANCH   6   8
ENDBRANCH   5   6
ENDBRANCH   4   5
ENDBRANCH   3   4
ENDBRANCH   2   3
ENDBRANCH   1   2
BRANCH   1  58
ATOM     58  C   UNL A   1      33.774  29.498  26.255  1.00  0.00     0.261 C 
BRANCH  58  59
ATOM     59  O   UNL A   1      33.187  28.737  25.192  1.00  0.00    -0.462 OA
BRANCH  59  60
ATOM     60  C   UNL A   1      33.032  27.414  25.481  1.00  0.00     0.329 C 
ATOM     61  O   UNL A   1      33.899  26.674  25.928  1.00  0.00    -0.250 OA
BRANCH  60  62
ATOM     62  C   UNL A   1      31.589  26.997  25.170  1.00  0.00     0.197 C 
ATOM     63  C   UNL A   1      31.063  27.803  24.005  1.00  0.00     0.070 C 
ATOM     64  N   UNL A   1      31.575  25.625  24.670  1.00  0.00    -0.325 N 
ATOM     65  C   UNL A   1      31.739  27.120  22.816  1.00  0.00     0.136 C 
ATOM     66  C   UNL A   1      31.869  25.646  23.245  1.00  0.00     0.152 C 
BRANCH  64  67
ATOM     67  C   UNL A   1      31.301  24.552  25.492  1.00  0.00     0.233 C 
ATOM     68  O   UNL A   1      30.512  24.663  26.435  1.00  0.00    -0.274 OA
BRANCH  67  69
ATOM     69  C   UNL A   1      31.934  23.196  25.183  1.00  0.00     0.169 C 
BRANCH  69  70
ATOM     70  S   UNL A   1      32.935  22.597  26.611  1.00  0.00    -0.148 SA
BRANCH  70  71
ATOM     71  C   UNL A   1      34.554  22.588  25.812  1.00  0.00     0.063 C 
ATOM     72  C   UNL A   1      34.997  21.171  25.427  1.00  0.00     0.031 C 
ATOM     73  C   UNL A   1      34.712  23.408  24.544  1.00  0.00     0.151 C 
ATOM     74  C   UNL A   1      36.372  21.329  24.777  1.00  0.00     0.138 C 
ATOM     75  S   UNL A   1      36.407  22.993  24.116  1.00  0.00     0.151 S 
ATOM     76  O   UNL A   1      37.294  23.772  24.968  1.00  0.00    -0.229 OA
ATOM     77  O   UNL A   1      36.554  22.944  22.684  1.00  0.00    -0.229 OA
ENDBRANCH  70  71
ENDBRANCH  69  70
ENDBRANCH  67  69
ENDBRANCH  64  67
BRANCH  65  78
ATOM     78  O   UNL A   1      30.961  27.266  21.638  1.00  0.00    -0.391 OA
ATOM     79  H   UNL A   1      31.115  26.508  21.054  1.00  0.00     0.211 HD
ENDBRANCH  65  78
ENDBRANCH  60  62
ENDBRANCH  59  60
ENDBRANCH  58  59
ENDBRANCH   1  58
TORSDOF 19
ENDMDL
MODEL 2
REMARK VINA RESULT:     -10.0      1.447      6.186
REMARK SMILES O=C(OCCOCCOC(=O)[C@H]1C[C@H](O)CN1C(=O)CS[C@H]1CCS(=O)(=O)C1)c1ccc(-c2c3nc(c(-c4ccccc4)c4ccc([nH]4)c(-c4ccccc4)c4nc(c(-c5ccccc5)c5ccc2[nH]5)C=C4)C=C3)cc1
REMARK SMILES IDX 7 1 6 2 5 3 4 4 3 5 2 6 1 7 29 8 30 9 76 10 31 11 75 12
REMARK SMILES IDX 32 13 33 14 34 15 69 16 35 17 74 18 68 19 70 20 36 21 73 22
REMARK SMILES IDX 67 23 66 24 37 26 59 27 44 28 58 29 45 30 48 31 57 32 71 33
REMARK SMILES IDX 46 34 47 35 56 37 72 38 49 39 38 40 39 41 43 42 40 43 42 44
REMARK SMILES IDX 41 45 60 46 61 47 65 48 62 49 64 50 63 51 50 52 51 53 55 54
REMARK SMILES IDX 52 55 54 56 53 57 8 58 9 59 10 60 11 61 12 62 13 63 17 64
REMARK SMILES IDX 14 65 16 66 18 67 19 68 20 69 21 70 22 71 23 72 28 73 24 74
REMARK SMILES IDX 25 75 26 76 27 77 15 78
REMARK H PARENT 70 25 48 36 15 79
REMARK Flexibility Score: inf
ROOT
ATOM      1  C   UNL A   1      33.155  30.457  27.451  1.00  0.00     0.202 C 
ENDROOT
BRANCH   1   2
ATOM      2  O   UNL A   1      31.895  30.735  26.839  1.00  0.00    -0.374 OA
BRANCH   2   3
ATOM      3  C   UNL A   1      31.421  32.084  26.884  1.00  0.00     0.202 C 
BRANCH   3   4
ATOM      4  C   UNL A   1      32.477  33.192  26.876  1.00  0.00     0.261 C 
BRANCH   4   5
ATOM      5  O   UNL A   1      32.160  34.200  27.841  1.00  0.00    -0.460 OA
BRANCH   5   6
ATOM      6  C   UNL A   1      33.025  34.767  28.710  1.00  0.00     0.338 C 
ATOM      7  O   UNL A   1      32.851  35.937  29.044  1.00  0.00    -0.246 OA
BRANCH   6   8
ATOM      8  C   UNL A   1      34.189  34.040  29.301  1.00  0.00     0.060 A 
ATOM      9  C   UNL A   1      34.118  33.104  30.337  1.00  0.00     0.016 A 
ATOM     10  C   UNL A   1      35.433  34.250  28.690  1.00  0.00     0.016 A 
ATOM     11  C   UNL A   1      35.209  32.381  30.754  1.00  0.00     0.010 A 
ATOM     12  C   UNL A   1      36.553  33.533  29.105  1.00  0.00     0.010 A 
ATOM     13  C   UNL A   1      36.426  32.595  30.135  1.00  0.00    -0.014 A 
BRANCH  13  14
ATOM     14  C   UNL A   1      37.575  31.923  30.730  1.00  0.00     0.031 A 
ATOM     15  C   UNL A   1      38.079  32.462  32.021  1.00  0.00     0.074 A 
ATOM     16  C   UNL A   1      38.022  30.785  30.181  1.00  0.00     0.049 A 
ATOM     17  N   UNL A   1      39.152  32.140  32.682  1.00  0.00    -0.248 NA
ATOM     18  C   UNL A   1      37.255  33.506  32.657  1.00  0.00     0.031 C 
ATOM     19  C   UNL A   1      37.425  30.110  29.023  1.00  0.00     0.029 A 
ATOM     20  N   UNL A   1      39.073  29.989  30.532  1.00  0.00    -0.354 N 
ATOM     21  C   UNL A   1      39.167  32.986  33.780  1.00  0.00     0.074 A 
ATOM     22  C   UNL A   1      37.991  33.820  33.709  1.00  0.00     0.031 C 
ATOM     23  C   UNL A   1      38.139  29.008  28.748  1.00  0.00     0.029 A 
ATOM     24  C   UNL A   1      39.280  28.958  29.653  1.00  0.00     0.049 A 
ATOM     25  H   UNL A   1      39.624  30.140  31.334  1.00  0.00     0.167 HD
ATOM     26  C   UNL A   1      40.117  33.066  34.736  1.00  0.00     0.031 A 
ATOM     27  C   UNL A   1      40.330  28.123  29.559  1.00  0.00     0.031 A 
ATOM     28  C   UNL A   1      41.278  32.222  34.727  1.00  0.00     0.049 A 
ATOM     29  C   UNL A   1      41.437  28.303  30.559  1.00  0.00     0.074 A 
ATOM     30  C   UNL A   1      42.360  32.222  35.584  1.00  0.00     0.029 A 
ATOM     31  N   UNL A   1      41.503  31.222  33.785  1.00  0.00    -0.354 N 
ATOM     32  N   UNL A   1      41.513  29.157  31.555  1.00  0.00    -0.248 NA
ATOM     33  C   UNL A   1      42.602  27.426  30.423  1.00  0.00     0.031 C 
ATOM     34  C   UNL A   1      43.268  31.263  35.120  1.00  0.00     0.029 A 
ATOM     35  C   UNL A   1      42.718  30.613  34.021  1.00  0.00     0.049 A 
ATOM     36  H   UNL A   1      40.884  30.983  33.058  1.00  0.00     0.167 HD
ATOM     37  C   UNL A   1      42.724  28.909  32.182  1.00  0.00     0.074 A 
ATOM     38  C   UNL A   1      43.344  27.816  31.453  1.00  0.00     0.031 C 
ATOM     39  C   UNL A   1      43.277  29.520  33.259  1.00  0.00     0.031 A 
BRANCH  26  40
ATOM     40  C   UNL A   1      39.975  34.178  35.735  1.00  0.00    -0.014 A 
ATOM     41  C   UNL A   1      40.532  35.450  35.525  1.00  0.00     0.009 A 
ATOM     42  C   UNL A   1      39.350  33.908  36.963  1.00  0.00     0.009 A 
ATOM     43  C   UNL A   1      40.523  36.402  36.547  1.00  0.00     0.001 A 
ATOM     44  C   UNL A   1      39.312  34.874  37.969  1.00  0.00     0.001 A 
ATOM     45  C   UNL A   1      39.915  36.114  37.767  1.00  0.00     0.000 A 
ENDBRANCH  26  40
BRANCH  27  46
ATOM     46  C   UNL A   1      40.399  27.147  28.442  1.00  0.00    -0.014 A 
ATOM     47  C   UNL A   1      39.835  25.870  28.558  1.00  0.00     0.009 A 
ATOM     48  C   UNL A   1      40.990  27.515  27.219  1.00  0.00     0.009 A 
ATOM     49  C   UNL A   1      39.871  24.979  27.480  1.00  0.00     0.001 A 
ATOM     50  C   UNL A   1      40.998  26.635  26.134  1.00  0.00     0.001 A 
ATOM     51  C   UNL A   1      40.445  25.365  26.268  1.00  0.00     0.000 A 
ENDBRANCH  27  46
BRANCH  39  52
ATOM     52  C   UNL A   1      44.591  28.983  33.740  1.00  0.00    -0.014 A 
ATOM     53  C   UNL A   1      44.657  27.913  34.643  1.00  0.00     0.009 A 
ATOM     54  C   UNL A   1      45.777  29.495  33.189  1.00  0.00     0.009 A 
ATOM     55  C   UNL A   1      45.894  27.373  34.994  1.00  0.00     0.001 A 
ATOM     56  C   UNL A   1      47.007  28.931  33.517  1.00  0.00     0.001 A 
ATOM     57  C   UNL A   1      47.064  27.873  34.423  1.00  0.00     0.000 A 
ENDBRANCH  39  52
ENDBRANCH  13  14
ENDBRANCH   6   8
ENDBRANCH   5   6
ENDBRANCH   4   5
ENDBRANCH   3   4
ENDBRANCH   2   3
ENDBRANCH   1   2
BRANCH   1  58
ATOM     58  C   UNL A   1      33.967  29.554  26.527  1.00  0.00     0.261 C 
BRANCH  58  59
ATOM     59  O   UNL A   1      33.098  29.173  25.454  1.00  0.00    -0.462 OA
BRANCH  59  60
ATOM     60  C   UNL A   1      32.792  27.845  25.435  1.00  0.00     0.329 C 
ATOM     61  O   UNL A   1      33.589  26.927  25.576  1.00  0.00    -0.250 OA
BRANCH  60  62
ATOM     62  C   UNL A   1      31.282  27.679  25.224  1.00  0.00     0.197 C 
ATOM     63  C   UNL A   1      30.814  28.604  24.124  1.00  0.00     0.070 C 
ATOM     64  N   UNL A   1      31.009  26.348  24.690  1.00  0.00    -0.325 N 
ATOM     65  C   UNL A   1      31.283  27.868  22.870  1.00  0.00     0.136 C 
ATOM     66  C   UNL A   1      31.201  26.377  23.247  1.00  0.00     0.152 C 
BRANCH  64  67
ATOM     67  C   UNL A   1      30.621  25.301  25.500  1.00  0.00     0.233 C 
ATOM     68  O   UNL A   1      29.960  25.505  26.523  1.00  0.00    -0.274 OA
BRANCH  67  69
ATOM     69  C   UNL A   1      30.961  23.870  25.085  1.00  0.00     0.169 C 
BRANCH  69  70
ATOM     70  S   UNL A   1      32.349  23.203  26.099  1.00  0.00    -0.148 SA
BRANCH  70  71
ATOM     71  C   UNL A   1      32.381  21.527  25.428  1.00  0.00     0.063 C 
ATOM     72  C   UNL A   1      32.367  21.522  23.894  1.00  0.00     0.031 C 
ATOM     73  C   UNL A   1      33.552  20.641  25.813  1.00  0.00     0.151 C 
ATOM     74  C   UNL A   1      32.388  20.049  23.484  1.00  0.00     0.138 C 
ATOM     75  S   UNL A   1      33.169  19.179  24.841  1.00  0.00     0.151 S 
ATOM     76  O   UNL A   1      32.124  18.437  25.530  1.00  0.00    -0.229 OA
ATOM     77  O   UNL A   1      34.387  18.560  24.385  1.00  0.00    -0.229 OA
ENDBRANCH  70  71
ENDBRANCH  69  70
ENDBRANCH  67  69
ENDBRANCH  64  67
BRANCH  65  78
ATOM     78  O   UNL A   1      30.459  28.183  21.759  1.00  0.00    -0.391 OA
ATOM     79  H   UNL A   1      30.764  29.011  21.355  1.00  0.00     0.211 HD
ENDBRANCH  65  78
ENDBRANCH  60  62
ENDBRANCH  59  60
ENDBRANCH  58  59
ENDBRANCH   1  58
TORSDOF 19
ENDMDL
MODEL 3
REMARK VINA RESULT:      -9.5      3.637      8.167
REMARK SMILES O=C(OCCOCCOC(=O)[C@H]1C[C@H](O)CN1C(=O)CS[C@H]1CCS(=O)(=O)C1)c1ccc(-c2c3nc(c(-c4ccccc4)c4ccc([nH]4)c(-c4ccccc4)c4nc(c(-c5ccccc5)c5ccc2[nH]5)C=C4)C=C3)cc1
REMARK SMILES IDX 7 1 6 2 5 3 4 4 3 5 2 6 1 7 29 8 30 9 76 10 31 11 75 12
REMARK SMILES IDX 32 13 33 14 34 15 69 16 35 17 74 18 68 19 70 20 36 21 73 22
REMARK SMILES IDX 67 23 66 24 37 26 59 27 44 28 58 29 45 30 48 31 57 32 71 33
REMARK SMILES IDX 46 34 47 35 56 37 72 38 49 39 38 40 39 41 43 42 40 43 42 44
REMARK SMILES IDX 41 45 60 46 61 47 65 48 62 49 64 50 63 51 50 52 51 53 55 54
REMARK SMILES IDX 52 55 54 56 53 57 8 58 9 59 10 60 11 61 12 62 13 63 17 64
REMARK SMILES IDX 14 65 16 66 18 67 19 68 20 69 21 70 22 71 23 72 28 73 24 74
REMARK SMILES IDX 25 75 26 76 27 77 15 78
REMARK H PARENT 70 25 48 36 15 79
REMARK Flexibility Score: inf
ROOT
ATOM      1  C   UNL A   1      33.846  26.963  26.037  1.00  0.00     0.202 C 
ENDROOT
BRANCH   1   2
ATOM      2  O   UNL A   1      32.780  27.840  25.674  1.00  0.00    -0.374 OA
BRANCH   2   3
ATOM      3  C   UNL A   1      33.031  29.247  25.740  1.00  0.00     0.202 C 
BRANCH   3   4
ATOM      4  C   UNL A   1      32.716  29.948  27.064  1.00  0.00     0.261 C 
BRANCH   4   5
ATOM      5  O   UNL A   1      33.830  29.866  27.958  1.00  0.00    -0.460 OA
BRANCH   5   6
ATOM      6  C   UNL A   1      34.953  30.616  27.898  1.00  0.00     0.338 C 
ATOM      7  O   UNL A   1      34.860  31.803  27.591  1.00  0.00    -0.246 OA
BRANCH   6   8
ATOM      8  C   UNL A   1      36.315  30.078  28.195  1.00  0.00     0.060 A 
ATOM      9  C   UNL A   1      37.401  30.093  27.314  1.00  0.00     0.016 A 
ATOM     10  C   UNL A   1      36.533  29.614  29.499  1.00  0.00     0.016 A 
ATOM     11  C   UNL A   1      38.661  29.692  27.690  1.00  0.00     0.010 A 
ATOM     12  C   UNL A   1      37.802  29.196  29.896  1.00  0.00     0.010 A 
ATOM     13  C   UNL A   1      38.859  29.245  28.983  1.00  0.00    -0.014 A 
BRANCH  13  14
ATOM     14  C   UNL A   1      40.172  28.680  29.270  1.00  0.00     0.031 A 
ATOM     15  C   UNL A   1      41.121  29.530  30.037  1.00  0.00     0.074 A 
ATOM     16  C   UNL A   1      40.409  27.395  28.971  1.00  0.00     0.049 A 
ATOM     17  N   UNL A   1      42.377  29.323  30.302  1.00  0.00    -0.248 NA
ATOM     18  C   UNL A   1      40.575  30.785  30.585  1.00  0.00     0.031 C 
ATOM     19  C   UNL A   1      39.432  26.463  28.398  1.00  0.00     0.029 A 
ATOM     20  N   UNL A   1      41.541  26.648  29.121  1.00  0.00    -0.354 N 
ATOM     21  C   UNL A   1      42.791  30.452  30.993  1.00  0.00     0.074 A 
ATOM     22  C   UNL A   1      41.652  31.330  31.124  1.00  0.00     0.031 C 
ATOM     23  C   UNL A   1      40.020  25.270  28.224  1.00  0.00     0.029 A 
ATOM     24  C   UNL A   1      41.424  25.388  28.593  1.00  0.00     0.049 A 
ATOM     25  H   UNL A   1      42.356  26.980  29.563  1.00  0.00     0.167 HD
ATOM     26  C   UNL A   1      44.035  30.726  31.439  1.00  0.00     0.031 A 
ATOM     27  C   UNL A   1      42.382  24.473  28.367  1.00  0.00     0.031 A 
ATOM     28  C   UNL A   1      45.130  29.818  31.248  1.00  0.00     0.049 A 
ATOM     29  C   UNL A   1      43.785  24.841  28.761  1.00  0.00     0.074 A 
ATOM     30  C   UNL A   1      46.459  29.974  31.582  1.00  0.00     0.029 A 
ATOM     31  N   UNL A   1      45.003  28.567  30.650  1.00  0.00    -0.354 N 
ATOM     32  N   UNL A   1      44.214  25.942  29.337  1.00  0.00    -0.248 NA
ATOM     33  C   UNL A   1      44.835  23.862  28.468  1.00  0.00     0.031 C 
ATOM     34  C   UNL A   1      47.147  28.843  31.126  1.00  0.00     0.029 A 
ATOM     35  C   UNL A   1      46.234  27.949  30.578  1.00  0.00     0.049 A 
ATOM     36  H   UNL A   1      44.158  28.179  30.326  1.00  0.00     0.167 HD
ATOM     37  C   UNL A   1      45.581  25.783  29.498  1.00  0.00     0.074 A 
ATOM     38  C   UNL A   1      45.906  24.472  28.962  1.00  0.00     0.031 C 
ATOM     39  C   UNL A   1      46.490  26.634  30.038  1.00  0.00     0.031 A 
BRANCH  26  40
ATOM     40  C   UNL A   1      44.255  32.092  32.022  1.00  0.00    -0.014 A 
ATOM     41  C   UNL A   1      44.593  33.200  31.228  1.00  0.00     0.009 A 
ATOM     42  C   UNL A   1      44.220  32.247  33.418  1.00  0.00     0.009 A 
ATOM     43  C   UNL A   1      44.954  34.412  31.822  1.00  0.00     0.001 A 
ATOM     44  C   UNL A   1      44.546  33.469  34.006  1.00  0.00     0.001 A 
ATOM     45  C   UNL A   1      44.931  34.545  33.210  1.00  0.00     0.000 A 
ENDBRANCH  26  40
BRANCH  27  46
ATOM     46  C   UNL A   1      42.044  23.207  27.668  1.00  0.00    -0.014 A 
ATOM     47  C   UNL A   1      41.506  22.115  28.362  1.00  0.00     0.009 A 
ATOM     48  C   UNL A   1      42.210  23.105  26.274  1.00  0.00     0.009 A 
ATOM     49  C   UNL A   1      41.153  20.947  27.679  1.00  0.00     0.001 A 
ATOM     50  C   UNL A   1      41.828  21.949  25.590  1.00  0.00     0.001 A 
ATOM     51  C   UNL A   1      41.306  20.867  26.295  1.00  0.00     0.000 A 
ENDBRANCH  27  46
BRANCH  39  52
ATOM     52  C   UNL A   1      47.905  26.148  30.121  1.00  0.00    -0.014 A 
ATOM     53  C   UNL A   1      48.749  26.162  29.002  1.00  0.00     0.009 A 
ATOM     54  C   UNL A   1      48.422  25.774  31.372  1.00  0.00     0.009 A 
ATOM     55  C   UNL A   1      50.089  25.797  29.135  1.00  0.00     0.001 A 
ATOM     56  C   UNL A   1      49.768  25.442  31.506  1.00  0.00     0.001 A 
ATOM     57  C   UNL A   1      50.599  25.450  30.386  1.00  0.00     0.000 A 
ENDBRANCH  39  52
ENDBRANCH  13  14
ENDBRANCH   6   8
ENDBRANCH   5   6
ENDBRANCH   4   5
ENDBRANCH   3   4
ENDBRANCH   2   3
ENDBRANCH   1   2
BRANCH   1  58
ATOM     58  C   UNL A   1      33.353  25.521  25.949  1.00  0.00     0.261 C 
BRANCH  58  59
ATOM     59  O   UNL A   1      34.258  24.827  25.083  1.00  0.00    -0.462 OA
BRANCH  59  60
ATOM     60  C   UNL A   1      34.539  23.554  25.482  1.00  0.00     0.329 C 
ATOM     61  O   UNL A   1      34.926  23.225  26.596  1.00  0.00    -0.250 OA
BRANCH  60  62
ATOM     62  C   UNL A   1      34.279  22.592  24.317  1.00  0.00     0.197 C 
ATOM     63  C   UNL A   1      34.060  21.194  24.847  1.00  0.00     0.070 C 
ATOM     64  N   UNL A   1      33.003  22.923  23.688  1.00  0.00    -0.325 N 
ATOM     65  C   UNL A   1      32.628  21.276  25.374  1.00  0.00     0.136 C 
ATOM     66  C   UNL A   1      31.933  22.288  24.444  1.00  0.00     0.152 C 
BRANCH  64  67
ATOM     67  C   UNL A   1      32.929  23.706  22.555  1.00  0.00     0.233 C 
ATOM     68  O   UNL A   1      33.663  23.487  21.587  1.00  0.00    -0.274 OA
BRANCH  67  69
ATOM     69  C   UNL A   1      31.878  24.812  22.479  1.00  0.00     0.169 C 
BRANCH  69  70
ATOM     70  S   UNL A   1      32.669  26.455  22.207  1.00  0.00    -0.148 SA
BRANCH  70  71
ATOM     71  C   UNL A   1      31.187  27.480  22.312  1.00  0.00     0.063 C 
ATOM     72  C   UNL A   1      30.202  26.960  23.367  1.00  0.00     0.031 C 
ATOM     73  C   UNL A   1      31.375  28.950  22.641  1.00  0.00     0.151 C 
ATOM     74  C   UNL A   1      29.010  27.918  23.330  1.00  0.00     0.138 C 
ATOM     75  S   UNL A   1      29.658  29.473  22.722  1.00  0.00     0.151 S 
ATOM     76  O   UNL A   1      29.169  29.635  21.360  1.00  0.00    -0.229 OA
ATOM     77  O   UNL A   1      29.501  30.492  23.728  1.00  0.00    -0.229 OA
ENDBRANCH  70  71
ENDBRANCH  69  70
ENDBRANCH  67  69
ENDBRANCH  64  67
BRANCH  65  78
ATOM     78  O   UNL A   1      32.001  20.003  25.341  1.00  0.00    -0.391 OA
ATOM     79  H   UNL A   1      31.279  20.015  24.694  1.00  0.00     0.211 HD
ENDBRANCH  65  78
ENDBRANCH  60  62
ENDBRANCH  59  60
ENDBRANCH  58  59
ENDBRANCH   1  58
TORSDOF 19
ENDMDL
