MODEL 1
REMARK VINA RESULT:      -9.2      0.000      0.000
REMARK SMILES C[C@H](C(=O)OCCOCCOC(=O)c1ccc(-c2c3nc(c(-c4ccccc4)c4ccc([nH]4)c(-c4ccccc4)c4nc(c(-c5ccccc5)c5ccc2[nH]5)C=C4)C=C3)cc1)c1cccc(C(=O)c2ccccc2)c1
REMARK SMILES IDX 7 1 6 2 5 3 3 4 4 5 2 6 1 7 62 8 63 9 75 10 64 11 66 12
REMARK SMILES IDX 65 13 67 14 68 15 69 16 70 17 74 18 71 19 73 20 72 21 8 22
REMARK SMILES IDX 9 23 10 24 11 25 12 26 13 27 14 28 15 29 61 30 16 31 60 32
REMARK SMILES IDX 17 33 18 34 19 35 54 36 20 37 59 38 53 39 55 40 21 41 58 42
REMARK SMILES IDX 52 43 51 44 22 46 44 47 29 48 43 49 30 50 33 51 42 52 56 53
REMARK SMILES IDX 31 54 32 55 41 57 57 58 34 59 23 60 24 61 28 62 25 63 27 64
REMARK SMILES IDX 26 65 45 66 46 67 50 68 47 69 49 70 48 71 35 72 36 73 40 74
REMARK SMILES IDX 37 75 39 76 38 77
REMARK H PARENT 55 45 33 56
REMARK Flexibility Score: inf
ROOT
ATOM      1  C   UNL A   1      32.506  36.629  32.914  1.00  0.00     0.202 C 
ENDROOT
BRANCH   1   2
ATOM      2  C   UNL A   1      33.994  36.949  33.095  1.00  0.00     0.261 C 
BRANCH   2   3
ATOM      3  O   UNL A   1      34.609  35.963  33.951  1.00  0.00    -0.463 OA
BRANCH   3   4
ATOM      4  C   UNL A   1      35.437  35.064  33.355  1.00  0.00     0.313 C 
ATOM      5  O   UNL A   1      36.448  35.369  32.732  1.00  0.00    -0.252 OA
BRANCH   4   6
ATOM      6  C   UNL A   1      35.031  33.615  33.610  1.00  0.00     0.126 C 
ATOM      7  C   UNL A   1      33.804  33.234  32.777  1.00  0.00     0.025 C 
BRANCH   6   8
ATOM      8  C   UNL A   1      36.109  32.536  33.554  1.00  0.00    -0.033 A 
ATOM      9  C   UNL A   1      35.936  31.480  32.639  1.00  0.00     0.004 A 
ATOM     10  C   UNL A   1      37.255  32.519  34.363  1.00  0.00     0.016 A 
ATOM     11  C   UNL A   1      36.853  30.434  32.556  1.00  0.00     0.001 A 
ATOM     12  C   UNL A   1      38.158  31.443  34.328  1.00  0.00     0.023 A 
ATOM     13  C   UNL A   1      37.954  30.409  33.408  1.00  0.00     0.012 A 
BRANCH  12  14
ATOM     14  C   UNL A   1      39.359  31.364  35.213  1.00  0.00     0.193 C 
ATOM     15  O   UNL A   1      39.508  32.191  36.111  1.00  0.00    -0.289 OA
BRANCH  14  16
ATOM     16  C   UNL A   1      40.375  30.294  35.079  1.00  0.00     0.022 A 
ATOM     17  C   UNL A   1      41.435  30.283  35.992  1.00  0.00     0.012 A 
ATOM     18  C   UNL A   1      40.316  29.328  34.067  1.00  0.00     0.012 A 
ATOM     19  C   UNL A   1      42.398  29.278  35.928  1.00  0.00     0.001 A 
ATOM     20  C   UNL A   1      41.273  28.313  34.019  1.00  0.00     0.001 A 
ATOM     21  C   UNL A   1      42.308  28.284  34.953  1.00  0.00     0.000 A 
ENDBRANCH  14  16
ENDBRANCH  12  14
ENDBRANCH   6   8
ENDBRANCH   4   6
ENDBRANCH   3   4
ENDBRANCH   2   3
ENDBRANCH   1   2
BRANCH   1  22
ATOM     22  O   UNL A   1      32.093  36.468  31.552  1.00  0.00    -0.374 OA
BRANCH  22  23
ATOM     23  C   UNL A   1      33.055  36.838  30.566  1.00  0.00     0.202 C 
BRANCH  23  24
ATOM     24  C   UNL A   1      32.997  36.062  29.249  1.00  0.00     0.261 C 
BRANCH  24  25
ATOM     25  O   UNL A   1      32.784  34.660  29.471  1.00  0.00    -0.460 OA
BRANCH  25  26
ATOM     26  C   UNL A   1      33.071  33.891  28.397  1.00  0.00     0.338 C 
ATOM     27  O   UNL A   1      32.391  33.741  27.390  1.00  0.00    -0.246 OA
BRANCH  26  28
ATOM     28  C   UNL A   1      34.426  33.327  28.519  1.00  0.00     0.060 A 
ATOM     29  C   UNL A   1      34.528  32.024  29.021  1.00  0.00     0.016 A 
ATOM     30  C   UNL A   1      35.573  34.071  28.229  1.00  0.00     0.016 A 
ATOM     31  C   UNL A   1      35.777  31.485  29.308  1.00  0.00     0.010 A 
ATOM     32  C   UNL A   1      36.829  33.529  28.520  1.00  0.00     0.010 A 
ATOM     33  C   UNL A   1      36.931  32.253  29.104  1.00  0.00    -0.014 A 
BRANCH  33  34
ATOM     34  C   UNL A   1      38.219  31.778  29.657  1.00  0.00     0.031 A 
ATOM     35  C   UNL A   1      38.750  30.442  29.216  1.00  0.00     0.074 A 
ATOM     36  C   UNL A   1      38.930  32.545  30.499  1.00  0.00     0.049 A 
ATOM     37  N   UNL A   1      39.857  29.837  29.562  1.00  0.00    -0.248 NA
ATOM     38  C   UNL A   1      37.928  29.693  28.251  1.00  0.00     0.031 C 
ATOM     39  C   UNL A   1      38.545  33.880  30.952  1.00  0.00     0.029 A 
ATOM     40  N   UNL A   1      40.126  32.308  31.125  1.00  0.00    -0.354 N 
ATOM     41  C   UNL A   1      39.866  28.641  28.856  1.00  0.00     0.074 A 
ATOM     42  C   UNL A   1      38.639  28.587  28.092  1.00  0.00     0.031 C 
ATOM     43  C   UNL A   1      39.478  34.337  31.804  1.00  0.00     0.029 A 
ATOM     44  C   UNL A   1      40.515  33.321  31.965  1.00  0.00     0.049 A 
ATOM     45  H   UNL A   1      40.655  31.490  30.984  1.00  0.00     0.167 HD
ATOM     46  C   UNL A   1      40.819  27.678  28.835  1.00  0.00     0.031 A 
ATOM     47  C   UNL A   1      41.580  33.410  32.783  1.00  0.00     0.031 A 
ATOM     48  C   UNL A   1      42.029  27.725  29.608  1.00  0.00     0.049 A 
ATOM     49  C   UNL A   1      42.582  32.288  32.809  1.00  0.00     0.074 A 
ATOM     50  C   UNL A   1      43.060  26.802  29.653  1.00  0.00     0.029 A 
ATOM     51  N   UNL A   1      42.366  28.748  30.481  1.00  0.00    -0.354 N 
ATOM     52  N   UNL A   1      42.594  31.176  32.116  1.00  0.00    -0.248 NA
ATOM     53  C   UNL A   1      43.726  32.443  33.719  1.00  0.00     0.031 C 
ATOM     54  C   UNL A   1      43.999  27.244  30.593  1.00  0.00     0.029 A 
ATOM     55  C   UNL A   1      43.577  28.468  31.090  1.00  0.00     0.049 A 
ATOM     56  H   UNL A   1      41.825  29.553  30.643  1.00  0.00     0.167 HD
ATOM     57  C   UNL A   1      43.758  30.512  32.482  1.00  0.00     0.074 A 
ATOM     58  C   UNL A   1      44.432  31.353  33.451  1.00  0.00     0.031 C 
ATOM     59  C   UNL A   1      44.230  29.316  32.053  1.00  0.00     0.031 A 
BRANCH  46  60
ATOM     60  C   UNL A   1      40.566  26.481  27.964  1.00  0.00    -0.014 A 
ATOM     61  C   UNL A   1      41.081  26.408  26.659  1.00  0.00     0.009 A 
ATOM     62  C   UNL A   1      39.823  25.400  28.462  1.00  0.00     0.009 A 
ATOM     63  C   UNL A   1      40.826  25.291  25.860  1.00  0.00     0.001 A 
ATOM     64  C   UNL A   1      39.592  24.274  27.670  1.00  0.00     0.001 A 
ATOM     65  C   UNL A   1      40.086  24.224  26.368  1.00  0.00     0.000 A 
ENDBRANCH  46  60
BRANCH  47  66
ATOM     66  C   UNL A   1      41.748  34.601  33.655  1.00  0.00    -0.014 A 
ATOM     67  C   UNL A   1      41.147  34.656  34.922  1.00  0.00     0.009 A 
ATOM     68  C   UNL A   1      42.509  35.696  33.215  1.00  0.00     0.009 A 
ATOM     69  C   UNL A   1      41.286  35.795  35.720  1.00  0.00     0.001 A 
ATOM     70  C   UNL A   1      42.667  36.821  34.027  1.00  0.00     0.001 A 
ATOM     71  C   UNL A   1      42.049  36.874  35.274  1.00  0.00     0.000 A 
ENDBRANCH  47  66
BRANCH  59  72
ATOM     72  C   UNL A   1      45.551  28.863  32.605  1.00  0.00    -0.014 A 
ATOM     73  C   UNL A   1      46.761  29.228  31.995  1.00  0.00     0.009 A 
ATOM     74  C   UNL A   1      45.585  28.093  33.779  1.00  0.00     0.009 A 
ATOM     75  C   UNL A   1      47.977  28.805  32.532  1.00  0.00     0.001 A 
ATOM     76  C   UNL A   1      46.804  27.695  34.329  1.00  0.00     0.001 A 
ATOM     77  C   UNL A   1      47.998  28.042  33.701  1.00  0.00     0.000 A 
ENDBRANCH  59  72
ENDBRANCH  33  34
ENDBRANCH  26  28
ENDBRANCH  25  26
ENDBRANCH  24  25
ENDBRANCH  23  24
ENDBRANCH  22  23
ENDBRANCH   1  22
TORSDOF 17
ENDMDL
MODEL 2
REMARK VINA RESULT:      -9.1      2.163      6.815
REMARK SMILES C[C@H](C(=O)OCCOCCOC(=O)c1ccc(-c2c3nc(c(-c4ccccc4)c4ccc([nH]4)c(-c4ccccc4)c4nc(c(-c5ccccc5)c5ccc2[nH]5)C=C4)C=C3)cc1)c1cccc(C(=O)c2ccccc2)c1
REMARK SMILES IDX 7 1 6 2 5 3 3 4 4 5 2 6 1 7 62 8 63 9 75 10 64 11 66 12
REMARK SMILES IDX 65 13 67 14 68 15 69 16 70 17 74 18 71 19 73 20 72 21 8 22
REMARK SMILES IDX 9 23 10 24 11 25 12 26 13 27 14 28 15 29 61 30 16 31 60 32
REMARK SMILES IDX 17 33 18 34 19 35 54 36 20 37 59 38 53 39 55 40 21 41 58 42
REMARK SMILES IDX 52 43 51 44 22 46 44 47 29 48 43 49 30 50 33 51 42 52 56 53
REMARK SMILES IDX 31 54 32 55 41 57 57 58 34 59 23 60 24 61 28 62 25 63 27 64
REMARK SMILES IDX 26 65 45 66 46 67 50 68 47 69 49 70 48 71 35 72 36 73 40 74
REMARK SMILES IDX 37 75 39 76 38 77
REMARK H PARENT 55 45 33 56
REMARK Flexibility Score: inf
ROOT
ATOM      1  C   UNL A   1      33.356  35.422  29.150  1.00  0.00     0.202 C 
ENDROOT
BRANCH   1   2
ATOM      2  C   UNL A   1      33.544  34.992  30.609  1.00  0.00     0.261 C 
BRANCH   2   3
ATOM      3  O   UNL A   1      34.914  34.598  30.833  1.00  0.00    -0.463 OA
BRANCH   3   4
ATOM      4  C   UNL A   1      35.119  33.362  31.360  1.00  0.00     0.313 C 
ATOM      5  O   UNL A   1      34.275  32.735  31.991  1.00  0.00    -0.252 OA
BRANCH   4   6
ATOM      6  C   UNL A   1      36.489  32.784  31.018  1.00  0.00     0.126 C 
ATOM      7  C   UNL A   1      37.011  33.355  29.696  1.00  0.00     0.025 C 
BRANCH   6   8
ATOM      8  C   UNL A   1      37.569  32.780  32.096  1.00  0.00    -0.033 A 
ATOM      9  C   UNL A   1      38.343  33.944  32.256  1.00  0.00     0.004 A 
ATOM     10  C   UNL A   1      37.851  31.688  32.930  1.00  0.00     0.016 A 
ATOM     11  C   UNL A   1      39.376  34.006  33.189  1.00  0.00     0.001 A 
ATOM     12  C   UNL A   1      38.924  31.718  33.837  1.00  0.00     0.023 A 
ATOM     13  C   UNL A   1      39.674  32.892  33.968  1.00  0.00     0.012 A 
BRANCH  12  14
ATOM     14  C   UNL A   1      39.287  30.556  34.702  1.00  0.00     0.193 C 
ATOM     15  O   UNL A   1      38.519  30.197  35.592  1.00  0.00    -0.289 OA
BRANCH  14  16
ATOM     16  C   UNL A   1      40.533  29.779  34.504  1.00  0.00     0.022 A 
ATOM     17  C   UNL A   1      40.524  28.765  33.540  1.00  0.00     0.012 A 
ATOM     18  C   UNL A   1      41.688  30.011  35.262  1.00  0.00     0.012 A 
ATOM     19  C   UNL A   1      41.681  28.028  33.295  1.00  0.00     0.001 A 
ATOM     20  C   UNL A   1      42.849  29.282  34.999  1.00  0.00     0.001 A 
ATOM     21  C   UNL A   1      42.847  28.297  34.011  1.00  0.00     0.000 A 
ENDBRANCH  14  16
ENDBRANCH  12  14
ENDBRANCH   6   8
ENDBRANCH   4   6
ENDBRANCH   3   4
ENDBRANCH   2   3
ENDBRANCH   1   2
BRANCH   1  22
ATOM     22  O   UNL A   1      34.032  34.597  28.194  1.00  0.00    -0.374 OA
BRANCH  22  23
ATOM     23  C   UNL A   1      33.338  33.415  27.796  1.00  0.00     0.202 C 
BRANCH  23  24
ATOM     24  C   UNL A   1      33.912  32.095  28.314  1.00  0.00     0.261 C 
BRANCH  24  25
ATOM     25  O   UNL A   1      34.178  31.178  27.243  1.00  0.00    -0.460 OA
BRANCH  25  26
ATOM     26  C   UNL A   1      34.452  29.922  27.659  1.00  0.00     0.338 C 
ATOM     27  O   UNL A   1      33.737  28.933  27.551  1.00  0.00    -0.246 OA
BRANCH  26  28
ATOM     28  C   UNL A   1      35.832  29.840  28.164  1.00  0.00     0.060 A 
ATOM     29  C   UNL A   1      36.859  30.102  27.249  1.00  0.00     0.016 A 
ATOM     30  C   UNL A   1      36.127  29.441  29.471  1.00  0.00     0.016 A 
ATOM     31  C   UNL A   1      38.185  29.892  27.613  1.00  0.00     0.010 A 
ATOM     32  C   UNL A   1      37.460  29.230  29.836  1.00  0.00     0.010 A 
ATOM     33  C   UNL A   1      38.488  29.409  28.893  1.00  0.00    -0.014 A 
BRANCH  33  34
ATOM     34  C   UNL A   1      39.863  28.940  29.178  1.00  0.00     0.031 A 
ATOM     35  C   UNL A   1      40.801  29.850  29.922  1.00  0.00     0.074 A 
ATOM     36  C   UNL A   1      40.254  27.705  28.826  1.00  0.00     0.049 A 
ATOM     37  N   UNL A   1      42.040  29.642  30.287  1.00  0.00    -0.248 NA
ATOM     38  C   UNL A   1      40.269  31.166  30.314  1.00  0.00     0.031 C 
ATOM     39  C   UNL A   1      39.416  26.715  28.152  1.00  0.00     0.029 A 
ATOM     40  N   UNL A   1      41.460  27.074  28.984  1.00  0.00    -0.354 N 
ATOM     41  C   UNL A   1      42.434  30.795  30.953  1.00  0.00     0.074 A 
ATOM     42  C   UNL A   1      41.317  31.714  30.910  1.00  0.00     0.031 C 
ATOM     43  C   UNL A   1      40.142  25.606  27.934  1.00  0.00     0.029 A 
ATOM     44  C   UNL A   1      41.496  25.816  28.439  1.00  0.00     0.049 A 
ATOM     45  H   UNL A   1      42.227  27.485  29.445  1.00  0.00     0.167 HD
ATOM     46  C   UNL A   1      43.615  31.060  31.559  1.00  0.00     0.031 A 
ATOM     47  C   UNL A   1      42.513  24.939  28.345  1.00  0.00     0.031 A 
ATOM     48  C   UNL A   1      44.730  30.153  31.585  1.00  0.00     0.049 A 
ATOM     49  C   UNL A   1      43.845  25.290  28.949  1.00  0.00     0.074 A 
ATOM     50  C   UNL A   1      45.969  30.325  32.177  1.00  0.00     0.029 A 
ATOM     51  N   UNL A   1      44.741  28.904  30.984  1.00  0.00    -0.354 N 
ATOM     52  N   UNL A   1      44.195  26.372  29.601  1.00  0.00    -0.248 NA
ATOM     53  C   UNL A   1      44.916  24.292  28.818  1.00  0.00     0.031 C 
ATOM     54  C   UNL A   1      46.749  29.199  31.890  1.00  0.00     0.029 A 
ATOM     55  C   UNL A   1      45.975  28.304  31.167  1.00  0.00     0.049 A 
ATOM     56  H   UNL A   1      43.984  28.504  30.498  1.00  0.00     0.167 HD
ATOM     57  C   UNL A   1      45.516  26.174  29.984  1.00  0.00     0.074 A 
ATOM     58  C   UNL A   1      45.899  24.862  29.501  1.00  0.00     0.031 C 
ATOM     59  C   UNL A   1      46.338  27.000  30.676  1.00  0.00     0.031 A 
BRANCH  46  60
ATOM     60  C   UNL A   1      43.764  32.402  32.217  1.00  0.00    -0.014 A 
ATOM     61  C   UNL A   1      43.406  32.598  33.561  1.00  0.00     0.009 A 
ATOM     62  C   UNL A   1      44.289  33.482  31.490  1.00  0.00     0.009 A 
ATOM     63  C   UNL A   1      43.542  33.856  34.152  1.00  0.00     0.001 A 
ATOM     64  C   UNL A   1      44.447  34.731  32.091  1.00  0.00     0.001 A 
ATOM     65  C   UNL A   1      44.065  34.919  33.418  1.00  0.00     0.000 A 
ENDBRANCH  46  60
BRANCH  47  66
ATOM     66  C   UNL A   1      42.314  23.646  27.640  1.00  0.00    -0.014 A 
ATOM     67  C   UNL A   1      41.844  22.516  28.326  1.00  0.00     0.009 A 
ATOM     68  C   UNL A   1      42.605  23.537  26.270  1.00  0.00     0.009 A 
ATOM     69  C   UNL A   1      41.692  21.298  27.660  1.00  0.00     0.001 A 
ATOM     70  C   UNL A   1      42.426  22.325  25.601  1.00  0.00     0.001 A 
ATOM     71  C   UNL A   1      41.978  21.204  26.298  1.00  0.00     0.000 A 
ENDBRANCH  47  66
BRANCH  59  72
ATOM     72  C   UNL A   1      47.720  26.496  30.980  1.00  0.00    -0.014 A 
ATOM     73  C   UNL A   1      47.997  25.794  32.162  1.00  0.00     0.009 A 
ATOM     74  C   UNL A   1      48.750  26.692  30.045  1.00  0.00     0.009 A 
ATOM     75  C   UNL A   1      49.287  25.325  32.417  1.00  0.00     0.001 A 
ATOM     76  C   UNL A   1      50.031  26.197  30.291  1.00  0.00     0.001 A 
ATOM     77  C   UNL A   1      50.302  25.523  31.480  1.00  0.00     0.000 A 
ENDBRANCH  59  72
ENDBRANCH  33  34
ENDBRANCH  26  28
ENDBRANCH  25  26
ENDBRANCH  24  25
ENDBRANCH  23  24
ENDBRANCH  22  23
ENDBRANCH   1  22
TORSDOF 17
ENDMDL
MODEL 3
REMARK VINA RESULT:      -8.8      7.176     12.919
REMARK SMILES C[C@H](C(=O)OCCOCCOC(=O)c1ccc(-c2c3nc(c(-c4ccccc4)c4ccc([nH]4)c(-c4ccccc4)c4nc(c(-c5ccccc5)c5ccc2[nH]5)C=C4)C=C3)cc1)c1cccc(C(=O)c2ccccc2)c1
REMARK SMILES IDX 7 1 6 2 5 3 3 4 4 5 2 6 1 7 62 8 63 9 75 10 64 11 66 12
REMARK SMILES IDX 65 13 67 14 68 15 69 16 70 17 74 18 71 19 73 20 72 21 8 22
REMARK SMILES IDX 9 23 10 24 11 25 12 26 13 27 14 28 15 29 61 30 16 31 60 32
REMARK SMILES IDX 17 33 18 34 19 35 54 36 20 37 59 38 53 39 55 40 21 41 58 42
REMARK SMILES IDX 52 43 51 44 22 46 44 47 29 48 43 49 30 50 33 51 42 52 56 53
REMARK SMILES IDX 31 54 32 55 41 57 57 58 34 59 23 60 24 61 28 62 25 63 27 64
REMARK SMILES IDX 26 65 45 66 46 67 50 68 47 69 49 70 48 71 35 72 36 73 40 74
REMARK SMILES IDX 37 75 39 76 38 77
REMARK H PARENT 55 45 33 56
REMARK Flexibility Score: inf
ROOT
ATOM      1  C   UNL A   1      41.838  21.143  26.867  1.00  0.00     0.202 C 
ENDROOT
BRANCH   1   2
ATOM      2  C   UNL A   1      40.414  21.640  27.141  1.00  0.00     0.261 C 
BRANCH   2   3
ATOM      3  O   UNL A   1      39.792  22.055  25.907  1.00  0.00    -0.463 OA
BRANCH   3   4
ATOM      4  C   UNL A   1      38.596  21.485  25.600  1.00  0.00     0.313 C 
ATOM      5  O   UNL A   1      38.467  20.339  25.185  1.00  0.00    -0.252 OA
BRANCH   4   6
ATOM      6  C   UNL A   1      37.405  22.391  25.906  1.00  0.00     0.126 C 
ATOM      7  C   UNL A   1      37.837  23.858  25.980  1.00  0.00     0.025 C 
BRANCH   6   8
ATOM      8  C   UNL A   1      36.130  22.218  25.086  1.00  0.00    -0.033 A 
ATOM      9  C   UNL A   1      35.913  23.101  24.012  1.00  0.00     0.004 A 
ATOM     10  C   UNL A   1      35.151  21.245  25.341  1.00  0.00     0.016 A 
ATOM     11  C   UNL A   1      34.753  23.036  23.242  1.00  0.00     0.001 A 
ATOM     12  C   UNL A   1      33.954  21.204  24.607  1.00  0.00     0.023 A 
ATOM     13  C   UNL A   1      33.770  22.098  23.547  1.00  0.00     0.012 A 
BRANCH  12  14
ATOM     14  C   UNL A   1      32.867  20.217  24.885  1.00  0.00     0.193 C 
ATOM     15  O   UNL A   1      31.751  20.618  25.210  1.00  0.00    -0.289 OA
BRANCH  14  16
ATOM     16  C   UNL A   1      33.067  18.756  24.745  1.00  0.00     0.022 A 
ATOM     17  C   UNL A   1      32.689  17.940  25.817  1.00  0.00     0.012 A 
ATOM     18  C   UNL A   1      33.636  18.184  23.600  1.00  0.00     0.012 A 
ATOM     19  C   UNL A   1      32.827  16.557  25.721  1.00  0.00     0.001 A 
ATOM     20  C   UNL A   1      33.755  16.797  23.502  1.00  0.00     0.001 A 
ATOM     21  C   UNL A   1      33.344  15.984  24.559  1.00  0.00     0.000 A 
ENDBRANCH  14  16
ENDBRANCH  12  14
ENDBRANCH   6   8
ENDBRANCH   4   6
ENDBRANCH   3   4
ENDBRANCH   2   3
ENDBRANCH   1   2
BRANCH   1  22
ATOM     22  O   UNL A   1      41.985  20.396  25.654  1.00  0.00    -0.374 OA
BRANCH  22  23
ATOM     23  C   UNL A   1      42.342  19.024  25.811  1.00  0.00     0.202 C 
BRANCH  23  24
ATOM     24  C   UNL A   1      43.732  18.632  25.305  1.00  0.00     0.261 C 
BRANCH  24  25
ATOM     25  O   UNL A   1      44.117  19.407  24.161  1.00  0.00    -0.460 OA
BRANCH  25  26
ATOM     26  C   UNL A   1      45.324  20.001  24.289  1.00  0.00     0.338 C 
ATOM     27  O   UNL A   1      46.400  19.588  23.876  1.00  0.00    -0.246 OA
BRANCH  26  28
ATOM     28  C   UNL A   1      45.176  21.334  24.895  1.00  0.00     0.060 A 
ATOM     29  C   UNL A   1      44.883  22.396  24.029  1.00  0.00     0.016 A 
ATOM     30  C   UNL A   1      45.394  21.565  26.256  1.00  0.00     0.016 A 
ATOM     31  C   UNL A   1      44.884  23.702  24.506  1.00  0.00     0.010 A 
ATOM     32  C   UNL A   1      45.395  22.879  26.734  1.00  0.00     0.010 A 
ATOM     33  C   UNL A   1      45.186  23.953  25.850  1.00  0.00    -0.014 A 
BRANCH  33  34
ATOM     34  C   UNL A   1      45.444  25.346  26.283  1.00  0.00     0.031 A 
ATOM     35  C   UNL A   1      44.301  26.164  26.816  1.00  0.00     0.074 A 
ATOM     36  C   UNL A   1      46.685  25.856  26.248  1.00  0.00     0.049 A 
ATOM     37  N   UNL A   1      44.301  27.395  27.258  1.00  0.00    -0.248 NA
ATOM     38  C   UNL A   1      42.985  25.504  26.865  1.00  0.00     0.031 C 
ATOM     39  C   UNL A   1      47.880  25.141  25.805  1.00  0.00     0.029 A 
ATOM     40  N   UNL A   1      47.145  27.101  26.590  1.00  0.00    -0.354 N 
ATOM     41  C   UNL A   1      42.991  27.655  27.641  1.00  0.00     0.074 A 
ATOM     42  C   UNL A   1      42.217  26.470  27.345  1.00  0.00     0.031 C 
ATOM     43  C   UNL A   1      48.936  25.967  25.881  1.00  0.00     0.029 A 
ATOM     44  C   UNL A   1      48.488  27.270  26.364  1.00  0.00     0.049 A 
ATOM     45  H   UNL A   1      46.567  27.806  26.964  1.00  0.00     0.167 HD
ATOM     46  C   UNL A   1      42.481  28.777  28.202  1.00  0.00     0.031 A 
ATOM     47  C   UNL A   1      49.263  28.361  26.514  1.00  0.00     0.031 A 
ATOM     48  C   UNL A   1      43.248  29.961  28.480  1.00  0.00     0.049 A 
ATOM     49  C   UNL A   1      48.656  29.625  27.057  1.00  0.00     0.074 A 
ATOM     50  C   UNL A   1      42.826  31.148  29.052  1.00  0.00     0.029 A 
ATOM     51  N   UNL A   1      44.597  30.108  28.195  1.00  0.00    -0.354 N 
ATOM     52  N   UNL A   1      47.423  29.849  27.442  1.00  0.00    -0.248 NA
ATOM     53  C   UNL A   1      49.552  30.781  27.203  1.00  0.00     0.031 C 
ATOM     54  C   UNL A   1      43.910  32.033  29.067  1.00  0.00     0.029 A 
ATOM     55  C   UNL A   1      45.019  31.377  28.555  1.00  0.00     0.049 A 
ATOM     56  H   UNL A   1      45.169  29.414  27.797  1.00  0.00     0.167 HD
ATOM     57  C   UNL A   1      47.401  31.160  27.903  1.00  0.00     0.074 A 
ATOM     58  C   UNL A   1      48.747  31.676  27.760  1.00  0.00     0.031 C 
ATOM     59  C   UNL A   1      46.362  31.872  28.403  1.00  0.00     0.031 A 
BRANCH  46  60
ATOM     60  C   UNL A   1      41.014  28.778  28.525  1.00  0.00    -0.014 A 
ATOM     61  C   UNL A   1      40.546  28.385  29.789  1.00  0.00     0.009 A 
ATOM     62  C   UNL A   1      40.088  29.199  27.558  1.00  0.00     0.009 A 
ATOM     63  C   UNL A   1      39.177  28.383  30.066  1.00  0.00     0.001 A 
ATOM     64  C   UNL A   1      38.723  29.220  27.847  1.00  0.00     0.001 A 
ATOM     65  C   UNL A   1      38.268  28.804  29.097  1.00  0.00     0.000 A 
ENDBRANCH  46  60
BRANCH  47  66
ATOM     66  C   UNL A   1      50.698  28.308  26.133  1.00  0.00    -0.014 A 
ATOM     67  C   UNL A   1      51.105  28.584  24.819  1.00  0.00     0.009 A 
ATOM     68  C   UNL A   1      51.671  27.972  27.089  1.00  0.00     0.009 A 
ATOM     69  C   UNL A   1      52.453  28.501  24.464  1.00  0.00     0.001 A 
ATOM     70  C   UNL A   1      53.021  27.915  26.737  1.00  0.00     0.001 A 
ATOM     71  C   UNL A   1      53.410  28.171  25.424  1.00  0.00     0.000 A 
ENDBRANCH  47  66
BRANCH  59  72
ATOM     72  C   UNL A   1      46.648  33.273  28.861  1.00  0.00    -0.014 A 
ATOM     73  C   UNL A   1      47.096  33.538  30.164  1.00  0.00     0.009 A 
ATOM     74  C   UNL A   1      46.508  34.340  27.958  1.00  0.00     0.009 A 
ATOM     75  C   UNL A   1      47.367  34.848  30.563  1.00  0.00     0.001 A 
ATOM     76  C   UNL A   1      46.806  35.645  28.352  1.00  0.00     0.001 A 
ATOM     77  C   UNL A   1      47.226  35.899  29.657  1.00  0.00     0.000 A 
ENDBRANCH  59  72
ENDBRANCH  33  34
ENDBRANCH  26  28
ENDBRANCH  25  26
ENDBRANCH  24  25
ENDBRANCH  23  24
ENDBRANCH  22  23
ENDBRANCH   1  22
TORSDOF 17
ENDMDL
