MODEL 1
REMARK VINA RESULT:     -11.5      0.000      0.000
REMARK SMILES Cc1ccc(C(=O)OCCOCCOC(=O)c2ccc(-c3c4nc(c(-c5ccccc5)c5ccc([nH]5)c(-c5ccccc5)c5nc(c(-c6ccccc6)c6ccc3[nH]6)C=C5)C=C4)cc2)cc1N1C(=O)/C(=C/c2ccc([N+](=O)[O-])cc2)SC1=S
REMARK SMILES IDX 10 1 9 2 8 3 6 4 7 5 5 6 1 7 2 8 3 9 66 10 4 11 65 12 67 13
REMARK SMILES IDX 68 14 82 15 69 16 70 17 81 18 83 19 71 20 72 21 73 22 80 23
REMARK SMILES IDX 74 24 79 25 75 26 76 27 77 28 78 29 11 30 12 31 13 32 14 33
REMARK SMILES IDX 15 34 16 35 17 36 18 37 64 38 19 39 63 40 20 41 21 42 22 43
REMARK SMILES IDX 57 44 23 45 62 46 56 47 58 48 24 49 61 50 55 51 54 52 25 54
REMARK SMILES IDX 47 55 32 56 46 57 33 58 36 59 45 60 59 61 34 62 35 63 44 65
REMARK SMILES IDX 60 66 37 67 26 68 27 69 31 70 28 71 30 72 29 73 48 74 49 75
REMARK SMILES IDX 53 76 50 77 52 78 51 79 38 80 39 81 43 82 40 83 42 84 41 85
REMARK H PARENT 58 53 36 64
REMARK Flexibility Score: inf
ROOT
ATOM      1  C   UNL A   1      37.731  21.889  25.003  1.00  0.00     0.202 C 
ENDROOT
BRANCH   1   2
ATOM      2  C   UNL A   1      36.629  21.198  25.731  1.00  0.00     0.261 C 
BRANCH   2   3
ATOM      3  O   UNL A   1      35.337  21.641  25.290  1.00  0.00    -0.460 OA
BRANCH   3   4
ATOM      4  C   UNL A   1      34.479  20.809  24.628  1.00  0.00     0.338 C 
ATOM      5  O   UNL A   1      34.396  19.607  24.663  1.00  0.00    -0.246 OA
BRANCH   4   6
ATOM      6  C   UNL A   1      33.489  21.704  23.984  1.00  0.00     0.062 A 
ATOM      7  C   UNL A   1      30.277  24.483  23.345  1.00  0.00     0.046 C 
ATOM      8  C   UNL A   1      31.428  23.540  23.543  1.00  0.00    -0.027 A 
ATOM      9  C   UNL A   1      31.185  22.155  23.457  1.00  0.00     0.006 A 
ATOM     10  C   UNL A   1      32.734  23.978  23.804  1.00  0.00     0.054 A 
ATOM     11  C   UNL A   1      32.204  21.236  23.717  1.00  0.00     0.016 A 
ATOM     12  C   UNL A   1      33.772  23.064  23.905  1.00  0.00     0.042 A 
BRANCH  10  13
ATOM     13  N   UNL A   1      33.046  25.316  24.127  1.00  0.00    -0.261 N 
ATOM     14  C   UNL A   1      32.970  25.724  25.443  1.00  0.00     0.270 C 
ATOM     15  C   UNL A   1      33.196  26.324  23.180  1.00  0.00     0.152 C 
ATOM     16  O   UNL A   1      32.827  25.031  26.440  1.00  0.00    -0.268 OA
ATOM     17  C   UNL A   1      33.032  27.204  25.478  1.00  0.00     0.081 C 
ATOM     18  S   UNL A   1      33.655  27.813  24.004  1.00  0.00    -0.054 SA
ATOM     19  S   UNL A   1      32.980  26.292  21.524  1.00  0.00    -0.051 S 
ATOM     20  C   UNL A   1      32.517  27.899  26.493  1.00  0.00     0.029 C 
BRANCH  20  21
ATOM     21  C   UNL A   1      32.730  29.325  26.705  1.00  0.00    -0.024 A 
ATOM     22  C   UNL A   1      31.753  30.302  26.485  1.00  0.00     0.015 A 
ATOM     23  C   UNL A   1      33.977  29.677  27.233  1.00  0.00     0.015 A 
ATOM     24  C   UNL A   1      32.004  31.623  26.878  1.00  0.00     0.086 A 
ATOM     25  C   UNL A   1      34.232  30.983  27.628  1.00  0.00     0.086 A 
ATOM     26  C   UNL A   1      33.231  31.947  27.479  1.00  0.00     0.269 A 
BRANCH  26  27
ATOM     27  N   UNL A   1      33.461  33.295  28.009  1.00  0.00     0.062 N 
ATOM     28  O   UNL A   1      34.574  33.542  28.493  1.00  0.00    -0.258 OA
ATOM     29  O   UNL A   1      32.533  34.113  27.922  1.00  0.00    -0.258 OA
ENDBRANCH  26  27
ENDBRANCH  20  21
ENDBRANCH  10  13
ENDBRANCH   4   6
ENDBRANCH   3   4
ENDBRANCH   2   3
ENDBRANCH   1   2
BRANCH   1  30
ATOM     30  O   UNL A   1      38.275  22.810  25.932  1.00  0.00    -0.374 OA
BRANCH  30  31
ATOM     31  C   UNL A   1      39.502  22.422  26.509  1.00  0.00     0.202 C 
BRANCH  31  32
ATOM     32  C   UNL A   1      39.915  20.998  26.112  1.00  0.00     0.261 C 
BRANCH  32  33
ATOM     33  O   UNL A   1      41.103  20.612  26.842  1.00  0.00    -0.460 OA
BRANCH  33  34
ATOM     34  C   UNL A   1      42.300  20.834  26.227  1.00  0.00     0.338 C 
ATOM     35  O   UNL A   1      42.803  20.118  25.377  1.00  0.00    -0.246 OA
BRANCH  34  36
ATOM     36  C   UNL A   1      43.044  21.915  26.944  1.00  0.00     0.060 A 
ATOM     37  C   UNL A   1      42.814  22.150  28.315  1.00  0.00     0.016 A 
ATOM     38  C   UNL A   1      43.668  22.890  26.174  1.00  0.00     0.016 A 
ATOM     39  C   UNL A   1      43.047  23.423  28.863  1.00  0.00     0.010 A 
ATOM     40  C   UNL A   1      43.762  24.165  26.684  1.00  0.00     0.010 A 
ATOM     41  C   UNL A   1      43.428  24.460  28.017  1.00  0.00    -0.014 A 
BRANCH  41  42
ATOM     42  C   UNL A   1      43.417  25.896  28.328  1.00  0.00     0.031 A 
ATOM     43  C   UNL A   1      42.123  26.609  28.211  1.00  0.00     0.074 A 
ATOM     44  C   UNL A   1      44.435  26.473  29.020  1.00  0.00     0.049 A 
ATOM     45  N   UNL A   1      41.993  27.885  28.311  1.00  0.00    -0.248 NA
ATOM     46  C   UNL A   1      40.848  25.944  27.933  1.00  0.00     0.031 C 
ATOM     47  C   UNL A   1      44.393  27.627  29.922  1.00  0.00     0.029 A 
ATOM     48  N   UNL A   1      45.777  26.102  29.092  1.00  0.00    -0.354 N 
ATOM     49  C   UNL A   1      40.662  28.133  28.550  1.00  0.00     0.074 A 
ATOM     50  C   UNL A   1      39.978  26.935  28.142  1.00  0.00     0.031 C 
ATOM     51  C   UNL A   1      45.647  28.036  30.202  1.00  0.00     0.029 A 
ATOM     52  C   UNL A   1      46.549  27.231  29.397  1.00  0.00     0.049 A 
ATOM     53  H   UNL A   1      46.128  25.193  28.951  1.00  0.00     0.167 HD
ATOM     54  C   UNL A   1      40.332  29.257  29.244  1.00  0.00     0.031 A 
ATOM     55  C   UNL A   1      47.531  27.637  28.547  1.00  0.00     0.031 A 
ATOM     56  C   UNL A   1      41.522  30.084  29.499  1.00  0.00     0.049 A 
ATOM     57  C   UNL A   1      47.087  28.962  28.000  1.00  0.00     0.074 A 
ATOM     58  C   UNL A   1      42.245  30.380  30.644  1.00  0.00     0.029 A 
ATOM     59  N   UNL A   1      42.332  30.459  28.424  1.00  0.00    -0.354 N 
ATOM     60  N   UNL A   1      45.826  29.296  27.937  1.00  0.00    -0.248 NA
ATOM     61  C   UNL A   1      47.981  30.058  27.645  1.00  0.00     0.031 C 
ATOM     62  C   UNL A   1      43.532  30.846  30.240  1.00  0.00     0.029 A 
ATOM     63  C   UNL A   1      43.584  30.858  28.853  1.00  0.00     0.049 A 
ATOM     64  H   UNL A   1      42.047  30.442  27.482  1.00  0.00     0.167 HD
ATOM     65  C   UNL A   1      45.735  30.636  27.741  1.00  0.00     0.074 A 
ATOM     66  C   UNL A   1      47.099  31.060  27.466  1.00  0.00     0.031 C 
ATOM     67  C   UNL A   1      44.578  31.335  27.895  1.00  0.00     0.031 A 
BRANCH  54  68
ATOM     68  C   UNL A   1      38.993  29.487  29.920  1.00  0.00    -0.014 A 
ATOM     69  C   UNL A   1      38.860  29.211  31.294  1.00  0.00     0.009 A 
ATOM     70  C   UNL A   1      37.815  29.914  29.278  1.00  0.00     0.009 A 
ATOM     71  C   UNL A   1      37.633  29.318  31.967  1.00  0.00     0.001 A 
ATOM     72  C   UNL A   1      36.583  30.025  29.942  1.00  0.00     0.001 A 
ATOM     73  C   UNL A   1      36.491  29.721  31.290  1.00  0.00     0.000 A 
ENDBRANCH  54  68
BRANCH  55  74
ATOM     74  C   UNL A   1      48.166  26.469  27.853  1.00  0.00    -0.014 A 
ATOM     75  C   UNL A   1      48.305  26.566  26.445  1.00  0.00     0.009 A 
ATOM     76  C   UNL A   1      49.041  25.612  28.536  1.00  0.00     0.009 A 
ATOM     77  C   UNL A   1      49.379  25.961  25.775  1.00  0.00     0.001 A 
ATOM     78  C   UNL A   1      50.113  25.004  27.857  1.00  0.00     0.001 A 
ATOM     79  C   UNL A   1      50.310  25.218  26.492  1.00  0.00     0.000 A 
ENDBRANCH  55  74
BRANCH  67  80
ATOM     80  C   UNL A   1      44.310  32.605  27.152  1.00  0.00    -0.014 A 
ATOM     81  C   UNL A   1      44.190  32.650  25.756  1.00  0.00     0.009 A 
ATOM     82  C   UNL A   1      43.946  33.759  27.874  1.00  0.00     0.009 A 
ATOM     83  C   UNL A   1      43.779  33.813  25.107  1.00  0.00     0.001 A 
ATOM     84  C   UNL A   1      43.474  34.900  27.233  1.00  0.00     0.001 A 
ATOM     85  C   UNL A   1      43.409  34.932  25.846  1.00  0.00     0.000 A 
ENDBRANCH  67  80
ENDBRANCH  41  42
ENDBRANCH  34  36
ENDBRANCH  33  34
ENDBRANCH  32  33
ENDBRANCH  31  32
ENDBRANCH  30  31
ENDBRANCH   1  30
TORSDOF 17
ENDMDL
MODEL 2
REMARK VINA RESULT:     -11.5      3.818      9.873
REMARK SMILES Cc1ccc(C(=O)OCCOCCOC(=O)c2ccc(-c3c4nc(c(-c5ccccc5)c5ccc([nH]5)c(-c5ccccc5)c5nc(c(-c6ccccc6)c6ccc3[nH]6)C=C5)C=C4)cc2)cc1N1C(=O)/C(=C/c2ccc([N+](=O)[O-])cc2)SC1=S
REMARK SMILES IDX 10 1 9 2 8 3 6 4 7 5 5 6 1 7 2 8 3 9 66 10 4 11 65 12 67 13
REMARK SMILES IDX 68 14 82 15 69 16 70 17 81 18 83 19 71 20 72 21 73 22 80 23
REMARK SMILES IDX 74 24 79 25 75 26 76 27 77 28 78 29 11 30 12 31 13 32 14 33
REMARK SMILES IDX 15 34 16 35 17 36 18 37 64 38 19 39 63 40 20 41 21 42 22 43
REMARK SMILES IDX 57 44 23 45 62 46 56 47 58 48 24 49 61 50 55 51 54 52 25 54
REMARK SMILES IDX 47 55 32 56 46 57 33 58 36 59 45 60 59 61 34 62 35 63 44 65
REMARK SMILES IDX 60 66 37 67 26 68 27 69 31 70 28 71 30 72 29 73 48 74 49 75
REMARK SMILES IDX 53 76 50 77 52 78 51 79 38 80 39 81 43 82 40 83 42 84 41 85
REMARK H PARENT 58 53 36 64
REMARK Flexibility Score: inf
ROOT
ATOM      1  C   UNL A   1      33.489  30.268  26.807  1.00  0.00     0.202 C 
ENDROOT
BRANCH   1   2
ATOM      2  C   UNL A   1      32.067  30.097  26.395  1.00  0.00     0.261 C 
BRANCH   2   3
ATOM      3  O   UNL A   1      31.953  29.411  25.140  1.00  0.00    -0.460 OA
BRANCH   3   4
ATOM      4  C   UNL A   1      30.752  29.267  24.505  1.00  0.00     0.338 C 
ATOM      5  O   UNL A   1      30.069  30.097  23.960  1.00  0.00    -0.246 OA
BRANCH   4   6
ATOM      6  C   UNL A   1      30.527  27.805  24.424  1.00  0.00     0.062 A 
ATOM      7  C   UNL A   1      30.821  23.663  23.326  1.00  0.00     0.046 C 
ATOM      8  C   UNL A   1      30.724  25.098  23.755  1.00  0.00    -0.027 A 
ATOM      9  C   UNL A   1      29.772  25.924  23.127  1.00  0.00     0.006 A 
ATOM     10  C   UNL A   1      31.536  25.649  24.758  1.00  0.00     0.054 A 
ATOM     11  C   UNL A   1      29.699  27.285  23.432  1.00  0.00     0.016 A 
ATOM     12  C   UNL A   1      31.350  26.961  25.164  1.00  0.00     0.042 A 
BRANCH  10  13
ATOM     13  N   UNL A   1      32.658  24.981  25.291  1.00  0.00    -0.261 N 
ATOM     14  C   UNL A   1      33.890  25.158  24.695  1.00  0.00     0.270 C 
ATOM     15  C   UNL A   1      32.575  23.963  26.236  1.00  0.00     0.152 C 
ATOM     16  O   UNL A   1      34.203  25.971  23.837  1.00  0.00    -0.268 OA
ATOM     17  C   UNL A   1      34.818  24.133  25.227  1.00  0.00     0.081 C 
ATOM     18  S   UNL A   1      34.206  23.465  26.680  1.00  0.00    -0.054 SA
ATOM     19  S   UNL A   1      31.238  23.215  26.902  1.00  0.00    -0.051 S 
ATOM     20  C   UNL A   1      35.888  23.736  24.536  1.00  0.00     0.029 C 
BRANCH  20  21
ATOM     21  C   UNL A   1      36.955  22.905  25.078  1.00  0.00    -0.024 A 
ATOM     22  C   UNL A   1      37.152  21.564  24.734  1.00  0.00     0.015 A 
ATOM     23  C   UNL A   1      37.854  23.557  25.930  1.00  0.00     0.015 A 
ATOM     24  C   UNL A   1      38.303  20.903  25.181  1.00  0.00     0.086 A 
ATOM     25  C   UNL A   1      38.999  22.910  26.375  1.00  0.00     0.086 A 
ATOM     26  C   UNL A   1      39.237  21.593  25.971  1.00  0.00     0.269 A 
BRANCH  26  27
ATOM     27  N   UNL A   1      40.505  20.957  26.342  1.00  0.00     0.062 N 
ATOM     28  O   UNL A   1      41.459  21.695  26.625  1.00  0.00    -0.258 OA
ATOM     29  O   UNL A   1      40.540  19.718  26.370  1.00  0.00    -0.258 OA
ENDBRANCH  26  27
ENDBRANCH  20  21
ENDBRANCH  10  13
ENDBRANCH   4   6
ENDBRANCH   3   4
ENDBRANCH   2   3
ENDBRANCH   1   2
BRANCH   1  30
ATOM     30  O   UNL A   1      33.450  31.086  27.963  1.00  0.00    -0.374 OA
BRANCH  30  31
ATOM     31  C   UNL A   1      34.263  32.237  27.908  1.00  0.00     0.202 C 
BRANCH  31  32
ATOM     32  C   UNL A   1      33.464  33.533  28.100  1.00  0.00     0.261 C 
BRANCH  32  33
ATOM     33  O   UNL A   1      34.243  34.480  28.867  1.00  0.00    -0.460 OA
BRANCH  33  34
ATOM     34  C   UNL A   1      34.268  34.301  30.219  1.00  0.00     0.338 C 
ATOM     35  O   UNL A   1      33.325  34.475  30.973  1.00  0.00    -0.246 OA
BRANCH  34  36
ATOM     36  C   UNL A   1      35.681  34.148  30.683  1.00  0.00     0.060 A 
ATOM     37  C   UNL A   1      36.751  34.324  29.782  1.00  0.00     0.016 A 
ATOM     38  C   UNL A   1      35.897  33.488  31.887  1.00  0.00     0.016 A 
ATOM     39  C   UNL A   1      37.981  33.684  30.011  1.00  0.00     0.010 A 
ATOM     40  C   UNL A   1      37.054  32.755  32.033  1.00  0.00     0.010 A 
ATOM     41  C   UNL A   1      38.096  32.814  31.091  1.00  0.00    -0.014 A 
BRANCH  41  42
ATOM     42  C   UNL A   1      39.165  31.832  31.319  1.00  0.00     0.031 A 
ATOM     43  C   UNL A   1      39.154  30.608  30.485  1.00  0.00     0.074 A 
ATOM     44  C   UNL A   1      40.296  32.169  31.992  1.00  0.00     0.049 A 
ATOM     45  N   UNL A   1      39.936  29.604  30.671  1.00  0.00    -0.248 NA
ATOM     46  C   UNL A   1      38.226  30.385  29.374  1.00  0.00     0.031 C 
ATOM     47  C   UNL A   1      41.652  31.635  31.835  1.00  0.00     0.029 A 
ATOM     48  N   UNL A   1      40.483  33.136  32.980  1.00  0.00    -0.354 N 
ATOM     49  C   UNL A   1      39.923  28.866  29.511  1.00  0.00     0.074 A 
ATOM     50  C   UNL A   1      38.737  29.286  28.813  1.00  0.00     0.031 C 
ATOM     51  C   UNL A   1      42.429  32.044  32.859  1.00  0.00     0.029 A 
ATOM     52  C   UNL A   1      41.572  32.768  33.782  1.00  0.00     0.049 A 
ATOM     53  H   UNL A   1      39.938  33.948  33.096  1.00  0.00     0.167 HD
ATOM     54  C   UNL A   1      41.025  28.128  29.204  1.00  0.00     0.031 A 
ATOM     55  C   UNL A   1      41.402  32.579  35.118  1.00  0.00     0.031 A 
ATOM     56  C   UNL A   1      42.008  28.175  30.299  1.00  0.00     0.049 A 
ATOM     57  C   UNL A   1      41.632  31.117  35.366  1.00  0.00     0.074 A 
ATOM     58  C   UNL A   1      43.251  28.772  30.433  1.00  0.00     0.029 A 
ATOM     59  N   UNL A   1      41.602  27.833  31.591  1.00  0.00    -0.354 N 
ATOM     60  N   UNL A   1      41.452  30.221  34.432  1.00  0.00    -0.248 NA
ATOM     61  C   UNL A   1      42.222  30.559  36.577  1.00  0.00     0.031 C 
ATOM     62  C   UNL A   1      43.539  28.870  31.828  1.00  0.00     0.029 A 
ATOM     63  C   UNL A   1      42.487  28.311  32.539  1.00  0.00     0.049 A 
ATOM     64  H   UNL A   1      40.790  27.317  31.799  1.00  0.00     0.167 HD
ATOM     65  C   UNL A   1      42.052  29.064  34.810  1.00  0.00     0.074 A 
ATOM     66  C   UNL A   1      42.436  29.286  36.195  1.00  0.00     0.031 C 
ATOM     67  C   UNL A   1      42.279  28.029  33.956  1.00  0.00     0.031 A 
BRANCH  54  68
ATOM     68  C   UNL A   1      41.337  27.582  27.823  1.00  0.00    -0.014 A 
ATOM     69  C   UNL A   1      42.165  28.324  26.961  1.00  0.00     0.009 A 
ATOM     70  C   UNL A   1      40.819  26.391  27.279  1.00  0.00     0.009 A 
ATOM     71  C   UNL A   1      42.428  27.924  25.641  1.00  0.00     0.001 A 
ATOM     72  C   UNL A   1      41.075  25.982  25.960  1.00  0.00     0.001 A 
ATOM     73  C   UNL A   1      41.878  26.754  25.137  1.00  0.00     0.000 A 
ENDBRANCH  54  68
BRANCH  55  74
ATOM     74  C   UNL A   1      40.352  33.499  35.668  1.00  0.00    -0.014 A 
ATOM     75  C   UNL A   1      39.081  32.927  35.930  1.00  0.00     0.009 A 
ATOM     76  C   UNL A   1      40.706  34.653  36.383  1.00  0.00     0.009 A 
ATOM     77  C   UNL A   1      38.273  33.394  36.976  1.00  0.00     0.001 A 
ATOM     78  C   UNL A   1      39.888  35.120  37.428  1.00  0.00     0.001 A 
ATOM     79  C   UNL A   1      38.701  34.462  37.756  1.00  0.00     0.000 A 
ENDBRANCH  55  74
BRANCH  67  80
ATOM     80  C   UNL A   1      42.370  26.613  34.430  1.00  0.00    -0.014 A 
ATOM     81  C   UNL A   1      43.528  25.839  34.271  1.00  0.00     0.009 A 
ATOM     82  C   UNL A   1      41.351  26.099  35.255  1.00  0.00     0.009 A 
ATOM     83  C   UNL A   1      43.639  24.583  34.865  1.00  0.00     0.001 A 
ATOM     84  C   UNL A   1      41.487  24.874  35.902  1.00  0.00     0.001 A 
ATOM     85  C   UNL A   1      42.625  24.108  35.691  1.00  0.00     0.000 A 
ENDBRANCH  67  80
ENDBRANCH  41  42
ENDBRANCH  34  36
ENDBRANCH  33  34
ENDBRANCH  32  33
ENDBRANCH  31  32
ENDBRANCH  30  31
ENDBRANCH   1  30
TORSDOF 17
ENDMDL
MODEL 3
REMARK VINA RESULT:     -11.4      4.142     10.331
REMARK SMILES Cc1ccc(C(=O)OCCOCCOC(=O)c2ccc(-c3c4nc(c(-c5ccccc5)c5ccc([nH]5)c(-c5ccccc5)c5nc(c(-c6ccccc6)c6ccc3[nH]6)C=C5)C=C4)cc2)cc1N1C(=O)/C(=C/c2ccc([N+](=O)[O-])cc2)SC1=S
REMARK SMILES IDX 10 1 9 2 8 3 6 4 7 5 5 6 1 7 2 8 3 9 66 10 4 11 65 12 67 13
REMARK SMILES IDX 68 14 82 15 69 16 70 17 81 18 83 19 71 20 72 21 73 22 80 23
REMARK SMILES IDX 74 24 79 25 75 26 76 27 77 28 78 29 11 30 12 31 13 32 14 33
REMARK SMILES IDX 15 34 16 35 17 36 18 37 64 38 19 39 63 40 20 41 21 42 22 43
REMARK SMILES IDX 57 44 23 45 62 46 56 47 58 48 24 49 61 50 55 51 54 52 25 54
REMARK SMILES IDX 47 55 32 56 46 57 33 58 36 59 45 60 59 61 34 62 35 63 44 65
REMARK SMILES IDX 60 66 37 67 26 68 27 69 31 70 28 71 30 72 29 73 48 74 49 75
REMARK SMILES IDX 53 76 50 77 52 78 51 79 38 80 39 81 43 82 40 83 42 84 41 85
REMARK H PARENT 58 53 36 64
REMARK Flexibility Score: inf
ROOT
ATOM      1  C   UNL A   1      32.884  31.156  26.747  1.00  0.00     0.202 C 
ENDROOT
BRANCH   1   2
ATOM      2  C   UNL A   1      31.828  30.134  26.998  1.00  0.00     0.261 C 
BRANCH   2   3
ATOM      3  O   UNL A   1      31.763  29.164  25.943  1.00  0.00    -0.460 OA
BRANCH   3   4
ATOM      4  C   UNL A   1      31.424  27.862  26.183  1.00  0.00     0.338 C 
ATOM      5  O   UNL A   1      31.005  27.352  27.192  1.00  0.00    -0.246 OA
BRANCH   4   6
ATOM      6  C   UNL A   1      31.474  27.197  24.860  1.00  0.00     0.062 A 
ATOM      7  C   UNL A   1      32.880  25.421  21.211  1.00  0.00     0.046 C 
ATOM      8  C   UNL A   1      32.364  26.002  22.495  1.00  0.00    -0.027 A 
ATOM      9  C   UNL A   1      31.977  27.356  22.513  1.00  0.00     0.006 A 
ATOM     10  C   UNL A   1      32.246  25.253  23.675  1.00  0.00     0.054 A 
ATOM     11  C   UNL A   1      31.570  27.965  23.702  1.00  0.00     0.016 A 
ATOM     12  C   UNL A   1      31.693  25.823  24.812  1.00  0.00     0.042 A 
BRANCH  10  13
ATOM     13  N   UNL A   1      32.804  23.966  23.828  1.00  0.00    -0.261 N 
ATOM     14  C   UNL A   1      32.046  22.863  23.491  1.00  0.00     0.270 C 
ATOM     15  C   UNL A   1      33.982  23.713  24.522  1.00  0.00     0.152 C 
ATOM     16  O   UNL A   1      30.977  22.834  22.898  1.00  0.00    -0.268 OA
ATOM     17  C   UNL A   1      32.717  21.655  24.027  1.00  0.00     0.081 C 
ATOM     18  S   UNL A   1      34.353  21.994  24.403  1.00  0.00    -0.054 SA
ATOM     19  S   UNL A   1      34.966  24.744  25.393  1.00  0.00    -0.051 S 
ATOM     20  C   UNL A   1      32.036  20.539  24.289  1.00  0.00     0.029 C 
BRANCH  20  21
ATOM     21  C   UNL A   1      32.651  19.255  24.605  1.00  0.00    -0.024 A 
ATOM     22  C   UNL A   1      32.679  18.698  25.887  1.00  0.00     0.015 A 
ATOM     23  C   UNL A   1      33.161  18.545  23.512  1.00  0.00     0.015 A 
ATOM     24  C   UNL A   1      33.144  17.387  26.055  1.00  0.00     0.086 A 
ATOM     25  C   UNL A   1      33.620  17.245  23.669  1.00  0.00     0.086 A 
ATOM     26  C   UNL A   1      33.580  16.657  24.937  1.00  0.00     0.269 A 
BRANCH  26  27
ATOM     27  N   UNL A   1      33.951  15.245  25.075  1.00  0.00     0.062 N 
ATOM     28  O   UNL A   1      33.036  14.418  25.199  1.00  0.00    -0.258 OA
ATOM     29  O   UNL A   1      35.157  14.961  25.038  1.00  0.00    -0.258 OA
ENDBRANCH  26  27
ENDBRANCH  20  21
ENDBRANCH  10  13
ENDBRANCH   4   6
ENDBRANCH   3   4
ENDBRANCH   2   3
ENDBRANCH   1   2
BRANCH   1  30
ATOM     30  O   UNL A   1      33.608  31.253  27.960  1.00  0.00    -0.374 OA
BRANCH  30  31
ATOM     31  C   UNL A   1      34.519  32.328  28.028  1.00  0.00     0.202 C 
BRANCH  31  32
ATOM     32  C   UNL A   1      33.823  33.694  27.985  1.00  0.00     0.261 C 
BRANCH  32  33
ATOM     33  O   UNL A   1      34.437  34.588  28.942  1.00  0.00    -0.460 OA
BRANCH  33  34
ATOM     34  C   UNL A   1      34.407  34.200  30.250  1.00  0.00     0.338 C 
ATOM     35  O   UNL A   1      33.423  34.219  30.971  1.00  0.00    -0.246 OA
BRANCH  34  36
ATOM     36  C   UNL A   1      35.803  34.028  30.759  1.00  0.00     0.060 A 
ATOM     37  C   UNL A   1      36.904  34.241  29.905  1.00  0.00     0.016 A 
ATOM     38  C   UNL A   1      35.976  33.320  31.942  1.00  0.00     0.016 A 
ATOM     39  C   UNL A   1      38.126  33.592  30.152  1.00  0.00     0.010 A 
ATOM     40  C   UNL A   1      37.127  32.582  32.100  1.00  0.00     0.010 A 
ATOM     41  C   UNL A   1      38.202  32.679  31.200  1.00  0.00    -0.014 A 
BRANCH  41  42
ATOM     42  C   UNL A   1      39.264  31.688  31.426  1.00  0.00     0.031 A 
ATOM     43  C   UNL A   1      39.194  30.426  30.654  1.00  0.00     0.074 A 
ATOM     44  C   UNL A   1      40.430  32.035  32.032  1.00  0.00     0.049 A 
ATOM     45  N   UNL A   1      39.967  29.417  30.853  1.00  0.00    -0.248 NA
ATOM     46  C   UNL A   1      38.213  30.170  29.598  1.00  0.00     0.031 C 
ATOM     47  C   UNL A   1      41.768  31.468  31.840  1.00  0.00     0.029 A 
ATOM     48  N   UNL A   1      40.679  33.044  32.963  1.00  0.00    -0.354 N 
ATOM     49  C   UNL A   1      39.888  28.626  29.731  1.00  0.00     0.074 A 
ATOM     50  C   UNL A   1      38.679  29.036  29.068  1.00  0.00     0.031 C 
ATOM     51  C   UNL A   1      42.598  31.910  32.807  1.00  0.00     0.029 A 
ATOM     52  C   UNL A   1      41.796  32.693  33.732  1.00  0.00     0.049 A 
ATOM     53  H   UNL A   1      40.153  33.870  33.064  1.00  0.00     0.167 HD
ATOM     54  C   UNL A   1      40.963  27.853  29.411  1.00  0.00     0.031 A 
ATOM     55  C   UNL A   1      41.685  32.570  35.082  1.00  0.00     0.031 A 
ATOM     56  C   UNL A   1      41.995  27.933  30.457  1.00  0.00     0.049 A 
ATOM     57  C   UNL A   1      41.901  31.118  35.389  1.00  0.00     0.074 A 
ATOM     58  C   UNL A   1      43.253  28.512  30.507  1.00  0.00     0.029 A 
ATOM     59  N   UNL A   1      41.642  27.660  31.782  1.00  0.00    -0.354 N 
ATOM     60  N   UNL A   1      41.663  30.182  34.508  1.00  0.00    -0.248 NA
ATOM     61  C   UNL A   1      42.535  30.606  36.598  1.00  0.00     0.031 C 
ATOM     62  C   UNL A   1      43.606  28.670  31.881  1.00  0.00     0.029 A 
ATOM     63  C   UNL A   1      42.578  28.166  32.665  1.00  0.00     0.049 A 
ATOM     64  H   UNL A   1      40.832  27.171  32.050  1.00  0.00     0.167 HD
ATOM     65  C   UNL A   1      42.260  29.033  34.914  1.00  0.00     0.074 A 
ATOM     66  C   UNL A   1      42.710  29.313  36.268  1.00  0.00     0.031 C 
ATOM     67  C   UNL A   1      42.429  27.954  34.102  1.00  0.00     0.031 A 
BRANCH  54  68
ATOM     68  C   UNL A   1      41.202  27.237  28.045  1.00  0.00    -0.014 A 
ATOM     69  C   UNL A   1      42.051  27.892  27.135  1.00  0.00     0.009 A 
ATOM     70  C   UNL A   1      40.596  26.062  27.561  1.00  0.00     0.009 A 
ATOM     71  C   UNL A   1      42.253  27.427  25.826  1.00  0.00     0.001 A 
ATOM     72  C   UNL A   1      40.790  25.588  26.254  1.00  0.00     0.001 A 
ATOM     73  C   UNL A   1      41.617  26.275  25.382  1.00  0.00     0.000 A 
ENDBRANCH  54  68
BRANCH  55  74
ATOM     74  C   UNL A   1      40.677  33.535  35.634  1.00  0.00    -0.014 A 
ATOM     75  C   UNL A   1      39.714  33.004  36.530  1.00  0.00     0.009 A 
ATOM     76  C   UNL A   1      40.962  34.905  35.722  1.00  0.00     0.009 A 
ATOM     77  C   UNL A   1      39.186  33.777  37.574  1.00  0.00     0.001 A 
ATOM     78  C   UNL A   1      40.424  35.676  36.769  1.00  0.00     0.001 A 
ATOM     79  C   UNL A   1      39.580  35.103  37.721  1.00  0.00     0.000 A 
ENDBRANCH  55  74
BRANCH  67  80
ATOM     80  C   UNL A   1      42.518  26.561  34.638  1.00  0.00    -0.014 A 
ATOM     81  C   UNL A   1      41.472  25.961  35.353  1.00  0.00     0.009 A 
ATOM     82  C   UNL A   1      43.587  25.737  34.233  1.00  0.00     0.009 A 
ATOM     83  C   UNL A   1      41.519  24.611  35.696  1.00  0.00     0.001 A 
ATOM     84  C   UNL A   1      43.605  24.376  34.520  1.00  0.00     0.001 A 
ATOM     85  C   UNL A   1      42.578  23.817  35.268  1.00  0.00     0.000 A 
ENDBRANCH  67  80
ENDBRANCH  41  42
ENDBRANCH  34  36
ENDBRANCH  33  34
ENDBRANCH  32  33
ENDBRANCH  31  32
ENDBRANCH  30  31
ENDBRANCH   1  30
TORSDOF 17
ENDMDL
