MODEL 1
REMARK VINA RESULT:     -11.1      0.000      0.000
REMARK SMILES CC1=C2C(=O)CC(C)(C)CC2=N[C@@H]1C(=O)OCCOCCOC(=O)c1ccc(-c2c3nc(c(-c4ccccc4)c4ccc([nH]4)c(-c4ccccc4)c4nc(c(-c5ccccc5)c5ccc2[nH]5)C=C4)C=C3)cc1
REMARK SMILES IDX 20 1 19 2 18 3 17 4 16 5 14 6 15 7 13 8 1 9 2 10 3 11 4 12
REMARK SMILES IDX 11 13 12 14 5 15 6 16 10 17 7 18 8 19 9 20 21 21 22 22 23 23
REMARK SMILES IDX 24 24 25 25 26 26 72 27 27 28 71 29 28 30 29 31 30 32 65 33
REMARK SMILES IDX 31 34 70 35 64 36 66 37 32 38 69 39 63 40 62 41 33 43 55 44
REMARK SMILES IDX 40 45 54 46 41 47 44 48 53 49 67 50 42 51 43 52 52 54 68 55
REMARK SMILES IDX 45 56 34 57 35 58 39 59 36 60 38 61 37 62 56 63 57 64 61 65
REMARK SMILES IDX 58 66 60 67 59 68 46 69 47 70 51 71 48 72 50 73 49 74
REMARK H PARENT 66 42 44 53
REMARK Flexibility Score: inf
ROOT
ATOM      1  C   UNL A   1      42.373  20.234  26.513  1.00  0.00     0.202 C 
ENDROOT
BRANCH   1   2
ATOM      2  O   UNL A   1      41.303  20.903  25.861  1.00  0.00    -0.374 OA
BRANCH   2   3
ATOM      3  C   UNL A   1      40.004  20.998  26.436  1.00  0.00     0.202 C 
BRANCH   3   4
ATOM      4  C   UNL A   1      39.026  22.084  25.987  1.00  0.00     0.261 C 
BRANCH   4   5
ATOM      5  O   UNL A   1      37.639  21.705  26.022  1.00  0.00    -0.461 OA
BRANCH   5   6
ATOM      6  C   UNL A   1      36.904  22.343  25.074  1.00  0.00     0.335 C 
ATOM      7  O   UNL A   1      36.921  22.045  23.880  1.00  0.00    -0.249 OA
BRANCH   6   8
ATOM      8  C   UNL A   1      36.109  23.555  25.618  1.00  0.00     0.242 C 
ATOM      9  C   UNL A   1      34.709  22.361  27.547  1.00  0.00     0.043 C 
ATOM     10  C   UNL A   1      34.810  23.213  26.332  1.00  0.00    -0.025 C 
ATOM     11  C   UNL A   1      33.761  23.596  25.596  1.00  0.00     0.040 C 
ATOM     12  C   UNL A   1      32.308  23.389  25.674  1.00  0.00     0.165 C 
ATOM     13  C   UNL A   1      34.429  23.709  24.316  1.00  0.00     0.048 C 
ATOM     14  N   UNL A   1      35.647  24.171  24.319  1.00  0.00    -0.269 NA
ATOM     15  O   UNL A   1      31.651  23.866  26.594  1.00  0.00    -0.294 OA
ATOM     16  C   UNL A   1      31.678  22.638  24.507  1.00  0.00     0.088 C 
ATOM     17  C   UNL A   1      33.805  22.996  23.151  1.00  0.00     0.063 C 
ATOM     18  C   UNL A   1      32.743  21.938  23.621  1.00  0.00    -0.023 C 
ATOM     19  C   UNL A   1      33.304  20.725  24.420  1.00  0.00     0.012 C 
ATOM     20  C   UNL A   1      32.110  21.341  22.354  1.00  0.00     0.012 C 
ENDBRANCH   6   8
ENDBRANCH   5   6
ENDBRANCH   4   5
ENDBRANCH   3   4
ENDBRANCH   2   3
ENDBRANCH   1   2
BRANCH   1  21
ATOM     21  C   UNL A   1      43.224  19.229  25.755  1.00  0.00     0.261 C 
BRANCH  21  22
ATOM     22  O   UNL A   1      43.511  19.645  24.436  1.00  0.00    -0.460 OA
BRANCH  22  23
ATOM     23  C   UNL A   1      44.841  19.804  24.239  1.00  0.00     0.338 C 
ATOM     24  O   UNL A   1      45.678  18.933  24.107  1.00  0.00    -0.246 OA
BRANCH  23  25
ATOM     25  C   UNL A   1      45.165  21.220  24.410  1.00  0.00     0.060 A 
ATOM     26  C   UNL A   1      46.079  21.478  25.430  1.00  0.00     0.016 A 
ATOM     27  C   UNL A   1      44.282  22.191  23.914  1.00  0.00     0.016 A 
ATOM     28  C   UNL A   1      45.897  22.618  26.165  1.00  0.00     0.010 A 
ATOM     29  C   UNL A   1      44.091  23.323  24.659  1.00  0.00     0.010 A 
ATOM     30  C   UNL A   1      44.833  23.462  25.828  1.00  0.00    -0.014 A 
BRANCH  30  31
ATOM     31  C   UNL A   1      44.604  24.591  26.689  1.00  0.00     0.031 A 
ATOM     32  C   UNL A   1      45.724  25.546  26.634  1.00  0.00     0.074 A 
ATOM     33  C   UNL A   1      43.465  24.764  27.381  1.00  0.00     0.049 A 
ATOM     34  N   UNL A   1      46.601  25.781  27.551  1.00  0.00    -0.248 NA
ATOM     35  C   UNL A   1      46.033  26.142  25.322  1.00  0.00     0.031 C 
ATOM     36  C   UNL A   1      42.198  24.043  27.265  1.00  0.00     0.029 A 
ATOM     37  N   UNL A   1      43.181  25.741  28.274  1.00  0.00    -0.354 N 
ATOM     38  C   UNL A   1      47.459  26.717  26.994  1.00  0.00     0.074 A 
ATOM     39  C   UNL A   1      47.202  26.724  25.577  1.00  0.00     0.031 C 
ATOM     40  C   UNL A   1      41.222  24.779  27.853  1.00  0.00     0.029 A 
ATOM     41  C   UNL A   1      41.827  25.941  28.487  1.00  0.00     0.049 A 
ATOM     42  H   UNL A   1      43.877  26.264  28.732  1.00  0.00     0.167 HD
ATOM     43  C   UNL A   1      48.086  27.641  27.768  1.00  0.00     0.031 A 
ATOM     44  C   UNL A   1      41.275  27.047  29.047  1.00  0.00     0.031 A 
ATOM     45  C   UNL A   1      48.127  27.244  29.152  1.00  0.00     0.049 A 
ATOM     46  C   UNL A   1      42.359  27.773  29.762  1.00  0.00     0.074 A 
ATOM     47  C   UNL A   1      48.620  26.139  29.821  1.00  0.00     0.029 A 
ATOM     48  N   UNL A   1      47.222  27.828  30.010  1.00  0.00    -0.354 N 
ATOM     49  N   UNL A   1      42.947  27.315  30.830  1.00  0.00    -0.248 NA
ATOM     50  C   UNL A   1      43.117  28.768  29.012  1.00  0.00     0.031 C 
ATOM     51  C   UNL A   1      47.636  25.839  30.809  1.00  0.00     0.029 A 
ATOM     52  C   UNL A   1      46.644  26.819  30.741  1.00  0.00     0.049 A 
ATOM     53  H   UNL A   1      47.025  28.789  30.084  1.00  0.00     0.167 HD
ATOM     54  C   UNL A   1      44.290  27.617  30.655  1.00  0.00     0.074 A 
ATOM     55  C   UNL A   1      44.324  28.584  29.557  1.00  0.00     0.031 C 
ATOM     56  C   UNL A   1      45.274  26.842  31.204  1.00  0.00     0.031 A 
BRANCH  43  57
ATOM     57  C   UNL A   1      48.241  29.067  27.314  1.00  0.00    -0.014 A 
ATOM     58  C   UNL A   1      49.521  29.637  27.288  1.00  0.00     0.009 A 
ATOM     59  C   UNL A   1      47.150  29.952  27.166  1.00  0.00     0.009 A 
ATOM     60  C   UNL A   1      49.692  31.023  27.174  1.00  0.00     0.001 A 
ATOM     61  C   UNL A   1      47.316  31.326  27.004  1.00  0.00     0.001 A 
ATOM     62  C   UNL A   1      48.591  31.865  27.034  1.00  0.00     0.000 A 
ENDBRANCH  43  57
BRANCH  44  63
ATOM     63  C   UNL A   1      39.994  27.706  28.696  1.00  0.00    -0.014 A 
ATOM     64  C   UNL A   1      38.983  27.854  29.659  1.00  0.00     0.009 A 
ATOM     65  C   UNL A   1      39.868  28.439  27.501  1.00  0.00     0.009 A 
ATOM     66  C   UNL A   1      37.912  28.735  29.451  1.00  0.00     0.001 A 
ATOM     67  C   UNL A   1      38.796  29.313  27.291  1.00  0.00     0.001 A 
ATOM     68  C   UNL A   1      37.828  29.475  28.274  1.00  0.00     0.000 A 
ENDBRANCH  44  63
BRANCH  56  69
ATOM     69  C   UNL A   1      44.868  25.761  32.179  1.00  0.00    -0.014 A 
ATOM     70  C   UNL A   1      44.579  24.438  31.797  1.00  0.00     0.009 A 
ATOM     71  C   UNL A   1      44.925  26.052  33.551  1.00  0.00     0.009 A 
ATOM     72  C   UNL A   1      44.318  23.451  32.755  1.00  0.00     0.001 A 
ATOM     73  C   UNL A   1      44.686  25.064  34.508  1.00  0.00     0.001 A 
ATOM     74  C   UNL A   1      44.375  23.766  34.111  1.00  0.00     0.000 A 
ENDBRANCH  56  69
ENDBRANCH  30  31
ENDBRANCH  23  25
ENDBRANCH  22  23
ENDBRANCH  21  22
ENDBRANCH   1  21
TORSDOF 14
ENDMDL
MODEL 2
REMARK VINA RESULT:     -10.9      2.381      6.680
REMARK SMILES CC1=C2C(=O)CC(C)(C)CC2=N[C@@H]1C(=O)OCCOCCOC(=O)c1ccc(-c2c3nc(c(-c4ccccc4)c4ccc([nH]4)c(-c4ccccc4)c4nc(c(-c5ccccc5)c5ccc2[nH]5)C=C4)C=C3)cc1
REMARK SMILES IDX 20 1 19 2 18 3 17 4 16 5 14 6 15 7 13 8 1 9 2 10 3 11 4 12
REMARK SMILES IDX 11 13 12 14 5 15 6 16 10 17 7 18 8 19 9 20 21 21 22 22 23 23
REMARK SMILES IDX 24 24 25 25 26 26 72 27 27 28 71 29 28 30 29 31 30 32 65 33
REMARK SMILES IDX 31 34 70 35 64 36 66 37 32 38 69 39 63 40 62 41 33 43 55 44
REMARK SMILES IDX 40 45 54 46 41 47 44 48 53 49 67 50 42 51 43 52 52 54 68 55
REMARK SMILES IDX 45 56 34 57 35 58 39 59 36 60 38 61 37 62 56 63 57 64 61 65
REMARK SMILES IDX 58 66 60 67 59 68 46 69 47 70 51 71 48 72 50 73 49 74
REMARK H PARENT 66 42 44 53
REMARK Flexibility Score: inf
ROOT
ATOM      1  C   UNL A   1      36.422  21.051  25.427  1.00  0.00     0.202 C 
ENDROOT
BRANCH   1   2
ATOM      2  O   UNL A   1      35.573  21.689  24.485  1.00  0.00    -0.374 OA
BRANCH   2   3
ATOM      3  C   UNL A   1      34.238  22.070  24.804  1.00  0.00     0.202 C 
BRANCH   3   4
ATOM      4  C   UNL A   1      33.927  22.830  26.094  1.00  0.00     0.261 C 
BRANCH   4   5
ATOM      5  O   UNL A   1      33.227  24.074  25.914  1.00  0.00    -0.461 OA
BRANCH   5   6
ATOM      6  C   UNL A   1      31.989  24.058  26.473  1.00  0.00     0.335 C 
ATOM      7  O   UNL A   1      31.738  23.544  27.562  1.00  0.00    -0.249 OA
BRANCH   6   8
ATOM      8  C   UNL A   1      30.892  24.662  25.564  1.00  0.00     0.242 C 
ATOM      9  C   UNL A   1      32.326  25.150  23.370  1.00  0.00     0.043 C 
ATOM     10  C   UNL A   1      31.396  25.570  24.452  1.00  0.00    -0.025 C 
ATOM     11  C   UNL A   1      31.068  26.842  24.707  1.00  0.00     0.040 C 
ATOM     12  C   UNL A   1      31.414  28.141  24.113  1.00  0.00     0.165 C 
ATOM     13  C   UNL A   1      30.816  26.717  26.128  1.00  0.00     0.048 C 
ATOM     14  N   UNL A   1      30.244  25.620  26.535  1.00  0.00    -0.269 NA
ATOM     15  O   UNL A   1      31.057  28.430  22.975  1.00  0.00    -0.294 OA
ATOM     16  C   UNL A   1      32.148  29.116  25.025  1.00  0.00     0.088 C 
ATOM     17  C   UNL A   1      31.512  27.688  27.036  1.00  0.00     0.063 C 
ATOM     18  C   UNL A   1      32.691  28.424  26.303  1.00  0.00    -0.023 C 
ATOM     19  C   UNL A   1      33.893  27.527  25.884  1.00  0.00     0.012 C 
ATOM     20  C   UNL A   1      33.267  29.451  27.293  1.00  0.00     0.012 C 
ENDBRANCH   6   8
ENDBRANCH   5   6
ENDBRANCH   4   5
ENDBRANCH   3   4
ENDBRANCH   2   3
ENDBRANCH   1   2
BRANCH   1  21
ATOM     21  C   UNL A   1      37.677  20.331  24.961  1.00  0.00     0.261 C 
BRANCH  21  22
ATOM     22  O   UNL A   1      38.862  20.974  25.382  1.00  0.00    -0.460 OA
BRANCH  22  23
ATOM     23  C   UNL A   1      39.844  20.085  25.659  1.00  0.00     0.338 C 
ATOM     24  O   UNL A   1      39.798  18.875  25.552  1.00  0.00    -0.246 OA
BRANCH  23  25
ATOM     25  C   UNL A   1      40.940  20.799  26.313  1.00  0.00     0.060 A 
ATOM     26  C   UNL A   1      40.913  20.736  27.705  1.00  0.00     0.016 A 
ATOM     27  C   UNL A   1      41.623  21.802  25.609  1.00  0.00     0.016 A 
ATOM     28  C   UNL A   1      41.309  21.851  28.394  1.00  0.00     0.010 A 
ATOM     29  C   UNL A   1      42.005  22.922  26.298  1.00  0.00     0.010 A 
ATOM     30  C   UNL A   1      41.744  22.962  27.664  1.00  0.00    -0.014 A 
BRANCH  30  31
ATOM     31  C   UNL A   1      42.046  24.152  28.413  1.00  0.00     0.031 A 
ATOM     32  C   UNL A   1      41.059  25.215  28.156  1.00  0.00     0.074 A 
ATOM     33  C   UNL A   1      43.062  24.226  29.290  1.00  0.00     0.049 A 
ATOM     34  N   UNL A   1      41.235  26.306  27.492  1.00  0.00    -0.248 NA
ATOM     35  C   UNL A   1      39.655  24.918  28.489  1.00  0.00     0.031 C 
ATOM     36  C   UNL A   1      43.893  23.151  29.831  1.00  0.00     0.029 A 
ATOM     37  N   UNL A   1      43.479  25.313  29.982  1.00  0.00    -0.354 N 
ATOM     38  C   UNL A   1      39.999  26.934  27.501  1.00  0.00     0.074 A 
ATOM     39  C   UNL A   1      39.036  25.948  27.917  1.00  0.00     0.031 C 
ATOM     40  C   UNL A   1      44.514  23.600  30.948  1.00  0.00     0.029 A 
ATOM     41  C   UNL A   1      44.221  25.016  31.113  1.00  0.00     0.049 A 
ATOM     42  H   UNL A   1      43.272  26.234  29.704  1.00  0.00     0.167 HD
ATOM     43  C   UNL A   1      39.901  28.289  27.478  1.00  0.00     0.031 A 
ATOM     44  C   UNL A   1      44.460  25.870  32.141  1.00  0.00     0.031 A 
ATOM     45  C   UNL A   1      41.107  28.907  26.991  1.00  0.00     0.049 A 
ATOM     46  C   UNL A   1      44.175  27.246  31.653  1.00  0.00     0.074 A 
ATOM     47  C   UNL A   1      41.839  28.798  25.822  1.00  0.00     0.029 A 
ATOM     48  N   UNL A   1      41.964  29.454  27.918  1.00  0.00    -0.354 N 
ATOM     49  N   UNL A   1      44.897  27.853  30.755  1.00  0.00    -0.248 NA
ATOM     50  C   UNL A   1      42.816  27.751  31.805  1.00  0.00     0.031 C 
ATOM     51  C   UNL A   1      43.202  28.808  26.241  1.00  0.00     0.029 A 
ATOM     52  C   UNL A   1      43.227  29.003  27.623  1.00  0.00     0.049 A 
ATOM     53  H   UNL A   1      41.718  30.055  28.657  1.00  0.00     0.167 HD
ATOM     54  C   UNL A   1      43.980  28.501  29.939  1.00  0.00     0.074 A 
ATOM     55  C   UNL A   1      42.720  28.469  30.682  1.00  0.00     0.031 C 
ATOM     56  C   UNL A   1      44.243  28.738  28.619  1.00  0.00     0.031 A 
BRANCH  43  57
ATOM     57  C   UNL A   1      38.884  29.015  28.317  1.00  0.00    -0.014 A 
ATOM     58  C   UNL A   1      38.877  28.810  29.704  1.00  0.00     0.009 A 
ATOM     59  C   UNL A   1      37.766  29.683  27.769  1.00  0.00     0.009 A 
ATOM     60  C   UNL A   1      37.785  29.207  30.486  1.00  0.00     0.001 A 
ATOM     61  C   UNL A   1      36.700  30.122  28.550  1.00  0.00     0.001 A 
ATOM     62  C   UNL A   1      36.698  29.859  29.910  1.00  0.00     0.000 A 
ENDBRANCH  43  57
BRANCH  44  63
ATOM     63  C   UNL A   1      44.543  25.555  33.587  1.00  0.00    -0.014 A 
ATOM     64  C   UNL A   1      43.650  24.642  34.169  1.00  0.00     0.009 A 
ATOM     65  C   UNL A   1      45.670  25.935  34.341  1.00  0.00     0.009 A 
ATOM     66  C   UNL A   1      43.900  24.095  35.437  1.00  0.00     0.001 A 
ATOM     67  C   UNL A   1      45.916  25.394  35.607  1.00  0.00     0.001 A 
ATOM     68  C   UNL A   1      45.040  24.460  36.147  1.00  0.00     0.000 A 
ENDBRANCH  44  63
BRANCH  56  69
ATOM     69  C   UNL A   1      45.639  28.463  28.109  1.00  0.00    -0.014 A 
ATOM     70  C   UNL A   1      46.054  27.211  27.619  1.00  0.00     0.009 A 
ATOM     71  C   UNL A   1      46.522  29.546  27.980  1.00  0.00     0.009 A 
ATOM     72  C   UNL A   1      47.325  27.043  27.055  1.00  0.00     0.001 A 
ATOM     73  C   UNL A   1      47.781  29.385  27.398  1.00  0.00     0.001 A 
ATOM     74  C   UNL A   1      48.186  28.133  26.943  1.00  0.00     0.000 A 
ENDBRANCH  56  69
ENDBRANCH  30  31
ENDBRANCH  23  25
ENDBRANCH  22  23
ENDBRANCH  21  22
ENDBRANCH   1  21
TORSDOF 14
ENDMDL
MODEL 3
REMARK VINA RESULT:     -10.8      4.902      9.504
REMARK SMILES CC1=C2C(=O)CC(C)(C)CC2=N[C@@H]1C(=O)OCCOCCOC(=O)c1ccc(-c2c3nc(c(-c4ccccc4)c4ccc([nH]4)c(-c4ccccc4)c4nc(c(-c5ccccc5)c5ccc2[nH]5)C=C4)C=C3)cc1
REMARK SMILES IDX 20 1 19 2 18 3 17 4 16 5 14 6 15 7 13 8 1 9 2 10 3 11 4 12
REMARK SMILES IDX 11 13 12 14 5 15 6 16 10 17 7 18 8 19 9 20 21 21 22 22 23 23
REMARK SMILES IDX 24 24 25 25 26 26 72 27 27 28 71 29 28 30 29 31 30 32 65 33
REMARK SMILES IDX 31 34 70 35 64 36 66 37 32 38 69 39 63 40 62 41 33 43 55 44
REMARK SMILES IDX 40 45 54 46 41 47 44 48 53 49 67 50 42 51 43 52 52 54 68 55
REMARK SMILES IDX 45 56 34 57 35 58 39 59 36 60 38 61 37 62 56 63 57 64 61 65
REMARK SMILES IDX 58 66 60 67 59 68 46 69 47 70 51 71 48 72 50 73 49 74
REMARK H PARENT 66 42 44 53
REMARK Flexibility Score: inf
ROOT
ATOM      1  C   UNL A   1      32.018  29.865  25.887  1.00  0.00     0.202 C 
ENDROOT
BRANCH   1   2
ATOM      2  O   UNL A   1      32.941  29.744  24.814  1.00  0.00    -0.374 OA
BRANCH   2   3
ATOM      3  C   UNL A   1      32.798  28.755  23.799  1.00  0.00     0.202 C 
BRANCH   3   4
ATOM      4  C   UNL A   1      33.592  27.449  23.860  1.00  0.00     0.261 C 
BRANCH   4   5
ATOM      5  O   UNL A   1      32.822  26.257  23.627  1.00  0.00    -0.461 OA
BRANCH   5   6
ATOM      6  C   UNL A   1      33.125  25.668  22.441  1.00  0.00     0.335 C 
ATOM      7  O   UNL A   1      33.656  26.258  21.501  1.00  0.00    -0.249 OA
BRANCH   6   8
ATOM      8  C   UNL A   1      32.648  24.199  22.340  1.00  0.00     0.242 C 
ATOM      9  C   UNL A   1      31.443  23.941  24.704  1.00  0.00     0.043 C 
ATOM     10  C   UNL A   1      32.416  23.498  23.671  1.00  0.00    -0.025 C 
ATOM     11  C   UNL A   1      33.356  22.568  23.876  1.00  0.00     0.040 C 
ATOM     12  C   UNL A   1      33.746  21.721  25.011  1.00  0.00     0.165 C 
ATOM     13  C   UNL A   1      34.345  23.055  22.936  1.00  0.00     0.048 C 
ATOM     14  N   UNL A   1      33.906  23.550  21.814  1.00  0.00    -0.269 NA
ATOM     15  O   UNL A   1      32.996  20.846  25.432  1.00  0.00    -0.294 OA
ATOM     16  C   UNL A   1      35.153  21.938  25.554  1.00  0.00     0.088 C 
ATOM     17  C   UNL A   1      35.742  23.248  23.450  1.00  0.00     0.063 C 
ATOM     18  C   UNL A   1      35.787  23.250  25.020  1.00  0.00    -0.023 C 
ATOM     19  C   UNL A   1      35.069  24.443  25.716  1.00  0.00     0.012 C 
ATOM     20  C   UNL A   1      37.266  23.363  25.429  1.00  0.00     0.012 C 
ENDBRANCH   6   8
ENDBRANCH   5   6
ENDBRANCH   4   5
ENDBRANCH   3   4
ENDBRANCH   2   3
ENDBRANCH   1   2
BRANCH   1  21
ATOM     21  C   UNL A   1      31.812  31.207  26.570  1.00  0.00     0.261 C 
BRANCH  21  22
ATOM     22  O   UNL A   1      32.941  31.619  27.311  1.00  0.00    -0.460 OA
BRANCH  22  23
ATOM     23  C   UNL A   1      32.818  32.896  27.744  1.00  0.00     0.338 C 
ATOM     24  O   UNL A   1      31.971  33.706  27.424  1.00  0.00    -0.246 OA
BRANCH  23  25
ATOM     25  C   UNL A   1      34.005  33.233  28.529  1.00  0.00     0.060 A 
ATOM     26  C   UNL A   1      35.023  33.840  27.795  1.00  0.00     0.016 A 
ATOM     27  C   UNL A   1      34.233  32.572  29.746  1.00  0.00     0.016 A 
ATOM     28  C   UNL A   1      36.313  33.519  28.122  1.00  0.00     0.010 A 
ATOM     29  C   UNL A   1      35.523  32.241  30.063  1.00  0.00     0.010 A 
ATOM     30  C   UNL A   1      36.528  32.635  29.185  1.00  0.00    -0.014 A 
BRANCH  30  31
ATOM     31  C   UNL A   1      37.887  32.234  29.430  1.00  0.00     0.031 A 
ATOM     32  C   UNL A   1      38.081  30.798  29.165  1.00  0.00     0.074 A 
ATOM     33  C   UNL A   1      38.854  33.100  29.777  1.00  0.00     0.049 A 
ATOM     34  N   UNL A   1      38.276  29.860  30.029  1.00  0.00    -0.248 NA
ATOM     35  C   UNL A   1      37.799  30.326  27.798  1.00  0.00     0.031 C 
ATOM     36  C   UNL A   1      38.829  34.563  29.766  1.00  0.00     0.029 A 
ATOM     37  N   UNL A   1      40.137  32.819  30.106  1.00  0.00    -0.354 N 
ATOM     38  C   UNL A   1      38.347  28.694  29.280  1.00  0.00     0.074 A 
ATOM     39  C   UNL A   1      37.826  29.008  27.975  1.00  0.00     0.031 C 
ATOM     40  C   UNL A   1      40.104  35.021  29.809  1.00  0.00     0.029 A 
ATOM     41  C   UNL A   1      41.005  33.890  29.980  1.00  0.00     0.049 A 
ATOM     42  H   UNL A   1      40.427  31.928  30.408  1.00  0.00     0.167 HD
ATOM     43  C   UNL A   1      39.118  27.650  29.681  1.00  0.00     0.031 A 
ATOM     44  C   UNL A   1      42.358  33.801  29.912  1.00  0.00     0.031 A 
ATOM     45  C   UNL A   1      39.425  27.717  31.087  1.00  0.00     0.049 A 
ATOM     46  C   UNL A   1      42.742  32.457  30.422  1.00  0.00     0.074 A 
ATOM     47  C   UNL A   1      38.660  27.777  32.236  1.00  0.00     0.029 A 
ATOM     48  N   UNL A   1      40.675  28.169  31.446  1.00  0.00    -0.354 N 
ATOM     49  N   UNL A   1      42.608  32.097  31.666  1.00  0.00    -0.248 NA
ATOM     50  C   UNL A   1      42.816  31.364  29.461  1.00  0.00     0.031 C 
ATOM     51  C   UNL A   1      39.329  28.717  33.074  1.00  0.00     0.029 A 
ATOM     52  C   UNL A   1      40.500  29.114  32.428  1.00  0.00     0.049 A 
ATOM     53  H   UNL A   1      41.534  27.872  31.069  1.00  0.00     0.167 HD
ATOM     54  C   UNL A   1      42.146  30.789  31.610  1.00  0.00     0.074 A 
ATOM     55  C   UNL A   1      42.371  30.364  30.228  1.00  0.00     0.031 C 
ATOM     56  C   UNL A   1      41.354  30.270  32.596  1.00  0.00     0.031 A 
BRANCH  43  57
ATOM     57  C   UNL A   1      39.932  26.855  28.696  1.00  0.00    -0.014 A 
ATOM     58  C   UNL A   1      41.078  27.437  28.136  1.00  0.00     0.009 A 
ATOM     59  C   UNL A   1      39.471  25.662  28.098  1.00  0.00     0.009 A 
ATOM     60  C   UNL A   1      41.692  26.879  27.008  1.00  0.00     0.001 A 
ATOM     61  C   UNL A   1      40.106  25.077  27.005  1.00  0.00     0.001 A 
ATOM     62  C   UNL A   1      41.205  25.703  26.442  1.00  0.00     0.000 A 
ENDBRANCH  43  57
BRANCH  44  63
ATOM     63  C   UNL A   1      43.287  34.624  29.101  1.00  0.00    -0.014 A 
ATOM     64  C   UNL A   1      44.565  34.942  29.588  1.00  0.00     0.009 A 
ATOM     65  C   UNL A   1      43.032  34.862  27.738  1.00  0.00     0.009 A 
ATOM     66  C   UNL A   1      45.561  35.437  28.734  1.00  0.00     0.001 A 
ATOM     67  C   UNL A   1      44.024  35.361  26.886  1.00  0.00     0.001 A 
ATOM     68  C   UNL A   1      45.294  35.631  27.381  1.00  0.00     0.000 A 
ENDBRANCH  44  63
BRANCH  56  69
ATOM     69  C   UNL A   1      41.156  31.083  33.854  1.00  0.00    -0.014 A 
ATOM     70  C   UNL A   1      41.967  30.956  34.997  1.00  0.00     0.009 A 
ATOM     71  C   UNL A   1      40.208  32.118  33.832  1.00  0.00     0.009 A 
ATOM     72  C   UNL A   1      41.808  31.813  36.093  1.00  0.00     0.001 A 
ATOM     73  C   UNL A   1      40.063  32.987  34.915  1.00  0.00     0.001 A 
ATOM     74  C   UNL A   1      40.857  32.830  36.048  1.00  0.00     0.000 A 
ENDBRANCH  56  69
ENDBRANCH  30  31
ENDBRANCH  23  25
ENDBRANCH  22  23
ENDBRANCH  21  22
ENDBRANCH   1  21
TORSDOF 14
ENDMDL
