MODEL 1
REMARK VINA RESULT:     -12.2      0.000      0.000
REMARK SMILES NS(=O)(=O)c1ccc(-c2coc(=O)n2-c2ccc(C(=O)OCCOCCOC(=O)c3ccc(-c4c5nc(c(-c6ccccc6)c6ccc([nH]6)c(-c6ccccc6)c6nc(c(-c7ccccc7)c7ccc4[nH]7)C=C6)C=C5)cc3)cc2)cc1
REMARK SMILES IDX 23 1 22 2 21 3 19 4 20 5 18 6 15 7 16 8 79 9 17 10 78 11
REMARK SMILES IDX 14 12 9 13 10 14 11 15 12 16 13 17 8 18 5 19 6 20 81 21 7 22
REMARK SMILES IDX 80 23 2 24 3 25 4 26 1 27 24 30 25 31 26 32 27 33 28 34
REMARK SMILES IDX 29 35 30 36 31 37 77 38 32 39 76 40 33 41 34 42 35 43 70 44
REMARK SMILES IDX 36 45 75 46 69 47 71 48 37 49 74 50 68 51 67 52 38 54 60 55
REMARK SMILES IDX 45 56 59 57 46 58 49 59 58 60 72 61 47 62 48 63 57 65 73 66
REMARK SMILES IDX 50 67 39 68 40 69 44 70 41 71 43 72 42 73 61 74 62 75 66 76
REMARK SMILES IDX 63 77 65 78 64 79 51 80 52 81 56 82 53 83 55 84 54 85
REMARK H PARENT 1 28 1 29 71 53 49 64
REMARK Flexibility Score: inf
ROOT
ATOM      1  C   UNL A   1      40.849  21.391  25.990  1.00  0.00     0.202 C 
ENDROOT
BRANCH   1   2
ATOM      2  C   UNL A   1      39.375  21.003  26.132  1.00  0.00     0.261 C 
BRANCH   2   3
ATOM      3  O   UNL A   1      38.512  21.775  25.284  1.00  0.00    -0.460 OA
BRANCH   3   4
ATOM      4  C   UNL A   1      38.022  22.898  25.865  1.00  0.00     0.338 C 
ATOM      5  O   UNL A   1      38.562  23.584  26.716  1.00  0.00    -0.246 OA
BRANCH   4   6
ATOM      6  C   UNL A   1      36.767  23.306  25.207  1.00  0.00     0.060 A 
ATOM      7  C   UNL A   1      34.231  23.762  24.150  1.00  0.00     0.053 A 
ATOM      8  C   UNL A   1      34.495  24.112  25.476  1.00  0.00     0.028 A 
ATOM      9  C   UNL A   1      35.271  23.293  23.329  1.00  0.00     0.028 A 
ATOM     10  C   UNL A   1      35.754  23.847  26.013  1.00  0.00     0.018 A 
ATOM     11  C   UNL A   1      36.549  23.088  23.848  1.00  0.00     0.018 A 
BRANCH   7  12
ATOM     12  N   UNL A   1      32.900  23.719  23.691  1.00  0.00    -0.242 N 
ATOM     13  C   UNL A   1      32.158  22.608  23.403  1.00  0.00     0.095 A 
ATOM     14  C   UNL A   1      30.967  23.052  23.022  1.00  0.00     0.228 A 
ATOM     15  O   UNL A   1      30.836  24.439  23.044  1.00  0.00    -0.415 OA
ATOM     16  C   UNL A   1      32.086  24.836  23.521  1.00  0.00     0.424 A 
ATOM     17  O   UNL A   1      32.374  26.010  23.717  1.00  0.00    -0.223 OA
BRANCH  13  18
ATOM     18  C   UNL A   1      32.540  21.223  23.683  1.00  0.00     0.002 A 
ATOM     19  C   UNL A   1      33.296  18.583  24.254  1.00  0.00     0.082 A 
ATOM     20  C   UNL A   1      33.662  19.605  25.128  1.00  0.00     0.022 A 
ATOM     21  C   UNL A   1      32.559  18.867  23.099  1.00  0.00     0.022 A 
ATOM     22  C   UNL A   1      33.278  20.918  24.842  1.00  0.00     0.012 A 
ATOM     23  C   UNL A   1      32.176  20.184  22.819  1.00  0.00     0.012 A 
BRANCH  19  24
ATOM     24  S   UNL A   1      33.771  16.908  24.559  1.00  0.00     0.238 S 
ATOM     25  O   UNL A   1      33.897  16.235  23.281  1.00  0.00    -0.207 OA
ATOM     26  O   UNL A   1      32.967  16.397  25.637  1.00  0.00    -0.207 OA
BRANCH  24  27
ATOM     27  N   UNL A   1      35.341  17.010  25.152  1.00  0.00    -0.225 NA
ATOM     28  H   UNL A   1      35.605  17.991  25.250  1.00  0.00     0.137 HD
ATOM     29  H   UNL A   1      35.979  16.550  24.505  1.00  0.00     0.137 HD
ENDBRANCH  24  27
ENDBRANCH  19  24
ENDBRANCH  13  18
ENDBRANCH   7  12
ENDBRANCH   4   6
ENDBRANCH   3   4
ENDBRANCH   2   3
ENDBRANCH   1   2
BRANCH   1  30
ATOM     30  O   UNL A   1      41.835  20.559  26.600  1.00  0.00    -0.374 OA
BRANCH  30  31
ATOM     31  C   UNL A   1      42.063  19.245  26.106  1.00  0.00     0.202 C 
BRANCH  31  32
ATOM     32  C   UNL A   1      43.428  18.910  25.527  1.00  0.00     0.261 C 
BRANCH  32  33
ATOM     33  O   UNL A   1      43.663  19.538  24.277  1.00  0.00    -0.460 OA
BRANCH  33  34
ATOM     34  C   UNL A   1      44.961  19.852  24.066  1.00  0.00     0.338 C 
ATOM     35  O   UNL A   1      45.878  19.087  23.818  1.00  0.00    -0.246 OA
BRANCH  34  36
ATOM     36  C   UNL A   1      45.150  21.271  24.375  1.00  0.00     0.060 A 
ATOM     37  C   UNL A   1      46.063  21.563  25.389  1.00  0.00     0.016 A 
ATOM     38  C   UNL A   1      44.217  22.212  23.916  1.00  0.00     0.016 A 
ATOM     39  C   UNL A   1      45.880  22.719  26.109  1.00  0.00     0.010 A 
ATOM     40  C   UNL A   1      44.026  23.360  24.645  1.00  0.00     0.010 A 
ATOM     41  C   UNL A   1      44.800  23.550  25.783  1.00  0.00    -0.014 A 
BRANCH  41  42
ATOM     42  C   UNL A   1      44.580  24.718  26.602  1.00  0.00     0.031 A 
ATOM     43  C   UNL A   1      45.685  25.688  26.476  1.00  0.00     0.074 A 
ATOM     44  C   UNL A   1      43.467  24.919  27.330  1.00  0.00     0.049 A 
ATOM     45  N   UNL A   1      46.606  25.924  27.345  1.00  0.00    -0.248 NA
ATOM     46  C   UNL A   1      45.918  26.301  25.158  1.00  0.00     0.031 C 
ATOM     47  C   UNL A   1      42.213  24.162  27.321  1.00  0.00     0.029 A 
ATOM     48  N   UNL A   1      43.198  25.937  28.186  1.00  0.00    -0.354 N 
ATOM     49  C   UNL A   1      47.424  26.881  26.763  1.00  0.00     0.074 A 
ATOM     50  C   UNL A   1      47.082  26.916  25.365  1.00  0.00     0.031 C 
ATOM     51  C   UNL A   1      41.252  24.889  27.941  1.00  0.00     0.029 A 
ATOM     52  C   UNL A   1      41.856  26.085  28.507  1.00  0.00     0.049 A 
ATOM     53  H   UNL A   1      43.900  26.525  28.550  1.00  0.00     0.167 HD
ATOM     54  C   UNL A   1      48.103  27.773  27.532  1.00  0.00     0.031 A 
ATOM     55  C   UNL A   1      41.298  27.151  29.137  1.00  0.00     0.031 A 
ATOM     56  C   UNL A   1      48.157  27.353  28.909  1.00  0.00     0.049 A 
ATOM     57  C   UNL A   1      42.390  27.879  29.828  1.00  0.00     0.074 A 
ATOM     58  C   UNL A   1      48.678  26.263  29.577  1.00  0.00     0.029 A 
ATOM     59  N   UNL A   1      47.240  27.922  29.762  1.00  0.00    -0.354 N 
ATOM     60  N   UNL A   1      43.035  27.396  30.850  1.00  0.00    -0.248 NA
ATOM     61  C   UNL A   1      43.079  28.930  29.094  1.00  0.00     0.031 C 
ATOM     62  C   UNL A   1      47.729  25.968  30.600  1.00  0.00     0.029 A 
ATOM     63  C   UNL A   1      46.721  26.932  30.553  1.00  0.00     0.049 A 
ATOM     64  H   UNL A   1      47.000  28.876  29.798  1.00  0.00     0.167 HD
ATOM     65  C   UNL A   1      44.360  27.734  30.619  1.00  0.00     0.074 A 
ATOM     66  C   UNL A   1      44.314  28.760  29.577  1.00  0.00     0.031 C 
ATOM     67  C   UNL A   1      45.375  26.944  31.082  1.00  0.00     0.031 A 
BRANCH  54  68
ATOM     68  C   UNL A   1      48.284  29.212  27.130  1.00  0.00    -0.014 A 
ATOM     69  C   UNL A   1      49.567  29.776  27.228  1.00  0.00     0.009 A 
ATOM     70  C   UNL A   1      47.210  30.106  26.948  1.00  0.00     0.009 A 
ATOM     71  C   UNL A   1      49.749  31.163  27.222  1.00  0.00     0.001 A 
ATOM     72  C   UNL A   1      47.393  31.487  26.898  1.00  0.00     0.001 A 
ATOM     73  C   UNL A   1      48.662  32.018  27.066  1.00  0.00     0.000 A 
ENDBRANCH  54  68
BRANCH  55  74
ATOM     74  C   UNL A   1      39.968  27.768  28.930  1.00  0.00    -0.014 A 
ATOM     75  C   UNL A   1      39.042  27.848  29.985  1.00  0.00     0.009 A 
ATOM     76  C   UNL A   1      39.717  28.543  27.784  1.00  0.00     0.009 A 
ATOM     77  C   UNL A   1      37.934  28.706  29.912  1.00  0.00     0.001 A 
ATOM     78  C   UNL A   1      38.612  29.398  27.711  1.00  0.00     0.001 A 
ATOM     79  C   UNL A   1      37.729  29.492  28.782  1.00  0.00     0.000 A 
ENDBRANCH  55  74
BRANCH  67  80
ATOM     80  C   UNL A   1      45.025  25.846  32.056  1.00  0.00    -0.014 A 
ATOM     81  C   UNL A   1      44.602  24.562  31.666  1.00  0.00     0.009 A 
ATOM     82  C   UNL A   1      45.273  26.077  33.418  1.00  0.00     0.009 A 
ATOM     83  C   UNL A   1      44.406  23.553  32.616  1.00  0.00     0.001 A 
ATOM     84  C   UNL A   1      45.100  25.065  34.362  1.00  0.00     0.001 A 
ATOM     85  C   UNL A   1      44.660  23.805  33.963  1.00  0.00     0.000 A 
ENDBRANCH  67  80
ENDBRANCH  41  42
ENDBRANCH  34  36
ENDBRANCH  33  34
ENDBRANCH  32  33
ENDBRANCH  31  32
ENDBRANCH  30  31
ENDBRANCH   1  30
TORSDOF 18
ENDMDL
MODEL 2
REMARK VINA RESULT:     -12.0      6.037     11.400
REMARK SMILES NS(=O)(=O)c1ccc(-c2coc(=O)n2-c2ccc(C(=O)OCCOCCOC(=O)c3ccc(-c4c5nc(c(-c6ccccc6)c6ccc([nH]6)c(-c6ccccc6)c6nc(c(-c7ccccc7)c7ccc4[nH]7)C=C6)C=C5)cc3)cc2)cc1
REMARK SMILES IDX 23 1 22 2 21 3 19 4 20 5 18 6 15 7 16 8 79 9 17 10 78 11
REMARK SMILES IDX 14 12 9 13 10 14 11 15 12 16 13 17 8 18 5 19 6 20 81 21 7 22
REMARK SMILES IDX 80 23 2 24 3 25 4 26 1 27 24 30 25 31 26 32 27 33 28 34
REMARK SMILES IDX 29 35 30 36 31 37 77 38 32 39 76 40 33 41 34 42 35 43 70 44
REMARK SMILES IDX 36 45 75 46 69 47 71 48 37 49 74 50 68 51 67 52 38 54 60 55
REMARK SMILES IDX 45 56 59 57 46 58 49 59 58 60 72 61 47 62 48 63 57 65 73 66
REMARK SMILES IDX 50 67 39 68 40 69 44 70 41 71 43 72 42 73 61 74 62 75 66 76
REMARK SMILES IDX 63 77 65 78 64 79 51 80 52 81 56 82 53 83 55 84 54 85
REMARK H PARENT 1 28 1 29 71 53 49 64
REMARK Flexibility Score: inf
ROOT
ATOM      1  C   UNL A   1      32.837  33.547  27.791  1.00  0.00     0.202 C 
ENDROOT
BRANCH   1   2
ATOM      2  C   UNL A   1      33.629  32.269  28.077  1.00  0.00     0.261 C 
BRANCH   2   3
ATOM      3  O   UNL A   1      33.090  31.119  27.407  1.00  0.00    -0.460 OA
BRANCH   3   4
ATOM      4  C   UNL A   1      34.018  30.193  27.060  1.00  0.00     0.338 C 
ATOM      5  O   UNL A   1      35.230  30.294  27.145  1.00  0.00    -0.246 OA
BRANCH   4   6
ATOM      6  C   UNL A   1      33.360  28.924  26.694  1.00  0.00     0.060 A 
ATOM      7  C   UNL A   1      32.103  26.678  25.631  1.00  0.00     0.053 A 
ATOM      8  C   UNL A   1      33.468  26.873  25.405  1.00  0.00     0.028 A 
ATOM      9  C   UNL A   1      31.403  27.550  26.483  1.00  0.00     0.028 A 
ATOM     10  C   UNL A   1      34.085  28.017  25.906  1.00  0.00     0.018 A 
ATOM     11  C   UNL A   1      32.036  28.662  27.038  1.00  0.00     0.018 A 
BRANCH   7  12
ATOM     12  N   UNL A   1      31.401  25.719  24.876  1.00  0.00    -0.242 N 
ATOM     13  C   UNL A   1      30.332  25.934  24.051  1.00  0.00     0.095 A 
ATOM     14  C   UNL A   1      30.015  24.748  23.546  1.00  0.00     0.228 A 
ATOM     15  O   UNL A   1      30.831  23.703  23.976  1.00  0.00    -0.415 OA
ATOM     16  C   UNL A   1      31.740  24.371  24.798  1.00  0.00     0.424 A 
ATOM     17  O   UNL A   1      32.664  23.797  25.361  1.00  0.00    -0.223 OA
BRANCH  13  18
ATOM     18  C   UNL A   1      29.809  27.239  23.644  1.00  0.00     0.002 A 
ATOM     19  C   UNL A   1      28.848  29.757  22.867  1.00  0.00     0.082 A 
ATOM     20  C   UNL A   1      30.221  29.558  22.999  1.00  0.00     0.022 A 
ATOM     21  C   UNL A   1      27.952  28.712  23.120  1.00  0.00     0.022 A 
ATOM     22  C   UNL A   1      30.695  28.301  23.381  1.00  0.00     0.012 A 
ATOM     23  C   UNL A   1      28.434  27.454  23.501  1.00  0.00     0.012 A 
BRANCH  19  24
ATOM     24  S   UNL A   1      28.195  31.333  22.404  1.00  0.00     0.238 S 
ATOM     25  O   UNL A   1      27.373  31.818  23.496  1.00  0.00    -0.207 OA
ATOM     26  O   UNL A   1      27.723  31.248  21.048  1.00  0.00    -0.207 OA
BRANCH  24  27
ATOM     27  N   UNL A   1      29.528  32.356  22.375  1.00  0.00    -0.225 NA
ATOM     28  H   UNL A   1      30.358  31.826  22.111  1.00  0.00     0.137 HD
ATOM     29  H   UNL A   1      29.664  32.763  23.299  1.00  0.00     0.137 HD
ENDBRANCH  24  27
ENDBRANCH  19  24
ENDBRANCH  13  18
ENDBRANCH   7  12
ENDBRANCH   4   6
ENDBRANCH   3   4
ENDBRANCH   2   3
ENDBRANCH   1   2
BRANCH   1  30
ATOM     30  O   UNL A   1      32.507  34.403  28.884  1.00  0.00    -0.374 OA
BRANCH  30  31
ATOM     31  C   UNL A   1      33.448  35.366  29.344  1.00  0.00     0.202 C 
BRANCH  31  32
ATOM     32  C   UNL A   1      32.938  36.576  30.109  1.00  0.00     0.261 C 
BRANCH  32  33
ATOM     33  O   UNL A   1      33.341  36.574  31.470  1.00  0.00    -0.460 OA
BRANCH  33  34
ATOM     34  C   UNL A   1      32.888  35.508  32.165  1.00  0.00     0.338 C 
ATOM     35  O   UNL A   1      31.739  35.279  32.506  1.00  0.00    -0.246 OA
BRANCH  34  36
ATOM     36  C   UNL A   1      34.040  34.733  32.631  1.00  0.00     0.060 A 
ATOM     37  C   UNL A   1      35.220  35.449  32.835  1.00  0.00     0.016 A 
ATOM     38  C   UNL A   1      34.022  33.334  32.530  1.00  0.00     0.016 A 
ATOM     39  C   UNL A   1      36.413  34.780  32.698  1.00  0.00     0.010 A 
ATOM     40  C   UNL A   1      35.214  32.670  32.379  1.00  0.00     0.010 A 
ATOM     41  C   UNL A   1      36.385  33.418  32.373  1.00  0.00    -0.014 A 
BRANCH  41  42
ATOM     42  C   UNL A   1      37.648  32.753  32.156  1.00  0.00     0.031 A 
ATOM     43  C   UNL A   1      38.453  32.695  33.391  1.00  0.00     0.074 A 
ATOM     44  C   UNL A   1      38.006  32.197  30.986  1.00  0.00     0.049 A 
ATOM     45  N   UNL A   1      39.494  33.402  33.668  1.00  0.00    -0.248 NA
ATOM     46  C   UNL A   1      37.917  31.928  34.528  1.00  0.00     0.031 C 
ATOM     47  C   UNL A   1      37.191  31.965  29.790  1.00  0.00     0.029 A 
ATOM     48  N   UNL A   1      39.191  31.622  30.658  1.00  0.00    -0.354 N 
ATOM     49  C   UNL A   1      39.875  33.014  34.944  1.00  0.00     0.074 A 
ATOM     50  C   UNL A   1      38.767  32.277  35.494  1.00  0.00     0.031 C 
ATOM     51  C   UNL A   1      37.833  31.089  28.978  1.00  0.00     0.029 A 
ATOM     52  C   UNL A   1      39.152  30.816  29.528  1.00  0.00     0.049 A 
ATOM     53  H   UNL A   1      40.013  31.765  31.181  1.00  0.00     0.167 HD
ATOM     54  C   UNL A   1      41.178  33.074  35.327  1.00  0.00     0.031 A 
ATOM     55  C   UNL A   1      40.119  29.950  29.130  1.00  0.00     0.031 A 
ATOM     56  C   UNL A   1      41.954  33.900  34.438  1.00  0.00     0.049 A 
ATOM     57  C   UNL A   1      41.377  30.349  29.808  1.00  0.00     0.074 A 
ATOM     58  C   UNL A   1      41.922  35.229  34.064  1.00  0.00     0.029 A 
ATOM     59  N   UNL A   1      42.683  33.247  33.472  1.00  0.00    -0.354 N 
ATOM     60  N   UNL A   1      42.013  31.452  29.539  1.00  0.00    -0.248 NA
ATOM     61  C   UNL A   1      41.668  29.762  31.107  1.00  0.00     0.031 C 
ATOM     62  C   UNL A   1      42.239  35.229  32.673  1.00  0.00     0.029 A 
ATOM     63  C   UNL A   1      42.519  33.917  32.289  1.00  0.00     0.049 A 
ATOM     64  H   UNL A   1      43.230  32.440  33.608  1.00  0.00     0.167 HD
ATOM     65  C   UNL A   1      42.414  31.937  30.775  1.00  0.00     0.074 A 
ATOM     66  C   UNL A   1      42.259  30.808  31.693  1.00  0.00     0.031 C 
ATOM     67  C   UNL A   1      42.549  33.279  30.990  1.00  0.00     0.031 A 
BRANCH  54  68
ATOM     68  C   UNL A   1      41.813  32.023  36.196  1.00  0.00    -0.014 A 
ATOM     69  C   UNL A   1      42.529  32.437  37.331  1.00  0.00     0.009 A 
ATOM     70  C   UNL A   1      41.987  30.684  35.790  1.00  0.00     0.009 A 
ATOM     71  C   UNL A   1      43.429  31.579  37.972  1.00  0.00     0.001 A 
ATOM     72  C   UNL A   1      42.851  29.813  36.453  1.00  0.00     0.001 A 
ATOM     73  C   UNL A   1      43.596  30.272  37.528  1.00  0.00     0.000 A 
ENDBRANCH  54  68
BRANCH  55  74
ATOM     74  C   UNL A   1      39.980  28.630  28.475  1.00  0.00    -0.014 A 
ATOM     75  C   UNL A   1      40.602  28.373  27.241  1.00  0.00     0.009 A 
ATOM     76  C   UNL A   1      39.488  27.529  29.197  1.00  0.00     0.009 A 
ATOM     77  C   UNL A   1      40.764  27.061  26.771  1.00  0.00     0.001 A 
ATOM     78  C   UNL A   1      39.648  26.220  28.729  1.00  0.00     0.001 A 
ATOM     79  C   UNL A   1      40.302  25.985  27.523  1.00  0.00     0.000 A 
ENDBRANCH  55  74
BRANCH  67  80
ATOM     80  C   UNL A   1      42.501  34.193  29.791  1.00  0.00    -0.014 A 
ATOM     81  C   UNL A   1      41.317  34.772  29.298  1.00  0.00     0.009 A 
ATOM     82  C   UNL A   1      43.721  34.599  29.229  1.00  0.00     0.009 A 
ATOM     83  C   UNL A   1      41.356  35.704  28.254  1.00  0.00     0.001 A 
ATOM     84  C   UNL A   1      43.761  35.544  28.204  1.00  0.00     0.001 A 
ATOM     85  C   UNL A   1      42.579  36.093  27.712  1.00  0.00     0.000 A 
ENDBRANCH  67  80
ENDBRANCH  41  42
ENDBRANCH  34  36
ENDBRANCH  33  34
ENDBRANCH  32  33
ENDBRANCH  31  32
ENDBRANCH  30  31
ENDBRANCH   1  30
TORSDOF 18
ENDMDL
MODEL 3
REMARK VINA RESULT:     -11.2      1.899      3.559
REMARK SMILES NS(=O)(=O)c1ccc(-c2coc(=O)n2-c2ccc(C(=O)OCCOCCOC(=O)c3ccc(-c4c5nc(c(-c6ccccc6)c6ccc([nH]6)c(-c6ccccc6)c6nc(c(-c7ccccc7)c7ccc4[nH]7)C=C6)C=C5)cc3)cc2)cc1
REMARK SMILES IDX 23 1 22 2 21 3 19 4 20 5 18 6 15 7 16 8 79 9 17 10 78 11
REMARK SMILES IDX 14 12 9 13 10 14 11 15 12 16 13 17 8 18 5 19 6 20 81 21 7 22
REMARK SMILES IDX 80 23 2 24 3 25 4 26 1 27 24 30 25 31 26 32 27 33 28 34
REMARK SMILES IDX 29 35 30 36 31 37 77 38 32 39 76 40 33 41 34 42 35 43 70 44
REMARK SMILES IDX 36 45 75 46 69 47 71 48 37 49 74 50 68 51 67 52 38 54 60 55
REMARK SMILES IDX 45 56 59 57 46 58 49 59 58 60 72 61 47 62 48 63 57 65 73 66
REMARK SMILES IDX 50 67 39 68 40 69 44 70 41 71 43 72 42 73 61 74 62 75 66 76
REMARK SMILES IDX 63 77 65 78 64 79 51 80 52 81 56 82 53 83 55 84 54 85
REMARK H PARENT 1 28 1 29 71 53 49 64
REMARK Flexibility Score: inf
ROOT
ATOM      1  C   UNL A   1      40.787  20.364  26.665  1.00  0.00     0.202 C 
ENDROOT
BRANCH   1   2
ATOM      2  C   UNL A   1      40.348  21.722  26.115  1.00  0.00     0.261 C 
BRANCH   2   3
ATOM      3  O   UNL A   1      39.070  22.140  26.618  1.00  0.00    -0.460 OA
BRANCH   3   4
ATOM      4  C   UNL A   1      38.602  23.285  26.063  1.00  0.00     0.338 C 
ATOM      5  O   UNL A   1      39.237  24.294  25.804  1.00  0.00    -0.246 OA
BRANCH   4   6
ATOM      6  C   UNL A   1      37.198  23.112  25.643  1.00  0.00     0.060 A 
ATOM      7  C   UNL A   1      34.500  22.588  25.198  1.00  0.00     0.053 A 
ATOM      8  C   UNL A   1      34.866  23.603  26.087  1.00  0.00     0.028 A 
ATOM      9  C   UNL A   1      35.488  21.922  24.453  1.00  0.00     0.028 A 
ATOM     10  C   UNL A   1      36.216  23.836  26.337  1.00  0.00     0.018 A 
ATOM     11  C   UNL A   1      36.839  22.199  24.654  1.00  0.00     0.018 A 
BRANCH   7  12
ATOM     12  N   UNL A   1      33.171  22.125  25.176  1.00  0.00    -0.242 N 
ATOM     13  C   UNL A   1      32.040  22.861  24.956  1.00  0.00     0.095 A 
ATOM     14  C   UNL A   1      31.028  22.004  25.015  1.00  0.00     0.228 A 
ATOM     15  O   UNL A   1      31.405  20.684  25.257  1.00  0.00    -0.415 OA
ATOM     16  C   UNL A   1      32.796  20.790  25.313  1.00  0.00     0.424 A 
ATOM     17  O   UNL A   1      33.524  19.822  25.484  1.00  0.00    -0.223 OA
BRANCH  13  18
ATOM     18  C   UNL A   1      31.994  24.257  24.519  1.00  0.00     0.002 A 
ATOM     19  C   UNL A   1      31.933  26.921  23.645  1.00  0.00     0.082 A 
ATOM     20  C   UNL A   1      32.517  25.948  22.836  1.00  0.00     0.022 A 
ATOM     21  C   UNL A   1      31.382  26.576  24.885  1.00  0.00     0.022 A 
ATOM     22  C   UNL A   1      32.540  24.621  23.274  1.00  0.00     0.012 A 
ATOM     23  C   UNL A   1      31.407  25.245  25.316  1.00  0.00     0.012 A 
BRANCH  19  24
ATOM     24  S   UNL A   1      31.894  28.617  23.148  1.00  0.00     0.238 S 
ATOM     25  O   UNL A   1      33.159  28.930  22.514  1.00  0.00    -0.207 OA
ATOM     26  O   UNL A   1      31.347  29.394  24.228  1.00  0.00    -0.207 OA
BRANCH  24  27
ATOM     27  N   UNL A   1      30.760  28.673  21.908  1.00  0.00    -0.225 NA
ATOM     28  H   UNL A   1      31.006  27.990  21.191  1.00  0.00     0.137 HD
ATOM     29  H   UNL A   1      30.750  29.607  21.499  1.00  0.00     0.137 HD
ENDBRANCH  24  27
ENDBRANCH  19  24
ENDBRANCH  13  18
ENDBRANCH   7  12
ENDBRANCH   4   6
ENDBRANCH   3   4
ENDBRANCH   2   3
ENDBRANCH   1   2
BRANCH   1  30
ATOM     30  O   UNL A   1      42.181  20.065  26.712  1.00  0.00    -0.374 OA
BRANCH  30  31
ATOM     31  C   UNL A   1      42.633  18.735  26.489  1.00  0.00     0.202 C 
BRANCH  31  32
ATOM     32  C   UNL A   1      43.683  18.492  25.416  1.00  0.00     0.261 C 
BRANCH  32  33
ATOM     33  O   UNL A   1      43.722  19.524  24.443  1.00  0.00    -0.460 OA
BRANCH  33  34
ATOM     34  C   UNL A   1      44.976  19.889  24.094  1.00  0.00     0.338 C 
ATOM     35  O   UNL A   1      45.885  19.163  23.727  1.00  0.00    -0.246 OA
BRANCH  34  36
ATOM     36  C   UNL A   1      45.151  21.308  24.412  1.00  0.00     0.060 A 
ATOM     37  C   UNL A   1      46.091  21.607  25.399  1.00  0.00     0.016 A 
ATOM     38  C   UNL A   1      44.186  22.237  23.992  1.00  0.00     0.016 A 
ATOM     39  C   UNL A   1      45.911  22.753  26.136  1.00  0.00     0.010 A 
ATOM     40  C   UNL A   1      43.999  23.375  24.739  1.00  0.00     0.010 A 
ATOM     41  C   UNL A   1      44.806  23.567  25.854  1.00  0.00    -0.014 A 
BRANCH  41  42
ATOM     42  C   UNL A   1      44.593  24.723  26.691  1.00  0.00     0.031 A 
ATOM     43  C   UNL A   1      45.660  25.726  26.518  1.00  0.00     0.074 A 
ATOM     44  C   UNL A   1      43.512  24.885  27.475  1.00  0.00     0.049 A 
ATOM     45  N   UNL A   1      46.617  25.985  27.342  1.00  0.00    -0.248 NA
ATOM     46  C   UNL A   1      45.808  26.354  25.194  1.00  0.00     0.031 C 
ATOM     47  C   UNL A   1      42.282  24.091  27.523  1.00  0.00     0.029 A 
ATOM     48  N   UNL A   1      43.256  25.890  28.351  1.00  0.00    -0.354 N 
ATOM     49  C   UNL A   1      47.375  26.970  26.727  1.00  0.00     0.074 A 
ATOM     50  C   UNL A   1      46.962  27.003  25.347  1.00  0.00     0.031 C 
ATOM     51  C   UNL A   1      41.332  24.785  28.196  1.00  0.00     0.029 A 
ATOM     52  C   UNL A   1      41.927  25.995  28.740  1.00  0.00     0.049 A 
ATOM     53  H   UNL A   1      43.957  26.497  28.684  1.00  0.00     0.167 HD
ATOM     54  C   UNL A   1      48.065  27.878  27.468  1.00  0.00     0.031 A 
ATOM     55  C   UNL A   1      41.370  27.040  29.405  1.00  0.00     0.031 A 
ATOM     56  C   UNL A   1      48.199  27.451  28.837  1.00  0.00     0.049 A 
ATOM     57  C   UNL A   1      42.472  27.797  30.045  1.00  0.00     0.074 A 
ATOM     58  C   UNL A   1      48.786  26.373  29.470  1.00  0.00     0.029 A 
ATOM     59  N   UNL A   1      47.310  27.987  29.739  1.00  0.00    -0.354 N 
ATOM     60  N   UNL A   1      43.182  27.327  31.030  1.00  0.00    -0.248 NA
ATOM     61  C   UNL A   1      43.093  28.873  29.286  1.00  0.00     0.031 C 
ATOM     62  C   UNL A   1      47.899  26.044  30.537  1.00  0.00     0.029 A 
ATOM     63  C   UNL A   1      46.861  26.977  30.547  1.00  0.00     0.049 A 
ATOM     64  H   UNL A   1      47.043  28.933  29.794  1.00  0.00     0.167 HD
ATOM     65  C   UNL A   1      44.483  27.707  30.737  1.00  0.00     0.074 A 
ATOM     66  C   UNL A   1      44.355  28.737  29.706  1.00  0.00     0.031 C 
ATOM     67  C   UNL A   1      45.543  26.945  31.142  1.00  0.00     0.031 A 
BRANCH  54  68
ATOM     68  C   UNL A   1      48.182  29.324  27.068  1.00  0.00    -0.014 A 
ATOM     69  C   UNL A   1      49.436  29.948  27.180  1.00  0.00     0.009 A 
ATOM     70  C   UNL A   1      47.069  30.166  26.874  1.00  0.00     0.009 A 
ATOM     71  C   UNL A   1      49.553  31.342  27.176  1.00  0.00     0.001 A 
ATOM     72  C   UNL A   1      47.188  31.555  26.827  1.00  0.00     0.001 A 
ATOM     73  C   UNL A   1      48.429  32.144  27.008  1.00  0.00     0.000 A 
ENDBRANCH  54  68
BRANCH  55  74
ATOM     74  C   UNL A   1      40.013  27.617  29.268  1.00  0.00    -0.014 A 
ATOM     75  C   UNL A   1      39.226  27.875  30.404  1.00  0.00     0.009 A 
ATOM     76  C   UNL A   1      39.607  28.192  28.051  1.00  0.00     0.009 A 
ATOM     77  C   UNL A   1      38.102  28.712  30.332  1.00  0.00     0.001 A 
ATOM     78  C   UNL A   1      38.485  29.027  27.978  1.00  0.00     0.001 A 
ATOM     79  C   UNL A   1      37.742  29.300  29.122  1.00  0.00     0.000 A 
ENDBRANCH  55  74
BRANCH  67  80
ATOM     80  C   UNL A   1      45.275  25.832  32.125  1.00  0.00    -0.014 A 
ATOM     81  C   UNL A   1      45.384  25.980  33.520  1.00  0.00     0.009 A 
ATOM     82  C   UNL A   1      44.753  24.630  31.625  1.00  0.00     0.009 A 
ATOM     83  C   UNL A   1      45.008  24.943  34.382  1.00  0.00     0.001 A 
ATOM     84  C   UNL A   1      44.358  23.605  32.484  1.00  0.00     0.001 A 
ATOM     85  C   UNL A   1      44.490  23.758  33.862  1.00  0.00     0.000 A 
ENDBRANCH  67  80
ENDBRANCH  41  42
ENDBRANCH  34  36
ENDBRANCH  33  34
ENDBRANCH  32  33
ENDBRANCH  31  32
ENDBRANCH  30  31
ENDBRANCH   1  30
TORSDOF 18
ENDMDL
