MODEL 1
REMARK VINA RESULT:     -10.8      0.000      0.000
REMARK SMILES Cc1nn2c(nnc3c(=O)n(CCCC(=O)OCCOCCOC(=O)c4ccc(-c5c6nc(c(-c7ccccc7)c7ccc([nH]7)c(-c7ccccc7)c7nc(c(-c8ccccc8)c8ccc5[nH]8)C=C7)C=C6)cc4)ccc32)c1-c1ccc(F)cc1
REMARK SMILES IDX 19 1 18 2 17 3 15 4 16 5 14 6 13 7 12 8 11 9 1 10 2 11 3 12
REMARK SMILES IDX 77 13 4 14 5 15 76 16 6 17 8 18 75 19 7 20 9 21 74 22 10 23
REMARK SMILES IDX 78 24 79 25 84 26 80 27 83 28 81 29 82 30 20 31 21 32 22 33
REMARK SMILES IDX 23 34 24 35 25 36 26 37 27 38 73 39 28 40 72 41 29 42 30 43
REMARK SMILES IDX 31 44 66 45 32 46 71 47 65 48 67 49 33 50 70 51 64 52 63 53
REMARK SMILES IDX 34 55 56 56 41 57 55 58 42 59 45 60 54 61 68 62 43 63 44 64
REMARK SMILES IDX 53 66 69 67 46 68 35 69 36 70 40 71 37 72 39 73 38 74 57 75
REMARK SMILES IDX 58 76 62 77 59 78 61 79 60 80 47 81 48 82 52 83 49 84 51 85
REMARK SMILES IDX 50 86
REMARK H PARENT 67 54 45 65
REMARK Flexibility Score: inf
ROOT
ATOM      1  C   UNL A   1      32.021  36.290  31.782  1.00  0.00     0.202 C 
ENDROOT
BRANCH   1   2
ATOM      2  C   UNL A   1      32.816  36.173  30.485  1.00  0.00     0.261 C 
BRANCH   2   3
ATOM      3  O   UNL A   1      33.091  34.806  30.143  1.00  0.00    -0.463 OA
BRANCH   3   4
ATOM      4  C   UNL A   1      33.248  34.563  28.817  1.00  0.00     0.305 C 
ATOM      5  O   UNL A   1      32.336  34.482  28.001  1.00  0.00    -0.252 OA
BRANCH   4   6
ATOM      6  C   UNL A   1      34.697  34.465  28.389  1.00  0.00     0.124 C 
BRANCH   6   7
ATOM      7  C   UNL A   1      35.269  33.117  27.940  1.00  0.00     0.034 C 
BRANCH   7   8
ATOM      8  C   UNL A   1      34.741  31.833  28.606  1.00  0.00     0.126 C 
BRANCH   8   9
ATOM      9  N   UNL A   1      33.991  30.951  27.724  1.00  0.00    -0.313 N 
ATOM     10  C   UNL A   1      29.354  26.745  23.385  1.00  0.00     0.069 C 
ATOM     11  C   UNL A   1      30.525  27.031  24.248  1.00  0.00     0.070 A 
ATOM     12  N   UNL A   1      30.672  28.238  24.818  1.00  0.00    -0.170 NA
ATOM     13  C   UNL A   1      31.579  26.155  24.585  1.00  0.00     0.051 A 
ATOM     14  N   UNL A   1      31.874  28.174  25.459  1.00  0.00    -0.210 N 
ATOM     15  C   UNL A   1      32.449  26.919  25.324  1.00  0.00     0.186 A 
ATOM     16  C   UNL A   1      32.567  29.160  26.158  1.00  0.00     0.102 A 
ATOM     17  N   UNL A   1      33.670  26.640  25.859  1.00  0.00    -0.129 NA
ATOM     18  C   UNL A   1      33.798  28.809  26.568  1.00  0.00     0.177 A 
ATOM     19  C   UNL A   1      32.036  30.475  26.465  1.00  0.00     0.049 A 
ATOM     20  N   UNL A   1      34.333  27.551  26.406  1.00  0.00    -0.141 NA
ATOM     21  C   UNL A   1      34.650  29.828  27.225  1.00  0.00     0.280 A 
ATOM     22  C   UNL A   1      32.719  31.289  27.284  1.00  0.00     0.091 A 
ATOM     23  O   UNL A   1      35.858  29.640  27.323  1.00  0.00    -0.267 OA
BRANCH  13  24
ATOM     24  C   UNL A   1      31.892  24.784  24.260  1.00  0.00    -0.012 A 
ATOM     25  C   UNL A   1      31.378  23.740  25.037  1.00  0.00     0.012 A 
ATOM     26  C   UNL A   1      32.580  24.499  23.070  1.00  0.00     0.012 A 
ATOM     27  C   UNL A   1      31.545  22.418  24.619  1.00  0.00     0.040 A 
ATOM     28  C   UNL A   1      32.745  23.179  22.657  1.00  0.00     0.040 A 
ATOM     29  C   UNL A   1      32.223  22.152  23.433  1.00  0.00     0.123 A 
ATOM     30  F   UNL A   1      32.359  20.884  23.024  1.00  0.00    -0.207 F 
ENDBRANCH  13  24
ENDBRANCH   8   9
ENDBRANCH   7   8
ENDBRANCH   6   7
ENDBRANCH   4   6
ENDBRANCH   3   4
ENDBRANCH   2   3
ENDBRANCH   1   2
BRANCH   1  31
ATOM     31  O   UNL A   1      32.556  37.063  32.857  1.00  0.00    -0.374 OA
BRANCH  31  32
ATOM     32  C   UNL A   1      33.936  36.981  33.204  1.00  0.00     0.202 C 
BRANCH  32  33
ATOM     33  C   UNL A   1      34.444  35.709  33.878  1.00  0.00     0.261 C 
BRANCH  33  34
ATOM     34  O   UNL A   1      35.244  34.932  32.998  1.00  0.00    -0.460 OA
BRANCH  34  35
ATOM     35  C   UNL A   1      34.675  33.742  32.692  1.00  0.00     0.338 C 
ATOM     36  O   UNL A   1      33.600  33.324  33.080  1.00  0.00    -0.246 OA
BRANCH  35  37
ATOM     37  C   UNL A   1      35.596  32.946  31.852  1.00  0.00     0.060 A 
ATOM     38  C   UNL A   1      35.566  31.590  32.183  1.00  0.00     0.016 A 
ATOM     39  C   UNL A   1      36.782  33.596  31.497  1.00  0.00     0.016 A 
ATOM     40  C   UNL A   1      36.731  31.058  32.672  1.00  0.00     0.010 A 
ATOM     41  C   UNL A   1      37.948  33.067  31.976  1.00  0.00     0.010 A 
ATOM     42  C   UNL A   1      37.865  31.875  32.686  1.00  0.00    -0.014 A 
BRANCH  42  43
ATOM     43  C   UNL A   1      38.978  31.468  33.498  1.00  0.00     0.031 A 
ATOM     44  C   UNL A   1      39.072  32.215  34.759  1.00  0.00     0.074 A 
ATOM     45  C   UNL A   1      39.803  30.464  33.154  1.00  0.00     0.049 A 
ATOM     46  N   UNL A   1      39.937  33.121  35.057  1.00  0.00    -0.248 NA
ATOM     47  C   UNL A   1      37.968  32.071  35.715  1.00  0.00     0.031 C 
ATOM     48  C   UNL A   1      39.698  29.470  32.084  1.00  0.00     0.029 A 
ATOM     49  N   UNL A   1      40.924  30.087  33.810  1.00  0.00    -0.354 N 
ATOM     50  C   UNL A   1      39.560  33.595  36.302  1.00  0.00     0.074 A 
ATOM     51  C   UNL A   1      38.260  33.039  36.582  1.00  0.00     0.031 C 
ATOM     52  C   UNL A   1      40.589  28.473  32.321  1.00  0.00     0.029 A 
ATOM     53  C   UNL A   1      41.407  28.836  33.468  1.00  0.00     0.049 A 
ATOM     54  H   UNL A   1      41.364  30.659  34.479  1.00  0.00     0.167 HD
ATOM     55  C   UNL A   1      40.417  34.268  37.112  1.00  0.00     0.031 A 
ATOM     56  C   UNL A   1      42.353  28.157  34.164  1.00  0.00     0.031 A 
ATOM     57  C   UNL A   1      41.617  34.666  36.429  1.00  0.00     0.049 A 
ATOM     58  C   UNL A   1      43.099  29.161  34.970  1.00  0.00     0.074 A 
ATOM     59  C   UNL A   1      41.893  35.562  35.415  1.00  0.00     0.029 A 
ATOM     60  N   UNL A   1      42.686  33.802  36.475  1.00  0.00    -0.354 N 
ATOM     61  N   UNL A   1      43.853  30.080  34.437  1.00  0.00    -0.248 NA
ATOM     62  C   UNL A   1      42.631  29.449  36.321  1.00  0.00     0.031 C 
ATOM     63  C   UNL A   1      42.870  34.912  34.605  1.00  0.00     0.029 A 
ATOM     64  C   UNL A   1      43.170  33.682  35.195  1.00  0.00     0.049 A 
ATOM     65  H   UNL A   1      43.038  33.351  37.277  1.00  0.00     0.167 HD
ATOM     66  C   UNL A   1      43.618  31.222  35.190  1.00  0.00     0.074 A 
ATOM     67  C   UNL A   1      42.929  30.752  36.391  1.00  0.00     0.031 C 
ATOM     68  C   UNL A   1      43.736  32.469  34.643  1.00  0.00     0.031 A 
BRANCH  55  69
ATOM     69  C   UNL A   1      40.275  34.279  38.600  1.00  0.00    -0.014 A 
ATOM     70  C   UNL A   1      40.366  33.079  39.315  1.00  0.00     0.009 A 
ATOM     71  C   UNL A   1      39.841  35.421  39.304  1.00  0.00     0.009 A 
ATOM     72  C   UNL A   1      40.028  33.026  40.671  1.00  0.00     0.001 A 
ATOM     73  C   UNL A   1      39.546  35.382  40.665  1.00  0.00     0.001 A 
ATOM     74  C   UNL A   1      39.623  34.176  41.346  1.00  0.00     0.000 A 
ENDBRANCH  55  69
BRANCH  56  75
ATOM     75  C   UNL A   1      42.411  26.705  34.450  1.00  0.00    -0.014 A 
ATOM     76  C   UNL A   1      43.554  25.958  34.115  1.00  0.00     0.009 A 
ATOM     77  C   UNL A   1      41.472  26.104  35.308  1.00  0.00     0.009 A 
ATOM     78  C   UNL A   1      43.772  24.685  34.664  1.00  0.00     0.001 A 
ATOM     79  C   UNL A   1      41.687  24.832  35.851  1.00  0.00     0.001 A 
ATOM     80  C   UNL A   1      42.847  24.131  35.544  1.00  0.00     0.000 A 
ENDBRANCH  56  75
BRANCH  68  81
ATOM     81  C   UNL A   1      44.241  32.557  33.222  1.00  0.00    -0.014 A 
ATOM     82  C   UNL A   1      45.615  32.609  32.916  1.00  0.00     0.009 A 
ATOM     83  C   UNL A   1      43.333  32.396  32.168  1.00  0.00     0.009 A 
ATOM     84  C   UNL A   1      46.064  32.514  31.594  1.00  0.00     0.001 A 
ATOM     85  C   UNL A   1      43.783  32.284  30.849  1.00  0.00     0.001 A 
ATOM     86  C   UNL A   1      45.147  32.343  30.562  1.00  0.00     0.000 A 
ENDBRANCH  68  81
ENDBRANCH  42  43
ENDBRANCH  35  37
ENDBRANCH  34  35
ENDBRANCH  33  34
ENDBRANCH  32  33
ENDBRANCH  31  32
ENDBRANCH   1  31
TORSDOF 18
ENDMDL
MODEL 2
REMARK VINA RESULT:     -10.7      3.821      5.957
REMARK SMILES Cc1nn2c(nnc3c(=O)n(CCCC(=O)OCCOCCOC(=O)c4ccc(-c5c6nc(c(-c7ccccc7)c7ccc([nH]7)c(-c7ccccc7)c7nc(c(-c8ccccc8)c8ccc5[nH]8)C=C7)C=C6)cc4)ccc32)c1-c1ccc(F)cc1
REMARK SMILES IDX 19 1 18 2 17 3 15 4 16 5 14 6 13 7 12 8 11 9 1 10 2 11 3 12
REMARK SMILES IDX 77 13 4 14 5 15 76 16 6 17 8 18 75 19 7 20 9 21 74 22 10 23
REMARK SMILES IDX 78 24 79 25 84 26 80 27 83 28 81 29 82 30 20 31 21 32 22 33
REMARK SMILES IDX 23 34 24 35 25 36 26 37 27 38 73 39 28 40 72 41 29 42 30 43
REMARK SMILES IDX 31 44 66 45 32 46 71 47 65 48 67 49 33 50 70 51 64 52 63 53
REMARK SMILES IDX 34 55 56 56 41 57 55 58 42 59 45 60 54 61 68 62 43 63 44 64
REMARK SMILES IDX 53 66 69 67 46 68 35 69 36 70 40 71 37 72 39 73 38 74 57 75
REMARK SMILES IDX 58 76 62 77 59 78 61 79 60 80 47 81 48 82 52 83 49 84 51 85
REMARK SMILES IDX 50 86
REMARK H PARENT 67 54 45 65
REMARK Flexibility Score: inf
ROOT
ATOM      1  C   UNL A   1      33.528  35.189  32.513  1.00  0.00     0.202 C 
ENDROOT
BRANCH   1   2
ATOM      2  C   UNL A   1      32.869  36.178  31.557  1.00  0.00     0.261 C 
BRANCH   2   3
ATOM      3  O   UNL A   1      32.549  35.576  30.294  1.00  0.00    -0.463 OA
BRANCH   3   4
ATOM      4  C   UNL A   1      33.213  36.087  29.227  1.00  0.00     0.305 C 
ATOM      5  O   UNL A   1      33.276  37.278  28.937  1.00  0.00    -0.252 OA
BRANCH   4   6
ATOM      6  C   UNL A   1      33.961  35.043  28.425  1.00  0.00     0.124 C 
BRANCH   6   7
ATOM      7  C   UNL A   1      33.233  33.782  27.949  1.00  0.00     0.034 C 
BRANCH   7   8
ATOM      8  C   UNL A   1      33.922  32.418  28.134  1.00  0.00     0.126 C 
BRANCH   8   9
ATOM      9  N   UNL A   1      33.341  31.330  27.362  1.00  0.00    -0.313 N 
ATOM     10  C   UNL A   1      29.530  25.980  23.504  1.00  0.00     0.069 C 
ATOM     11  C   UNL A   1      30.603  26.536  24.363  1.00  0.00     0.070 A 
ATOM     12  N   UNL A   1      30.565  27.821  24.754  1.00  0.00    -0.170 NA
ATOM     13  C   UNL A   1      31.735  25.863  24.870  1.00  0.00     0.051 A 
ATOM     14  N   UNL A   1      31.725  28.006  25.447  1.00  0.00    -0.210 N 
ATOM     15  C   UNL A   1      32.457  26.831  25.523  1.00  0.00     0.186 A 
ATOM     16  C   UNL A   1      32.247  29.164  26.020  1.00  0.00     0.102 A 
ATOM     17  N   UNL A   1      33.669  26.793  26.144  1.00  0.00    -0.129 NA
ATOM     18  C   UNL A   1      33.485  29.039  26.529  1.00  0.00     0.177 A 
ATOM     19  C   UNL A   1      31.540  30.427  26.107  1.00  0.00     0.049 A 
ATOM     20  N   UNL A   1      34.180  27.852  26.577  1.00  0.00    -0.141 NA
ATOM     21  C   UNL A   1      34.163  30.243  27.062  1.00  0.00     0.280 A 
ATOM     22  C   UNL A   1      32.067  31.432  26.824  1.00  0.00     0.091 A 
ATOM     23  O   UNL A   1      35.377  30.231  27.237  1.00  0.00    -0.267 OA
BRANCH  13  24
ATOM     24  C   UNL A   1      32.234  24.512  24.765  1.00  0.00    -0.012 A 
ATOM     25  C   UNL A   1      31.762  23.517  25.627  1.00  0.00     0.012 A 
ATOM     26  C   UNL A   1      33.073  24.172  23.693  1.00  0.00     0.012 A 
ATOM     27  C   UNL A   1      32.122  22.185  25.410  1.00  0.00     0.040 A 
ATOM     28  C   UNL A   1      33.430  22.841  23.480  1.00  0.00     0.040 A 
ATOM     29  C   UNL A   1      32.948  21.861  24.338  1.00  0.00     0.123 A 
ATOM     30  F   UNL A   1      33.269  20.580  24.120  1.00  0.00    -0.207 F 
ENDBRANCH  13  24
ENDBRANCH   8   9
ENDBRANCH   7   8
ENDBRANCH   6   7
ENDBRANCH   4   6
ENDBRANCH   3   4
ENDBRANCH   2   3
ENDBRANCH   1   2
BRANCH   1  31
ATOM     31  O   UNL A   1      33.817  33.868  32.056  1.00  0.00    -0.374 OA
BRANCH  31  32
ATOM     32  C   UNL A   1      35.044  33.571  31.396  1.00  0.00     0.202 C 
BRANCH  32  33
ATOM     33  C   UNL A   1      36.211  33.044  32.228  1.00  0.00     0.261 C 
BRANCH  33  34
ATOM     34  O   UNL A   1      37.460  33.289  31.596  1.00  0.00    -0.460 OA
BRANCH  34  35
ATOM     35  C   UNL A   1      38.283  32.215  31.637  1.00  0.00     0.338 C 
ATOM     36  O   UNL A   1      38.564  31.544  32.612  1.00  0.00    -0.246 OA
BRANCH  35  37
ATOM     37  C   UNL A   1      38.884  31.993  30.303  1.00  0.00     0.060 A 
ATOM     38  C   UNL A   1      38.233  30.979  29.598  1.00  0.00     0.016 A 
ATOM     39  C   UNL A   1      40.270  32.165  30.245  1.00  0.00     0.016 A 
ATOM     40  C   UNL A   1      38.980  29.867  29.306  1.00  0.00     0.010 A 
ATOM     41  C   UNL A   1      41.020  31.061  29.946  1.00  0.00     0.010 A 
ATOM     42  C   UNL A   1      40.339  29.892  29.627  1.00  0.00    -0.014 A 
BRANCH  42  43
ATOM     43  C   UNL A   1      41.048  28.643  29.654  1.00  0.00     0.031 A 
ATOM     44  C   UNL A   1      41.520  28.280  30.997  1.00  0.00     0.074 A 
ATOM     45  C   UNL A   1      41.202  27.868  28.567  1.00  0.00     0.049 A 
ATOM     46  N   UNL A   1      42.734  28.309  31.423  1.00  0.00    -0.248 NA
ATOM     47  C   UNL A   1      40.504  28.041  32.030  1.00  0.00     0.031 C 
ATOM     48  C   UNL A   1      40.586  27.955  27.242  1.00  0.00     0.029 A 
ATOM     49  N   UNL A   1      41.935  26.734  28.487  1.00  0.00    -0.354 N 
ATOM     50  C   UNL A   1      42.662  27.978  32.766  1.00  0.00     0.074 A 
ATOM     51  C   UNL A   1      41.265  27.989  33.122  1.00  0.00     0.031 C 
ATOM     52  C   UNL A   1      40.794  26.786  26.582  1.00  0.00     0.029 A 
ATOM     53  C   UNL A   1      41.668  25.943  27.384  1.00  0.00     0.049 A 
ATOM     54  H   UNL A   1      42.609  26.490  29.163  1.00  0.00     0.167 HD
ATOM     55  C   UNL A   1      43.740  27.533  33.462  1.00  0.00     0.031 A 
ATOM     56  C   UNL A   1      42.090  24.663  27.231  1.00  0.00     0.031 A 
ATOM     57  C   UNL A   1      44.970  27.721  32.745  1.00  0.00     0.049 A 
ATOM     58  C   UNL A   1      43.253  24.481  28.141  1.00  0.00     0.074 A 
ATOM     59  C   UNL A   1      45.696  28.829  32.355  1.00  0.00     0.029 A 
ATOM     60  N   UNL A   1      45.402  26.684  31.950  1.00  0.00    -0.354 N 
ATOM     61  N   UNL A   1      44.390  25.096  27.973  1.00  0.00    -0.248 NA
ATOM     62  C   UNL A   1      43.003  24.001  29.496  1.00  0.00     0.031 C 
ATOM     63  C   UNL A   1      46.174  28.515  31.049  1.00  0.00     0.029 A 
ATOM     64  C   UNL A   1      45.756  27.220  30.736  1.00  0.00     0.049 A 
ATOM     65  H   UNL A   1      45.447  25.733  32.204  1.00  0.00     0.167 HD
ATOM     66  C   UNL A   1      44.803  25.450  29.250  1.00  0.00     0.074 A 
ATOM     67  C   UNL A   1      43.957  24.671  30.154  1.00  0.00     0.031 C 
ATOM     68  C   UNL A   1      45.581  26.553  29.463  1.00  0.00     0.031 A 
BRANCH  55  69
ATOM     69  C   UNL A   1      43.612  26.651  34.662  1.00  0.00    -0.014 A 
ATOM     70  C   UNL A   1      43.339  25.288  34.495  1.00  0.00     0.009 A 
ATOM     71  C   UNL A   1      43.546  27.169  35.972  1.00  0.00     0.009 A 
ATOM     72  C   UNL A   1      43.005  24.485  35.591  1.00  0.00     0.001 A 
ATOM     73  C   UNL A   1      43.258  26.363  37.071  1.00  0.00     0.001 A 
ATOM     74  C   UNL A   1      42.970  25.021  36.877  1.00  0.00     0.000 A 
ENDBRANCH  55  69
BRANCH  56  75
ATOM     75  C   UNL A   1      41.352  23.520  26.646  1.00  0.00    -0.014 A 
ATOM     76  C   UNL A   1      42.036  22.361  26.243  1.00  0.00     0.009 A 
ATOM     77  C   UNL A   1      39.950  23.445  26.746  1.00  0.00     0.009 A 
ATOM     78  C   UNL A   1      41.349  21.161  26.006  1.00  0.00     0.001 A 
ATOM     79  C   UNL A   1      39.264  22.250  26.504  1.00  0.00     0.001 A 
ATOM     80  C   UNL A   1      39.965  21.102  26.153  1.00  0.00     0.000 A 
ENDBRANCH  56  75
BRANCH  68  81
ATOM     81  C   UNL A   1      46.066  27.304  28.246  1.00  0.00    -0.014 A 
ATOM     82  C   UNL A   1      45.282  28.284  27.606  1.00  0.00     0.009 A 
ATOM     83  C   UNL A   1      47.402  27.162  27.849  1.00  0.00     0.009 A 
ATOM     84  C   UNL A   1      45.815  29.088  26.593  1.00  0.00     0.001 A 
ATOM     85  C   UNL A   1      47.939  27.977  26.847  1.00  0.00     0.001 A 
ATOM     86  C   UNL A   1      47.148  28.939  26.220  1.00  0.00     0.000 A 
ENDBRANCH  68  81
ENDBRANCH  42  43
ENDBRANCH  35  37
ENDBRANCH  34  35
ENDBRANCH  33  34
ENDBRANCH  32  33
ENDBRANCH  31  32
ENDBRANCH   1  31
TORSDOF 18
ENDMDL
MODEL 3
REMARK VINA RESULT:     -10.5      4.720      8.323
REMARK SMILES Cc1nn2c(nnc3c(=O)n(CCCC(=O)OCCOCCOC(=O)c4ccc(-c5c6nc(c(-c7ccccc7)c7ccc([nH]7)c(-c7ccccc7)c7nc(c(-c8ccccc8)c8ccc5[nH]8)C=C7)C=C6)cc4)ccc32)c1-c1ccc(F)cc1
REMARK SMILES IDX 19 1 18 2 17 3 15 4 16 5 14 6 13 7 12 8 11 9 1 10 2 11 3 12
REMARK SMILES IDX 77 13 4 14 5 15 76 16 6 17 8 18 75 19 7 20 9 21 74 22 10 23
REMARK SMILES IDX 78 24 79 25 84 26 80 27 83 28 81 29 82 30 20 31 21 32 22 33
REMARK SMILES IDX 23 34 24 35 25 36 26 37 27 38 73 39 28 40 72 41 29 42 30 43
REMARK SMILES IDX 31 44 66 45 32 46 71 47 65 48 67 49 33 50 70 51 64 52 63 53
REMARK SMILES IDX 34 55 56 56 41 57 55 58 42 59 45 60 54 61 68 62 43 63 44 64
REMARK SMILES IDX 53 66 69 67 46 68 35 69 36 70 40 71 37 72 39 73 38 74 57 75
REMARK SMILES IDX 58 76 62 77 59 78 61 79 60 80 47 81 48 82 52 83 49 84 51 85
REMARK SMILES IDX 50 86
REMARK H PARENT 67 54 45 65
REMARK Flexibility Score: inf
ROOT
ATOM      1  C   UNL A   1      41.171  21.903  26.333  1.00  0.00     0.202 C 
ENDROOT
BRANCH   1   2
ATOM      2  C   UNL A   1      39.724  22.085  26.780  1.00  0.00     0.261 C 
BRANCH   2   3
ATOM      3  O   UNL A   1      38.804  21.386  25.929  1.00  0.00    -0.463 OA
BRANCH   3   4
ATOM      4  C   UNL A   1      37.689  22.081  25.589  1.00  0.00     0.305 C 
ATOM      5  O   UNL A   1      37.391  23.192  26.017  1.00  0.00    -0.252 OA
BRANCH   4   6
ATOM      6  C   UNL A   1      36.839  21.385  24.547  1.00  0.00     0.124 C 
BRANCH   6   7
ATOM      7  C   UNL A   1      35.851  20.295  24.974  1.00  0.00     0.034 C 
BRANCH   7   8
ATOM      8  C   UNL A   1      34.362  20.473  24.627  1.00  0.00     0.126 C 
BRANCH   8   9
ATOM      9  N   UNL A   1      33.947  21.851  24.403  1.00  0.00    -0.313 N 
ATOM     10  C   UNL A   1      32.076  28.965  22.426  1.00  0.00     0.069 C 
ATOM     11  C   UNL A   1      32.545  27.878  23.318  1.00  0.00     0.070 A 
ATOM     12  N   UNL A   1      32.713  26.632  22.844  1.00  0.00    -0.170 NA
ATOM     13  C   UNL A   1      32.870  27.969  24.689  1.00  0.00     0.051 A 
ATOM     14  N   UNL A   1      33.064  25.891  23.933  1.00  0.00    -0.210 N 
ATOM     15  C   UNL A   1      33.158  26.681  25.069  1.00  0.00     0.186 A 
ATOM     16  C   UNL A   1      33.291  24.521  24.044  1.00  0.00     0.102 A 
ATOM     17  N   UNL A   1      33.465  26.141  26.281  1.00  0.00    -0.129 NA
ATOM     18  C   UNL A   1      33.500  24.079  25.297  1.00  0.00     0.177 A 
ATOM     19  C   UNL A   1      33.333  23.602  22.923  1.00  0.00     0.049 A 
ATOM     20  N   UNL A   1      33.578  24.899  26.399  1.00  0.00    -0.141 NA
ATOM     21  C   UNL A   1      33.645  22.622  25.525  1.00  0.00     0.280 A 
ATOM     22  C   UNL A   1      33.723  22.333  23.122  1.00  0.00     0.091 A 
ATOM     23  O   UNL A   1      33.521  22.168  26.659  1.00  0.00    -0.267 OA
BRANCH  13  24
ATOM     24  C   UNL A   1      32.876  29.043  25.653  1.00  0.00    -0.012 A 
ATOM     25  C   UNL A   1      34.017  29.292  26.424  1.00  0.00     0.012 A 
ATOM     26  C   UNL A   1      31.792  29.933  25.696  1.00  0.00     0.012 A 
ATOM     27  C   UNL A   1      34.073  30.432  27.228  1.00  0.00     0.040 A 
ATOM     28  C   UNL A   1      31.852  31.069  26.501  1.00  0.00     0.040 A 
ATOM     29  C   UNL A   1      32.993  31.310  27.256  1.00  0.00     0.123 A 
ATOM     30  F   UNL A   1      33.063  32.415  28.009  1.00  0.00    -0.207 F 
ENDBRANCH  13  24
ENDBRANCH   8   9
ENDBRANCH   7   8
ENDBRANCH   6   7
ENDBRANCH   4   6
ENDBRANCH   3   4
ENDBRANCH   2   3
ENDBRANCH   1   2
BRANCH   1  31
ATOM     31  O   UNL A   1      41.839  22.984  25.682  1.00  0.00    -0.374 OA
BRANCH  31  32
ATOM     32  C   UNL A   1      43.209  23.269  25.951  1.00  0.00     0.202 C 
BRANCH  32  33
ATOM     33  C   UNL A   1      43.877  24.417  25.199  1.00  0.00     0.261 C 
BRANCH  33  34
ATOM     34  O   UNL A   1      42.926  25.363  24.731  1.00  0.00    -0.460 OA
BRANCH  34  35
ATOM     35  C   UNL A   1      43.076  26.579  25.305  1.00  0.00     0.338 C 
ATOM     36  O   UNL A   1      44.121  27.109  25.635  1.00  0.00    -0.246 OA
BRANCH  35  37
ATOM     37  C   UNL A   1      41.749  27.179  25.564  1.00  0.00     0.060 A 
ATOM     38  C   UNL A   1      41.821  28.566  25.709  1.00  0.00     0.016 A 
ATOM     39  C   UNL A   1      40.888  26.396  26.338  1.00  0.00     0.016 A 
ATOM     40  C   UNL A   1      41.468  29.067  26.935  1.00  0.00     0.010 A 
ATOM     41  C   UNL A   1      40.526  26.894  27.559  1.00  0.00     0.010 A 
ATOM     42  C   UNL A   1      40.960  28.174  27.883  1.00  0.00    -0.014 A 
BRANCH  42  43
ATOM     43  C   UNL A   1      40.916  28.600  29.254  1.00  0.00     0.031 A 
ATOM     44  C   UNL A   1      39.759  29.454  29.553  1.00  0.00     0.074 A 
ATOM     45  C   UNL A   1      41.813  28.200  30.171  1.00  0.00     0.049 A 
ATOM     46  N   UNL A   1      39.771  30.723  29.769  1.00  0.00    -0.248 NA
ATOM     47  C   UNL A   1      38.424  28.861  29.407  1.00  0.00     0.031 C 
ATOM     48  C   UNL A   1      42.851  27.170  30.100  1.00  0.00     0.029 A 
ATOM     49  N   UNL A   1      41.899  28.631  31.450  1.00  0.00    -0.354 N 
ATOM     50  C   UNL A   1      38.441  31.086  29.904  1.00  0.00     0.074 A 
ATOM     51  C   UNL A   1      37.656  29.944  29.509  1.00  0.00     0.031 C 
ATOM     52  C   UNL A   1      43.293  26.903  31.356  1.00  0.00     0.029 A 
ATOM     53  C   UNL A   1      42.671  27.838  32.282  1.00  0.00     0.049 A 
ATOM     54  H   UNL A   1      41.448  29.447  31.766  1.00  0.00     0.167 HD
ATOM     55  C   UNL A   1      38.063  32.241  30.509  1.00  0.00     0.031 A 
ATOM     56  C   UNL A   1      42.692  27.931  33.635  1.00  0.00     0.031 A 
ATOM     57  C   UNL A   1      39.167  33.137  30.717  1.00  0.00     0.049 A 
ATOM     58  C   UNL A   1      42.197  29.291  33.982  1.00  0.00     0.074 A 
ATOM     59  C   UNL A   1      39.988  33.862  29.877  1.00  0.00     0.029 A 
ATOM     60  N   UNL A   1      39.833  33.049  31.918  1.00  0.00    -0.354 N 
ATOM     61  N   UNL A   1      42.850  30.379  33.688  1.00  0.00    -0.248 NA
ATOM     62  C   UNL A   1      40.769  29.468  34.216  1.00  0.00     0.031 C 
ATOM     63  C   UNL A   1      41.287  33.762  30.456  1.00  0.00     0.029 A 
ATOM     64  C   UNL A   1      41.178  33.028  31.638  1.00  0.00     0.049 A 
ATOM     65  H   UNL A   1      39.422  33.007  32.812  1.00  0.00     0.167 HD
ATOM     66  C   UNL A   1      41.879  31.288  33.291  1.00  0.00     0.074 A 
ATOM     67  C   UNL A   1      40.610  30.703  33.723  1.00  0.00     0.031 C 
ATOM     68  C   UNL A   1      42.160  32.280  32.394  1.00  0.00     0.031 A 
BRANCH  55  69
ATOM     69  C   UNL A   1      36.736  32.400  31.179  1.00  0.00    -0.014 A 
ATOM     70  C   UNL A   1      35.620  32.782  30.425  1.00  0.00     0.009 A 
ATOM     71  C   UNL A   1      36.595  32.386  32.582  1.00  0.00     0.009 A 
ATOM     72  C   UNL A   1      34.422  33.144  31.051  1.00  0.00     0.001 A 
ATOM     73  C   UNL A   1      35.391  32.702  33.207  1.00  0.00     0.001 A 
ATOM     74  C   UNL A   1      34.307  33.099  32.439  1.00  0.00     0.000 A 
ENDBRANCH  55  69
BRANCH  56  75
ATOM     75  C   UNL A   1      42.759  26.832  34.626  1.00  0.00    -0.014 A 
ATOM     76  C   UNL A   1      41.590  26.157  35.021  1.00  0.00     0.009 A 
ATOM     77  C   UNL A   1      43.992  26.250  34.970  1.00  0.00     0.009 A 
ATOM     78  C   UNL A   1      41.657  24.922  35.684  1.00  0.00     0.001 A 
ATOM     79  C   UNL A   1      44.059  25.020  35.636  1.00  0.00     0.001 A 
ATOM     80  C   UNL A   1      42.891  24.347  35.975  1.00  0.00     0.000 A 
ENDBRANCH  56  75
BRANCH  68  81
ATOM     81  C   UNL A   1      43.594  32.417  31.940  1.00  0.00    -0.014 A 
ATOM     82  C   UNL A   1      44.120  31.660  30.875  1.00  0.00     0.009 A 
ATOM     83  C   UNL A   1      44.375  33.454  32.464  1.00  0.00     0.009 A 
ATOM     84  C   UNL A   1      45.393  31.927  30.359  1.00  0.00     0.001 A 
ATOM     85  C   UNL A   1      45.640  33.731  31.937  1.00  0.00     0.001 A 
ATOM     86  C   UNL A   1      46.149  32.969  30.886  1.00  0.00     0.000 A 
ENDBRANCH  68  81
ENDBRANCH  42  43
ENDBRANCH  35  37
ENDBRANCH  34  35
ENDBRANCH  33  34
ENDBRANCH  32  33
ENDBRANCH  31  32
ENDBRANCH   1  31
TORSDOF 18
ENDMDL
