MODEL 1
REMARK VINA RESULT:     -10.8      0.000      0.000
REMARK SMILES C[N@H+]1CCO[C@@H](CNC(=O)c2cccn2CC(=O)OCCOCCOC(=O)c2ccc(-c3c4nc(c(-c5ccccc5)c5ccc([nH]5)c(-c5ccccc5)c5nc(c(-c6ccccc6)c6ccc3[nH]6)C=C5)C=C4)cc2)C1
REMARK SMILES IDX 21 1 20 2 19 3 17 4 18 5 16 6 15 7 11 8 12 9 13 10 14 11
REMARK SMILES IDX 9 12 8 13 10 15 7 16 6 17 1 18 2 19 3 20 76 21 4 23 5 24
REMARK SMILES IDX 22 25 23 26 24 27 25 28 26 29 27 30 28 31 29 32 75 33 30 34
REMARK SMILES IDX 74 35 31 36 32 37 33 38 68 39 34 40 73 41 67 42 69 43 35 44
REMARK SMILES IDX 72 45 66 46 65 47 36 49 58 50 43 51 57 52 44 53 47 54 56 55
REMARK SMILES IDX 70 56 45 57 46 58 55 60 71 61 48 62 37 63 38 64 42 65 39 66
REMARK SMILES IDX 41 67 40 68 59 69 60 70 64 71 61 72 63 73 62 74 49 75 50 76
REMARK SMILES IDX 54 77 51 78 53 79 52 80
REMARK H PARENT 8 14 2 22 69 48 47 59
REMARK Flexibility Score: inf
ROOT
ATOM      1  C   UNL A   1      33.855  31.165  27.627  1.00  0.00     0.202 C 
ENDROOT
BRANCH   1   2
ATOM      2  C   UNL A   1      34.483  29.826  27.236  1.00  0.00     0.261 C 
BRANCH   2   3
ATOM      3  O   UNL A   1      33.493  28.810  26.983  1.00  0.00    -0.462 OA
BRANCH   3   4
ATOM      4  C   UNL A   1      33.250  28.550  25.670  1.00  0.00     0.326 C 
ATOM      5  O   UNL A   1      33.081  29.419  24.817  1.00  0.00    -0.250 OA
BRANCH   4   6
ATOM      6  C   UNL A   1      33.315  27.095  25.290  1.00  0.00     0.244 C 
BRANCH   6   7
ATOM      7  N   UNL A   1      32.175  26.537  24.565  1.00  0.00    -0.332 N 
ATOM      8  C   UNL A   1      32.233  25.790  23.402  1.00  0.00     0.107 A 
ATOM      9  C   UNL A   1      30.950  25.300  23.186  1.00  0.00     0.033 A 
ATOM     10  C   UNL A   1      30.103  25.792  24.201  1.00  0.00     0.020 A 
ATOM     11  C   UNL A   1      30.885  26.547  25.042  1.00  0.00     0.087 A 
BRANCH   8  12
ATOM     12  C   UNL A   1      33.440  25.529  22.653  1.00  0.00     0.268 C 
ATOM     13  N   UNL A   1      34.252  24.498  23.031  1.00  0.00    -0.348 N 
ATOM     14  H   UNL A   1      35.108  24.436  22.549  1.00  0.00     0.163 HD
ATOM     15  O   UNL A   1      33.772  26.184  21.664  1.00  0.00    -0.268 OA
BRANCH  13  16
ATOM     16  C   UNL A   1      34.033  23.482  24.046  1.00  0.00     0.154 C 
BRANCH  16  17
ATOM     17  C   UNL A   1      35.038  23.524  25.212  1.00  0.00     0.192 C 
ATOM     18  C   UNL A   1      34.552  20.308  25.046  1.00  0.00     0.332 C 
ATOM     19  N   UNL A   1      35.445  21.083  25.894  1.00  0.00    -0.333 N 
ATOM     20  C   UNL A   1      36.788  21.247  25.314  1.00  0.00     0.290 C 
ATOM     21  C   UNL A   1      34.919  22.404  26.273  1.00  0.00     0.296 C 
ATOM     22  H   UNL A   1      35.514  20.523  26.742  1.00  0.00     0.348 HD
ATOM     23  C   UNL A   1      36.883  22.343  24.240  1.00  0.00     0.222 C 
ATOM     24  O   UNL A   1      36.388  23.607  24.707  1.00  0.00    -0.365 OA
ENDBRANCH  16  17
ENDBRANCH  13  16
ENDBRANCH   8  12
ENDBRANCH   6   7
ENDBRANCH   4   6
ENDBRANCH   3   4
ENDBRANCH   2   3
ENDBRANCH   1   2
BRANCH   1  25
ATOM     25  O   UNL A   1      34.573  31.979  28.553  1.00  0.00    -0.374 OA
BRANCH  25  26
ATOM     26  C   UNL A   1      35.793  32.588  28.145  1.00  0.00     0.202 C 
BRANCH  26  27
ATOM     27  C   UNL A   1      36.989  32.469  29.083  1.00  0.00     0.261 C 
BRANCH  27  28
ATOM     28  O   UNL A   1      37.873  31.418  28.712  1.00  0.00    -0.460 OA
BRANCH  28  29
ATOM     29  C   UNL A   1      37.594  30.243  29.308  1.00  0.00     0.338 C 
ATOM     30  O   UNL A   1      36.869  30.063  30.285  1.00  0.00    -0.246 OA
BRANCH  29  31
ATOM     31  C   UNL A   1      38.422  29.184  28.735  1.00  0.00     0.060 A 
ATOM     32  C   UNL A   1      39.019  28.318  29.656  1.00  0.00     0.016 A 
ATOM     33  C   UNL A   1      38.854  29.267  27.403  1.00  0.00     0.016 A 
ATOM     34  C   UNL A   1      40.194  27.699  29.306  1.00  0.00     0.010 A 
ATOM     35  C   UNL A   1      40.048  28.670  27.060  1.00  0.00     0.010 A 
ATOM     36  C   UNL A   1      40.737  27.952  28.041  1.00  0.00    -0.014 A 
BRANCH  36  37
ATOM     37  C   UNL A   1      42.062  27.396  27.770  1.00  0.00     0.031 A 
ATOM     38  C   UNL A   1      43.076  28.490  27.511  1.00  0.00     0.074 A 
ATOM     39  C   UNL A   1      42.125  26.036  27.685  1.00  0.00     0.049 A 
ATOM     40  N   UNL A   1      44.134  28.460  26.768  1.00  0.00    -0.248 NA
ATOM     41  C   UNL A   1      42.839  29.841  28.088  1.00  0.00     0.031 C 
ATOM     42  C   UNL A   1      40.992  25.122  27.965  1.00  0.00     0.029 A 
ATOM     43  N   UNL A   1      43.115  25.147  27.331  1.00  0.00    -0.354 N 
ATOM     44  C   UNL A   1      44.765  29.705  26.903  1.00  0.00     0.074 A 
ATOM     45  C   UNL A   1      43.875  30.549  27.641  1.00  0.00     0.031 C 
ATOM     46  C   UNL A   1      41.333  23.843  27.705  1.00  0.00     0.029 A 
ATOM     47  C   UNL A   1      42.706  23.796  27.243  1.00  0.00     0.049 A 
ATOM     48  H   UNL A   1      44.040  25.431  27.152  1.00  0.00     0.167 HD
ATOM     49  C   UNL A   1      46.045  29.938  26.507  1.00  0.00     0.031 A 
ATOM     50  C   UNL A   1      43.406  22.716  26.783  1.00  0.00     0.031 A 
ATOM     51  C   UNL A   1      46.594  28.812  25.831  1.00  0.00     0.049 A 
ATOM     52  C   UNL A   1      44.759  23.202  26.458  1.00  0.00     0.074 A 
ATOM     53  C   UNL A   1      46.376  28.264  24.592  1.00  0.00     0.029 A 
ATOM     54  N   UNL A   1      47.264  27.893  26.602  1.00  0.00    -0.354 N 
ATOM     55  N   UNL A   1      45.654  23.556  27.328  1.00  0.00    -0.248 NA
ATOM     56  C   UNL A   1      45.131  23.378  25.050  1.00  0.00     0.031 C 
ATOM     57  C   UNL A   1      46.540  26.872  24.791  1.00  0.00     0.029 A 
ATOM     58  C   UNL A   1      46.945  26.648  26.111  1.00  0.00     0.049 A 
ATOM     59  H   UNL A   1      47.858  28.089  27.362  1.00  0.00     0.167 HD
ATOM     60  C   UNL A   1      46.506  24.338  26.584  1.00  0.00     0.074 A 
ATOM     61  C   UNL A   1      46.325  23.946  25.205  1.00  0.00     0.031 C 
ATOM     62  C   UNL A   1      46.893  25.552  27.054  1.00  0.00     0.031 A 
BRANCH  49  63
ATOM     63  C   UNL A   1      46.952  31.062  26.894  1.00  0.00    -0.014 A 
ATOM     64  C   UNL A   1      46.580  32.368  26.512  1.00  0.00     0.009 A 
ATOM     65  C   UNL A   1      48.264  30.868  27.348  1.00  0.00     0.009 A 
ATOM     66  C   UNL A   1      47.500  33.416  26.504  1.00  0.00     0.001 A 
ATOM     67  C   UNL A   1      49.178  31.927  27.373  1.00  0.00     0.001 A 
ATOM     68  C   UNL A   1      48.805  33.192  26.925  1.00  0.00     0.000 A 
ENDBRANCH  49  63
BRANCH  50  69
ATOM     69  C   UNL A   1      43.114  21.276  26.457  1.00  0.00    -0.014 A 
ATOM     70  C   UNL A   1      43.674  20.543  25.407  1.00  0.00     0.009 A 
ATOM     71  C   UNL A   1      42.244  20.547  27.313  1.00  0.00     0.009 A 
ATOM     72  C   UNL A   1      43.446  19.158  25.274  1.00  0.00     0.001 A 
ATOM     73  C   UNL A   1      42.045  19.167  27.212  1.00  0.00     0.001 A 
ATOM     74  C   UNL A   1      42.660  18.466  26.193  1.00  0.00     0.000 A 
ENDBRANCH  50  69
BRANCH  62  75
ATOM     75  C   UNL A   1      46.745  25.721  28.559  1.00  0.00    -0.014 A 
ATOM     76  C   UNL A   1      45.519  26.096  29.123  1.00  0.00     0.009 A 
ATOM     77  C   UNL A   1      47.848  25.635  29.427  1.00  0.00     0.009 A 
ATOM     78  C   UNL A   1      45.409  26.389  30.491  1.00  0.00     0.001 A 
ATOM     79  C   UNL A   1      47.746  25.922  30.793  1.00  0.00     0.001 A 
ATOM     80  C   UNL A   1      46.523  26.304  31.325  1.00  0.00     0.000 A 
ENDBRANCH  62  75
ENDBRANCH  36  37
ENDBRANCH  29  31
ENDBRANCH  28  29
ENDBRANCH  27  28
ENDBRANCH  26  27
ENDBRANCH  25  26
ENDBRANCH   1  25
TORSDOF 18
ENDMDL
MODEL 2
REMARK VINA RESULT:     -10.6      4.329      8.863
REMARK SMILES C[N@H+]1CCO[C@@H](CNC(=O)c2cccn2CC(=O)OCCOCCOC(=O)c2ccc(-c3c4nc(c(-c5ccccc5)c5ccc([nH]5)c(-c5ccccc5)c5nc(c(-c6ccccc6)c6ccc3[nH]6)C=C5)C=C4)cc2)C1
REMARK SMILES IDX 21 1 20 2 19 3 17 4 18 5 16 6 15 7 11 8 12 9 13 10 14 11
REMARK SMILES IDX 9 12 8 13 10 15 7 16 6 17 1 18 2 19 3 20 76 21 4 23 5 24
REMARK SMILES IDX 22 25 23 26 24 27 25 28 26 29 27 30 28 31 29 32 75 33 30 34
REMARK SMILES IDX 74 35 31 36 32 37 33 38 68 39 34 40 73 41 67 42 69 43 35 44
REMARK SMILES IDX 72 45 66 46 65 47 36 49 58 50 43 51 57 52 44 53 47 54 56 55
REMARK SMILES IDX 70 56 45 57 46 58 55 60 71 61 48 62 37 63 38 64 42 65 39 66
REMARK SMILES IDX 41 67 40 68 59 69 60 70 64 71 61 72 63 73 62 74 49 75 50 76
REMARK SMILES IDX 54 77 51 78 53 79 52 80
REMARK H PARENT 8 14 2 22 69 48 47 59
REMARK Flexibility Score: inf
ROOT
ATOM      1  C   UNL A   1      34.299  29.284  27.288  1.00  0.00     0.202 C 
ENDROOT
BRANCH   1   2
ATOM      2  C   UNL A   1      33.299  28.164  26.994  1.00  0.00     0.261 C 
BRANCH   2   3
ATOM      3  O   UNL A   1      32.002  28.671  26.626  1.00  0.00    -0.462 OA
BRANCH   3   4
ATOM      4  C   UNL A   1      31.798  28.833  25.290  1.00  0.00     0.326 C 
ATOM      5  O   UNL A   1      31.213  29.794  24.796  1.00  0.00    -0.250 OA
BRANCH   4   6
ATOM      6  C   UNL A   1      32.452  27.793  24.419  1.00  0.00     0.244 C 
BRANCH   6   7
ATOM      7  N   UNL A   1      31.609  26.712  23.914  1.00  0.00    -0.332 N 
ATOM      8  C   UNL A   1      32.028  25.637  23.151  1.00  0.00     0.107 A 
ATOM      9  C   UNL A   1      30.950  24.763  23.077  1.00  0.00     0.033 A 
ATOM     10  C   UNL A   1      29.858  25.337  23.762  1.00  0.00     0.020 A 
ATOM     11  C   UNL A   1      30.293  26.535  24.274  1.00  0.00     0.087 A 
BRANCH   8  12
ATOM     12  C   UNL A   1      33.368  25.468  22.637  1.00  0.00     0.268 C 
ATOM     13  N   UNL A   1      34.205  24.569  23.235  1.00  0.00    -0.348 N 
ATOM     14  H   UNL A   1      35.133  24.574  22.908  1.00  0.00     0.163 HD
ATOM     15  O   UNL A   1      33.797  26.086  21.663  1.00  0.00    -0.268 OA
BRANCH  13  16
ATOM     16  C   UNL A   1      33.920  23.608  24.287  1.00  0.00     0.154 C 
BRANCH  16  17
ATOM     17  C   UNL A   1      34.099  24.158  25.714  1.00  0.00     0.192 C 
ATOM     18  C   UNL A   1      31.274  22.584  26.102  1.00  0.00     0.332 C 
ATOM     19  N   UNL A   1      32.095  23.300  27.067  1.00  0.00    -0.333 N 
ATOM     20  C   UNL A   1      33.058  22.428  27.760  1.00  0.00     0.290 C 
ATOM     21  C   UNL A   1      32.807  24.460  26.509  1.00  0.00     0.296 C 
ATOM     22  H   UNL A   1      31.417  23.649  27.743  1.00  0.00     0.348 HD
ATOM     23  C   UNL A   1      34.323  22.113  26.943  1.00  0.00     0.222 C 
ATOM     24  O   UNL A   1      34.979  23.301  26.474  1.00  0.00    -0.365 OA
ENDBRANCH  16  17
ENDBRANCH  13  16
ENDBRANCH   8  12
ENDBRANCH   6   7
ENDBRANCH   4   6
ENDBRANCH   3   4
ENDBRANCH   2   3
ENDBRANCH   1   2
BRANCH   1  25
ATOM     25  O   UNL A   1      33.930  30.607  26.904  1.00  0.00    -0.374 OA
BRANCH  25  26
ATOM     26  C   UNL A   1      33.806  31.613  27.903  1.00  0.00     0.202 C 
BRANCH  26  27
ATOM     27  C   UNL A   1      32.764  32.703  27.681  1.00  0.00     0.261 C 
BRANCH  27  28
ATOM     28  O   UNL A   1      33.345  33.991  27.515  1.00  0.00    -0.460 OA
BRANCH  28  29
ATOM     29  C   UNL A   1      33.185  34.796  28.582  1.00  0.00     0.338 C 
ATOM     30  O   UNL A   1      32.295  35.628  28.754  1.00  0.00    -0.246 OA
BRANCH  29  31
ATOM     31  C   UNL A   1      34.337  34.679  29.473  1.00  0.00     0.060 A 
ATOM     32  C   UNL A   1      35.589  34.801  28.863  1.00  0.00     0.016 A 
ATOM     33  C   UNL A   1      34.184  34.136  30.758  1.00  0.00     0.016 A 
ATOM     34  C   UNL A   1      36.663  34.172  29.444  1.00  0.00     0.010 A 
ATOM     35  C   UNL A   1      35.255  33.480  31.327  1.00  0.00     0.010 A 
ATOM     36  C   UNL A   1      36.462  33.448  30.624  1.00  0.00    -0.014 A 
BRANCH  36  37
ATOM     37  C   UNL A   1      37.597  32.671  31.121  1.00  0.00     0.031 A 
ATOM     38  C   UNL A   1      37.832  31.437  30.275  1.00  0.00     0.074 A 
ATOM     39  C   UNL A   1      38.151  33.114  32.286  1.00  0.00     0.049 A 
ATOM     40  N   UNL A   1      38.323  30.293  30.624  1.00  0.00    -0.248 NA
ATOM     41  C   UNL A   1      37.378  31.440  28.858  1.00  0.00     0.031 C 
ATOM     42  C   UNL A   1      37.759  34.362  32.982  1.00  0.00     0.029 A 
ATOM     43  N   UNL A   1      39.116  32.618  33.133  1.00  0.00    -0.354 N 
ATOM     44  C   UNL A   1      38.385  29.503  29.466  1.00  0.00     0.074 A 
ATOM     45  C   UNL A   1      37.696  30.218  28.434  1.00  0.00     0.031 C 
ATOM     46  C   UNL A   1      38.416  34.484  34.154  1.00  0.00     0.029 A 
ATOM     47  C   UNL A   1      39.295  33.345  34.333  1.00  0.00     0.049 A 
ATOM     48  H   UNL A   1      39.644  31.815  32.919  1.00  0.00     0.167 HD
ATOM     49  C   UNL A   1      39.108  28.355  29.385  1.00  0.00     0.031 A 
ATOM     50  C   UNL A   1      40.059  33.031  35.421  1.00  0.00     0.031 A 
ATOM     51  C   UNL A   1      39.670  28.004  30.645  1.00  0.00     0.049 A 
ATOM     52  C   UNL A   1      40.773  31.785  35.085  1.00  0.00     0.074 A 
ATOM     53  C   UNL A   1      39.133  27.509  31.806  1.00  0.00     0.029 A 
ATOM     54  N   UNL A   1      40.928  28.484  30.917  1.00  0.00    -0.354 N 
ATOM     55  N   UNL A   1      41.745  31.689  34.232  1.00  0.00    -0.248 NA
ATOM     56  C   UNL A   1      40.328  30.526  35.693  1.00  0.00     0.031 C 
ATOM     57  C   UNL A   1      39.913  28.098  32.831  1.00  0.00     0.029 A 
ATOM     58  C   UNL A   1      40.944  28.839  32.246  1.00  0.00     0.049 A 
ATOM     59  H   UNL A   1      41.676  28.560  30.280  1.00  0.00     0.167 HD
ATOM     60  C   UNL A   1      41.749  30.348  33.927  1.00  0.00     0.074 A 
ATOM     61  C   UNL A   1      41.111  29.674  35.036  1.00  0.00     0.031 C 
ATOM     62  C   UNL A   1      41.788  29.949  32.630  1.00  0.00     0.031 A 
BRANCH  49  63
ATOM     63  C   UNL A   1      39.553  27.616  28.163  1.00  0.00    -0.014 A 
ATOM     64  C   UNL A   1      39.355  26.220  28.132  1.00  0.00     0.009 A 
ATOM     65  C   UNL A   1      40.399  28.174  27.195  1.00  0.00     0.009 A 
ATOM     66  C   UNL A   1      40.037  25.407  27.225  1.00  0.00     0.001 A 
ATOM     67  C   UNL A   1      41.056  27.363  26.263  1.00  0.00     0.001 A 
ATOM     68  C   UNL A   1      40.898  25.979  26.298  1.00  0.00     0.000 A 
ENDBRANCH  49  63
BRANCH  50  69
ATOM     69  C   UNL A   1      40.252  33.559  36.817  1.00  0.00    -0.014 A 
ATOM     70  C   UNL A   1      39.320  34.301  37.549  1.00  0.00     0.009 A 
ATOM     71  C   UNL A   1      41.451  33.236  37.508  1.00  0.00     0.009 A 
ATOM     72  C   UNL A   1      39.540  34.623  38.904  1.00  0.00     0.001 A 
ATOM     73  C   UNL A   1      41.659  33.516  38.862  1.00  0.00     0.001 A 
ATOM     74  C   UNL A   1      40.691  34.204  39.567  1.00  0.00     0.000 A 
ENDBRANCH  50  69
BRANCH  62  75
ATOM     75  C   UNL A   1      42.316  31.000  31.664  1.00  0.00    -0.014 A 
ATOM     76  C   UNL A   1      41.439  31.849  30.975  1.00  0.00     0.009 A 
ATOM     77  C   UNL A   1      43.679  31.080  31.327  1.00  0.00     0.009 A 
ATOM     78  C   UNL A   1      41.907  32.723  29.982  1.00  0.00     0.001 A 
ATOM     79  C   UNL A   1      44.153  31.951  30.340  1.00  0.00     0.001 A 
ATOM     80  C   UNL A   1      43.263  32.772  29.663  1.00  0.00     0.000 A 
ENDBRANCH  62  75
ENDBRANCH  36  37
ENDBRANCH  29  31
ENDBRANCH  28  29
ENDBRANCH  27  28
ENDBRANCH  26  27
ENDBRANCH  25  26
ENDBRANCH   1  25
TORSDOF 18
ENDMDL
MODEL 3
REMARK VINA RESULT:     -10.5      2.044      3.940
REMARK SMILES C[N@H+]1CCO[C@@H](CNC(=O)c2cccn2CC(=O)OCCOCCOC(=O)c2ccc(-c3c4nc(c(-c5ccccc5)c5ccc([nH]5)c(-c5ccccc5)c5nc(c(-c6ccccc6)c6ccc3[nH]6)C=C5)C=C4)cc2)C1
REMARK SMILES IDX 21 1 20 2 19 3 17 4 18 5 16 6 15 7 11 8 12 9 13 10 14 11
REMARK SMILES IDX 9 12 8 13 10 15 7 16 6 17 1 18 2 19 3 20 76 21 4 23 5 24
REMARK SMILES IDX 22 25 23 26 24 27 25 28 26 29 27 30 28 31 29 32 75 33 30 34
REMARK SMILES IDX 74 35 31 36 32 37 33 38 68 39 34 40 73 41 67 42 69 43 35 44
REMARK SMILES IDX 72 45 66 46 65 47 36 49 58 50 43 51 57 52 44 53 47 54 56 55
REMARK SMILES IDX 70 56 45 57 46 58 55 60 71 61 48 62 37 63 38 64 42 65 39 66
REMARK SMILES IDX 41 67 40 68 59 69 60 70 64 71 61 72 63 73 62 74 49 75 50 76
REMARK SMILES IDX 54 77 51 78 53 79 52 80
REMARK H PARENT 8 14 2 22 69 48 47 59
REMARK Flexibility Score: inf
ROOT
ATOM      1  C   UNL A   1      33.952  30.904  27.322  1.00  0.00     0.202 C 
ENDROOT
BRANCH   1   2
ATOM      2  C   UNL A   1      34.571  29.509  27.225  1.00  0.00     0.261 C 
BRANCH   2   3
ATOM      3  O   UNL A   1      33.685  28.482  27.711  1.00  0.00    -0.462 OA
BRANCH   3   4
ATOM      4  C   UNL A   1      32.677  28.135  26.866  1.00  0.00     0.326 C 
ATOM      5  O   UNL A   1      31.500  28.443  27.037  1.00  0.00    -0.250 OA
BRANCH   4   6
ATOM      6  C   UNL A   1      33.119  27.428  25.611  1.00  0.00     0.244 C 
BRANCH   6   7
ATOM      7  N   UNL A   1      32.082  26.804  24.790  1.00  0.00    -0.332 N 
ATOM      8  C   UNL A   1      31.643  27.245  23.555  1.00  0.00     0.107 A 
ATOM      9  C   UNL A   1      30.813  26.248  23.055  1.00  0.00     0.033 A 
ATOM     10  C   UNL A   1      30.716  25.220  24.015  1.00  0.00     0.020 A 
ATOM     11  C   UNL A   1      31.513  25.585  25.074  1.00  0.00     0.087 A 
BRANCH   8  12
ATOM     12  C   UNL A   1      32.072  28.470  22.920  1.00  0.00     0.268 C 
ATOM     13  N   UNL A   1      31.312  29.596  23.058  1.00  0.00    -0.348 N 
ATOM     14  H   UNL A   1      31.599  30.368  22.518  1.00  0.00     0.163 HD
ATOM     15  O   UNL A   1      33.113  28.560  22.268  1.00  0.00    -0.268 OA
BRANCH  13  16
ATOM     16  C   UNL A   1      30.137  29.816  23.884  1.00  0.00     0.154 C 
BRANCH  16  17
ATOM     17  C   UNL A   1      28.799  29.621  23.148  1.00  0.00     0.192 C 
ATOM     18  C   UNL A   1      28.861  32.875  23.285  1.00  0.00     0.332 C 
ATOM     19  N   UNL A   1      27.901  31.976  22.662  1.00  0.00    -0.333 N 
ATOM     20  C   UNL A   1      28.210  31.697  21.249  1.00  0.00     0.290 C 
ATOM     21  C   UNL A   1      27.717  30.702  23.376  1.00  0.00     0.296 C 
ATOM     22  H   UNL A   1      27.023  32.490  22.715  1.00  0.00     0.348 HD
ATOM     23  C   UNL A   1      29.309  30.642  21.041  1.00  0.00     0.222 C 
ATOM     24  O   UNL A   1      29.029  29.418  21.737  1.00  0.00    -0.365 OA
ENDBRANCH  16  17
ENDBRANCH  13  16
ENDBRANCH   8  12
ENDBRANCH   6   7
ENDBRANCH   4   6
ENDBRANCH   3   4
ENDBRANCH   2   3
ENDBRANCH   1   2
BRANCH   1  25
ATOM     25  O   UNL A   1      34.464  31.779  28.325  1.00  0.00    -0.374 OA
BRANCH  25  26
ATOM     26  C   UNL A   1      35.645  32.528  28.059  1.00  0.00     0.202 C 
BRANCH  26  27
ATOM     27  C   UNL A   1      36.873  32.236  28.912  1.00  0.00     0.261 C 
BRANCH  27  28
ATOM     28  O   UNL A   1      37.579  31.079  28.478  1.00  0.00    -0.460 OA
BRANCH  28  29
ATOM     29  C   UNL A   1      37.684  30.126  29.422  1.00  0.00     0.338 C 
ATOM     30  O   UNL A   1      37.263  30.179  30.578  1.00  0.00    -0.246 OA
BRANCH  29  31
ATOM     31  C   UNL A   1      38.541  29.042  28.945  1.00  0.00     0.060 A 
ATOM     32  C   UNL A   1      39.305  28.399  29.923  1.00  0.00     0.016 A 
ATOM     33  C   UNL A   1      38.822  28.915  27.576  1.00  0.00     0.016 A 
ATOM     34  C   UNL A   1      40.489  27.812  29.547  1.00  0.00     0.010 A 
ATOM     35  C   UNL A   1      40.023  28.352  27.202  1.00  0.00     0.010 A 
ATOM     36  C   UNL A   1      40.872  27.872  28.203  1.00  0.00    -0.014 A 
BRANCH  36  37
ATOM     37  C   UNL A   1      42.207  27.371  27.876  1.00  0.00     0.031 A 
ATOM     38  C   UNL A   1      43.188  28.508  27.677  1.00  0.00     0.074 A 
ATOM     39  C   UNL A   1      42.304  26.022  27.697  1.00  0.00     0.049 A 
ATOM     40  N   UNL A   1      44.234  28.556  26.920  1.00  0.00    -0.248 NA
ATOM     41  C   UNL A   1      42.925  29.809  28.349  1.00  0.00     0.031 C 
ATOM     42  C   UNL A   1      41.199  25.062  27.929  1.00  0.00     0.029 A 
ATOM     43  N   UNL A   1      43.310  25.186  27.269  1.00  0.00    -0.354 N 
ATOM     44  C   UNL A   1      44.836  29.806  27.131  1.00  0.00     0.074 A 
ATOM     45  C   UNL A   1      43.935  30.573  27.936  1.00  0.00     0.031 C 
ATOM     46  C   UNL A   1      41.568  23.813  27.578  1.00  0.00     0.029 A 
ATOM     47  C   UNL A   1      42.935  23.834  27.095  1.00  0.00     0.049 A 
ATOM     48  H   UNL A   1      44.224  25.507  27.097  1.00  0.00     0.167 HD
ATOM     49  C   UNL A   1      46.103  30.099  26.734  1.00  0.00     0.031 A 
ATOM     50  C   UNL A   1      43.655  22.807  26.553  1.00  0.00     0.031 A 
ATOM     51  C   UNL A   1      46.669  29.037  25.974  1.00  0.00     0.049 A 
ATOM     52  C   UNL A   1      44.990  23.350  26.243  1.00  0.00     0.074 A 
ATOM     53  C   UNL A   1      46.446  28.569  24.704  1.00  0.00     0.029 A 
ATOM     54  N   UNL A   1      47.375  28.086  26.671  1.00  0.00    -0.354 N 
ATOM     55  N   UNL A   1      45.889  23.668  27.121  1.00  0.00    -0.248 NA
ATOM     56  C   UNL A   1      45.335  23.631  24.844  1.00  0.00     0.031 C 
ATOM     57  C   UNL A   1      46.649  27.171  24.805  1.00  0.00     0.029 A 
ATOM     58  C   UNL A   1      47.080  26.869  26.100  1.00  0.00     0.049 A 
ATOM     59  H   UNL A   1      47.976  28.246  27.434  1.00  0.00     0.167 HD
ATOM     60  C   UNL A   1      46.709  24.521  26.421  1.00  0.00     0.074 A 
ATOM     61  C   UNL A   1      46.516  24.219  25.021  1.00  0.00     0.031 C 
ATOM     62  C   UNL A   1      47.071  25.711  26.967  1.00  0.00     0.031 A 
BRANCH  49  63
ATOM     63  C   UNL A   1      46.986  31.219  27.183  1.00  0.00    -0.014 A 
ATOM     64  C   UNL A   1      47.571  31.120  28.462  1.00  0.00     0.009 A 
ATOM     65  C   UNL A   1      47.031  32.465  26.543  1.00  0.00     0.009 A 
ATOM     66  C   UNL A   1      48.104  32.236  29.109  1.00  0.00     0.001 A 
ATOM     67  C   UNL A   1      47.597  33.577  27.177  1.00  0.00     0.001 A 
ATOM     68  C   UNL A   1      48.106  33.469  28.469  1.00  0.00     0.000 A 
ENDBRANCH  49  63
BRANCH  50  69
ATOM     69  C   UNL A   1      43.395  21.385  26.133  1.00  0.00    -0.014 A 
ATOM     70  C   UNL A   1      44.259  20.580  25.386  1.00  0.00     0.009 A 
ATOM     71  C   UNL A   1      42.201  20.752  26.575  1.00  0.00     0.009 A 
ATOM     72  C   UNL A   1      43.986  19.213  25.170  1.00  0.00     0.001 A 
ATOM     73  C   UNL A   1      41.943  19.390  26.400  1.00  0.00     0.001 A 
ATOM     74  C   UNL A   1      42.848  18.613  25.702  1.00  0.00     0.000 A 
ENDBRANCH  50  69
BRANCH  62  75
ATOM     75  C   UNL A   1      46.944  25.773  28.482  1.00  0.00    -0.014 A 
ATOM     76  C   UNL A   1      45.738  26.154  29.087  1.00  0.00     0.009 A 
ATOM     77  C   UNL A   1      48.049  25.579  29.329  1.00  0.00     0.009 A 
ATOM     78  C   UNL A   1      45.652  26.348  30.474  1.00  0.00     0.001 A 
ATOM     79  C   UNL A   1      47.971  25.767  30.713  1.00  0.00     0.001 A 
ATOM     80  C   UNL A   1      46.768  26.158  31.287  1.00  0.00     0.000 A 
ENDBRANCH  62  75
ENDBRANCH  36  37
ENDBRANCH  29  31
ENDBRANCH  28  29
ENDBRANCH  27  28
ENDBRANCH  26  27
ENDBRANCH  25  26
ENDBRANCH   1  25
TORSDOF 18
ENDMDL
