MODEL 1
REMARK VINA RESULT:     -10.8      0.000      0.000
REMARK SMILES C[C@H](C(=O)OCCOCCOC(=O)c1ccc(-c2c3nc(c(-c4ccccc4)c4ccc([nH]4)c(-c4ccccc4)c4nc(c(-c5ccccc5)c5ccc2[nH]5)C=C4)C=C3)cc1)c1ccc2c(c1)[nH]c1ccc(Cl)cc12
REMARK SMILES IDX 9 1 8 2 7 3 6 4 5 5 3 6 4 7 2 8 1 9 62 10 63 11 67 12 64 13
REMARK SMILES IDX 66 14 65 15 68 16 75 17 69 18 74 20 70 21 72 22 71 23 73 24
REMARK SMILES IDX 10 25 11 26 12 27 13 28 14 29 15 30 61 31 16 32 60 33 17 34
REMARK SMILES IDX 18 35 19 36 54 37 20 38 59 39 53 40 55 41 21 42 58 43 52 44
REMARK SMILES IDX 51 45 22 47 44 48 29 49 43 50 30 51 33 52 42 53 56 54 31 55
REMARK SMILES IDX 32 56 41 58 57 59 34 60 23 61 24 62 28 63 25 64 27 65 26 66
REMARK SMILES IDX 45 67 46 68 50 69 47 70 49 71 48 72 35 73 36 74 40 75 37 76
REMARK SMILES IDX 39 77 38 78
REMARK H PARENT 68 19 55 46 33 57
REMARK Flexibility Score: inf
ROOT
ATOM      1  C   UNL A   1      35.928  20.796  25.022  1.00  0.00     0.202 C 
ENDROOT
BRANCH   1   2
ATOM      2  O   UNL A   1      35.657  21.945  24.220  1.00  0.00    -0.374 OA
BRANCH   2   3
ATOM      3  C   UNL A   1      35.527  23.198  24.890  1.00  0.00     0.202 C 
BRANCH   3   4
ATOM      4  C   UNL A   1      35.147  24.409  24.033  1.00  0.00     0.261 C 
BRANCH   4   5
ATOM      5  O   UNL A   1      34.301  25.338  24.734  1.00  0.00    -0.463 OA
BRANCH   5   6
ATOM      6  C   UNL A   1      33.238  25.802  24.024  1.00  0.00     0.313 C 
ATOM      7  O   UNL A   1      33.317  26.677  23.164  1.00  0.00    -0.252 OA
BRANCH   6   8
ATOM      8  C   UNL A   1      31.909  25.141  24.360  1.00  0.00     0.126 C 
ATOM      9  C   UNL A   1      30.850  25.624  23.358  1.00  0.00     0.025 C 
BRANCH   8  10
ATOM     10  C   UNL A   1      31.883  23.627  24.562  1.00  0.00    -0.032 A 
ATOM     11  C   UNL A   1      32.031  23.019  25.820  1.00  0.00     0.005 A 
ATOM     12  C   UNL A   1      31.822  22.809  23.419  1.00  0.00     0.031 A 
ATOM     13  C   UNL A   1      32.161  21.628  25.960  1.00  0.00     0.011 A 
ATOM     14  C   UNL A   1      32.030  21.431  23.570  1.00  0.00     0.047 A 
ATOM     15  C   UNL A   1      32.204  20.819  24.809  1.00  0.00     0.007 A 
ATOM     16  N   UNL A   1      32.156  20.451  22.615  1.00  0.00    -0.355 N 
ATOM     17  C   UNL A   1      32.456  19.429  24.571  1.00  0.00     0.009 A 
ATOM     18  C   UNL A   1      32.492  19.248  23.188  1.00  0.00     0.047 A 
ATOM     19  H   UNL A   1      32.022  20.592  21.650  1.00  0.00     0.167 HD
ATOM     20  C   UNL A   1      32.720  18.319  25.401  1.00  0.00     0.031 A 
ATOM     21  C   UNL A   1      32.832  18.031  22.586  1.00  0.00     0.028 A 
ATOM     22  C   UNL A   1      33.049  17.094  24.812  1.00  0.00     0.041 A 
ATOM     23  C   UNL A   1      33.122  16.954  23.428  1.00  0.00     0.022 A 
ATOM     24  Cl  UNL A   1      33.387  15.736  25.817  1.00  0.00    -0.084 Cl
ENDBRANCH   8  10
ENDBRANCH   6   8
ENDBRANCH   5   6
ENDBRANCH   4   5
ENDBRANCH   3   4
ENDBRANCH   2   3
ENDBRANCH   1   2
BRANCH   1  25
ATOM     25  C   UNL A   1      37.370  20.273  25.025  1.00  0.00     0.261 C 
BRANCH  25  26
ATOM     26  O   UNL A   1      38.336  21.335  25.126  1.00  0.00    -0.460 OA
BRANCH  26  27
ATOM     27  C   UNL A   1      39.331  21.110  26.014  1.00  0.00     0.338 C 
ATOM     28  O   UNL A   1      39.971  20.074  26.164  1.00  0.00    -0.246 OA
BRANCH  27  29
ATOM     29  C   UNL A   1      39.709  22.356  26.704  1.00  0.00     0.060 A 
ATOM     30  C   UNL A   1      39.043  23.528  26.321  1.00  0.00     0.016 A 
ATOM     31  C   UNL A   1      40.761  22.405  27.620  1.00  0.00     0.016 A 
ATOM     32  C   UNL A   1      39.470  24.762  26.802  1.00  0.00     0.010 A 
ATOM     33  C   UNL A   1      41.195  23.649  28.094  1.00  0.00     0.010 A 
ATOM     34  C   UNL A   1      40.579  24.834  27.654  1.00  0.00    -0.014 A 
BRANCH  34  35
ATOM     35  C   UNL A   1      41.179  26.159  27.946  1.00  0.00     0.031 A 
ATOM     36  C   UNL A   1      42.514  26.508  27.345  1.00  0.00     0.074 A 
ATOM     37  C   UNL A   1      40.518  27.067  28.688  1.00  0.00     0.049 A 
ATOM     38  N   UNL A   1      43.207  27.614  27.449  1.00  0.00    -0.248 NA
ATOM     39  C   UNL A   1      43.150  25.474  26.511  1.00  0.00     0.031 C 
ATOM     40  C   UNL A   1      39.197  26.874  29.282  1.00  0.00     0.029 A 
ATOM     41  N   UNL A   1      40.874  28.339  29.060  1.00  0.00    -0.354 N 
ATOM     42  C   UNL A   1      44.360  27.407  26.702  1.00  0.00     0.074 A 
ATOM     43  C   UNL A   1      44.287  26.062  26.171  1.00  0.00     0.031 C 
ATOM     44  C   UNL A   1      38.851  27.991  29.944  1.00  0.00     0.029 A 
ATOM     45  C   UNL A   1      39.937  28.963  29.846  1.00  0.00     0.049 A 
ATOM     46  H   UNL A   1      41.720  28.763  28.790  1.00  0.00     0.167 HD
ATOM     47  C   UNL A   1      45.387  28.259  26.473  1.00  0.00     0.031 A 
ATOM     48  C   UNL A   1      39.960  30.177  30.429  1.00  0.00     0.031 A 
ATOM     49  C   UNL A   1      45.470  29.593  27.006  1.00  0.00     0.049 A 
ATOM     50  C   UNL A   1      41.151  31.076  30.225  1.00  0.00     0.074 A 
ATOM     51  C   UNL A   1      46.463  30.538  26.814  1.00  0.00     0.029 A 
ATOM     52  N   UNL A   1      44.527  30.166  27.843  1.00  0.00    -0.354 N 
ATOM     53  N   UNL A   1      42.221  30.878  29.495  1.00  0.00    -0.248 NA
ATOM     54  C   UNL A   1      41.130  32.370  30.924  1.00  0.00     0.031 C 
ATOM     55  C   UNL A   1      46.146  31.665  27.580  1.00  0.00     0.029 A 
ATOM     56  C   UNL A   1      44.929  31.441  28.202  1.00  0.00     0.049 A 
ATOM     57  H   UNL A   1      43.694  29.732  28.138  1.00  0.00     0.167 HD
ATOM     58  C   UNL A   1      42.987  32.031  29.623  1.00  0.00     0.074 A 
ATOM     59  C   UNL A   1      42.253  32.927  30.492  1.00  0.00     0.031 C 
ATOM     60  C   UNL A   1      44.189  32.321  29.069  1.00  0.00     0.031 A 
BRANCH  47  61
ATOM     61  C   UNL A   1      46.529  27.758  25.633  1.00  0.00    -0.014 A 
ATOM     62  C   UNL A   1      47.582  27.021  26.197  1.00  0.00     0.009 A 
ATOM     63  C   UNL A   1      46.533  28.001  24.251  1.00  0.00     0.009 A 
ATOM     64  C   UNL A   1      48.631  26.562  25.397  1.00  0.00     0.001 A 
ATOM     65  C   UNL A   1      47.569  27.520  23.449  1.00  0.00     0.001 A 
ATOM     66  C   UNL A   1      48.621  26.809  24.025  1.00  0.00     0.000 A 
ENDBRANCH  47  61
BRANCH  48  67
ATOM     67  C   UNL A   1      38.825  30.615  31.281  1.00  0.00    -0.014 A 
ATOM     68  C   UNL A   1      37.748  31.326  30.731  1.00  0.00     0.009 A 
ATOM     69  C   UNL A   1      38.826  30.342  32.658  1.00  0.00     0.009 A 
ATOM     70  C   UNL A   1      36.706  31.775  31.548  1.00  0.00     0.001 A 
ATOM     71  C   UNL A   1      37.769  30.768  33.467  1.00  0.00     0.001 A 
ATOM     72  C   UNL A   1      36.716  31.492  32.913  1.00  0.00     0.000 A 
ENDBRANCH  48  67
BRANCH  60  73
ATOM     73  C   UNL A   1      44.771  33.677  29.356  1.00  0.00    -0.014 A 
ATOM     74  C   UNL A   1      45.696  33.868  30.393  1.00  0.00     0.009 A 
ATOM     75  C   UNL A   1      44.418  34.769  28.548  1.00  0.00     0.009 A 
ATOM     76  C   UNL A   1      46.232  35.134  30.635  1.00  0.00     0.001 A 
ATOM     77  C   UNL A   1      44.975  36.028  28.774  1.00  0.00     0.001 A 
ATOM     78  C   UNL A   1      45.876  36.212  29.823  1.00  0.00     0.000 A 
ENDBRANCH  60  73
ENDBRANCH  34  35
ENDBRANCH  27  29
ENDBRANCH  26  27
ENDBRANCH  25  26
ENDBRANCH   1  25
TORSDOF 15
ENDMDL
MODEL 2
REMARK VINA RESULT:     -10.7      0.408      5.960
REMARK SMILES C[C@H](C(=O)OCCOCCOC(=O)c1ccc(-c2c3nc(c(-c4ccccc4)c4ccc([nH]4)c(-c4ccccc4)c4nc(c(-c5ccccc5)c5ccc2[nH]5)C=C4)C=C3)cc1)c1ccc2c(c1)[nH]c1ccc(Cl)cc12
REMARK SMILES IDX 9 1 8 2 7 3 6 4 5 5 3 6 4 7 2 8 1 9 62 10 63 11 67 12 64 13
REMARK SMILES IDX 66 14 65 15 68 16 75 17 69 18 74 20 70 21 72 22 71 23 73 24
REMARK SMILES IDX 10 25 11 26 12 27 13 28 14 29 15 30 61 31 16 32 60 33 17 34
REMARK SMILES IDX 18 35 19 36 54 37 20 38 59 39 53 40 55 41 21 42 58 43 52 44
REMARK SMILES IDX 51 45 22 47 44 48 29 49 43 50 30 51 33 52 42 53 56 54 31 55
REMARK SMILES IDX 32 56 41 58 57 59 34 60 23 61 24 62 28 63 25 64 27 65 26 66
REMARK SMILES IDX 45 67 46 68 50 69 47 70 49 71 48 72 35 73 36 74 40 75 37 76
REMARK SMILES IDX 39 77 38 78
REMARK H PARENT 68 19 55 46 33 57
REMARK Flexibility Score: inf
ROOT
ATOM      1  C   UNL A   1      35.779  20.665  25.084  1.00  0.00     0.202 C 
ENDROOT
BRANCH   1   2
ATOM      2  O   UNL A   1      35.527  21.970  24.563  1.00  0.00    -0.374 OA
BRANCH   2   3
ATOM      3  C   UNL A   1      35.399  23.037  25.500  1.00  0.00     0.202 C 
BRANCH   3   4
ATOM      4  C   UNL A   1      35.422  24.462  24.940  1.00  0.00     0.261 C 
BRANCH   4   5
ATOM      5  O   UNL A   1      34.267  25.228  25.327  1.00  0.00    -0.463 OA
BRANCH   5   6
ATOM      6  C   UNL A   1      33.425  25.560  24.312  1.00  0.00     0.313 C 
ATOM      7  O   UNL A   1      33.732  26.302  23.381  1.00  0.00    -0.252 OA
BRANCH   6   8
ATOM      8  C   UNL A   1      32.045  24.924  24.394  1.00  0.00     0.126 C 
ATOM      9  C   UNL A   1      31.196  25.433  23.219  1.00  0.00     0.025 C 
BRANCH   8  10
ATOM     10  C   UNL A   1      31.954  23.410  24.576  1.00  0.00    -0.032 A 
ATOM     11  C   UNL A   1      31.917  22.790  25.836  1.00  0.00     0.005 A 
ATOM     12  C   UNL A   1      32.025  22.601  23.427  1.00  0.00     0.031 A 
ATOM     13  C   UNL A   1      31.993  21.395  25.979  1.00  0.00     0.011 A 
ATOM     14  C   UNL A   1      32.175  21.217  23.591  1.00  0.00     0.047 A 
ATOM     15  C   UNL A   1      32.167  20.593  24.835  1.00  0.00     0.007 A 
ATOM     16  N   UNL A   1      32.402  20.241  22.651  1.00  0.00    -0.355 N 
ATOM     17  C   UNL A   1      32.414  19.198  24.619  1.00  0.00     0.009 A 
ATOM     18  C   UNL A   1      32.628  19.025  23.251  1.00  0.00     0.047 A 
ATOM     19  H   UNL A   1      32.401  20.391  21.678  1.00  0.00     0.167 HD
ATOM     20  C   UNL A   1      32.536  18.076  25.466  1.00  0.00     0.031 A 
ATOM     21  C   UNL A   1      33.015  17.803  22.687  1.00  0.00     0.028 A 
ATOM     22  C   UNL A   1      32.909  16.847  24.913  1.00  0.00     0.041 A 
ATOM     23  C   UNL A   1      33.162  16.714  23.550  1.00  0.00     0.022 A 
ATOM     24  Cl  UNL A   1      33.076  15.474  25.941  1.00  0.00    -0.084 Cl
ENDBRANCH   8  10
ENDBRANCH   6   8
ENDBRANCH   5   6
ENDBRANCH   4   5
ENDBRANCH   3   4
ENDBRANCH   2   3
ENDBRANCH   1   2
BRANCH   1  25
ATOM     25  C   UNL A   1      37.225  20.157  25.021  1.00  0.00     0.261 C 
BRANCH  25  26
ATOM     26  O   UNL A   1      38.184  21.225  25.125  1.00  0.00    -0.460 OA
BRANCH  26  27
ATOM     27  C   UNL A   1      39.190  20.996  25.998  1.00  0.00     0.338 C 
ATOM     28  O   UNL A   1      39.777  19.935  26.194  1.00  0.00    -0.246 OA
BRANCH  27  29
ATOM     29  C   UNL A   1      39.657  22.256  26.601  1.00  0.00     0.060 A 
ATOM     30  C   UNL A   1      39.054  23.440  26.158  1.00  0.00     0.016 A 
ATOM     31  C   UNL A   1      40.731  22.297  27.493  1.00  0.00     0.016 A 
ATOM     32  C   UNL A   1      39.564  24.674  26.553  1.00  0.00     0.010 A 
ATOM     33  C   UNL A   1      41.249  23.540  27.880  1.00  0.00     0.010 A 
ATOM     34  C   UNL A   1      40.694  24.731  27.378  1.00  0.00    -0.014 A 
BRANCH  34  35
ATOM     35  C   UNL A   1      41.378  26.033  27.575  1.00  0.00     0.031 A 
ATOM     36  C   UNL A   1      40.733  27.072  28.453  1.00  0.00     0.074 A 
ATOM     37  C   UNL A   1      42.585  26.268  27.030  1.00  0.00     0.049 A 
ATOM     38  N   UNL A   1      41.165  28.264  28.780  1.00  0.00    -0.248 NA
ATOM     39  C   UNL A   1      39.432  26.719  29.044  1.00  0.00     0.031 C 
ATOM     40  C   UNL A   1      43.340  25.325  26.207  1.00  0.00     0.029 A 
ATOM     41  N   UNL A   1      43.391  27.377  27.100  1.00  0.00    -0.354 N 
ATOM     42  C   UNL A   1      40.188  28.804  29.608  1.00  0.00     0.074 A 
ATOM     43  C   UNL A   1      39.130  27.822  29.712  1.00  0.00     0.031 C 
ATOM     44  C   UNL A   1      44.501  25.897  25.847  1.00  0.00     0.029 A 
ATOM     45  C   UNL A   1      44.558  27.253  26.389  1.00  0.00     0.049 A 
ATOM     46  H   UNL A   1      43.153  28.185  27.609  1.00  0.00     0.167 HD
ATOM     47  C   UNL A   1      40.173  30.007  30.230  1.00  0.00     0.031 A 
ATOM     48  C   UNL A   1      45.554  28.137  26.189  1.00  0.00     0.031 A 
ATOM     49  C   UNL A   1      41.216  30.991  30.122  1.00  0.00     0.049 A 
ATOM     50  C   UNL A   1      45.476  29.499  26.826  1.00  0.00     0.074 A 
ATOM     51  C   UNL A   1      41.299  32.232  30.729  1.00  0.00     0.029 A 
ATOM     52  N   UNL A   1      42.356  30.848  29.347  1.00  0.00    -0.354 N 
ATOM     53  N   UNL A   1      44.559  29.985  27.628  1.00  0.00    -0.248 NA
ATOM     54  C   UNL A   1      46.575  30.430  26.533  1.00  0.00     0.031 C 
ATOM     55  C   UNL A   1      42.464  32.862  30.279  1.00  0.00     0.029 A 
ATOM     56  C   UNL A   1      43.133  31.990  29.436  1.00  0.00     0.049 A 
ATOM     57  H   UNL A   1      42.580  30.051  28.813  1.00  0.00     0.167 HD
ATOM     58  C   UNL A   1      44.985  31.267  27.957  1.00  0.00     0.074 A 
ATOM     59  C   UNL A   1      46.246  31.477  27.278  1.00  0.00     0.031 C 
ATOM     60  C   UNL A   1      44.385  32.186  28.753  1.00  0.00     0.031 A 
BRANCH  47  61
ATOM     61  C   UNL A   1      38.964  30.342  31.059  1.00  0.00    -0.014 A 
ATOM     62  C   UNL A   1      37.830  30.940  30.488  1.00  0.00     0.009 A 
ATOM     63  C   UNL A   1      38.950  30.025  32.426  1.00  0.00     0.009 A 
ATOM     64  C   UNL A   1      36.717  31.240  31.276  1.00  0.00     0.001 A 
ATOM     65  C   UNL A   1      37.828  30.303  33.207  1.00  0.00     0.001 A 
ATOM     66  C   UNL A   1      36.716  30.917  32.634  1.00  0.00     0.000 A 
ENDBRANCH  47  61
BRANCH  48  67
ATOM     67  C   UNL A   1      46.712  27.775  25.331  1.00  0.00    -0.014 A 
ATOM     68  C   UNL A   1      47.864  27.199  25.887  1.00  0.00     0.009 A 
ATOM     69  C   UNL A   1      46.676  28.023  23.951  1.00  0.00     0.009 A 
ATOM     70  C   UNL A   1      48.967  26.904  25.081  1.00  0.00     0.001 A 
ATOM     71  C   UNL A   1      47.768  27.701  23.143  1.00  0.00     0.001 A 
ATOM     72  C   UNL A   1      48.916  27.151  23.710  1.00  0.00     0.000 A 
ENDBRANCH  48  67
BRANCH  60  73
ATOM     73  C   UNL A   1      45.103  33.490  28.961  1.00  0.00    -0.014 A 
ATOM     74  C   UNL A   1      44.855  34.597  28.137  1.00  0.00     0.009 A 
ATOM     75  C   UNL A   1      46.007  33.622  30.027  1.00  0.00     0.009 A 
ATOM     76  C   UNL A   1      45.525  35.803  28.356  1.00  0.00     0.001 A 
ATOM     77  C   UNL A   1      46.655  34.835  30.260  1.00  0.00     0.001 A 
ATOM     78  C   UNL A   1      46.420  35.922  29.420  1.00  0.00     0.000 A 
ENDBRANCH  60  73
ENDBRANCH  34  35
ENDBRANCH  27  29
ENDBRANCH  26  27
ENDBRANCH  25  26
ENDBRANCH   1  25
TORSDOF 15
ENDMDL
MODEL 3
REMARK VINA RESULT:     -10.6      2.656      4.494
REMARK SMILES C[C@H](C(=O)OCCOCCOC(=O)c1ccc(-c2c3nc(c(-c4ccccc4)c4ccc([nH]4)c(-c4ccccc4)c4nc(c(-c5ccccc5)c5ccc2[nH]5)C=C4)C=C3)cc1)c1ccc2c(c1)[nH]c1ccc(Cl)cc12
REMARK SMILES IDX 9 1 8 2 7 3 6 4 5 5 3 6 4 7 2 8 1 9 62 10 63 11 67 12 64 13
REMARK SMILES IDX 66 14 65 15 68 16 75 17 69 18 74 20 70 21 72 22 71 23 73 24
REMARK SMILES IDX 10 25 11 26 12 27 13 28 14 29 15 30 61 31 16 32 60 33 17 34
REMARK SMILES IDX 18 35 19 36 54 37 20 38 59 39 53 40 55 41 21 42 58 43 52 44
REMARK SMILES IDX 51 45 22 47 44 48 29 49 43 50 30 51 33 52 42 53 56 54 31 55
REMARK SMILES IDX 32 56 41 58 57 59 34 60 23 61 24 62 28 63 25 64 27 65 26 66
REMARK SMILES IDX 45 67 46 68 50 69 47 70 49 71 48 72 35 73 36 74 40 75 37 76
REMARK SMILES IDX 39 77 38 78
REMARK H PARENT 68 19 55 46 33 57
REMARK Flexibility Score: inf
ROOT
ATOM      1  C   UNL A   1      35.849  21.014  24.757  1.00  0.00     0.202 C 
ENDROOT
BRANCH   1   2
ATOM      2  O   UNL A   1      34.984  19.887  24.621  1.00  0.00    -0.374 OA
BRANCH   2   3
ATOM      3  C   UNL A   1      33.776  19.890  25.378  1.00  0.00     0.202 C 
BRANCH   3   4
ATOM      4  C   UNL A   1      32.468  20.067  24.601  1.00  0.00     0.261 C 
BRANCH   4   5
ATOM      5  O   UNL A   1      31.636  21.107  25.147  1.00  0.00    -0.463 OA
BRANCH   5   6
ATOM      6  C   UNL A   1      31.639  22.275  24.452  1.00  0.00     0.313 C 
ATOM      7  O   UNL A   1      32.097  22.398  23.318  1.00  0.00    -0.252 OA
BRANCH   6   8
ATOM      8  C   UNL A   1      31.007  23.452  25.181  1.00  0.00     0.126 C 
ATOM      9  C   UNL A   1      30.403  22.949  26.501  1.00  0.00     0.025 C 
BRANCH   8  10
ATOM     10  C   UNL A   1      31.835  24.725  25.358  1.00  0.00    -0.032 A 
ATOM     11  C   UNL A   1      33.206  24.711  25.658  1.00  0.00     0.005 A 
ATOM     12  C   UNL A   1      31.161  25.960  25.329  1.00  0.00     0.031 A 
ATOM     13  C   UNL A   1      33.909  25.887  25.971  1.00  0.00     0.011 A 
ATOM     14  C   UNL A   1      31.860  27.112  25.717  1.00  0.00     0.047 A 
ATOM     15  C   UNL A   1      33.213  27.108  26.042  1.00  0.00     0.007 A 
ATOM     16  N   UNL A   1      31.403  28.395  25.905  1.00  0.00    -0.355 N 
ATOM     17  C   UNL A   1      33.562  28.436  26.452  1.00  0.00     0.009 A 
ATOM     18  C   UNL A   1      32.392  29.196  26.424  1.00  0.00     0.047 A 
ATOM     19  H   UNL A   1      30.491  28.699  25.695  1.00  0.00     0.167 HD
ATOM     20  C   UNL A   1      34.750  29.048  26.903  1.00  0.00     0.031 A 
ATOM     21  C   UNL A   1      32.330  30.519  26.876  1.00  0.00     0.028 A 
ATOM     22  C   UNL A   1      34.705  30.374  27.345  1.00  0.00     0.041 A 
ATOM     23  C   UNL A   1      33.512  31.094  27.349  1.00  0.00     0.022 A 
ATOM     24  Cl  UNL A   1      36.147  31.126  27.913  1.00  0.00    -0.084 Cl
ENDBRANCH   8  10
ENDBRANCH   6   8
ENDBRANCH   5   6
ENDBRANCH   4   5
ENDBRANCH   3   4
ENDBRANCH   2   3
ENDBRANCH   1   2
BRANCH   1  25
ATOM     25  C   UNL A   1      37.008  20.885  25.753  1.00  0.00     0.261 C 
BRANCH  25  26
ATOM     26  O   UNL A   1      38.185  21.590  25.317  1.00  0.00    -0.460 OA
BRANCH  26  27
ATOM     27  C   UNL A   1      39.281  21.386  26.081  1.00  0.00     0.338 C 
ATOM     28  O   UNL A   1      39.977  20.377  26.126  1.00  0.00    -0.246 OA
BRANCH  27  29
ATOM     29  C   UNL A   1      39.681  22.628  26.764  1.00  0.00     0.060 A 
ATOM     30  C   UNL A   1      39.003  23.802  26.409  1.00  0.00     0.016 A 
ATOM     31  C   UNL A   1      40.763  22.673  27.646  1.00  0.00     0.016 A 
ATOM     32  C   UNL A   1      39.445  25.034  26.882  1.00  0.00     0.010 A 
ATOM     33  C   UNL A   1      41.212  23.915  28.112  1.00  0.00     0.010 A 
ATOM     34  C   UNL A   1      40.582  25.103  27.698  1.00  0.00    -0.014 A 
BRANCH  34  35
ATOM     35  C   UNL A   1      41.190  26.426  27.977  1.00  0.00     0.031 A 
ATOM     36  C   UNL A   1      42.515  26.771  27.351  1.00  0.00     0.074 A 
ATOM     37  C   UNL A   1      40.547  27.336  28.731  1.00  0.00     0.049 A 
ATOM     38  N   UNL A   1      43.213  27.874  27.440  1.00  0.00    -0.248 NA
ATOM     39  C   UNL A   1      43.132  25.734  26.506  1.00  0.00     0.031 C 
ATOM     40  C   UNL A   1      39.236  27.148  29.350  1.00  0.00     0.029 A 
ATOM     41  N   UNL A   1      40.912  28.608  29.094  1.00  0.00    -0.354 N 
ATOM     42  C   UNL A   1      44.351  27.663  26.672  1.00  0.00     0.074 A 
ATOM     43  C   UNL A   1      44.264  26.319  26.144  1.00  0.00     0.031 C 
ATOM     44  C   UNL A   1      38.906  28.266  30.017  1.00  0.00     0.029 A 
ATOM     45  C   UNL A   1      39.993  29.236  29.897  1.00  0.00     0.049 A 
ATOM     46  H   UNL A   1      41.755  29.029  28.808  1.00  0.00     0.167 HD
ATOM     47  C   UNL A   1      45.375  28.513  26.422  1.00  0.00     0.031 A 
ATOM     48  C   UNL A   1      40.030  30.450  30.478  1.00  0.00     0.031 A 
ATOM     49  C   UNL A   1      45.473  29.847  26.952  1.00  0.00     0.049 A 
ATOM     50  C   UNL A   1      41.219  31.346  30.251  1.00  0.00     0.074 A 
ATOM     51  C   UNL A   1      46.464  30.790  26.740  1.00  0.00     0.029 A 
ATOM     52  N   UNL A   1      44.547  30.424  27.806  1.00  0.00    -0.354 N 
ATOM     53  N   UNL A   1      42.275  31.143  29.500  1.00  0.00    -0.248 NA
ATOM     54  C   UNL A   1      41.215  32.640  30.949  1.00  0.00     0.031 C 
ATOM     55  C   UNL A   1      46.165  31.918  27.510  1.00  0.00     0.029 A 
ATOM     56  C   UNL A   1      44.959  31.698  28.156  1.00  0.00     0.049 A 
ATOM     57  H   UNL A   1      43.719  29.992  28.117  1.00  0.00     0.167 HD
ATOM     58  C   UNL A   1      43.046  32.295  29.613  1.00  0.00     0.074 A 
ATOM     59  C   UNL A   1      42.331  33.194  30.494  1.00  0.00     0.031 C 
ATOM     60  C   UNL A   1      44.238  32.581  29.035  1.00  0.00     0.031 A 
BRANCH  47  61
ATOM     61  C   UNL A   1      46.500  28.008  25.561  1.00  0.00    -0.014 A 
ATOM     62  C   UNL A   1      46.500  28.203  24.171  1.00  0.00     0.009 A 
ATOM     63  C   UNL A   1      47.591  27.355  26.156  1.00  0.00     0.009 A 
ATOM     64  C   UNL A   1      47.557  27.728  23.391  1.00  0.00     0.001 A 
ATOM     65  C   UNL A   1      48.657  26.903  25.379  1.00  0.00     0.001 A 
ATOM     66  C   UNL A   1      48.635  27.082  23.996  1.00  0.00     0.000 A 
ENDBRANCH  47  61
BRANCH  48  67
ATOM     67  C   UNL A   1      38.912  30.893  31.351  1.00  0.00    -0.014 A 
ATOM     68  C   UNL A   1      38.875  30.532  32.706  1.00  0.00     0.009 A 
ATOM     69  C   UNL A   1      37.864  31.663  30.825  1.00  0.00     0.009 A 
ATOM     70  C   UNL A   1      37.797  30.914  33.510  1.00  0.00     0.001 A 
ATOM     71  C   UNL A   1      36.802  32.067  31.637  1.00  0.00     0.001 A 
ATOM     72  C   UNL A   1      36.765  31.684  32.976  1.00  0.00     0.000 A 
ENDBRANCH  48  67
BRANCH  60  73
ATOM     73  C   UNL A   1      44.829  33.936  29.310  1.00  0.00    -0.014 A 
ATOM     74  C   UNL A   1      45.723  34.139  30.372  1.00  0.00     0.009 A 
ATOM     75  C   UNL A   1      44.518  35.013  28.465  1.00  0.00     0.009 A 
ATOM     76  C   UNL A   1      46.268  35.404  30.602  1.00  0.00     0.001 A 
ATOM     77  C   UNL A   1      45.085  36.269  28.680  1.00  0.00     0.001 A 
ATOM     78  C   UNL A   1      45.953  36.466  29.753  1.00  0.00     0.000 A 
ENDBRANCH  60  73
ENDBRANCH  34  35
ENDBRANCH  27  29
ENDBRANCH  26  27
ENDBRANCH  25  26
ENDBRANCH   1  25
TORSDOF 15
ENDMDL
