MODEL 1
REMARK VINA RESULT:     -10.2      0.000      0.000
REMARK SMILES C[C@H]1Cc2cc(C(=O)[C@H](Br)CC(=O)OCCOCCOC(=O)c3ccc(-c4c5nc(c(-c6ccccc6)c6ccc([nH]6)c(-c6ccccc6)c6nc(c(-c7ccccc7)c7ccc4[nH]7)C=C6)C=C5)cc3)ccc2O1
REMARK SMILES IDX 16 1 15 2 14 3 12 4 13 5 11 6 9 7 10 8 7 9 8 10 6 11 1 12
REMARK SMILES IDX 2 13 3 14 74 15 4 16 73 17 5 18 72 19 71 20 17 21 18 22
REMARK SMILES IDX 19 23 20 24 21 25 22 26 23 27 24 28 70 29 25 30 69 31 26 32
REMARK SMILES IDX 27 33 28 34 63 35 29 36 68 37 62 38 64 39 30 40 67 41 61 42
REMARK SMILES IDX 60 43 31 45 53 46 38 47 52 48 39 49 42 50 51 51 65 52 40 53
REMARK SMILES IDX 41 54 50 56 66 57 43 58 32 59 33 60 37 61 34 62 36 63 35 64
REMARK SMILES IDX 54 65 55 66 59 67 56 68 58 69 57 70 44 71 45 72 49 73 46 74
REMARK SMILES IDX 48 75 47 76
REMARK H PARENT 64 44 42 55
REMARK Flexibility Score: inf
ROOT
ATOM      1  C   UNL A   1      33.147  30.623  27.345  1.00  0.00     0.202 C 
ENDROOT
BRANCH   1   2
ATOM      2  C   UNL A   1      33.576  29.170  27.111  1.00  0.00     0.261 C 
BRANCH   2   3
ATOM      3  O   UNL A   1      32.436  28.346  26.794  1.00  0.00    -0.463 OA
BRANCH   3   4
ATOM      4  C   UNL A   1      32.632  27.199  26.099  1.00  0.00     0.307 C 
ATOM      5  O   UNL A   1      33.624  26.952  25.429  1.00  0.00    -0.252 OA
BRANCH   4   6
ATOM      6  C   UNL A   1      31.448  26.256  26.235  1.00  0.00     0.146 C 
BRANCH   6   7
ATOM      7  C   UNL A   1      31.414  25.092  25.241  1.00  0.00     0.140 C 
ATOM      8  Br  UNL A   1      30.854  23.439  26.072  1.00  0.00    -0.080 Br
BRANCH   7   9
ATOM      9  C   UNL A   1      30.732  25.490  23.932  1.00  0.00     0.177 C 
ATOM     10  O   UNL A   1      31.142  24.921  22.906  1.00  0.00    -0.293 OA
BRANCH   9  11
ATOM     11  C   UNL A   1      29.679  26.553  23.704  1.00  0.00     0.019 A 
ATOM     12  C   UNL A   1      27.856  31.978  22.902  1.00  0.00     0.053 C 
ATOM     13  C   UNL A   1      27.989  30.641  22.186  1.00  0.00     0.174 C 
ATOM     14  C   UNL A   1      29.431  30.093  22.192  1.00  0.00     0.084 C 
ATOM     15  O   UNL A   1      27.100  29.697  22.832  1.00  0.00    -0.490 OA
ATOM     16  C   UNL A   1      29.215  28.774  22.831  1.00  0.00    -0.001 A 
ATOM     17  C   UNL A   1      27.882  28.627  23.139  1.00  0.00     0.123 A 
ATOM     18  C   UNL A   1      30.124  27.759  23.111  1.00  0.00     0.019 A 
ATOM     19  C   UNL A   1      27.400  27.472  23.700  1.00  0.00     0.047 A 
ATOM     20  C   UNL A   1      28.301  26.434  23.962  1.00  0.00     0.015 A 
ENDBRANCH   9  11
ENDBRANCH   7   9
ENDBRANCH   6   7
ENDBRANCH   4   6
ENDBRANCH   3   4
ENDBRANCH   2   3
ENDBRANCH   1   2
BRANCH   1  21
ATOM     21  O   UNL A   1      31.922  31.009  26.722  1.00  0.00    -0.374 OA
BRANCH  21  22
ATOM     22  C   UNL A   1      31.554  32.382  26.837  1.00  0.00     0.202 C 
BRANCH  22  23
ATOM     23  C   UNL A   1      32.692  33.352  27.182  1.00  0.00     0.261 C 
BRANCH  23  24
ATOM     24  O   UNL A   1      32.324  34.256  28.241  1.00  0.00    -0.460 OA
BRANCH  24  25
ATOM     25  C   UNL A   1      33.321  35.051  28.697  1.00  0.00     0.338 C 
ATOM     26  O   UNL A   1      33.272  36.257  28.888  1.00  0.00    -0.246 OA
BRANCH  25  27
ATOM     27  C   UNL A   1      34.464  34.221  29.132  1.00  0.00     0.060 A 
ATOM     28  C   UNL A   1      35.771  34.467  28.707  1.00  0.00     0.016 A 
ATOM     29  C   UNL A   1      34.199  33.170  30.020  1.00  0.00     0.016 A 
ATOM     30  C   UNL A   1      36.816  33.670  29.195  1.00  0.00     0.010 A 
ATOM     31  C   UNL A   1      35.241  32.383  30.511  1.00  0.00     0.010 A 
ATOM     32  C   UNL A   1      36.562  32.637  30.119  1.00  0.00    -0.014 A 
BRANCH  32  33
ATOM     33  C   UNL A   1      37.684  31.918  30.780  1.00  0.00     0.031 A 
ATOM     34  C   UNL A   1      38.416  30.796  30.105  1.00  0.00     0.074 A 
ATOM     35  C   UNL A   1      38.010  32.262  32.042  1.00  0.00     0.049 A 
ATOM     36  N   UNL A   1      39.446  30.112  30.540  1.00  0.00    -0.248 NA
ATOM     37  C   UNL A   1      37.936  30.380  28.780  1.00  0.00     0.031 C 
ATOM     38  C   UNL A   1      37.349  33.311  32.820  1.00  0.00     0.029 A 
ATOM     39  N   UNL A   1      38.979  31.779  32.887  1.00  0.00    -0.354 N 
ATOM     40  C   UNL A   1      39.741  29.192  29.544  1.00  0.00     0.074 A 
ATOM     41  C   UNL A   1      38.756  29.375  28.498  1.00  0.00     0.031 C 
ATOM     42  C   UNL A   1      37.959  33.423  34.009  1.00  0.00     0.029 A 
ATOM     43  C   UNL A   1      39.025  32.428  34.099  1.00  0.00     0.049 A 
ATOM     44  H   UNL A   1      39.583  31.039  32.649  1.00  0.00     0.167 HD
ATOM     45  C   UNL A   1      40.751  28.289  29.503  1.00  0.00     0.031 A 
ATOM     46  C   UNL A   1      39.833  32.255  35.163  1.00  0.00     0.031 A 
ATOM     47  C   UNL A   1      41.721  28.102  30.554  1.00  0.00     0.049 A 
ATOM     48  C   UNL A   1      40.918  31.215  35.108  1.00  0.00     0.074 A 
ATOM     49  C   UNL A   1      42.817  27.255  30.564  1.00  0.00     0.029 A 
ATOM     50  N   UNL A   1      41.707  28.748  31.780  1.00  0.00    -0.354 N 
ATOM     51  N   UNL A   1      41.246  30.421  34.118  1.00  0.00    -0.248 NA
ATOM     52  C   UNL A   1      41.752  31.055  36.308  1.00  0.00     0.031 C 
ATOM     53  C   UNL A   1      43.411  27.321  31.825  1.00  0.00     0.029 A 
ATOM     54  C   UNL A   1      42.746  28.281  32.570  1.00  0.00     0.049 A 
ATOM     55  H   UNL A   1      41.056  29.435  32.050  1.00  0.00     0.167 HD
ATOM     56  C   UNL A   1      42.340  29.689  34.565  1.00  0.00     0.074 A 
ATOM     57  C   UNL A   1      42.629  30.144  35.908  1.00  0.00     0.031 C 
ATOM     58  C   UNL A   1      43.037  28.727  33.911  1.00  0.00     0.031 A 
BRANCH  45  59
ATOM     59  C   UNL A   1      40.885  27.417  28.280  1.00  0.00    -0.014 A 
ATOM     60  C   UNL A   1      41.581  27.892  27.156  1.00  0.00     0.009 A 
ATOM     61  C   UNL A   1      40.209  26.191  28.187  1.00  0.00     0.009 A 
ATOM     62  C   UNL A   1      41.577  27.173  25.959  1.00  0.00     0.001 A 
ATOM     63  C   UNL A   1      40.236  25.456  26.999  1.00  0.00     0.001 A 
ATOM     64  C   UNL A   1      40.908  25.953  25.884  1.00  0.00     0.000 A 
ENDBRANCH  45  59
BRANCH  46  65
ATOM     65  C   UNL A   1      39.668  33.137  36.349  1.00  0.00    -0.014 A 
ATOM     66  C   UNL A   1      40.377  34.345  36.451  1.00  0.00     0.009 A 
ATOM     67  C   UNL A   1      38.853  32.740  37.419  1.00  0.00     0.009 A 
ATOM     68  C   UNL A   1      40.302  35.117  37.613  1.00  0.00     0.001 A 
ATOM     69  C   UNL A   1      38.752  33.532  38.566  1.00  0.00     0.001 A 
ATOM     70  C   UNL A   1      39.487  34.712  38.667  1.00  0.00     0.000 A 
ENDBRANCH  46  65
BRANCH  58  71
ATOM     71  C   UNL A   1      44.204  28.086  34.615  1.00  0.00    -0.014 A 
ATOM     72  C   UNL A   1      43.988  26.978  35.454  1.00  0.00     0.009 A 
ATOM     73  C   UNL A   1      45.490  28.645  34.554  1.00  0.00     0.009 A 
ATOM     74  C   UNL A   1      45.023  26.465  36.239  1.00  0.00     0.001 A 
ATOM     75  C   UNL A   1      46.532  28.106  35.312  1.00  0.00     0.001 A 
ATOM     76  C   UNL A   1      46.295  27.028  36.164  1.00  0.00     0.000 A 
ENDBRANCH  58  71
ENDBRANCH  32  33
ENDBRANCH  25  27
ENDBRANCH  24  25
ENDBRANCH  23  24
ENDBRANCH  22  23
ENDBRANCH  21  22
ENDBRANCH   1  21
TORSDOF 17
ENDMDL
MODEL 2
REMARK VINA RESULT:     -10.1      0.823      6.017
REMARK SMILES C[C@H]1Cc2cc(C(=O)[C@H](Br)CC(=O)OCCOCCOC(=O)c3ccc(-c4c5nc(c(-c6ccccc6)c6ccc([nH]6)c(-c6ccccc6)c6nc(c(-c7ccccc7)c7ccc4[nH]7)C=C6)C=C5)cc3)ccc2O1
REMARK SMILES IDX 16 1 15 2 14 3 12 4 13 5 11 6 9 7 10 8 7 9 8 10 6 11 1 12
REMARK SMILES IDX 2 13 3 14 74 15 4 16 73 17 5 18 72 19 71 20 17 21 18 22
REMARK SMILES IDX 19 23 20 24 21 25 22 26 23 27 24 28 70 29 25 30 69 31 26 32
REMARK SMILES IDX 27 33 28 34 63 35 29 36 68 37 62 38 64 39 30 40 67 41 61 42
REMARK SMILES IDX 60 43 31 45 53 46 38 47 52 48 39 49 42 50 51 51 65 52 40 53
REMARK SMILES IDX 41 54 50 56 66 57 43 58 32 59 33 60 37 61 34 62 36 63 35 64
REMARK SMILES IDX 54 65 55 66 59 67 56 68 58 69 57 70 44 71 45 72 49 73 46 74
REMARK SMILES IDX 48 75 47 76
REMARK H PARENT 64 44 42 55
REMARK Flexibility Score: inf
ROOT
ATOM      1  C   UNL A   1      32.295  29.731  27.252  1.00  0.00     0.202 C 
ENDROOT
BRANCH   1   2
ATOM      2  C   UNL A   1      31.801  28.504  26.476  1.00  0.00     0.261 C 
BRANCH   2   3
ATOM      3  O   UNL A   1      32.565  27.334  26.834  1.00  0.00    -0.463 OA
BRANCH   3   4
ATOM      4  C   UNL A   1      32.123  26.118  26.429  1.00  0.00     0.307 C 
ATOM      5  O   UNL A   1      31.055  25.621  26.757  1.00  0.00    -0.252 OA
BRANCH   4   6
ATOM      6  C   UNL A   1      33.135  25.430  25.528  1.00  0.00     0.146 C 
BRANCH   6   7
ATOM      7  C   UNL A   1      32.562  24.789  24.261  1.00  0.00     0.140 C 
ATOM      8  Br  UNL A   1      31.381  23.312  24.660  1.00  0.00    -0.080 Br
BRANCH   7   9
ATOM      9  C   UNL A   1      32.064  25.844  23.272  1.00  0.00     0.177 C 
ATOM     10  O   UNL A   1      32.852  26.159  22.366  1.00  0.00    -0.293 OA
BRANCH   9  11
ATOM     11  C   UNL A   1      30.767  26.624  23.303  1.00  0.00     0.019 A 
ATOM     12  C   UNL A   1      27.606  31.461  23.274  1.00  0.00     0.053 C 
ATOM     13  C   UNL A   1      27.929  30.236  22.429  1.00  0.00     0.174 C 
ATOM     14  C   UNL A   1      29.440  30.064  22.170  1.00  0.00     0.084 C 
ATOM     15  O   UNL A   1      27.410  29.071  23.114  1.00  0.00    -0.490 OA
ATOM     16  C   UNL A   1      29.652  28.702  22.712  1.00  0.00    -0.001 A 
ATOM     17  C   UNL A   1      28.463  28.213  23.202  1.00  0.00     0.123 A 
ATOM     18  C   UNL A   1      30.809  27.931  22.760  1.00  0.00     0.019 A 
ATOM     19  C   UNL A   1      28.368  26.948  23.723  1.00  0.00     0.047 A 
ATOM     20  C   UNL A   1      29.520  26.153  23.752  1.00  0.00     0.015 A 
ENDBRANCH   9  11
ENDBRANCH   7   9
ENDBRANCH   6   7
ENDBRANCH   4   6
ENDBRANCH   3   4
ENDBRANCH   2   3
ENDBRANCH   1   2
BRANCH   1  21
ATOM     21  O   UNL A   1      32.435  30.927  26.484  1.00  0.00    -0.374 OA
BRANCH  21  22
ATOM     22  C   UNL A   1      31.520  31.981  26.775  1.00  0.00     0.202 C 
BRANCH  22  23
ATOM     23  C   UNL A   1      32.140  33.375  26.943  1.00  0.00     0.261 C 
BRANCH  23  24
ATOM     24  O   UNL A   1      32.215  33.765  28.328  1.00  0.00    -0.460 OA
BRANCH  24  25
ATOM     25  C   UNL A   1      33.214  34.627  28.634  1.00  0.00     0.338 C 
ATOM     26  O   UNL A   1      33.132  35.841  28.741  1.00  0.00    -0.246 OA
BRANCH  25  27
ATOM     27  C   UNL A   1      34.423  33.872  29.024  1.00  0.00     0.060 A 
ATOM     28  C   UNL A   1      35.712  34.320  28.730  1.00  0.00     0.016 A 
ATOM     29  C   UNL A   1      34.239  32.677  29.734  1.00  0.00     0.016 A 
ATOM     30  C   UNL A   1      36.817  33.580  29.171  1.00  0.00     0.010 A 
ATOM     31  C   UNL A   1      35.341  31.946  30.179  1.00  0.00     0.010 A 
ATOM     32  C   UNL A   1      36.641  32.399  29.919  1.00  0.00    -0.014 A 
BRANCH  32  33
ATOM     33  C   UNL A   1      37.804  31.718  30.547  1.00  0.00     0.031 A 
ATOM     34  C   UNL A   1      38.270  32.058  31.933  1.00  0.00     0.074 A 
ATOM     35  C   UNL A   1      38.479  30.803  29.823  1.00  0.00     0.049 A 
ATOM     36  N   UNL A   1      39.238  31.512  32.627  1.00  0.00    -0.248 NA
ATOM     37  C   UNL A   1      37.575  33.151  32.627  1.00  0.00     0.031 C 
ATOM     38  C   UNL A   1      38.147  30.412  28.453  1.00  0.00     0.029 A 
ATOM     39  N   UNL A   1      39.573  30.034  30.136  1.00  0.00    -0.354 N 
ATOM     40  C   UNL A   1      39.264  32.186  33.840  1.00  0.00     0.074 A 
ATOM     41  C   UNL A   1      38.244  33.211  33.773  1.00  0.00     0.031 C 
ATOM     42  C   UNL A   1      38.988  29.445  28.059  1.00  0.00     0.029 A 
ATOM     43  C   UNL A   1      39.947  29.176  29.128  1.00  0.00     0.049 A 
ATOM     44  H   UNL A   1      40.043  30.090  30.998  1.00  0.00     0.167 HD
ATOM     45  C   UNL A   1      40.058  31.957  34.915  1.00  0.00     0.031 A 
ATOM     46  C   UNL A   1      40.941  28.269  29.065  1.00  0.00     0.031 A 
ATOM     47  C   UNL A   1      41.082  30.943  34.971  1.00  0.00     0.049 A 
ATOM     48  C   UNL A   1      41.837  28.066  30.255  1.00  0.00     0.074 A 
ATOM     49  C   UNL A   1      41.887  30.600  36.045  1.00  0.00     0.029 A 
ATOM     50  N   UNL A   1      41.458  30.126  33.916  1.00  0.00    -0.354 N 
ATOM     51  N   UNL A   1      41.784  28.643  31.431  1.00  0.00    -0.248 NA
ATOM     52  C   UNL A   1      42.918  27.080  30.118  1.00  0.00     0.031 C 
ATOM     53  C   UNL A   1      42.807  29.643  35.615  1.00  0.00     0.029 A 
ATOM     54  C   UNL A   1      42.515  29.316  34.301  1.00  0.00     0.049 A 
ATOM     55  H   UNL A   1      41.038  30.121  33.026  1.00  0.00     0.167 HD
ATOM     56  C   UNL A   1      42.804  28.072  32.181  1.00  0.00     0.074 A 
ATOM     57  C   UNL A   1      43.450  27.092  31.334  1.00  0.00     0.031 C 
ATOM     58  C   UNL A   1      43.166  28.341  33.460  1.00  0.00     0.031 A 
BRANCH  45  59
ATOM     59  C   UNL A   1      39.867  32.809  36.143  1.00  0.00    -0.014 A 
ATOM     60  C   UNL A   1      38.888  32.462  37.089  1.00  0.00     0.009 A 
ATOM     61  C   UNL A   1      40.551  34.025  36.296  1.00  0.00     0.009 A 
ATOM     62  C   UNL A   1      38.582  33.322  38.146  1.00  0.00     0.001 A 
ATOM     63  C   UNL A   1      40.267  34.868  37.373  1.00  0.00     0.001 A 
ATOM     64  C   UNL A   1      39.274  34.522  38.289  1.00  0.00     0.000 A 
ENDBRANCH  45  59
BRANCH  46  65
ATOM     65  C   UNL A   1      41.095  27.447  27.834  1.00  0.00    -0.014 A 
ATOM     66  C   UNL A   1      40.470  26.194  27.723  1.00  0.00     0.009 A 
ATOM     67  C   UNL A   1      41.926  27.882  26.792  1.00  0.00     0.009 A 
ATOM     68  C   UNL A   1      40.704  25.379  26.613  1.00  0.00     0.001 A 
ATOM     69  C   UNL A   1      42.130  27.080  25.665  1.00  0.00     0.001 A 
ATOM     70  C   UNL A   1      41.531  25.825  25.584  1.00  0.00     0.000 A 
ENDBRANCH  46  65
BRANCH  58  71
ATOM     71  C   UNL A   1      44.311  27.566  34.058  1.00  0.00    -0.014 A 
ATOM     72  C   UNL A   1      44.061  26.347  34.712  1.00  0.00     0.009 A 
ATOM     73  C   UNL A   1      45.611  28.094  34.091  1.00  0.00     0.009 A 
ATOM     74  C   UNL A   1      45.077  25.689  35.409  1.00  0.00     0.001 A 
ATOM     75  C   UNL A   1      46.634  27.415  34.757  1.00  0.00     0.001 A 
ATOM     76  C   UNL A   1      46.363  26.223  35.428  1.00  0.00     0.000 A 
ENDBRANCH  58  71
ENDBRANCH  32  33
ENDBRANCH  25  27
ENDBRANCH  24  25
ENDBRANCH  23  24
ENDBRANCH  22  23
ENDBRANCH  21  22
ENDBRANCH   1  21
TORSDOF 17
ENDMDL
MODEL 3
REMARK VINA RESULT:     -10.0      4.329      8.805
REMARK SMILES C[C@H]1Cc2cc(C(=O)[C@H](Br)CC(=O)OCCOCCOC(=O)c3ccc(-c4c5nc(c(-c6ccccc6)c6ccc([nH]6)c(-c6ccccc6)c6nc(c(-c7ccccc7)c7ccc4[nH]7)C=C6)C=C5)cc3)ccc2O1
REMARK SMILES IDX 16 1 15 2 14 3 12 4 13 5 11 6 9 7 10 8 7 9 8 10 6 11 1 12
REMARK SMILES IDX 2 13 3 14 74 15 4 16 73 17 5 18 72 19 71 20 17 21 18 22
REMARK SMILES IDX 19 23 20 24 21 25 22 26 23 27 24 28 70 29 25 30 69 31 26 32
REMARK SMILES IDX 27 33 28 34 63 35 29 36 68 37 62 38 64 39 30 40 67 41 61 42
REMARK SMILES IDX 60 43 31 45 53 46 38 47 52 48 39 49 42 50 51 51 65 52 40 53
REMARK SMILES IDX 41 54 50 56 66 57 43 58 32 59 33 60 37 61 34 62 36 63 35 64
REMARK SMILES IDX 54 65 55 66 59 67 56 68 58 69 57 70 44 71 45 72 49 73 46 74
REMARK SMILES IDX 48 75 47 76
REMARK H PARENT 64 44 42 55
REMARK Flexibility Score: inf
ROOT
ATOM      1  C   UNL A   1      36.287  20.917  24.997  1.00  0.00     0.202 C 
ENDROOT
BRANCH   1   2
ATOM      2  C   UNL A   1      35.264  21.914  24.439  1.00  0.00     0.261 C 
BRANCH   2   3
ATOM      3  O   UNL A   1      35.551  23.250  24.900  1.00  0.00    -0.463 OA
BRANCH   3   4
ATOM      4  C   UNL A   1      34.516  24.084  25.168  1.00  0.00     0.307 C 
ATOM      5  O   UNL A   1      34.632  25.230  25.577  1.00  0.00    -0.252 OA
BRANCH   4   6
ATOM      6  C   UNL A   1      33.177  23.407  24.918  1.00  0.00     0.146 C 
BRANCH   6   7
ATOM      7  C   UNL A   1      32.362  23.075  26.171  1.00  0.00     0.140 C 
ATOM      8  Br  UNL A   1      33.482  22.516  27.644  1.00  0.00    -0.080 Br
BRANCH   7   9
ATOM      9  C   UNL A   1      31.304  24.143  26.453  1.00  0.00     0.177 C 
ATOM     10  O   UNL A   1      30.337  23.785  27.145  1.00  0.00    -0.293 OA
BRANCH   9  11
ATOM     11  C   UNL A   1      31.235  25.561  25.927  1.00  0.00     0.019 A 
ATOM     12  C   UNL A   1      31.447  31.313  26.439  1.00  0.00     0.053 C 
ATOM     13  C   UNL A   1      32.197  30.136  25.829  1.00  0.00     0.174 C 
ATOM     14  C   UNL A   1      32.570  29.056  26.865  1.00  0.00     0.084 C 
ATOM     15  O   UNL A   1      31.361  29.560  24.795  1.00  0.00    -0.490 OA
ATOM     16  C   UNL A   1      31.921  27.868  26.262  1.00  0.00    -0.001 A 
ATOM     17  C   UNL A   1      31.284  28.236  25.099  1.00  0.00     0.123 A 
ATOM     18  C   UNL A   1      31.901  26.547  26.694  1.00  0.00     0.019 A 
ATOM     19  C   UNL A   1      30.638  27.315  24.314  1.00  0.00     0.047 A 
ATOM     20  C   UNL A   1      30.635  25.977  24.726  1.00  0.00     0.015 A 
ENDBRANCH   9  11
ENDBRANCH   7   9
ENDBRANCH   6   7
ENDBRANCH   4   6
ENDBRANCH   3   4
ENDBRANCH   2   3
ENDBRANCH   1   2
BRANCH   1  21
ATOM     21  O   UNL A   1      37.638  21.133  24.591  1.00  0.00    -0.374 OA
BRANCH  21  22
ATOM     22  C   UNL A   1      38.637  20.996  25.599  1.00  0.00     0.202 C 
BRANCH  22  23
ATOM     23  C   UNL A   1      39.439  19.688  25.571  1.00  0.00     0.261 C 
BRANCH  23  24
ATOM     24  O   UNL A   1      40.503  19.690  26.543  1.00  0.00    -0.460 OA
BRANCH  24  25
ATOM     25  C   UNL A   1      41.736  19.960  26.051  1.00  0.00     0.338 C 
ATOM     26  O   UNL A   1      42.344  19.327  25.201  1.00  0.00    -0.246 OA
BRANCH  25  27
ATOM     27  C   UNL A   1      42.195  21.273  26.549  1.00  0.00     0.060 A 
ATOM     28  C   UNL A   1      42.618  22.291  25.692  1.00  0.00     0.016 A 
ATOM     29  C   UNL A   1      42.173  21.484  27.934  1.00  0.00     0.016 A 
ATOM     30  C   UNL A   1      42.997  23.530  26.226  1.00  0.00     0.010 A 
ATOM     31  C   UNL A   1      42.543  22.721  28.464  1.00  0.00     0.010 A 
ATOM     32  C   UNL A   1      42.940  23.762  27.615  1.00  0.00    -0.014 A 
BRANCH  32  33
ATOM     33  C   UNL A   1      43.157  25.126  28.165  1.00  0.00     0.031 A 
ATOM     34  C   UNL A   1      44.517  25.609  28.579  1.00  0.00     0.074 A 
ATOM     35  C   UNL A   1      42.087  25.926  28.338  1.00  0.00     0.049 A 
ATOM     36  N   UNL A   1      44.864  26.790  29.029  1.00  0.00    -0.248 NA
ATOM     37  C   UNL A   1      45.628  24.651  28.487  1.00  0.00     0.031 C 
ATOM     38  C   UNL A   1      40.708  25.560  28.010  1.00  0.00     0.029 A 
ATOM     39  N   UNL A   1      41.986  27.208  28.820  1.00  0.00    -0.354 N 
ATOM     40  C   UNL A   1      46.230  26.721  29.265  1.00  0.00     0.074 A 
ATOM     41  C   UNL A   1      46.643  25.369  28.951  1.00  0.00     0.031 C 
ATOM     42  C   UNL A   1      39.907  26.607  28.256  1.00  0.00     0.029 A 
ATOM     43  C   UNL A   1      40.703  27.704  28.801  1.00  0.00     0.049 A 
ATOM     44  H   UNL A   1      42.758  27.724  29.148  1.00  0.00     0.167 HD
ATOM     45  C   UNL A   1      47.062  27.703  29.692  1.00  0.00     0.031 A 
ATOM     46  C   UNL A   1      40.215  28.904  29.171  1.00  0.00     0.031 A 
ATOM     47  C   UNL A   1      46.642  29.044  30.017  1.00  0.00     0.049 A 
ATOM     48  C   UNL A   1      41.154  29.961  29.683  1.00  0.00     0.074 A 
ATOM     49  C   UNL A   1      47.432  30.118  30.392  1.00  0.00     0.029 A 
ATOM     50  N   UNL A   1      45.331  29.491  30.025  1.00  0.00    -0.354 N 
ATOM     51  N   UNL A   1      42.458  29.911  29.806  1.00  0.00    -0.248 NA
ATOM     52  C   UNL A   1      40.559  31.241  30.093  1.00  0.00     0.031 C 
ATOM     53  C   UNL A   1      46.593  31.186  30.715  1.00  0.00     0.029 A 
ATOM     54  C   UNL A   1      45.286  30.812  30.448  1.00  0.00     0.049 A 
ATOM     55  H   UNL A   1      44.547  28.954  29.771  1.00  0.00     0.167 HD
ATOM     56  C   UNL A   1      42.842  31.159  30.281  1.00  0.00     0.074 A 
ATOM     57  C   UNL A   1      41.636  31.950  30.409  1.00  0.00     0.031 C 
ATOM     58  C   UNL A   1      44.088  31.603  30.581  1.00  0.00     0.031 A 
BRANCH  45  59
ATOM     59  C   UNL A   1      48.529  27.387  29.837  1.00  0.00    -0.014 A 
ATOM     60  C   UNL A   1      49.425  27.742  28.814  1.00  0.00     0.009 A 
ATOM     61  C   UNL A   1      49.003  26.620  30.912  1.00  0.00     0.009 A 
ATOM     62  C   UNL A   1      50.754  27.316  28.852  1.00  0.00     0.001 A 
ATOM     63  C   UNL A   1      50.341  26.224  30.965  1.00  0.00     0.001 A 
ATOM     64  C   UNL A   1      51.212  26.560  29.930  1.00  0.00     0.000 A 
ENDBRANCH  45  59
BRANCH  46  65
ATOM     65  C   UNL A   1      38.761  29.175  29.010  1.00  0.00    -0.014 A 
ATOM     66  C   UNL A   1      38.250  29.667  27.797  1.00  0.00     0.009 A 
ATOM     67  C   UNL A   1      37.886  29.010  30.093  1.00  0.00     0.009 A 
ATOM     68  C   UNL A   1      36.904  30.021  27.684  1.00  0.00     0.001 A 
ATOM     69  C   UNL A   1      36.532  29.332  29.967  1.00  0.00     0.001 A 
ATOM     70  C   UNL A   1      36.046  29.851  28.768  1.00  0.00     0.000 A 
ENDBRANCH  46  65
BRANCH  58  71
ATOM     71  C   UNL A   1      44.245  33.018  31.071  1.00  0.00    -0.014 A 
ATOM     72  C   UNL A   1      44.071  33.306  32.437  1.00  0.00     0.009 A 
ATOM     73  C   UNL A   1      44.437  34.083  30.178  1.00  0.00     0.009 A 
ATOM     74  C   UNL A   1      44.054  34.626  32.892  1.00  0.00     0.001 A 
ATOM     75  C   UNL A   1      44.458  35.401  30.641  1.00  0.00     0.001 A 
ATOM     76  C   UNL A   1      44.251  35.672  31.993  1.00  0.00     0.000 A 
ENDBRANCH  58  71
ENDBRANCH  32  33
ENDBRANCH  25  27
ENDBRANCH  24  25
ENDBRANCH  23  24
ENDBRANCH  22  23
ENDBRANCH  21  22
ENDBRANCH   1  21
TORSDOF 17
ENDMDL
