MODEL 1
REMARK VINA RESULT:     -10.1      0.000      0.000
REMARK SMILES C[C@H]([C@@H](C)C(=O)OCCOCCOC(=O)c1ccc(-c2c3nc(c(-c4ccccc4)c4ccc([nH]4)c(-c4ccccc4)c4nc(c(-c5ccccc5)c5ccc2[nH]5)C=C4)C=C3)cc1)n1c(CC#N)nc2ccccc21
REMARK SMILES IDX 9 1 8 2 7 3 5 4 6 5 3 6 4 7 2 8 1 9 64 10 65 11 75 12 69 13
REMARK SMILES IDX 70 14 74 15 71 16 73 17 72 18 66 19 67 20 68 21 10 22 11 23
REMARK SMILES IDX 12 24 13 25 14 26 15 27 16 28 17 29 63 30 18 31 62 32 19 33
REMARK SMILES IDX 20 34 21 35 56 36 22 37 61 38 55 39 57 40 23 41 60 42 54 43
REMARK SMILES IDX 53 44 24 46 46 47 31 48 45 49 32 50 35 51 44 52 58 53 33 54
REMARK SMILES IDX 34 55 43 57 59 58 36 59 25 60 26 61 30 62 27 63 29 64 28 65
REMARK SMILES IDX 47 66 48 67 52 68 49 69 51 70 50 71 37 72 38 73 42 74 39 75
REMARK SMILES IDX 41 76 40 77
REMARK H PARENT 57 45 35 56
REMARK Flexibility Score: inf
ROOT
ATOM      1  C   UNL A   1      34.840  32.732  28.005  1.00  0.00     0.202 C 
ENDROOT
BRANCH   1   2
ATOM      2  C   UNL A   1      33.808  31.603  28.117  1.00  0.00     0.261 C 
BRANCH   2   3
ATOM      3  O   UNL A   1      33.740  30.728  26.979  1.00  0.00    -0.463 OA
BRANCH   3   4
ATOM      4  C   UNL A   1      32.487  30.559  26.468  1.00  0.00     0.310 C 
ATOM      5  O   UNL A   1      31.586  31.385  26.541  1.00  0.00    -0.252 OA
BRANCH   4   6
ATOM      6  C   UNL A   1      32.277  29.180  25.876  1.00  0.00     0.119 C 
ATOM      7  C   UNL A   1      33.433  28.322  26.409  1.00  0.00     0.022 C 
BRANCH   6   8
ATOM      8  C   UNL A   1      32.052  29.182  24.332  1.00  0.00     0.100 C 
ATOM      9  C   UNL A   1      32.853  28.069  23.615  1.00  0.00     0.032 C 
BRANCH   8  10
ATOM     10  N   UNL A   1      30.600  29.089  23.990  1.00  0.00    -0.323 N 
ATOM     11  C   UNL A   1      30.099  28.019  23.256  1.00  0.00     0.124 A 
ATOM     12  C   UNL A   1      29.804  30.120  23.504  1.00  0.00     0.068 A 
ATOM     13  N   UNL A   1      29.961  28.432  22.004  1.00  0.00    -0.232 NA
ATOM     14  C   UNL A   1      29.609  29.750  22.171  1.00  0.00     0.089 A 
ATOM     15  C   UNL A   1      29.077  31.161  24.087  1.00  0.00     0.028 A 
ATOM     16  C   UNL A   1      28.941  30.612  21.291  1.00  0.00     0.030 A 
ATOM     17  C   UNL A   1      28.267  31.920  23.228  1.00  0.00     0.002 A 
ATOM     18  C   UNL A   1      28.246  31.691  21.849  1.00  0.00     0.002 A 
BRANCH  11  19
ATOM     19  C   UNL A   1      29.396  26.866  23.899  1.00  0.00     0.195 C 
BRANCH  19  20
ATOM     20  C   UNL A   1      30.065  26.482  25.164  1.00  0.00     0.070 C 
ATOM     21  N   UNL A   1      30.612  26.152  26.122  1.00  0.00    -0.198 NA
ENDBRANCH  19  20
ENDBRANCH  11  19
ENDBRANCH   8  10
ENDBRANCH   6   8
ENDBRANCH   4   6
ENDBRANCH   3   4
ENDBRANCH   2   3
ENDBRANCH   1   2
BRANCH   1  22
ATOM     22  O   UNL A   1      34.774  33.835  28.895  1.00  0.00    -0.374 OA
BRANCH  22  23
ATOM     23  C   UNL A   1      34.184  35.047  28.451  1.00  0.00     0.202 C 
BRANCH  23  24
ATOM     24  C   UNL A   1      33.096  35.724  29.297  1.00  0.00     0.261 C 
BRANCH  24  25
ATOM     25  O   UNL A   1      32.629  34.935  30.396  1.00  0.00    -0.460 OA
BRANCH  25  26
ATOM     26  C   UNL A   1      32.824  35.527  31.600  1.00  0.00     0.338 C 
ATOM     27  O   UNL A   1      32.123  36.364  32.143  1.00  0.00    -0.246 OA
BRANCH  26  28
ATOM     28  C   UNL A   1      33.958  34.898  32.290  1.00  0.00     0.060 A 
ATOM     29  C   UNL A   1      35.194  35.549  32.207  1.00  0.00     0.016 A 
ATOM     30  C   UNL A   1      33.840  33.646  32.894  1.00  0.00     0.016 A 
ATOM     31  C   UNL A   1      36.339  34.915  32.668  1.00  0.00     0.010 A 
ATOM     32  C   UNL A   1      34.993  33.007  33.354  1.00  0.00     0.010 A 
ATOM     33  C   UNL A   1      36.249  33.621  33.199  1.00  0.00    -0.014 A 
BRANCH  33  34
ATOM     34  C   UNL A   1      37.493  32.859  33.439  1.00  0.00     0.031 A 
ATOM     35  C   UNL A   1      38.245  33.078  34.722  1.00  0.00     0.074 A 
ATOM     36  C   UNL A   1      37.911  31.946  32.545  1.00  0.00     0.049 A 
ATOM     37  N   UNL A   1      39.349  32.514  35.141  1.00  0.00    -0.248 NA
ATOM     38  C   UNL A   1      37.678  34.061  35.660  1.00  0.00     0.031 C 
ATOM     39  C   UNL A   1      37.231  31.615  31.293  1.00  0.00     0.029 A 
ATOM     40  N   UNL A   1      39.008  31.125  32.562  1.00  0.00    -0.354 N 
ATOM     41  C   UNL A   1      39.614  33.084  36.381  1.00  0.00     0.074 A 
ATOM     42  C   UNL A   1      38.574  34.055  36.635  1.00  0.00     0.031 C 
ATOM     43  C   UNL A   1      37.926  30.655  30.662  1.00  0.00     0.029 A 
ATOM     44  C   UNL A   1      39.115  30.331  31.447  1.00  0.00     0.049 A 
ATOM     45  H   UNL A   1      39.657  31.106  33.302  1.00  0.00     0.167 HD
ATOM     46  C   UNL A   1      40.631  32.815  37.233  1.00  0.00     0.031 A 
ATOM     47  C   UNL A   1      40.075  29.457  31.095  1.00  0.00     0.031 A 
ATOM     48  C   UNL A   1      41.666  31.851  36.970  1.00  0.00     0.049 A 
ATOM     49  C   UNL A   1      41.236  29.233  32.026  1.00  0.00     0.074 A 
ATOM     50  C   UNL A   1      42.732  31.486  37.774  1.00  0.00     0.029 A 
ATOM     51  N   UNL A   1      41.768  31.104  35.805  1.00  0.00    -0.354 N 
ATOM     52  N   UNL A   1      41.461  29.756  33.208  1.00  0.00    -0.248 NA
ATOM     53  C   UNL A   1      42.271  28.293  31.576  1.00  0.00     0.031 C 
ATOM     54  C   UNL A   1      43.513  30.566  37.069  1.00  0.00     0.029 A 
ATOM     55  C   UNL A   1      42.897  30.306  35.854  1.00  0.00     0.049 A 
ATOM     56  H   UNL A   1      41.131  31.137  35.056  1.00  0.00     0.167 HD
ATOM     57  C   UNL A   1      42.646  29.184  33.655  1.00  0.00     0.074 A 
ATOM     58  C   UNL A   1      43.081  28.265  32.624  1.00  0.00     0.031 C 
ATOM     59  C   UNL A   1      43.313  29.399  34.816  1.00  0.00     0.031 A 
BRANCH  46  60
ATOM     60  C   UNL A   1      40.697  33.605  38.511  1.00  0.00    -0.014 A 
ATOM     61  C   UNL A   1      40.089  33.146  39.692  1.00  0.00     0.009 A 
ATOM     62  C   UNL A   1      41.408  34.815  38.541  1.00  0.00     0.009 A 
ATOM     63  C   UNL A   1      40.167  33.900  40.865  1.00  0.00     0.001 A 
ATOM     64  C   UNL A   1      41.509  35.551  39.724  1.00  0.00     0.001 A 
ATOM     65  C   UNL A   1      40.880  35.098  40.882  1.00  0.00     0.000 A 
ENDBRANCH  46  60
BRANCH  47  66
ATOM     66  C   UNL A   1      39.990  28.737  29.797  1.00  0.00    -0.014 A 
ATOM     67  C   UNL A   1      39.468  27.437  29.730  1.00  0.00     0.009 A 
ATOM     68  C   UNL A   1      40.446  29.347  28.616  1.00  0.00     0.009 A 
ATOM     69  C   UNL A   1      39.430  26.752  28.513  1.00  0.00     0.001 A 
ATOM     70  C   UNL A   1      40.377  28.671  27.396  1.00  0.00     0.001 A 
ATOM     71  C   UNL A   1      39.879  27.370  27.347  1.00  0.00     0.000 A 
ENDBRANCH  47  66
BRANCH  59  72
ATOM     72  C   UNL A   1      44.562  28.594  35.048  1.00  0.00    -0.014 A 
ATOM     73  C   UNL A   1      44.514  27.315  35.621  1.00  0.00     0.009 A 
ATOM     74  C   UNL A   1      45.805  29.114  34.648  1.00  0.00     0.009 A 
ATOM     75  C   UNL A   1      45.689  26.586  35.822  1.00  0.00     0.001 A 
ATOM     76  C   UNL A   1      46.972  28.371  34.820  1.00  0.00     0.001 A 
ATOM     77  C   UNL A   1      46.915  27.112  35.416  1.00  0.00     0.000 A 
ENDBRANCH  59  72
ENDBRANCH  33  34
ENDBRANCH  26  28
ENDBRANCH  25  26
ENDBRANCH  24  25
ENDBRANCH  23  24
ENDBRANCH  22  23
ENDBRANCH   1  22
TORSDOF 18
ENDMDL
MODEL 2
REMARK VINA RESULT:      -9.9      4.536      6.530
REMARK SMILES C[C@H]([C@@H](C)C(=O)OCCOCCOC(=O)c1ccc(-c2c3nc(c(-c4ccccc4)c4ccc([nH]4)c(-c4ccccc4)c4nc(c(-c5ccccc5)c5ccc2[nH]5)C=C4)C=C3)cc1)n1c(CC#N)nc2ccccc21
REMARK SMILES IDX 9 1 8 2 7 3 5 4 6 5 3 6 4 7 2 8 1 9 64 10 65 11 75 12 69 13
REMARK SMILES IDX 70 14 74 15 71 16 73 17 72 18 66 19 67 20 68 21 10 22 11 23
REMARK SMILES IDX 12 24 13 25 14 26 15 27 16 28 17 29 63 30 18 31 62 32 19 33
REMARK SMILES IDX 20 34 21 35 56 36 22 37 61 38 55 39 57 40 23 41 60 42 54 43
REMARK SMILES IDX 53 44 24 46 46 47 31 48 45 49 32 50 35 51 44 52 58 53 33 54
REMARK SMILES IDX 34 55 43 57 59 58 36 59 25 60 26 61 30 62 27 63 29 64 28 65
REMARK SMILES IDX 47 66 48 67 52 68 49 69 51 70 50 71 37 72 38 73 42 74 39 75
REMARK SMILES IDX 41 76 40 77
REMARK H PARENT 57 45 35 56
REMARK Flexibility Score: inf
ROOT
ATOM      1  C   UNL A   1      33.578  32.292  27.687  1.00  0.00     0.202 C 
ENDROOT
BRANCH   1   2
ATOM      2  C   UNL A   1      33.992  30.825  27.525  1.00  0.00     0.261 C 
BRANCH   2   3
ATOM      3  O   UNL A   1      33.480  30.176  26.349  1.00  0.00    -0.463 OA
BRANCH   3   4
ATOM      4  C   UNL A   1      32.632  29.138  26.598  1.00  0.00     0.310 C 
ATOM      5  O   UNL A   1      32.200  28.839  27.704  1.00  0.00    -0.252 OA
BRANCH   4   6
ATOM      6  C   UNL A   1      32.346  28.306  25.363  1.00  0.00     0.119 C 
ATOM      7  C   UNL A   1      33.533  27.341  25.232  1.00  0.00     0.022 C 
BRANCH   6   8
ATOM      8  C   UNL A   1      31.980  29.151  24.104  1.00  0.00     0.100 C 
ATOM      9  C   UNL A   1      32.730  28.679  22.835  1.00  0.00     0.032 C 
BRANCH   8  10
ATOM     10  N   UNL A   1      30.504  29.168  23.866  1.00  0.00    -0.323 N 
ATOM     11  C   UNL A   1      29.871  28.138  23.177  1.00  0.00     0.124 A 
ATOM     12  C   UNL A   1      29.756  30.256  23.431  1.00  0.00     0.068 A 
ATOM     13  N   UNL A   1      29.677  28.559  21.936  1.00  0.00    -0.232 NA
ATOM     14  C   UNL A   1      29.438  29.901  22.117  1.00  0.00     0.089 A 
ATOM     15  C   UNL A   1      29.154  31.351  24.057  1.00  0.00     0.028 A 
ATOM     16  C   UNL A   1      28.777  30.810  21.282  1.00  0.00     0.030 A 
ATOM     17  C   UNL A   1      28.345  32.168  23.253  1.00  0.00     0.002 A 
ATOM     18  C   UNL A   1      28.208  31.939  21.881  1.00  0.00     0.002 A 
BRANCH  11  19
ATOM     19  C   UNL A   1      29.131  27.043  23.876  1.00  0.00     0.195 C 
BRANCH  19  20
ATOM     20  C   UNL A   1      30.006  25.866  24.084  1.00  0.00     0.070 C 
ATOM     21  N   UNL A   1      30.692  24.965  24.291  1.00  0.00    -0.198 NA
ENDBRANCH  19  20
ENDBRANCH  11  19
ENDBRANCH   8  10
ENDBRANCH   6   8
ENDBRANCH   4   6
ENDBRANCH   3   4
ENDBRANCH   2   3
ENDBRANCH   1   2
BRANCH   1  22
ATOM     22  O   UNL A   1      34.496  33.224  28.235  1.00  0.00    -0.374 OA
BRANCH  22  23
ATOM     23  C   UNL A   1      34.085  34.047  29.316  1.00  0.00     0.202 C 
BRANCH  23  24
ATOM     24  C   UNL A   1      34.480  33.676  30.753  1.00  0.00     0.261 C 
BRANCH  24  25
ATOM     25  O   UNL A   1      34.652  32.272  30.973  1.00  0.00    -0.460 OA
BRANCH  25  26
ATOM     26  C   UNL A   1      35.658  31.986  31.835  1.00  0.00     0.338 C 
ATOM     27  O   UNL A   1      35.721  32.250  33.024  1.00  0.00    -0.246 OA
BRANCH  26  28
ATOM     28  C   UNL A   1      36.657  31.136  31.175  1.00  0.00     0.060 A 
ATOM     29  C   UNL A   1      37.513  30.401  32.002  1.00  0.00     0.016 A 
ATOM     30  C   UNL A   1      36.831  31.156  29.791  1.00  0.00     0.016 A 
ATOM     31  C   UNL A   1      38.598  29.732  31.451  1.00  0.00     0.010 A 
ATOM     32  C   UNL A   1      37.925  30.486  29.238  1.00  0.00     0.010 A 
ATOM     33  C   UNL A   1      38.835  29.814  30.072  1.00  0.00    -0.014 A 
BRANCH  33  34
ATOM     34  C   UNL A   1      40.125  29.327  29.539  1.00  0.00     0.031 A 
ATOM     35  C   UNL A   1      41.296  30.269  29.493  1.00  0.00     0.074 A 
ATOM     36  C   UNL A   1      40.259  28.045  29.156  1.00  0.00     0.049 A 
ATOM     37  N   UNL A   1      42.516  30.052  29.074  1.00  0.00    -0.248 NA
ATOM     38  C   UNL A   1      41.063  31.637  29.984  1.00  0.00     0.031 C 
ATOM     39  C   UNL A   1      39.205  27.033  29.208  1.00  0.00     0.029 A 
ATOM     40  N   UNL A   1      41.345  27.379  28.652  1.00  0.00    -0.354 N 
ATOM     41  C   UNL A   1      43.190  31.257  29.240  1.00  0.00     0.074 A 
ATOM     42  C   UNL A   1      42.239  32.208  29.769  1.00  0.00     0.031 C 
ATOM     43  C   UNL A   1      39.698  25.868  28.757  1.00  0.00     0.029 A 
ATOM     44  C   UNL A   1      41.088  26.063  28.353  1.00  0.00     0.049 A 
ATOM     45  H   UNL A   1      42.224  27.801  28.519  1.00  0.00     0.167 HD
ATOM     46  C   UNL A   1      44.487  31.541  28.978  1.00  0.00     0.031 A 
ATOM     47  C   UNL A   1      41.884  25.130  27.797  1.00  0.00     0.031 A 
ATOM     48  C   UNL A   1      45.426  30.591  28.444  1.00  0.00     0.049 A 
ATOM     49  C   UNL A   1      43.301  25.495  27.444  1.00  0.00     0.074 A 
ATOM     50  C   UNL A   1      46.769  30.769  28.161  1.00  0.00     0.029 A 
ATOM     51  N   UNL A   1      45.115  29.282  28.105  1.00  0.00    -0.354 N 
ATOM     52  N   UNL A   1      43.934  26.629  27.631  1.00  0.00    -0.248 NA
ATOM     53  C   UNL A   1      44.113  24.448  26.811  1.00  0.00     0.031 C 
ATOM     54  C   UNL A   1      47.253  29.588  27.591  1.00  0.00     0.029 A 
ATOM     55  C   UNL A   1      46.231  28.652  27.583  1.00  0.00     0.049 A 
ATOM     56  H   UNL A   1      44.231  28.864  28.219  1.00  0.00     0.167 HD
ATOM     57  C   UNL A   1      45.227  26.421  27.167  1.00  0.00     0.074 A 
ATOM     58  C   UNL A   1      45.290  25.049  26.706  1.00  0.00     0.031 C 
ATOM     59  C   UNL A   1      46.271  27.286  27.128  1.00  0.00     0.031 A 
BRANCH  46  60
ATOM     60  C   UNL A   1      44.955  32.949  29.225  1.00  0.00    -0.014 A 
ATOM     61  C   UNL A   1      45.506  33.335  30.458  1.00  0.00     0.009 A 
ATOM     62  C   UNL A   1      44.873  33.897  28.192  1.00  0.00     0.009 A 
ATOM     63  C   UNL A   1      45.934  34.650  30.660  1.00  0.00     0.001 A 
ATOM     64  C   UNL A   1      45.330  35.202  28.388  1.00  0.00     0.001 A 
ATOM     65  C   UNL A   1      45.851  35.580  29.624  1.00  0.00     0.000 A 
ENDBRANCH  46  60
BRANCH  47  66
ATOM     66  C   UNL A   1      41.358  23.767  27.527  1.00  0.00    -0.014 A 
ATOM     67  C   UNL A   1      41.784  22.670  28.290  1.00  0.00     0.009 A 
ATOM     68  C   UNL A   1      40.435  23.555  26.490  1.00  0.00     0.009 A 
ATOM     69  C   UNL A   1      41.317  21.384  28.002  1.00  0.00     0.001 A 
ATOM     70  C   UNL A   1      39.946  22.274  26.226  1.00  0.00     0.001 A 
ATOM     71  C   UNL A   1      40.396  21.188  26.975  1.00  0.00     0.000 A 
ENDBRANCH  47  66
BRANCH  59  72
ATOM     72  C   UNL A   1      47.579  26.761  26.605  1.00  0.00    -0.014 A 
ATOM     73  C   UNL A   1      47.913  26.849  25.245  1.00  0.00     0.009 A 
ATOM     74  C   UNL A   1      48.509  26.204  27.499  1.00  0.00     0.009 A 
ATOM     75  C   UNL A   1      49.136  26.357  24.786  1.00  0.00     0.001 A 
ATOM     76  C   UNL A   1      49.743  25.743  27.042  1.00  0.00     0.001 A 
ATOM     77  C   UNL A   1      50.052  25.810  25.685  1.00  0.00     0.000 A 
ENDBRANCH  59  72
ENDBRANCH  33  34
ENDBRANCH  26  28
ENDBRANCH  25  26
ENDBRANCH  24  25
ENDBRANCH  23  24
ENDBRANCH  22  23
ENDBRANCH   1  22
TORSDOF 18
ENDMDL
MODEL 3
REMARK VINA RESULT:      -9.9      5.358      9.947
REMARK SMILES C[C@H]([C@@H](C)C(=O)OCCOCCOC(=O)c1ccc(-c2c3nc(c(-c4ccccc4)c4ccc([nH]4)c(-c4ccccc4)c4nc(c(-c5ccccc5)c5ccc2[nH]5)C=C4)C=C3)cc1)n1c(CC#N)nc2ccccc21
REMARK SMILES IDX 9 1 8 2 7 3 5 4 6 5 3 6 4 7 2 8 1 9 64 10 65 11 75 12 69 13
REMARK SMILES IDX 70 14 74 15 71 16 73 17 72 18 66 19 67 20 68 21 10 22 11 23
REMARK SMILES IDX 12 24 13 25 14 26 15 27 16 28 17 29 63 30 18 31 62 32 19 33
REMARK SMILES IDX 20 34 21 35 56 36 22 37 61 38 55 39 57 40 23 41 60 42 54 43
REMARK SMILES IDX 53 44 24 46 46 47 31 48 45 49 32 50 35 51 44 52 58 53 33 54
REMARK SMILES IDX 34 55 43 57 59 58 36 59 25 60 26 61 30 62 27 63 29 64 28 65
REMARK SMILES IDX 47 66 48 67 52 68 49 69 51 70 50 71 37 72 38 73 42 74 39 75
REMARK SMILES IDX 41 76 40 77
REMARK H PARENT 57 45 35 56
REMARK Flexibility Score: inf
ROOT
ATOM      1  C   UNL A   1      38.156  22.099  25.462  1.00  0.00     0.202 C 
ENDROOT
BRANCH   1   2
ATOM      2  C   UNL A   1      37.343  23.333  25.872  1.00  0.00     0.261 C 
BRANCH   2   3
ATOM      3  O   UNL A   1      36.408  23.799  24.885  1.00  0.00    -0.463 OA
BRANCH   3   4
ATOM      4  C   UNL A   1      35.116  23.866  25.315  1.00  0.00     0.310 C 
ATOM      5  O   UNL A   1      34.751  23.655  26.464  1.00  0.00    -0.252 OA
BRANCH   4   6
ATOM      6  C   UNL A   1      34.137  24.131  24.189  1.00  0.00     0.119 C 
ATOM      7  C   UNL A   1      34.652  23.318  22.993  1.00  0.00     0.022 C 
BRANCH   6   8
ATOM      8  C   UNL A   1      33.853  25.646  23.943  1.00  0.00     0.100 C 
ATOM      9  C   UNL A   1      33.563  25.961  22.456  1.00  0.00     0.032 C 
BRANCH   8  10
ATOM     10  N   UNL A   1      32.743  26.143  24.811  1.00  0.00    -0.323 N 
ATOM     11  C   UNL A   1      31.414  26.048  24.410  1.00  0.00     0.124 A 
ATOM     12  C   UNL A   1      32.713  27.356  25.490  1.00  0.00     0.068 A 
ATOM     13  N   UNL A   1      31.057  27.239  23.951  1.00  0.00    -0.232 NA
ATOM     14  C   UNL A   1      31.773  28.089  24.761  1.00  0.00     0.089 A 
ATOM     15  C   UNL A   1      33.196  27.808  26.721  1.00  0.00     0.028 A 
ATOM     16  C   UNL A   1      31.542  29.437  25.063  1.00  0.00     0.030 A 
ATOM     17  C   UNL A   1      32.818  29.103  27.108  1.00  0.00     0.002 A 
ATOM     18  C   UNL A   1      32.058  29.925  26.269  1.00  0.00     0.002 A 
BRANCH  11  19
ATOM     19  C   UNL A   1      30.502  24.972  24.907  1.00  0.00     0.195 C 
BRANCH  19  20
ATOM     20  C   UNL A   1      30.966  24.454  26.215  1.00  0.00     0.070 C 
ATOM     21  N   UNL A   1      31.360  24.026  27.209  1.00  0.00    -0.198 NA
ENDBRANCH  19  20
ENDBRANCH  11  19
ENDBRANCH   8  10
ENDBRANCH   6   8
ENDBRANCH   4   6
ENDBRANCH   3   4
ENDBRANCH   2   3
ENDBRANCH   1   2
BRANCH   1  22
ATOM     22  O   UNL A   1      37.500  20.998  24.853  1.00  0.00    -0.374 OA
BRANCH  22  23
ATOM     23  C   UNL A   1      38.145  19.734  24.833  1.00  0.00     0.202 C 
BRANCH  23  24
ATOM     24  C   UNL A   1      39.285  19.440  25.819  1.00  0.00     0.261 C 
BRANCH  24  25
ATOM     25  O   UNL A   1      40.579  19.350  25.214  1.00  0.00    -0.460 OA
BRANCH  25  26
ATOM     26  C   UNL A   1      41.594  19.528  26.094  1.00  0.00     0.338 C 
ATOM     27  O   UNL A   1      42.494  18.751  26.363  1.00  0.00    -0.246 OA
BRANCH  26  28
ATOM     28  C   UNL A   1      41.578  20.906  26.606  1.00  0.00     0.060 A 
ATOM     29  C   UNL A   1      41.940  21.920  25.713  1.00  0.00     0.016 A 
ATOM     30  C   UNL A   1      41.337  21.179  27.952  1.00  0.00     0.016 A 
ATOM     31  C   UNL A   1      42.132  23.213  26.180  1.00  0.00     0.010 A 
ATOM     32  C   UNL A   1      41.534  22.480  28.422  1.00  0.00     0.010 A 
ATOM     33  C   UNL A   1      41.978  23.486  27.546  1.00  0.00    -0.014 A 
BRANCH  33  34
ATOM     34  C   UNL A   1      42.438  24.790  28.070  1.00  0.00     0.031 A 
ATOM     35  C   UNL A   1      41.428  25.879  28.303  1.00  0.00     0.074 A 
ATOM     36  C   UNL A   1      43.732  24.975  28.385  1.00  0.00     0.049 A 
ATOM     37  N   UNL A   1      41.608  27.091  28.761  1.00  0.00    -0.248 NA
ATOM     38  C   UNL A   1      40.028  25.561  27.976  1.00  0.00     0.031 C 
ATOM     39  C   UNL A   1      44.787  23.971  28.249  1.00  0.00     0.029 A 
ATOM     40  N   UNL A   1      44.374  26.075  28.889  1.00  0.00    -0.354 N 
ATOM     41  C   UNL A   1      40.350  27.681  28.766  1.00  0.00     0.074 A 
ATOM     42  C   UNL A   1      39.420  26.709  28.239  1.00  0.00     0.031 C 
ATOM     43  C   UNL A   1      45.948  24.501  28.667  1.00  0.00     0.029 A 
ATOM     44  C   UNL A   1      45.723  25.889  29.063  1.00  0.00     0.049 A 
ATOM     45  H   UNL A   1      43.913  26.917  29.108  1.00  0.00     0.167 HD
ATOM     46  C   UNL A   1      40.002  28.924  29.179  1.00  0.00     0.031 A 
ATOM     47  C   UNL A   1      46.670  26.751  29.477  1.00  0.00     0.031 A 
ATOM     48  C   UNL A   1      40.936  29.888  29.695  1.00  0.00     0.049 A 
ATOM     49  C   UNL A   1      46.268  28.151  29.857  1.00  0.00     0.074 A 
ATOM     50  C   UNL A   1      40.686  31.168  30.161  1.00  0.00     0.029 A 
ATOM     51  N   UNL A   1      42.303  29.681  29.807  1.00  0.00    -0.354 N 
ATOM     52  N   UNL A   1      45.072  28.689  29.884  1.00  0.00    -0.248 NA
ATOM     53  C   UNL A   1      47.347  29.058  30.270  1.00  0.00     0.031 C 
ATOM     54  C   UNL A   1      41.910  31.756  30.493  1.00  0.00     0.029 A 
ATOM     55  C   UNL A   1      42.914  30.820  30.300  1.00  0.00     0.049 A 
ATOM     56  H   UNL A   1      42.768  28.846  29.570  1.00  0.00     0.167 HD
ATOM     57  C   UNL A   1      45.251  29.987  30.346  1.00  0.00     0.074 A 
ATOM     58  C   UNL A   1      46.668  30.147  30.602  1.00  0.00     0.031 C 
ATOM     59  C   UNL A   1      44.326  30.959  30.545  1.00  0.00     0.031 A 
BRANCH  46  60
ATOM     60  C   UNL A   1      38.558  29.322  29.047  1.00  0.00    -0.014 A 
ATOM     61  C   UNL A   1      37.664  29.214  30.125  1.00  0.00     0.009 A 
ATOM     62  C   UNL A   1      38.093  29.848  27.831  1.00  0.00     0.009 A 
ATOM     63  C   UNL A   1      36.328  29.593  29.975  1.00  0.00     0.001 A 
ATOM     64  C   UNL A   1      36.764  30.253  27.694  1.00  0.00     0.001 A 
ATOM     65  C   UNL A   1      35.880  30.117  28.763  1.00  0.00     0.000 A 
ENDBRANCH  46  60
BRANCH  47  66
ATOM     66  C   UNL A   1      48.092  26.323  29.542  1.00  0.00    -0.014 A 
ATOM     67  C   UNL A   1      48.635  25.816  30.732  1.00  0.00     0.009 A 
ATOM     68  C   UNL A   1      48.919  26.433  28.412  1.00  0.00     0.009 A 
ATOM     69  C   UNL A   1      49.983  25.455  30.796  1.00  0.00     0.001 A 
ATOM     70  C   UNL A   1      50.258  26.042  28.471  1.00  0.00     0.001 A 
ATOM     71  C   UNL A   1      50.792  25.563  29.666  1.00  0.00     0.000 A 
ENDBRANCH  47  66
BRANCH  59  72
ATOM     72  C   UNL A   1      44.815  32.267  31.102  1.00  0.00    -0.014 A 
ATOM     73  C   UNL A   1      45.199  33.323  30.262  1.00  0.00     0.009 A 
ATOM     74  C   UNL A   1      44.851  32.457  32.493  1.00  0.00     0.009 A 
ATOM     75  C   UNL A   1      45.646  34.530  30.804  1.00  0.00     0.001 A 
ATOM     76  C   UNL A   1      45.266  33.675  33.032  1.00  0.00     0.001 A 
ATOM     77  C   UNL A   1      45.673  34.707  32.187  1.00  0.00     0.000 A 
ENDBRANCH  59  72
ENDBRANCH  33  34
ENDBRANCH  26  28
ENDBRANCH  25  26
ENDBRANCH  24  25
ENDBRANCH  23  24
ENDBRANCH  22  23
ENDBRANCH   1  22
TORSDOF 18
ENDMDL
