MODEL 1
REMARK VINA RESULT:      -9.4      0.000      0.000
REMARK SMILES O=C(OCCOCCOC(=O)[C@H]1CSC2(CCCCC2)[NH2+]1)c1ccc(-c2c3nc(c(-c4ccccc4)c4ccc([nH]4)c(-c4ccccc4)c4nc(c(-c5ccccc5)c5ccc2[nH]5)C=C4)C=C3)cc1
REMARK SMILES IDX 5 1 4 2 3 3 2 4 1 5 22 6 23 7 69 8 24 9 68 10 25 11 26 12
REMARK SMILES IDX 27 13 62 14 28 15 67 16 61 17 63 18 29 19 66 20 60 21 59 22
REMARK SMILES IDX 30 24 52 25 37 26 51 27 38 28 41 29 50 30 64 31 39 32 40 33
REMARK SMILES IDX 49 35 65 36 42 37 31 38 32 39 36 40 33 41 35 42 34 43 53 44
REMARK SMILES IDX 54 45 58 46 55 47 57 48 56 49 43 50 44 51 48 52 45 53 47 54
REMARK SMILES IDX 46 55 6 56 7 57 8 58 9 59 10 60 11 61 12 62 13 63 21 64
REMARK SMILES IDX 14 65 15 66 16 69 20 70 17 71 19 72 18 73
REMARK H PARENT 63 23 41 34 21 67 21 68
REMARK Flexibility Score: inf
ROOT
ATOM      1  C   UNL A   1      41.255  19.895  26.508  1.00  0.00     0.202 C 
ENDROOT
BRANCH   1   2
ATOM      2  C   UNL A   1      40.856  21.291  26.989  1.00  0.00     0.261 C 
BRANCH   2   3
ATOM      3  O   UNL A   1      40.054  21.956  26.006  1.00  0.00    -0.460 OA
BRANCH   3   4
ATOM      4  C   UNL A   1      39.180  22.967  26.214  1.00  0.00     0.338 C 
ATOM      5  O   UNL A   1      38.003  22.797  25.896  1.00  0.00    -0.246 OA
BRANCH   4   6
ATOM      6  C   UNL A   1      39.541  24.273  26.853  1.00  0.00     0.060 A 
ATOM      7  C   UNL A   1      40.201  25.335  26.229  1.00  0.00     0.016 A 
ATOM      8  C   UNL A   1      39.082  24.467  28.167  1.00  0.00     0.016 A 
ATOM      9  C   UNL A   1      40.413  26.542  26.873  1.00  0.00     0.010 A 
ATOM     10  C   UNL A   1      39.277  25.684  28.823  1.00  0.00     0.010 A 
ATOM     11  C   UNL A   1      39.949  26.721  28.169  1.00  0.00    -0.014 A 
BRANCH  11  12
ATOM     12  C   UNL A   1      40.305  27.973  28.846  1.00  0.00     0.031 A 
ATOM     13  C   UNL A   1      41.703  28.123  29.348  1.00  0.00     0.074 A 
ATOM     14  C   UNL A   1      39.419  28.983  28.873  1.00  0.00     0.049 A 
ATOM     15  N   UNL A   1      42.244  29.112  30.001  1.00  0.00    -0.248 NA
ATOM     16  C   UNL A   1      42.622  27.007  29.059  1.00  0.00     0.031 C 
ATOM     17  C   UNL A   1      38.083  28.950  28.272  1.00  0.00     0.029 A 
ATOM     18  N   UNL A   1      39.520  30.240  29.400  1.00  0.00    -0.354 N 
ATOM     19  C   UNL A   1      43.557  28.725  30.233  1.00  0.00     0.074 A 
ATOM     20  C   UNL A   1      43.731  27.413  29.654  1.00  0.00     0.031 C 
ATOM     21  C   UNL A   1      37.491  30.141  28.461  1.00  0.00     0.029 A 
ATOM     22  C   UNL A   1      38.377  30.986  29.251  1.00  0.00     0.049 A 
ATOM     23  H   UNL A   1      40.333  30.577  29.843  1.00  0.00     0.167 HD
ATOM     24  C   UNL A   1      44.519  29.409  30.890  1.00  0.00     0.031 A 
ATOM     25  C   UNL A   1      38.078  32.200  29.745  1.00  0.00     0.031 A 
ATOM     26  C   UNL A   1      44.294  30.703  31.473  1.00  0.00     0.049 A 
ATOM     27  C   UNL A   1      39.129  32.895  30.567  1.00  0.00     0.074 A 
ATOM     28  C   UNL A   1      45.159  31.482  32.215  1.00  0.00     0.029 A 
ATOM     29  N   UNL A   1      43.097  31.403  31.375  1.00  0.00    -0.354 N 
ATOM     30  N   UNL A   1      40.353  32.506  30.839  1.00  0.00    -0.248 NA
ATOM     31  C   UNL A   1      38.759  34.187  31.157  1.00  0.00     0.031 C 
ATOM     32  C   UNL A   1      44.463  32.627  32.620  1.00  0.00     0.029 A 
ATOM     33  C   UNL A   1      43.188  32.594  32.070  1.00  0.00     0.049 A 
ATOM     34  H   UNL A   1      42.301  31.096  30.885  1.00  0.00     0.167 HD
ATOM     35  C   UNL A   1      40.908  33.509  31.620  1.00  0.00     0.074 A 
ATOM     36  C   UNL A   1      39.891  34.535  31.756  1.00  0.00     0.031 C 
ATOM     37  C   UNL A   1      42.142  33.582  32.178  1.00  0.00     0.031 A 
BRANCH  24  38
ATOM     38  C   UNL A   1      45.832  28.708  31.088  1.00  0.00    -0.014 A 
ATOM     39  C   UNL A   1      46.075  27.882  32.198  1.00  0.00     0.009 A 
ATOM     40  C   UNL A   1      46.873  28.935  30.173  1.00  0.00     0.009 A 
ATOM     41  C   UNL A   1      47.347  27.343  32.414  1.00  0.00     0.001 A 
ATOM     42  C   UNL A   1      48.133  28.369  30.374  1.00  0.00     0.001 A 
ATOM     43  C   UNL A   1      48.374  27.588  31.503  1.00  0.00     0.000 A 
ENDBRANCH  24  38
BRANCH  25  44
ATOM     44  C   UNL A   1      36.724  32.781  29.541  1.00  0.00    -0.014 A 
ATOM     45  C   UNL A   1      35.720  32.651  30.512  1.00  0.00     0.009 A 
ATOM     46  C   UNL A   1      36.429  33.484  28.360  1.00  0.00     0.009 A 
ATOM     47  C   UNL A   1      34.448  33.191  30.294  1.00  0.00     0.001 A 
ATOM     48  C   UNL A   1      35.169  34.050  28.158  1.00  0.00     0.001 A 
ATOM     49  C   UNL A   1      34.175  33.895  29.121  1.00  0.00     0.000 A 
ENDBRANCH  25  44
BRANCH  37  50
ATOM     50  C   UNL A   1      42.459  34.826  32.955  1.00  0.00    -0.014 A 
ATOM     51  C   UNL A   1      43.196  35.875  32.386  1.00  0.00     0.009 A 
ATOM     52  C   UNL A   1      41.954  34.970  34.257  1.00  0.00     0.009 A 
ATOM     53  C   UNL A   1      43.447  37.034  33.119  1.00  0.00     0.001 A 
ATOM     54  C   UNL A   1      42.178  36.143  34.975  1.00  0.00     0.001 A 
ATOM     55  C   UNL A   1      42.932  37.170  34.408  1.00  0.00     0.000 A 
ENDBRANCH  37  50
ENDBRANCH  11  12
ENDBRANCH   4   6
ENDBRANCH   3   4
ENDBRANCH   2   3
ENDBRANCH   1   2
BRANCH   1  56
ATOM     56  O   UNL A   1      42.662  19.676  26.501  1.00  0.00    -0.374 OA
BRANCH  56  57
ATOM     57  C   UNL A   1      43.127  18.559  25.742  1.00  0.00     0.202 C 
BRANCH  57  58
ATOM     58  C   UNL A   1      44.382  18.953  24.968  1.00  0.00     0.261 C 
BRANCH  58  59
ATOM     59  O   UNL A   1      44.217  20.267  24.405  1.00  0.00    -0.459 OA
BRANCH  59  60
ATOM     60  C   UNL A   1      45.210  21.156  24.710  1.00  0.00     0.365 C 
ATOM     61  O   UNL A   1      46.241  20.879  25.313  1.00  0.00    -0.245 OA
BRANCH  60  62
ATOM     62  C   UNL A   1      44.860  22.539  24.145  1.00  0.00     0.304 C 
ATOM     63  C   UNL A   1      43.543  23.013  24.724  1.00  0.00     0.153 C 
ATOM     64  N   UNL A   1      45.922  23.550  24.401  1.00  0.00    -0.320 N 
ATOM     65  S   UNL A   1      44.023  23.783  26.279  1.00  0.00    -0.089 SA
ATOM     66  C   UNL A   1      45.642  24.325  25.624  1.00  0.00     0.143 C 
ATOM     67  H   UNL A   1      45.972  24.188  23.607  1.00  0.00     0.348 HD
ATOM     68  H   UNL A   1      46.809  23.060  24.527  1.00  0.00     0.348 HD
ATOM     69  C   UNL A   1      46.784  24.177  26.652  1.00  0.00     0.081 C 
ATOM     70  C   UNL A   1      45.536  25.808  25.212  1.00  0.00     0.081 C 
ATOM     71  C   UNL A   1      46.646  25.110  27.860  1.00  0.00     0.007 C 
ATOM     72  C   UNL A   1      45.332  26.740  26.409  1.00  0.00     0.007 C 
ATOM     73  C   UNL A   1      46.429  26.567  27.455  1.00  0.00     0.001 C 
ENDBRANCH  60  62
ENDBRANCH  59  60
ENDBRANCH  58  59
ENDBRANCH  57  58
ENDBRANCH  56  57
ENDBRANCH   1  56
TORSDOF 14
ENDMDL
MODEL 2
REMARK VINA RESULT:      -9.4      5.118     10.804
REMARK SMILES O=C(OCCOCCOC(=O)[C@H]1CSC2(CCCCC2)[NH2+]1)c1ccc(-c2c3nc(c(-c4ccccc4)c4ccc([nH]4)c(-c4ccccc4)c4nc(c(-c5ccccc5)c5ccc2[nH]5)C=C4)C=C3)cc1
REMARK SMILES IDX 5 1 4 2 3 3 2 4 1 5 22 6 23 7 69 8 24 9 68 10 25 11 26 12
REMARK SMILES IDX 27 13 62 14 28 15 67 16 61 17 63 18 29 19 66 20 60 21 59 22
REMARK SMILES IDX 30 24 52 25 37 26 51 27 38 28 41 29 50 30 64 31 39 32 40 33
REMARK SMILES IDX 49 35 65 36 42 37 31 38 32 39 36 40 33 41 35 42 34 43 53 44
REMARK SMILES IDX 54 45 58 46 55 47 57 48 56 49 43 50 44 51 48 52 45 53 47 54
REMARK SMILES IDX 46 55 6 56 7 57 8 58 9 59 10 60 11 61 12 62 13 63 21 64
REMARK SMILES IDX 14 65 15 66 16 69 20 70 17 71 19 72 18 73
REMARK H PARENT 63 23 41 34 21 67 21 68
REMARK Flexibility Score: inf
ROOT
ATOM      1  C   UNL A   1      32.361  31.061  26.522  1.00  0.00     0.202 C 
ENDROOT
BRANCH   1   2
ATOM      2  C   UNL A   1      31.478  32.137  27.153  1.00  0.00     0.261 C 
BRANCH   2   3
ATOM      3  O   UNL A   1      32.105  33.423  27.066  1.00  0.00    -0.460 OA
BRANCH   3   4
ATOM      4  C   UNL A   1      32.886  34.014  27.999  1.00  0.00     0.338 C 
ATOM      5  O   UNL A   1      32.503  35.074  28.495  1.00  0.00    -0.246 OA
BRANCH   4   6
ATOM      6  C   UNL A   1      34.173  33.440  28.506  1.00  0.00     0.060 A 
ATOM      7  C   UNL A   1      35.442  33.671  27.969  1.00  0.00     0.016 A 
ATOM      8  C   UNL A   1      34.089  32.679  29.685  1.00  0.00     0.016 A 
ATOM      9  C   UNL A   1      36.588  33.169  28.561  1.00  0.00     0.010 A 
ATOM     10  C   UNL A   1      35.239  32.179  30.300  1.00  0.00     0.010 A 
ATOM     11  C   UNL A   1      36.491  32.425  29.728  1.00  0.00    -0.014 A 
BRANCH  11  12
ATOM     12  C   UNL A   1      37.721  31.816  30.245  1.00  0.00     0.031 A 
ATOM     13  C   UNL A   1      38.359  32.440  31.442  1.00  0.00     0.074 A 
ATOM     14  C   UNL A   1      38.154  30.657  29.723  1.00  0.00     0.049 A 
ATOM     15  N   UNL A   1      39.458  32.109  32.059  1.00  0.00    -0.248 NA
ATOM     16  C   UNL A   1      37.650  33.589  32.034  1.00  0.00     0.031 C 
ATOM     17  C   UNL A   1      37.492  29.919  28.643  1.00  0.00     0.029 A 
ATOM     18  N   UNL A   1      39.233  29.884  30.047  1.00  0.00    -0.354 N 
ATOM     19  C   UNL A   1      39.592  33.029  33.090  1.00  0.00     0.074 A 
ATOM     20  C   UNL A   1      38.467  33.932  33.016  1.00  0.00     0.031 C 
ATOM     21  C   UNL A   1      38.181  28.792  28.400  1.00  0.00     0.029 A 
ATOM     22  C   UNL A   1      39.361  28.769  29.255  1.00  0.00     0.049 A 
ATOM     23  H   UNL A   1      39.857  30.104  30.776  1.00  0.00     0.167 HD
ATOM     24  C   UNL A   1      40.585  33.111  34.003  1.00  0.00     0.031 A 
ATOM     25  C   UNL A   1      40.354  27.863  29.208  1.00  0.00     0.031 A 
ATOM     26  C   UNL A   1      41.701  32.206  34.024  1.00  0.00     0.049 A 
ATOM     27  C   UNL A   1      41.503  28.040  30.162  1.00  0.00     0.074 A 
ATOM     28  C   UNL A   1      42.805  32.209  34.853  1.00  0.00     0.029 A 
ATOM     29  N   UNL A   1      41.846  31.130  33.155  1.00  0.00    -0.354 N 
ATOM     30  N   UNL A   1      41.664  28.945  31.101  1.00  0.00    -0.248 NA
ATOM     31  C   UNL A   1      42.611  27.085  30.047  1.00  0.00     0.031 C 
ATOM     32  C   UNL A   1      43.650  31.171  34.444  1.00  0.00     0.029 A 
ATOM     33  C   UNL A   1      43.037  30.478  33.408  1.00  0.00     0.049 A 
ATOM     34  H   UNL A   1      41.197  30.871  32.463  1.00  0.00     0.167 HD
ATOM     35  C   UNL A   1      42.881  28.661  31.700  1.00  0.00     0.074 A 
ATOM     36  C   UNL A   1      43.405  27.484  31.032  1.00  0.00     0.031 C 
ATOM     37  C   UNL A   1      43.516  29.309  32.709  1.00  0.00     0.031 A 
BRANCH  24  38
ATOM     38  C   UNL A   1      40.537  34.275  34.951  1.00  0.00    -0.014 A 
ATOM     39  C   UNL A   1      41.134  35.510  34.645  1.00  0.00     0.009 A 
ATOM     40  C   UNL A   1      39.937  34.108  36.208  1.00  0.00     0.009 A 
ATOM     41  C   UNL A   1      41.175  36.531  35.599  1.00  0.00     0.001 A 
ATOM     42  C   UNL A   1      39.952  35.140  37.147  1.00  0.00     0.001 A 
ATOM     43  C   UNL A   1      40.586  36.345  36.848  1.00  0.00     0.000 A 
ENDBRANCH  24  38
BRANCH  25  44
ATOM     44  C   UNL A   1      40.335  26.780  28.188  1.00  0.00    -0.014 A 
ATOM     45  C   UNL A   1      40.901  26.962  26.919  1.00  0.00     0.009 A 
ATOM     46  C   UNL A   1      39.745  25.540  28.489  1.00  0.00     0.009 A 
ATOM     47  C   UNL A   1      40.858  25.936  25.969  1.00  0.00     0.001 A 
ATOM     48  C   UNL A   1      39.732  24.506  27.551  1.00  0.00     0.001 A 
ATOM     49  C   UNL A   1      40.280  24.708  26.287  1.00  0.00     0.000 A 
ENDBRANCH  25  44
BRANCH  37  50
ATOM     50  C   UNL A   1      44.826  28.734  33.162  1.00  0.00    -0.014 A 
ATOM     51  C   UNL A   1      46.042  29.162  32.609  1.00  0.00     0.009 A 
ATOM     52  C   UNL A   1      44.840  27.792  34.202  1.00  0.00     0.009 A 
ATOM     53  C   UNL A   1      47.247  28.635  33.072  1.00  0.00     0.001 A 
ATOM     54  C   UNL A   1      46.047  27.292  34.686  1.00  0.00     0.001 A 
ATOM     55  C   UNL A   1      47.249  27.707  34.114  1.00  0.00     0.000 A 
ENDBRANCH  37  50
ENDBRANCH  11  12
ENDBRANCH   4   6
ENDBRANCH   3   4
ENDBRANCH   2   3
ENDBRANCH   1   2
BRANCH   1  56
ATOM     56  O   UNL A   1      32.872  30.120  27.462  1.00  0.00    -0.374 OA
BRANCH  56  57
ATOM     57  C   UNL A   1      33.838  29.191  26.969  1.00  0.00     0.202 C 
BRANCH  57  58
ATOM     58  C   UNL A   1      33.756  29.128  25.445  1.00  0.00     0.261 C 
BRANCH  58  59
ATOM     59  O   UNL A   1      33.223  27.855  25.038  1.00  0.00    -0.459 OA
BRANCH  59  60
ATOM     60  C   UNL A   1      31.883  27.852  24.760  1.00  0.00     0.365 C 
ATOM     61  O   UNL A   1      30.993  27.717  25.592  1.00  0.00    -0.245 OA
BRANCH  60  62
ATOM     62  C   UNL A   1      31.664  28.087  23.260  1.00  0.00     0.304 C 
ATOM     63  C   UNL A   1      30.551  27.191  22.755  1.00  0.00     0.153 C 
ATOM     64  N   UNL A   1      31.358  29.508  22.940  1.00  0.00    -0.320 N 
ATOM     65  S   UNL A   1      29.061  28.137  23.110  1.00  0.00    -0.089 SA
ATOM     66  C   UNL A   1      29.903  29.741  22.870  1.00  0.00     0.143 C 
ATOM     67  H   UNL A   1      31.776  29.744  22.040  1.00  0.00     0.348 HD
ATOM     68  H   UNL A   1      31.743  30.095  23.682  1.00  0.00     0.348 HD
ATOM     69  C   UNL A   1      29.460  30.809  23.893  1.00  0.00     0.081 C 
ATOM     70  C   UNL A   1      29.589  30.256  21.450  1.00  0.00     0.081 C 
ATOM     71  C   UNL A   1      27.997  31.238  23.738  1.00  0.00     0.007 C 
ATOM     72  C   UNL A   1      28.115  30.624  21.268  1.00  0.00     0.007 C 
ATOM     73  C   UNL A   1      27.653  31.643  22.306  1.00  0.00     0.001 C 
ENDBRANCH  60  62
ENDBRANCH  59  60
ENDBRANCH  58  59
ENDBRANCH  57  58
ENDBRANCH  56  57
ENDBRANCH   1  56
TORSDOF 14
ENDMDL
MODEL 3
REMARK VINA RESULT:      -9.2      4.404     10.957
REMARK SMILES O=C(OCCOCCOC(=O)[C@H]1CSC2(CCCCC2)[NH2+]1)c1ccc(-c2c3nc(c(-c4ccccc4)c4ccc([nH]4)c(-c4ccccc4)c4nc(c(-c5ccccc5)c5ccc2[nH]5)C=C4)C=C3)cc1
REMARK SMILES IDX 5 1 4 2 3 3 2 4 1 5 22 6 23 7 69 8 24 9 68 10 25 11 26 12
REMARK SMILES IDX 27 13 62 14 28 15 67 16 61 17 63 18 29 19 66 20 60 21 59 22
REMARK SMILES IDX 30 24 52 25 37 26 51 27 38 28 41 29 50 30 64 31 39 32 40 33
REMARK SMILES IDX 49 35 65 36 42 37 31 38 32 39 36 40 33 41 35 42 34 43 53 44
REMARK SMILES IDX 54 45 58 46 55 47 57 48 56 49 43 50 44 51 48 52 45 53 47 54
REMARK SMILES IDX 46 55 6 56 7 57 8 58 9 59 10 60 11 61 12 62 13 63 21 64
REMARK SMILES IDX 14 65 15 66 16 69 20 70 17 71 19 72 18 73
REMARK H PARENT 63 23 41 34 21 67 21 68
REMARK Flexibility Score: inf
ROOT
ATOM      1  C   UNL A   1      34.322  34.404  28.297  1.00  0.00     0.202 C 
ENDROOT
BRANCH   1   2
ATOM      2  C   UNL A   1      34.888  33.074  28.795  1.00  0.00     0.261 C 
BRANCH   2   3
ATOM      3  O   UNL A   1      34.122  31.976  28.286  1.00  0.00    -0.460 OA
BRANCH   3   4
ATOM      4  C   UNL A   1      34.579  30.745  27.959  1.00  0.00     0.338 C 
ATOM      5  O   UNL A   1      33.855  30.013  27.285  1.00  0.00    -0.246 OA
BRANCH   4   6
ATOM      6  C   UNL A   1      35.936  30.226  28.325  1.00  0.00     0.060 A 
ATOM      7  C   UNL A   1      36.282  29.622  29.536  1.00  0.00     0.016 A 
ATOM      8  C   UNL A   1      36.910  30.273  27.313  1.00  0.00     0.016 A 
ATOM      9  C   UNL A   1      37.542  29.089  29.753  1.00  0.00     0.010 A 
ATOM     10  C   UNL A   1      38.180  29.728  27.514  1.00  0.00     0.010 A 
ATOM     11  C   UNL A   1      38.492  29.138  28.743  1.00  0.00    -0.014 A 
BRANCH  11  12
ATOM     12  C   UNL A   1      39.844  28.669  29.065  1.00  0.00     0.031 A 
ATOM     13  C   UNL A   1      40.716  29.561  29.884  1.00  0.00     0.074 A 
ATOM     14  C   UNL A   1      40.203  27.416  28.738  1.00  0.00     0.049 A 
ATOM     15  N   UNL A   1      41.949  29.386  30.267  1.00  0.00    -0.248 NA
ATOM     16  C   UNL A   1      40.106  30.821  30.348  1.00  0.00     0.031 C 
ATOM     17  C   UNL A   1      39.343  26.441  28.061  1.00  0.00     0.029 A 
ATOM     18  N   UNL A   1      41.372  26.741  28.955  1.00  0.00    -0.354 N 
ATOM     19  C   UNL A   1      42.275  30.527  30.988  1.00  0.00     0.074 A 
ATOM     20  C   UNL A   1      41.116  31.388  30.987  1.00  0.00     0.031 C 
ATOM     21  C   UNL A   1      40.017  25.287  27.925  1.00  0.00     0.029 A 
ATOM     22  C   UNL A   1      41.368  25.468  28.441  1.00  0.00     0.049 A 
ATOM     23  H   UNL A   1      42.140  27.130  29.433  1.00  0.00     0.167 HD
ATOM     24  C   UNL A   1      43.454  30.825  31.579  1.00  0.00     0.031 A 
ATOM     25  C   UNL A   1      42.370  24.575  28.361  1.00  0.00     0.031 A 
ATOM     26  C   UNL A   1      44.592  29.948  31.533  1.00  0.00     0.049 A 
ATOM     27  C   UNL A   1      43.704  24.974  28.930  1.00  0.00     0.074 A 
ATOM     28  C   UNL A   1      45.861  30.148  32.036  1.00  0.00     0.029 A 
ATOM     29  N   UNL A   1      44.584  28.694  30.933  1.00  0.00    -0.354 N 
ATOM     30  N   UNL A   1      44.035  26.078  29.560  1.00  0.00    -0.248 NA
ATOM     31  C   UNL A   1      44.804  24.016  28.771  1.00  0.00     0.031 C 
ATOM     32  C   UNL A   1      46.640  29.040  31.686  1.00  0.00     0.029 A 
ATOM     33  C   UNL A   1      45.836  28.119  31.026  1.00  0.00     0.049 A 
ATOM     34  H   UNL A   1      43.802  28.277  30.505  1.00  0.00     0.167 HD
ATOM     35  C   UNL A   1      45.376  25.943  29.887  1.00  0.00     0.074 A 
ATOM     36  C   UNL A   1      45.789  24.639  29.404  1.00  0.00     0.031 C 
ATOM     37  C   UNL A   1      46.197  26.815  30.525  1.00  0.00     0.031 A 
BRANCH  24  38
ATOM     38  C   UNL A   1      43.570  32.183  32.209  1.00  0.00    -0.014 A 
ATOM     39  C   UNL A   1      44.079  33.289  31.507  1.00  0.00     0.009 A 
ATOM     40  C   UNL A   1      43.222  32.342  33.559  1.00  0.00     0.009 A 
ATOM     41  C   UNL A   1      44.287  34.507  32.160  1.00  0.00     0.001 A 
ATOM     42  C   UNL A   1      43.401  33.569  34.201  1.00  0.00     0.001 A 
ATOM     43  C   UNL A   1      43.948  34.645  33.505  1.00  0.00     0.000 A 
ENDBRANCH  24  38
BRANCH  25  44
ATOM     44  C   UNL A   1      42.167  23.278  27.662  1.00  0.00    -0.014 A 
ATOM     45  C   UNL A   1      41.588  22.179  28.314  1.00  0.00     0.009 A 
ATOM     46  C   UNL A   1      42.552  23.134  26.317  1.00  0.00     0.009 A 
ATOM     47  C   UNL A   1      41.421  20.964  27.643  1.00  0.00     0.001 A 
ATOM     48  C   UNL A   1      42.355  21.930  25.640  1.00  0.00     0.001 A 
ATOM     49  C   UNL A   1      41.798  20.841  26.307  1.00  0.00     0.000 A 
ENDBRANCH  25  44
BRANCH  37  50
ATOM     50  C   UNL A   1      47.609  26.362  30.759  1.00  0.00    -0.014 A 
ATOM     51  C   UNL A   1      47.993  25.763  31.968  1.00  0.00     0.009 A 
ATOM     52  C   UNL A   1      48.550  26.484  29.725  1.00  0.00     0.009 A 
ATOM     53  C   UNL A   1      49.303  25.321  32.147  1.00  0.00     0.001 A 
ATOM     54  C   UNL A   1      49.850  26.011  29.894  1.00  0.00     0.001 A 
ATOM     55  C   UNL A   1      50.227  25.438  31.108  1.00  0.00     0.000 A 
ENDBRANCH  37  50
ENDBRANCH  11  12
ENDBRANCH   4   6
ENDBRANCH   3   4
ENDBRANCH   2   3
ENDBRANCH   1   2
BRANCH   1  56
ATOM     56  O   UNL A   1      32.981  34.645  28.717  1.00  0.00    -0.374 OA
BRANCH  56  57
ATOM     57  C   UNL A   1      32.780  35.757  29.590  1.00  0.00     0.202 C 
BRANCH  57  58
ATOM     58  C   UNL A   1      33.766  35.678  30.754  1.00  0.00     0.261 C 
BRANCH  58  59
ATOM     59  O   UNL A   1      33.289  34.739  31.734  1.00  0.00    -0.459 OA
BRANCH  59  60
ATOM     60  C   UNL A   1      34.228  33.855  32.192  1.00  0.00     0.365 C 
ATOM     61  O   UNL A   1      34.028  32.665  32.404  1.00  0.00    -0.245 OA
BRANCH  60  62
ATOM     62  C   UNL A   1      35.576  34.569  32.355  1.00  0.00     0.304 C 
ATOM     63  C   UNL A   1      35.755  35.007  33.795  1.00  0.00     0.153 C 
ATOM     64  N   UNL A   1      36.727  33.725  31.933  1.00  0.00    -0.320 N 
ATOM     65  S   UNL A   1      36.444  33.548  34.593  1.00  0.00    -0.089 SA
ATOM     66  C   UNL A   1      37.321  33.013  33.081  1.00  0.00     0.143 C 
ATOM     67  H   UNL A   1      37.438  34.322  31.509  1.00  0.00     0.348 HD
ATOM     68  H   UNL A   1      36.390  33.033  31.264  1.00  0.00     0.348 HD
ATOM     69  C   UNL A   1      37.275  31.484  32.871  1.00  0.00     0.081 C 
ATOM     70  C   UNL A   1      38.795  33.455  33.182  1.00  0.00     0.081 C 
ATOM     71  C   UNL A   1      38.049  30.696  33.933  1.00  0.00     0.007 C 
ATOM     72  C   UNL A   1      39.558  32.719  34.286  1.00  0.00     0.007 C 
ATOM     73  C   UNL A   1      39.478  31.205  34.117  1.00  0.00     0.001 C 
ENDBRANCH  60  62
ENDBRANCH  59  60
ENDBRANCH  58  59
ENDBRANCH  57  58
ENDBRANCH  56  57
ENDBRANCH   1  56
TORSDOF 14
ENDMDL
