MODEL 1
REMARK VINA RESULT:      -9.2      0.000      0.000
REMARK SMILES COCC[C@H](NC(=O)c1ccc(Br)nc1)C(=O)OCCOCCOC(=O)c1ccc(-c2c3nc(c(-c4ccccc4)c4ccc([nH]4)c(-c4ccccc4)c4nc(c(-c5ccccc5)c5ccc2[nH]5)C=C4)C=C3)cc1
REMARK SMILES IDX 20 1 19 2 18 3 16 4 17 5 5 6 4 7 3 8 2 9 1 10 6 11 7 12 8 14
REMARK SMILES IDX 9 15 10 16 15 17 11 18 14 19 12 20 13 21 21 22 22 23 23 24
REMARK SMILES IDX 24 25 25 26 26 27 27 28 28 29 74 30 29 31 73 32 30 33 31 34
REMARK SMILES IDX 32 35 67 36 33 37 72 38 66 39 68 40 34 41 71 42 65 43 64 44
REMARK SMILES IDX 35 46 57 47 42 48 56 49 43 50 46 51 55 52 69 53 44 54 45 55
REMARK SMILES IDX 54 57 70 58 47 59 36 60 37 61 41 62 38 63 40 64 39 65 58 66
REMARK SMILES IDX 59 67 63 68 60 69 62 70 61 71 48 72 49 73 53 74 50 75 52 76
REMARK SMILES IDX 51 77
REMARK H PARENT 6 13 68 45 46 56
REMARK Flexibility Score: inf
ROOT
ATOM      1  C   UNL A   1      36.356  22.817  23.531  1.00  0.00     0.202 C 
ENDROOT
BRANCH   1   2
ATOM      2  C   UNL A   1      35.117  23.654  23.873  1.00  0.00     0.261 C 
BRANCH   2   3
ATOM      3  O   UNL A   1      34.622  24.456  22.794  1.00  0.00    -0.462 OA
BRANCH   3   4
ATOM      4  C   UNL A   1      33.438  24.005  22.285  1.00  0.00     0.328 C 
ATOM      5  O   UNL A   1      33.335  23.325  21.270  1.00  0.00    -0.250 OA
BRANCH   4   6
ATOM      6  C   UNL A   1      32.221  24.490  23.089  1.00  0.00     0.194 C 
BRANCH   6   7
ATOM      7  C   UNL A   1      31.497  23.222  23.566  1.00  0.00     0.065 C 
BRANCH   7   8
ATOM      8  C   UNL A   1      31.031  23.302  25.026  1.00  0.00     0.162 C 
BRANCH   8   9
ATOM      9  O   UNL A   1      31.291  22.092  25.738  1.00  0.00    -0.385 OA
ATOM     10  C   UNL A   1      32.165  21.182  25.076  1.00  0.00     0.194 C 
ENDBRANCH   8   9
ENDBRANCH   7   8
ENDBRANCH   6   7
BRANCH   6  11
ATOM     11  N   UNL A   1      31.367  25.446  22.358  1.00  0.00    -0.338 N 
ATOM     12  C   UNL A   1      31.252  26.810  22.519  1.00  0.00     0.253 C 
ATOM     13  H   UNL A   1      30.800  25.055  21.655  1.00  0.00     0.164 HD
ATOM     14  O   UNL A   1      30.654  27.492  21.695  1.00  0.00    -0.269 OA
BRANCH  12  15
ATOM     15  C   UNL A   1      31.748  27.439  23.753  1.00  0.00     0.058 A 
ATOM     16  C   UNL A   1      31.113  27.328  24.987  1.00  0.00     0.018 A 
ATOM     17  C   UNL A   1      32.809  28.327  23.629  1.00  0.00     0.126 A 
ATOM     18  C   UNL A   1      31.487  28.196  26.015  1.00  0.00     0.037 A 
ATOM     19  N   UNL A   1      33.195  29.173  24.613  1.00  0.00    -0.249 NA
ATOM     20  C   UNL A   1      32.504  29.113  25.774  1.00  0.00     0.106 A 
ATOM     21  Br  UNL A   1      32.902  30.410  27.098  1.00  0.00    -0.029 Br
ENDBRANCH  12  15
ENDBRANCH   6  11
ENDBRANCH   4   6
ENDBRANCH   3   4
ENDBRANCH   2   3
ENDBRANCH   1   2
BRANCH   1  22
ATOM     22  O   UNL A   1      36.593  21.633  24.280  1.00  0.00    -0.374 OA
BRANCH  22  23
ATOM     23  C   UNL A   1      37.761  21.553  25.098  1.00  0.00     0.202 C 
BRANCH  23  24
ATOM     24  C   UNL A   1      38.589  20.265  25.058  1.00  0.00     0.261 C 
BRANCH  24  25
ATOM     25  O   UNL A   1      39.238  20.003  26.318  1.00  0.00    -0.460 OA
BRANCH  25  26
ATOM     26  C   UNL A   1      40.573  19.793  26.227  1.00  0.00     0.338 C 
ATOM     27  O   UNL A   1      41.142  18.828  25.737  1.00  0.00    -0.246 OA
BRANCH  26  28
ATOM     28  C   UNL A   1      41.308  20.996  26.643  1.00  0.00     0.060 A 
ATOM     29  C   UNL A   1      41.293  21.333  28.004  1.00  0.00     0.016 A 
ATOM     30  C   UNL A   1      41.879  21.851  25.702  1.00  0.00     0.016 A 
ATOM     31  C   UNL A   1      41.807  22.557  28.422  1.00  0.00     0.010 A 
ATOM     32  C   UNL A   1      42.384  23.086  26.122  1.00  0.00     0.010 A 
ATOM     33  C   UNL A   1      42.315  23.460  27.477  1.00  0.00    -0.014 A 
BRANCH  33  34
ATOM     34  C   UNL A   1      42.628  24.847  27.890  1.00  0.00     0.031 A 
ATOM     35  C   UNL A   1      44.067  25.253  28.058  1.00  0.00     0.074 A 
ATOM     36  C   UNL A   1      41.646  25.745  28.077  1.00  0.00     0.049 A 
ATOM     37  N   UNL A   1      44.564  26.407  28.423  1.00  0.00    -0.248 NA
ATOM     38  C   UNL A   1      45.079  24.221  27.774  1.00  0.00     0.031 C 
ATOM     39  C   UNL A   1      40.218  25.488  27.895  1.00  0.00     0.029 A 
ATOM     40  N   UNL A   1      41.708  27.060  28.464  1.00  0.00    -0.354 N 
ATOM     41  C   UNL A   1      45.944  26.240  28.419  1.00  0.00     0.074 A 
ATOM     42  C   UNL A   1      46.204  24.869  28.039  1.00  0.00     0.031 C 
ATOM     43  C   UNL A   1      39.537  26.612  28.177  1.00  0.00     0.029 A 
ATOM     44  C   UNL A   1      40.477  27.652  28.588  1.00  0.00     0.049 A 
ATOM     45  H   UNL A   1      42.555  27.532  28.636  1.00  0.00     0.167 HD
ATOM     46  C   UNL A   1      46.908  27.148  28.701  1.00  0.00     0.031 A 
ATOM     47  C   UNL A   1      40.146  28.889  29.005  1.00  0.00     0.031 A 
ATOM     48  C   UNL A   1      46.651  28.507  29.098  1.00  0.00     0.049 A 
ATOM     49  C   UNL A   1      41.232  29.854  29.397  1.00  0.00     0.074 A 
ATOM     50  C   UNL A   1      47.562  29.505  29.398  1.00  0.00     0.029 A 
ATOM     51  N   UNL A   1      45.389  29.054  29.259  1.00  0.00    -0.354 N 
ATOM     52  N   UNL A   1      42.533  29.691  29.367  1.00  0.00    -0.248 NA
ATOM     53  C   UNL A   1      40.802  31.176  29.874  1.00  0.00     0.031 C 
ATOM     54  C   UNL A   1      46.849  30.643  29.789  1.00  0.00     0.029 A 
ATOM     55  C   UNL A   1      45.495  30.368  29.681  1.00  0.00     0.049 A 
ATOM     56  H   UNL A   1      44.542  28.578  29.098  1.00  0.00     0.167 HD
ATOM     57  C   UNL A   1      43.076  30.896  29.796  1.00  0.00     0.074 A 
ATOM     58  C   UNL A   1      41.965  31.783  30.068  1.00  0.00     0.031 C 
ATOM     59  C   UNL A   1      44.379  31.237  29.949  1.00  0.00     0.031 A 
BRANCH  46  60
ATOM     60  C   UNL A   1      48.335  26.683  28.626  1.00  0.00    -0.014 A 
ATOM     61  C   UNL A   1      48.961  26.071  29.723  1.00  0.00     0.009 A 
ATOM     62  C   UNL A   1      49.054  26.836  27.430  1.00  0.00     0.009 A 
ATOM     63  C   UNL A   1      50.291  25.653  29.634  1.00  0.00     0.001 A 
ATOM     64  C   UNL A   1      50.375  26.394  27.336  1.00  0.00     0.001 A 
ATOM     65  C   UNL A   1      50.995  25.810  28.440  1.00  0.00     0.000 A 
ENDBRANCH  46  60
BRANCH  47  66
ATOM     66  C   UNL A   1      38.717  29.284  29.094  1.00  0.00    -0.014 A 
ATOM     67  C   UNL A   1      38.070  29.881  28.002  1.00  0.00     0.009 A 
ATOM     68  C   UNL A   1      37.997  29.079  30.282  1.00  0.00     0.009 A 
ATOM     69  C   UNL A   1      36.736  30.285  28.106  1.00  0.00     0.001 A 
ATOM     70  C   UNL A   1      36.656  29.459  30.373  1.00  0.00     0.001 A 
ATOM     71  C   UNL A   1      36.030  30.070  29.288  1.00  0.00     0.000 A 
ENDBRANCH  47  66
BRANCH  59  72
ATOM     72  C   UNL A   1      44.674  32.640  30.398  1.00  0.00    -0.014 A 
ATOM     73  C   UNL A   1      44.829  32.954  31.757  1.00  0.00     0.009 A 
ATOM     74  C   UNL A   1      44.838  33.655  29.442  1.00  0.00     0.009 A 
ATOM     75  C   UNL A   1      45.113  34.263  32.150  1.00  0.00     0.001 A 
ATOM     76  C   UNL A   1      45.148  34.957  29.837  1.00  0.00     0.001 A 
ATOM     77  C   UNL A   1      45.277  35.262  31.191  1.00  0.00     0.000 A 
ENDBRANCH  59  72
ENDBRANCH  33  34
ENDBRANCH  26  28
ENDBRANCH  25  26
ENDBRANCH  24  25
ENDBRANCH  23  24
ENDBRANCH  22  23
ENDBRANCH   1  22
TORSDOF 19
ENDMDL
MODEL 2
REMARK VINA RESULT:      -8.9      1.112      6.098
REMARK SMILES COCC[C@H](NC(=O)c1ccc(Br)nc1)C(=O)OCCOCCOC(=O)c1ccc(-c2c3nc(c(-c4ccccc4)c4ccc([nH]4)c(-c4ccccc4)c4nc(c(-c5ccccc5)c5ccc2[nH]5)C=C4)C=C3)cc1
REMARK SMILES IDX 20 1 19 2 18 3 16 4 17 5 5 6 4 7 3 8 2 9 1 10 6 11 7 12 8 14
REMARK SMILES IDX 9 15 10 16 15 17 11 18 14 19 12 20 13 21 21 22 22 23 23 24
REMARK SMILES IDX 24 25 25 26 26 27 27 28 28 29 74 30 29 31 73 32 30 33 31 34
REMARK SMILES IDX 32 35 67 36 33 37 72 38 66 39 68 40 34 41 71 42 65 43 64 44
REMARK SMILES IDX 35 46 57 47 42 48 56 49 43 50 46 51 55 52 69 53 44 54 45 55
REMARK SMILES IDX 54 57 70 58 47 59 36 60 37 61 41 62 38 63 40 64 39 65 58 66
REMARK SMILES IDX 59 67 63 68 60 69 62 70 61 71 48 72 49 73 53 74 50 75 52 76
REMARK SMILES IDX 51 77
REMARK H PARENT 6 13 68 45 46 56
REMARK Flexibility Score: inf
ROOT
ATOM      1  C   UNL A   1      36.983  21.861  24.218  1.00  0.00     0.202 C 
ENDROOT
BRANCH   1   2
ATOM      2  C   UNL A   1      35.603  22.485  23.975  1.00  0.00     0.261 C 
BRANCH   2   3
ATOM      3  O   UNL A   1      34.514  21.781  24.584  1.00  0.00    -0.462 OA
BRANCH   3   4
ATOM      4  C   UNL A   1      33.352  21.864  23.871  1.00  0.00     0.328 C 
ATOM      5  O   UNL A   1      32.870  20.942  23.222  1.00  0.00    -0.250 OA
BRANCH   4   6
ATOM      6  C   UNL A   1      32.725  23.267  23.916  1.00  0.00     0.194 C 
BRANCH   6   7
ATOM      7  C   UNL A   1      31.265  23.064  24.347  1.00  0.00     0.065 C 
BRANCH   7   8
ATOM      8  C   UNL A   1      31.119  22.244  25.635  1.00  0.00     0.162 C 
BRANCH   8   9
ATOM      9  O   UNL A   1      31.111  23.071  26.799  1.00  0.00    -0.385 OA
ATOM     10  C   UNL A   1      32.334  23.756  27.057  1.00  0.00     0.194 C 
ENDBRANCH   8   9
ENDBRANCH   7   8
ENDBRANCH   6   7
BRANCH   6  11
ATOM     11  N   UNL A   1      32.896  24.034  22.668  1.00  0.00    -0.338 N 
ATOM     12  C   UNL A   1      33.224  25.362  22.500  1.00  0.00     0.253 C 
ATOM     13  H   UNL A   1      32.756  23.526  21.836  1.00  0.00     0.164 HD
ATOM     14  O   UNL A   1      33.533  25.800  21.397  1.00  0.00    -0.269 OA
BRANCH  12  15
ATOM     15  C   UNL A   1      33.090  26.292  23.632  1.00  0.00     0.058 A 
ATOM     16  C   UNL A   1      33.964  26.321  24.716  1.00  0.00     0.018 A 
ATOM     17  C   UNL A   1      31.930  27.053  23.693  1.00  0.00     0.126 A 
ATOM     18  C   UNL A   1      33.584  27.019  25.865  1.00  0.00     0.037 A 
ATOM     19  N   UNL A   1      31.545  27.744  24.792  1.00  0.00    -0.249 NA
ATOM     20  C   UNL A   1      32.364  27.684  25.867  1.00  0.00     0.106 A 
ATOM     21  Br  UNL A   1      31.759  28.486  27.475  1.00  0.00    -0.029 Br
ENDBRANCH  12  15
ENDBRANCH   6  11
ENDBRANCH   4   6
ENDBRANCH   3   4
ENDBRANCH   2   3
ENDBRANCH   1   2
BRANCH   1  22
ATOM     22  O   UNL A   1      37.071  20.753  25.103  1.00  0.00    -0.374 OA
BRANCH  22  23
ATOM     23  C   UNL A   1      38.167  19.847  24.973  1.00  0.00     0.202 C 
BRANCH  23  24
ATOM     24  C   UNL A   1      39.374  20.031  25.899  1.00  0.00     0.261 C 
BRANCH  24  25
ATOM     25  O   UNL A   1      40.411  19.067  25.629  1.00  0.00    -0.460 OA
BRANCH  25  26
ATOM     26  C   UNL A   1      41.619  19.383  26.152  1.00  0.00     0.338 C 
ATOM     27  O   UNL A   1      42.641  18.710  26.121  1.00  0.00    -0.246 OA
BRANCH  26  28
ATOM     28  C   UNL A   1      41.621  20.772  26.632  1.00  0.00     0.060 A 
ATOM     29  C   UNL A   1      41.995  21.775  25.727  1.00  0.00     0.016 A 
ATOM     30  C   UNL A   1      41.399  21.068  27.976  1.00  0.00     0.016 A 
ATOM     31  C   UNL A   1      42.198  23.076  26.178  1.00  0.00     0.010 A 
ATOM     32  C   UNL A   1      41.616  22.373  28.430  1.00  0.00     0.010 A 
ATOM     33  C   UNL A   1      42.053  23.373  27.540  1.00  0.00    -0.014 A 
BRANCH  33  34
ATOM     34  C   UNL A   1      42.507  24.686  28.053  1.00  0.00     0.031 A 
ATOM     35  C   UNL A   1      41.494  25.775  28.273  1.00  0.00     0.074 A 
ATOM     36  C   UNL A   1      43.800  24.895  28.352  1.00  0.00     0.049 A 
ATOM     37  N   UNL A   1      41.673  26.999  28.701  1.00  0.00    -0.248 NA
ATOM     38  C   UNL A   1      40.091  25.439  27.975  1.00  0.00     0.031 C 
ATOM     39  C   UNL A   1      44.868  23.904  28.231  1.00  0.00     0.029 A 
ATOM     40  N   UNL A   1      44.432  26.018  28.822  1.00  0.00    -0.354 N 
ATOM     41  C   UNL A   1      40.411  27.581  28.718  1.00  0.00     0.074 A 
ATOM     42  C   UNL A   1      39.479  26.585  28.236  1.00  0.00     0.031 C 
ATOM     43  C   UNL A   1      46.028  24.467  28.613  1.00  0.00     0.029 A 
ATOM     44  C   UNL A   1      45.787  25.862  28.973  1.00  0.00     0.049 A 
ATOM     45  H   UNL A   1      43.958  26.856  29.031  1.00  0.00     0.167 HD
ATOM     46  C   UNL A   1      40.059  28.830  29.105  1.00  0.00     0.031 A 
ATOM     47  C   UNL A   1      46.728  26.752  29.340  1.00  0.00     0.031 A 
ATOM     48  C   UNL A   1      40.987  29.827  29.567  1.00  0.00     0.049 A 
ATOM     49  C   UNL A   1      46.323  28.160  29.682  1.00  0.00     0.074 A 
ATOM     50  C   UNL A   1      40.725  31.120  29.988  1.00  0.00     0.029 A 
ATOM     51  N   UNL A   1      42.357  29.646  29.658  1.00  0.00    -0.354 N 
ATOM     52  N   UNL A   1      45.125  28.691  29.715  1.00  0.00    -0.248 NA
ATOM     53  C   UNL A   1      47.403  29.090  30.044  1.00  0.00     0.031 C 
ATOM     54  C   UNL A   1      41.945  31.736  30.287  1.00  0.00     0.029 A 
ATOM     55  C   UNL A   1      42.959  30.810  30.102  1.00  0.00     0.049 A 
ATOM     56  H   UNL A   1      42.832  28.811  29.438  1.00  0.00     0.167 HD
ATOM     57  C   UNL A   1      45.303  30.006  30.125  1.00  0.00     0.074 A 
ATOM     58  C   UNL A   1      46.724  30.189  30.341  1.00  0.00     0.031 C 
ATOM     59  C   UNL A   1      44.374  30.976  30.309  1.00  0.00     0.031 A 
BRANCH  46  60
ATOM     60  C   UNL A   1      38.605  29.196  29.007  1.00  0.00    -0.014 A 
ATOM     61  C   UNL A   1      37.742  29.051  30.103  1.00  0.00     0.009 A 
ATOM     62  C   UNL A   1      38.100  29.720  27.806  1.00  0.00     0.009 A 
ATOM     63  C   UNL A   1      36.391  29.392  29.988  1.00  0.00     0.001 A 
ATOM     64  C   UNL A   1      36.756  30.083  27.703  1.00  0.00     0.001 A 
ATOM     65  C   UNL A   1      35.901  29.911  28.790  1.00  0.00     0.000 A 
ENDBRANCH  46  60
BRANCH  47  66
ATOM     66  C   UNL A   1      48.156  26.345  29.385  1.00  0.00    -0.014 A 
ATOM     67  C   UNL A   1      48.973  26.477  28.253  1.00  0.00     0.009 A 
ATOM     68  C   UNL A   1      48.705  25.809  30.561  1.00  0.00     0.009 A 
ATOM     69  C   UNL A   1      50.306  26.057  28.291  1.00  0.00     0.001 A 
ATOM     70  C   UNL A   1      50.044  25.417  30.604  1.00  0.00     0.001 A 
ATOM     71  C   UNL A   1      50.840  25.533  29.467  1.00  0.00     0.000 A 
ENDBRANCH  47  66
BRANCH  59  72
ATOM     72  C   UNL A   1      44.860  32.310  30.800  1.00  0.00    -0.014 A 
ATOM     73  C   UNL A   1      45.210  33.333  29.905  1.00  0.00     0.009 A 
ATOM     74  C   UNL A   1      44.930  32.559  32.180  1.00  0.00     0.009 A 
ATOM     75  C   UNL A   1      45.649  34.569  30.385  1.00  0.00     0.001 A 
ATOM     76  C   UNL A   1      45.345  33.803  32.655  1.00  0.00     0.001 A 
ATOM     77  C   UNL A   1      45.712  34.804  31.758  1.00  0.00     0.000 A 
ENDBRANCH  59  72
ENDBRANCH  33  34
ENDBRANCH  26  28
ENDBRANCH  25  26
ENDBRANCH  24  25
ENDBRANCH  23  24
ENDBRANCH  22  23
ENDBRANCH   1  22
TORSDOF 19
ENDMDL
MODEL 3
REMARK VINA RESULT:      -8.8      4.441      8.284
REMARK SMILES COCC[C@H](NC(=O)c1ccc(Br)nc1)C(=O)OCCOCCOC(=O)c1ccc(-c2c3nc(c(-c4ccccc4)c4ccc([nH]4)c(-c4ccccc4)c4nc(c(-c5ccccc5)c5ccc2[nH]5)C=C4)C=C3)cc1
REMARK SMILES IDX 20 1 19 2 18 3 16 4 17 5 5 6 4 7 3 8 2 9 1 10 6 11 7 12 8 14
REMARK SMILES IDX 9 15 10 16 15 17 11 18 14 19 12 20 13 21 21 22 22 23 23 24
REMARK SMILES IDX 24 25 25 26 26 27 27 28 28 29 74 30 29 31 73 32 30 33 31 34
REMARK SMILES IDX 32 35 67 36 33 37 72 38 66 39 68 40 34 41 71 42 65 43 64 44
REMARK SMILES IDX 35 46 57 47 42 48 56 49 43 50 46 51 55 52 69 53 44 54 45 55
REMARK SMILES IDX 54 57 70 58 47 59 36 60 37 61 41 62 38 63 40 64 39 65 58 66
REMARK SMILES IDX 59 67 63 68 60 69 62 70 61 71 48 72 49 73 53 74 50 75 52 76
REMARK SMILES IDX 51 77
REMARK H PARENT 6 13 68 45 46 56
REMARK Flexibility Score: inf
ROOT
ATOM      1  C   UNL A   1      32.165  28.860  26.485  1.00  0.00     0.202 C 
ENDROOT
BRANCH   1   2
ATOM      2  C   UNL A   1      31.383  27.692  27.100  1.00  0.00     0.261 C 
BRANCH   2   3
ATOM      3  O   UNL A   1      31.614  26.424  26.474  1.00  0.00    -0.462 OA
BRANCH   3   4
ATOM      4  C   UNL A   1      30.910  26.257  25.316  1.00  0.00     0.328 C 
ATOM      5  O   UNL A   1      30.129  27.083  24.854  1.00  0.00    -0.250 OA
BRANCH   4   6
ATOM      6  C   UNL A   1      31.151  24.886  24.664  1.00  0.00     0.194 C 
BRANCH   6   7
ATOM      7  C   UNL A   1      31.010  25.105  23.151  1.00  0.00     0.065 C 
BRANCH   7   8
ATOM      8  C   UNL A   1      32.355  25.129  22.413  1.00  0.00     0.162 C 
BRANCH   8   9
ATOM      9  O   UNL A   1      33.315  24.264  23.020  1.00  0.00    -0.385 OA
ATOM     10  C   UNL A   1      33.563  23.052  22.313  1.00  0.00     0.194 C 
ENDBRANCH   8   9
ENDBRANCH   7   8
ENDBRANCH   6   7
BRANCH   6  11
ATOM     11  N   UNL A   1      30.302  23.810  25.211  1.00  0.00    -0.338 N 
ATOM     12  C   UNL A   1      30.656  22.733  25.994  1.00  0.00     0.253 C 
ATOM     13  H   UNL A   1      29.345  23.871  24.985  1.00  0.00     0.164 HD
ATOM     14  O   UNL A   1      29.802  22.043  26.540  1.00  0.00    -0.269 OA
BRANCH  12  15
ATOM     15  C   UNL A   1      32.069  22.333  26.081  1.00  0.00     0.058 A 
ATOM     16  C   UNL A   1      33.057  23.111  26.680  1.00  0.00     0.018 A 
ATOM     17  C   UNL A   1      32.453  21.201  25.374  1.00  0.00     0.126 A 
ATOM     18  C   UNL A   1      34.396  22.791  26.447  1.00  0.00     0.037 A 
ATOM     19  N   UNL A   1      33.744  20.866  25.141  1.00  0.00    -0.249 NA
ATOM     20  C   UNL A   1      34.688  21.686  25.655  1.00  0.00     0.106 A 
ATOM     21  Br  UNL A   1      36.494  21.344  25.188  1.00  0.00    -0.029 Br
ENDBRANCH  12  15
ENDBRANCH   6  11
ENDBRANCH   4   6
ENDBRANCH   3   4
ENDBRANCH   2   3
ENDBRANCH   1   2
BRANCH   1  22
ATOM     22  O   UNL A   1      32.030  30.143  27.079  1.00  0.00    -0.374 OA
BRANCH  22  23
ATOM     23  C   UNL A   1      31.561  31.231  26.282  1.00  0.00     0.202 C 
BRANCH  23  24
ATOM     24  C   UNL A   1      31.586  32.638  26.886  1.00  0.00     0.261 C 
BRANCH  24  25
ATOM     25  O   UNL A   1      32.879  33.259  26.752  1.00  0.00    -0.460 OA
BRANCH  25  26
ATOM     26  C   UNL A   1      33.388  33.749  27.908  1.00  0.00     0.338 C 
ATOM     27  O   UNL A   1      32.868  34.557  28.664  1.00  0.00    -0.246 OA
BRANCH  26  28
ATOM     28  C   UNL A   1      34.620  33.033  28.267  1.00  0.00     0.060 A 
ATOM     29  C   UNL A   1      34.497  31.727  28.760  1.00  0.00     0.016 A 
ATOM     30  C   UNL A   1      35.856  33.678  28.256  1.00  0.00     0.016 A 
ATOM     31  C   UNL A   1      35.607  31.077  29.292  1.00  0.00     0.010 A 
ATOM     32  C   UNL A   1      36.968  33.029  28.803  1.00  0.00     0.010 A 
ATOM     33  C   UNL A   1      36.839  31.742  29.357  1.00  0.00    -0.014 A 
BRANCH  33  34
ATOM     34  C   UNL A   1      37.946  31.149  30.142  1.00  0.00     0.031 A 
ATOM     35  C   UNL A   1      38.870  30.167  29.477  1.00  0.00     0.074 A 
ATOM     36  C   UNL A   1      38.149  31.509  31.421  1.00  0.00     0.049 A 
ATOM     37  N   UNL A   1      39.892  29.521  29.978  1.00  0.00    -0.248 NA
ATOM     38  C   UNL A   1      38.611  29.878  28.056  1.00  0.00     0.031 C 
ATOM     39  C   UNL A   1      37.354  32.487  32.162  1.00  0.00     0.029 A 
ATOM     40  N   UNL A   1      39.092  31.085  32.323  1.00  0.00    -0.354 N 
ATOM     41  C   UNL A   1      40.393  28.745  28.939  1.00  0.00     0.074 A 
ATOM     42  C   UNL A   1      39.550  28.983  27.788  1.00  0.00     0.031 C 
ATOM     43  C   UNL A   1      37.842  32.585  33.411  1.00  0.00     0.029 A 
ATOM     44  C   UNL A   1      38.958  31.655  33.564  1.00  0.00     0.049 A 
ATOM     45  H   UNL A   1      39.796  30.434  32.100  1.00  0.00     0.167 HD
ATOM     46  C   UNL A   1      41.462  27.914  28.942  1.00  0.00     0.031 A 
ATOM     47  C   UNL A   1      39.646  31.435  34.700  1.00  0.00     0.031 A 
ATOM     48  C   UNL A   1      42.290  27.662  30.091  1.00  0.00     0.049 A 
ATOM     49  C   UNL A   1      40.775  30.440  34.701  1.00  0.00     0.074 A 
ATOM     50  C   UNL A   1      43.400  26.841  30.190  1.00  0.00     0.029 A 
ATOM     51  N   UNL A   1      42.091  28.221  31.342  1.00  0.00    -0.354 N 
ATOM     52  N   UNL A   1      41.253  29.730  33.708  1.00  0.00    -0.248 NA
ATOM     53  C   UNL A   1      41.464  30.223  35.981  1.00  0.00     0.031 C 
ATOM     54  C   UNL A   1      43.843  26.866  31.517  1.00  0.00     0.029 A 
ATOM     55  C   UNL A   1      43.040  27.743  32.229  1.00  0.00     0.049 A 
ATOM     56  H   UNL A   1      41.379  28.863  31.568  1.00  0.00     0.167 HD
ATOM     57  C   UNL A   1      42.312  29.003  34.235  1.00  0.00     0.074 A 
ATOM     58  C   UNL A   1      42.415  29.367  35.633  1.00  0.00     0.031 C 
ATOM     59  C   UNL A   1      43.128  28.114  33.617  1.00  0.00     0.031 A 
BRANCH  46  60
ATOM     60  C   UNL A   1      41.770  27.185  27.665  1.00  0.00    -0.014 A 
ATOM     61  C   UNL A   1      41.211  25.928  27.389  1.00  0.00     0.009 A 
ATOM     62  C   UNL A   1      42.613  27.779  26.712  1.00  0.00     0.009 A 
ATOM     63  C   UNL A   1      41.517  25.265  26.198  1.00  0.00     0.001 A 
ATOM     64  C   UNL A   1      42.897  27.125  25.512  1.00  0.00     0.001 A 
ATOM     65  C   UNL A   1      42.356  25.865  25.259  1.00  0.00     0.000 A 
ENDBRANCH  46  60
BRANCH  47  66
ATOM     66  C   UNL A   1      39.275  32.156  35.944  1.00  0.00    -0.014 A 
ATOM     67  C   UNL A   1      38.245  31.679  36.768  1.00  0.00     0.009 A 
ATOM     68  C   UNL A   1      39.942  33.337  36.306  1.00  0.00     0.009 A 
ATOM     69  C   UNL A   1      37.875  32.382  37.917  1.00  0.00     0.001 A 
ATOM     70  C   UNL A   1      39.589  34.023  37.470  1.00  0.00     0.001 A 
ATOM     71  C   UNL A   1      38.550  33.550  38.269  1.00  0.00     0.000 A 
ENDBRANCH  47  66
BRANCH  59  72
ATOM     72  C   UNL A   1      44.226  27.501  34.440  1.00  0.00    -0.014 A 
ATOM     73  C   UNL A   1      45.483  28.115  34.551  1.00  0.00     0.009 A 
ATOM     74  C   UNL A   1      43.983  26.313  35.147  1.00  0.00     0.009 A 
ATOM     75  C   UNL A   1      46.485  27.533  35.330  1.00  0.00     0.001 A 
ATOM     76  C   UNL A   1      44.979  25.748  35.945  1.00  0.00     0.001 A 
ATOM     77  C   UNL A   1      46.231  26.353  36.029  1.00  0.00     0.000 A 
ENDBRANCH  59  72
ENDBRANCH  33  34
ENDBRANCH  26  28
ENDBRANCH  25  26
ENDBRANCH  24  25
ENDBRANCH  23  24
ENDBRANCH  22  23
ENDBRANCH   1  22
TORSDOF 19
ENDMDL
