MODEL 1
REMARK VINA RESULT:      -8.2      0.000      0.000
REMARK SMILES CC[C@@]1(CO)CCCN(c2nc(-c3ccc(C)s3)ccc2C(=O)OCCOCCOC(=O)c2ccc(-c3c4nc(c(-c5ccccc5)c5ccc([nH]5)c(-c5ccccc5)c5nc(c(-c6ccccc6)c6ccc3[nH]6)C=C5)C=C4)cc2)C1
REMARK SMILES IDX 26 1 25 2 24 3 22 4 23 5 21 6 10 7 11 8 12 9 20 10 19 11
REMARK SMILES IDX 9 12 3 13 6 14 81 15 7 16 8 17 2 18 1 19 4 20 5 21 13 23
REMARK SMILES IDX 14 24 18 25 15 26 16 27 17 28 27 29 28 30 29 31 30 32 31 33
REMARK SMILES IDX 32 34 33 35 34 36 80 37 35 38 79 39 36 40 37 41 38 42 73 43
REMARK SMILES IDX 39 44 78 45 72 46 74 47 40 48 77 49 71 50 70 51 41 53 63 54
REMARK SMILES IDX 48 55 62 56 49 57 52 58 61 59 75 60 50 61 51 62 60 64 76 65
REMARK SMILES IDX 53 66 42 67 43 68 47 69 44 70 46 71 45 72 64 73 65 74 69 75
REMARK SMILES IDX 66 76 68 77 67 78 54 79 55 80 59 81 56 82 58 83 57 84
REMARK H PARENT 5 22 74 52 52 63
REMARK Flexibility Score: inf
ROOT
ATOM      1  C   UNL A   1      44.954  22.318  23.972  1.00  0.00     0.202 C 
ENDROOT
BRANCH   1   2
ATOM      2  C   UNL A   1      46.363  22.911  24.020  1.00  0.00     0.261 C 
BRANCH   2   3
ATOM      3  O   UNL A   1      46.297  24.340  24.183  1.00  0.00    -0.460 OA
BRANCH   3   4
ATOM      4  C   UNL A   1      46.821  24.820  25.339  1.00  0.00     0.341 C 
ATOM      5  O   UNL A   1      47.401  24.167  26.189  1.00  0.00    -0.246 OA
BRANCH   4   6
ATOM      6  C   UNL A   1      46.609  26.281  25.401  1.00  0.00     0.102 A 
ATOM      7  C   UNL A   1      47.664  27.178  25.201  1.00  0.00     0.143 A 
ATOM      8  N   UNL A   1      47.531  28.485  25.531  1.00  0.00    -0.229 NA
ATOM      9  C   UNL A   1      46.345  28.926  26.011  1.00  0.00     0.083 A 
ATOM     10  C   UNL A   1      45.360  26.769  25.809  1.00  0.00     0.022 A 
ATOM     11  C   UNL A   1      45.224  28.116  26.115  1.00  0.00     0.031 A 
BRANCH   7  12
ATOM     12  N   UNL A   1      48.895  26.853  24.690  1.00  0.00    -0.355 N 
ATOM     13  C   UNL A   1      51.248  26.909  25.355  1.00  0.00     0.011 C 
ATOM     14  C   UNL A   1      51.607  26.763  23.846  1.00  0.00     0.013 C 
ATOM     15  C   UNL A   1      49.864  26.270  25.600  1.00  0.00     0.127 C 
ATOM     16  C   UNL A   1      50.508  27.266  22.905  1.00  0.00     0.022 C 
ATOM     17  C   UNL A   1      49.138  26.703  23.272  1.00  0.00     0.118 C 
BRANCH  13  18
ATOM     18  C   UNL A   1      52.328  26.144  26.168  1.00  0.00     0.008 C 
ATOM     19  C   UNL A   1      52.901  24.910  25.482  1.00  0.00     0.004 C 
ENDBRANCH  13  18
BRANCH  13  20
ATOM     20  C   UNL A   1      51.177  28.401  25.761  1.00  0.00     0.164 C 
BRANCH  20  21
ATOM     21  O   UNL A   1      52.255  29.134  25.184  1.00  0.00    -0.396 OA
ATOM     22  H   UNL A   1      52.202  30.061  25.464  1.00  0.00     0.210 HD
ENDBRANCH  20  21
ENDBRANCH  13  20
ENDBRANCH   7  12
BRANCH   9  23
ATOM     23  C   UNL A   1      46.362  30.268  26.587  1.00  0.00     0.053 A 
ATOM     24  C   UNL A   1      45.292  31.131  26.742  1.00  0.00     0.022 A 
ATOM     25  S   UNL A   1      47.804  30.949  27.204  1.00  0.00    -0.139 S 
ATOM     26  C   UNL A   1      45.663  32.354  27.368  1.00  0.00     0.016 A 
ATOM     27  C   UNL A   1      47.009  32.394  27.665  1.00  0.00     0.002 A 
ATOM     28  C   UNL A   1      47.776  33.496  28.310  1.00  0.00     0.056 C 
ENDBRANCH   9  23
ENDBRANCH   4   6
ENDBRANCH   3   4
ENDBRANCH   2   3
ENDBRANCH   1   2
BRANCH   1  29
ATOM     29  O   UNL A   1      44.829  20.925  23.677  1.00  0.00    -0.374 OA
BRANCH  29  30
ATOM     30  C   UNL A   1      44.999  20.003  24.745  1.00  0.00     0.202 C 
BRANCH  30  31
ATOM     31  C   UNL A   1      43.788  19.222  25.268  1.00  0.00     0.261 C 
BRANCH  31  32
ATOM     32  O   UNL A   1      42.572  19.959  25.211  1.00  0.00    -0.460 OA
BRANCH  32  33
ATOM     33  C   UNL A   1      41.909  19.970  26.391  1.00  0.00     0.338 C 
ATOM     34  O   UNL A   1      41.452  19.019  27.006  1.00  0.00    -0.246 OA
BRANCH  33  35
ATOM     35  C   UNL A   1      41.970  21.328  26.938  1.00  0.00     0.060 A 
ATOM     36  C   UNL A   1      42.144  22.380  26.033  1.00  0.00     0.016 A 
ATOM     37  C   UNL A   1      41.865  21.560  28.311  1.00  0.00     0.016 A 
ATOM     38  C   UNL A   1      42.260  23.678  26.507  1.00  0.00     0.010 A 
ATOM     39  C   UNL A   1      41.991  22.863  28.786  1.00  0.00     0.010 A 
ATOM     40  C   UNL A   1      42.223  23.917  27.887  1.00  0.00    -0.014 A 
BRANCH  40  41
ATOM     41  C   UNL A   1      42.578  25.258  28.391  1.00  0.00     0.031 A 
ATOM     42  C   UNL A   1      41.494  26.287  28.525  1.00  0.00     0.074 A 
ATOM     43  C   UNL A   1      43.840  25.528  28.759  1.00  0.00     0.049 A 
ATOM     44  N   UNL A   1      41.574  27.520  28.952  1.00  0.00    -0.248 NA
ATOM     45  C   UNL A   1      40.140  25.873  28.121  1.00  0.00     0.031 C 
ATOM     46  C   UNL A   1      44.957  24.586  28.706  1.00  0.00     0.029 A 
ATOM     47  N   UNL A   1      44.392  26.680  29.257  1.00  0.00    -0.354 N 
ATOM     48  C   UNL A   1      40.285  28.029  28.864  1.00  0.00     0.074 A 
ATOM     49  C   UNL A   1      39.450  26.988  28.307  1.00  0.00     0.031 C 
ATOM     50  C   UNL A   1      46.064  25.198  29.159  1.00  0.00     0.029 A 
ATOM     51  C   UNL A   1      45.738  26.581  29.497  1.00  0.00     0.049 A 
ATOM     52  H   UNL A   1      43.871  27.498  29.424  1.00  0.00     0.167 HD
ATOM     53  C   UNL A   1      39.838  29.256  29.221  1.00  0.00     0.031 A 
ATOM     54  C   UNL A   1      46.610  27.511  29.929  1.00  0.00     0.031 A 
ATOM     55  C   UNL A   1      40.682  30.291  29.755  1.00  0.00     0.049 A 
ATOM     56  C   UNL A   1      46.101  28.891  30.247  1.00  0.00     0.074 A 
ATOM     57  C   UNL A   1      40.332  31.563  30.166  1.00  0.00     0.029 A 
ATOM     58  N   UNL A   1      42.052  30.170  29.941  1.00  0.00    -0.354 N 
ATOM     59  N   UNL A   1      44.874  29.355  30.192  1.00  0.00    -0.248 NA
ATOM     60  C   UNL A   1      47.096  29.874  30.696  1.00  0.00     0.031 C 
ATOM     61  C   UNL A   1      41.500  32.237  30.537  1.00  0.00     0.029 A 
ATOM     62  C   UNL A   1      42.568  31.360  30.428  1.00  0.00     0.049 A 
ATOM     63  H   UNL A   1      42.579  29.360  29.755  1.00  0.00     0.167 HD
ATOM     64  C   UNL A   1      44.946  30.673  30.624  1.00  0.00     0.074 A 
ATOM     65  C   UNL A   1      46.335  30.926  30.956  1.00  0.00     0.031 C 
ATOM     66  C   UNL A   1      43.955  31.592  30.740  1.00  0.00     0.031 A 
BRANCH  53  67
ATOM     67  C   UNL A   1      38.380  29.552  29.003  1.00  0.00    -0.014 A 
ATOM     68  C   UNL A   1      37.890  29.947  27.747  1.00  0.00     0.009 A 
ATOM     69  C   UNL A   1      37.478  29.415  30.069  1.00  0.00     0.009 A 
ATOM     70  C   UNL A   1      36.532  30.233  27.575  1.00  0.00     0.001 A 
ATOM     71  C   UNL A   1      36.118  29.671  29.887  1.00  0.00     0.001 A 
ATOM     72  C   UNL A   1      35.648  30.090  28.644  1.00  0.00     0.000 A 
ENDBRANCH  53  67
BRANCH  54  73
ATOM     73  C   UNL A   1      48.049  27.173  30.070  1.00  0.00    -0.014 A 
ATOM     74  C   UNL A   1      48.541  26.609  31.257  1.00  0.00     0.009 A 
ATOM     75  C   UNL A   1      48.941  27.418  29.014  1.00  0.00     0.009 A 
ATOM     76  C   UNL A   1      49.902  26.321  31.391  1.00  0.00     0.001 A 
ATOM     77  C   UNL A   1      50.296  27.099  29.139  1.00  0.00     0.001 A 
ATOM     78  C   UNL A   1      50.775  26.561  30.331  1.00  0.00     0.000 A 
ENDBRANCH  54  73
BRANCH  66  79
ATOM     79  C   UNL A   1      44.335  32.944  31.275  1.00  0.00    -0.014 A 
ATOM     80  C   UNL A   1      44.372  33.203  32.654  1.00  0.00     0.009 A 
ATOM     81  C   UNL A   1      44.696  33.967  30.382  1.00  0.00     0.009 A 
ATOM     82  C   UNL A   1      44.723  34.470  33.125  1.00  0.00     0.001 A 
ATOM     83  C   UNL A   1      45.082  35.220  30.857  1.00  0.00     0.001 A 
ATOM     84  C   UNL A   1      45.083  35.475  32.227  1.00  0.00     0.000 A 
ENDBRANCH  66  79
ENDBRANCH  40  41
ENDBRANCH  33  35
ENDBRANCH  32  33
ENDBRANCH  31  32
ENDBRANCH  30  31
ENDBRANCH  29  30
ENDBRANCH   1  29
TORSDOF 19
ENDMDL
MODEL 2
REMARK VINA RESULT:      -7.9      1.046      5.851
REMARK SMILES CC[C@@]1(CO)CCCN(c2nc(-c3ccc(C)s3)ccc2C(=O)OCCOCCOC(=O)c2ccc(-c3c4nc(c(-c5ccccc5)c5ccc([nH]5)c(-c5ccccc5)c5nc(c(-c6ccccc6)c6ccc3[nH]6)C=C5)C=C4)cc2)C1
REMARK SMILES IDX 26 1 25 2 24 3 22 4 23 5 21 6 10 7 11 8 12 9 20 10 19 11
REMARK SMILES IDX 9 12 3 13 6 14 81 15 7 16 8 17 2 18 1 19 4 20 5 21 13 23
REMARK SMILES IDX 14 24 18 25 15 26 16 27 17 28 27 29 28 30 29 31 30 32 31 33
REMARK SMILES IDX 32 34 33 35 34 36 80 37 35 38 79 39 36 40 37 41 38 42 73 43
REMARK SMILES IDX 39 44 78 45 72 46 74 47 40 48 77 49 71 50 70 51 41 53 63 54
REMARK SMILES IDX 48 55 62 56 49 57 52 58 61 59 75 60 50 61 51 62 60 64 76 65
REMARK SMILES IDX 53 66 42 67 43 68 47 69 44 70 46 71 45 72 64 73 65 74 69 75
REMARK SMILES IDX 66 76 68 77 67 78 54 79 55 80 59 81 56 82 58 83 57 84
REMARK H PARENT 5 22 74 52 52 63
REMARK Flexibility Score: inf
ROOT
ATOM      1  C   UNL A   1      44.947  21.821  24.250  1.00  0.00     0.202 C 
ENDROOT
BRANCH   1   2
ATOM      2  C   UNL A   1      46.246  22.578  23.970  1.00  0.00     0.261 C 
BRANCH   2   3
ATOM      3  O   UNL A   1      46.071  23.982  24.232  1.00  0.00    -0.460 OA
BRANCH   3   4
ATOM      4  C   UNL A   1      46.472  24.401  25.460  1.00  0.00     0.341 C 
ATOM      5  O   UNL A   1      47.038  23.722  26.298  1.00  0.00    -0.246 OA
BRANCH   4   6
ATOM      6  C   UNL A   1      46.145  25.833  25.618  1.00  0.00     0.102 A 
ATOM      7  C   UNL A   1      47.145  26.812  25.621  1.00  0.00     0.143 A 
ATOM      8  N   UNL A   1      46.876  28.072  26.041  1.00  0.00    -0.229 NA
ATOM      9  C   UNL A   1      45.614  28.388  26.411  1.00  0.00     0.083 A 
ATOM     10  C   UNL A   1      44.825  26.199  25.913  1.00  0.00     0.022 A 
ATOM     11  C   UNL A   1      44.553  27.500  26.313  1.00  0.00     0.031 A 
BRANCH   7  12
ATOM     12  N   UNL A   1      48.447  26.616  25.235  1.00  0.00    -0.355 N 
ATOM     13  C   UNL A   1      50.706  27.112  26.028  1.00  0.00     0.011 C 
ATOM     14  C   UNL A   1      51.203  26.834  24.578  1.00  0.00     0.013 C 
ATOM     15  C   UNL A   1      49.413  26.306  26.274  1.00  0.00     0.127 C 
ATOM     16  C   UNL A   1      50.123  27.043  23.512  1.00  0.00     0.022 C 
ATOM     17  C   UNL A   1      48.822  26.328  23.868  1.00  0.00     0.118 C 
BRANCH  13  18
ATOM     18  C   UNL A   1      51.816  26.628  27.003  1.00  0.00     0.008 C 
ATOM     19  C   UNL A   1      53.212  27.163  26.710  1.00  0.00     0.004 C 
ENDBRANCH  13  18
BRANCH  13  20
ATOM     20  C   UNL A   1      50.390  28.615  26.223  1.00  0.00     0.164 C 
BRANCH  20  21
ATOM     21  O   UNL A   1      49.613  28.821  27.400  1.00  0.00    -0.396 OA
ATOM     22  H   UNL A   1      50.203  28.950  28.159  1.00  0.00     0.210 HD
ENDBRANCH  20  21
ENDBRANCH  13  20
ENDBRANCH   7  12
BRANCH   9  23
ATOM     23  C   UNL A   1      45.464  29.669  27.095  1.00  0.00     0.053 A 
ATOM     24  C   UNL A   1      46.375  30.290  27.931  1.00  0.00     0.022 A 
ATOM     25  S   UNL A   1      44.055  30.619  26.897  1.00  0.00    -0.139 S 
ATOM     26  C   UNL A   1      45.910  31.547  28.407  1.00  0.00     0.016 A 
ATOM     27  C   UNL A   1      44.652  31.848  27.930  1.00  0.00     0.002 A 
ATOM     28  C   UNL A   1      43.828  33.058  28.204  1.00  0.00     0.056 C 
ENDBRANCH   9  23
ENDBRANCH   4   6
ENDBRANCH   3   4
ENDBRANCH   2   3
ENDBRANCH   1   2
BRANCH   1  29
ATOM     29  O   UNL A   1      44.964  20.398  24.118  1.00  0.00    -0.374 OA
BRANCH  29  30
ATOM     30  C   UNL A   1      44.701  19.621  25.279  1.00  0.00     0.202 C 
BRANCH  30  31
ATOM     31  C   UNL A   1      43.338  18.938  25.435  1.00  0.00     0.261 C 
BRANCH  31  32
ATOM     32  O   UNL A   1      42.245  19.757  25.034  1.00  0.00    -0.460 OA
BRANCH  32  33
ATOM     33  C   UNL A   1      41.409  20.054  26.056  1.00  0.00     0.338 C 
ATOM     34  O   UNL A   1      40.521  19.360  26.528  1.00  0.00    -0.246 OA
BRANCH  33  35
ATOM     35  C   UNL A   1      41.850  21.315  26.657  1.00  0.00     0.060 A 
ATOM     36  C   UNL A   1      41.873  21.389  28.054  1.00  0.00     0.016 A 
ATOM     37  C   UNL A   1      42.227  22.401  25.865  1.00  0.00     0.016 A 
ATOM     38  C   UNL A   1      42.233  22.578  28.670  1.00  0.00     0.010 A 
ATOM     39  C   UNL A   1      42.580  23.597  26.485  1.00  0.00     0.010 A 
ATOM     40  C   UNL A   1      42.549  23.697  27.886  1.00  0.00    -0.014 A 
BRANCH  40  41
ATOM     41  C   UNL A   1      42.702  25.010  28.541  1.00  0.00     0.031 A 
ATOM     42  C   UNL A   1      44.031  25.364  29.143  1.00  0.00     0.074 A 
ATOM     43  C   UNL A   1      41.680  25.880  28.556  1.00  0.00     0.049 A 
ATOM     44  N   UNL A   1      44.394  26.460  29.756  1.00  0.00    -0.248 NA
ATOM     45  C   UNL A   1      45.090  24.347  29.043  1.00  0.00     0.031 C 
ATOM     46  C   UNL A   1      40.363  25.648  27.964  1.00  0.00     0.029 A 
ATOM     47  N   UNL A   1      41.595  27.140  29.088  1.00  0.00    -0.354 N 
ATOM     48  C   UNL A   1      45.720  26.262  30.119  1.00  0.00     0.074 A 
ATOM     49  C   UNL A   1      46.086  24.930  29.692  1.00  0.00     0.031 C 
ATOM     50  C   UNL A   1      39.600  26.736  28.163  1.00  0.00     0.029 A 
ATOM     51  C   UNL A   1      40.364  27.721  28.924  1.00  0.00     0.049 A 
ATOM     52  H   UNL A   1      42.346  27.584  29.543  1.00  0.00     0.167 HD
ATOM     53  C   UNL A   1      46.558  27.119  30.747  1.00  0.00     0.031 A 
ATOM     54  C   UNL A   1      39.904  28.909  29.357  1.00  0.00     0.031 A 
ATOM     55  C   UNL A   1      46.175  28.436  31.184  1.00  0.00     0.049 A 
ATOM     56  C   UNL A   1      40.834  29.813  30.120  1.00  0.00     0.074 A 
ATOM     57  C   UNL A   1      46.948  29.393  31.815  1.00  0.00     0.029 A 
ATOM     58  N   UNL A   1      44.903  28.972  31.043  1.00  0.00    -0.354 N 
ATOM     59  N   UNL A   1      42.096  29.632  30.430  1.00  0.00    -0.248 NA
ATOM     60  C   UNL A   1      40.277  31.090  30.586  1.00  0.00     0.031 C 
ATOM     61  C   UNL A   1      46.126  30.484  32.117  1.00  0.00     0.029 A 
ATOM     62  C   UNL A   1      44.860  30.236  31.609  1.00  0.00     0.049 A 
ATOM     63  H   UNL A   1      44.145  28.522  30.608  1.00  0.00     0.167 HD
ATOM     64  C   UNL A   1      42.491  30.782  31.102  1.00  0.00     0.074 A 
ATOM     65  C   UNL A   1      41.339  31.660  31.136  1.00  0.00     0.031 C 
ATOM     66  C   UNL A   1      43.698  31.087  31.640  1.00  0.00     0.031 A 
BRANCH  53  67
ATOM     67  C   UNL A   1      47.953  26.639  31.033  1.00  0.00    -0.014 A 
ATOM     68  C   UNL A   1      48.269  25.965  32.225  1.00  0.00     0.009 A 
ATOM     69  C   UNL A   1      48.966  26.846  30.084  1.00  0.00     0.009 A 
ATOM     70  C   UNL A   1      49.578  25.544  32.474  1.00  0.00     0.001 A 
ATOM     71  C   UNL A   1      50.266  26.397  30.321  1.00  0.00     0.001 A 
ATOM     72  C   UNL A   1      50.573  25.756  31.520  1.00  0.00     0.000 A 
ENDBRANCH  53  67
BRANCH  54  73
ATOM     73  C   UNL A   1      38.497  29.303  29.091  1.00  0.00    -0.014 A 
ATOM     74  C   UNL A   1      38.120  29.824  27.844  1.00  0.00     0.009 A 
ATOM     75  C   UNL A   1      37.521  29.163  30.091  1.00  0.00     0.009 A 
ATOM     76  C   UNL A   1      36.800  30.220  27.614  1.00  0.00     0.001 A 
ATOM     77  C   UNL A   1      36.195  29.529  29.847  1.00  0.00     0.001 A 
ATOM     78  C   UNL A   1      35.839  30.066  28.612  1.00  0.00     0.000 A 
ENDBRANCH  54  73
BRANCH  66  79
ATOM     79  C   UNL A   1      43.838  32.438  32.284  1.00  0.00    -0.014 A 
ATOM     80  C   UNL A   1      43.444  32.661  33.613  1.00  0.00     0.009 A 
ATOM     81  C   UNL A   1      44.405  33.498  31.557  1.00  0.00     0.009 A 
ATOM     82  C   UNL A   1      43.580  33.927  34.187  1.00  0.00     0.001 A 
ATOM     83  C   UNL A   1      44.573  34.752  32.145  1.00  0.00     0.001 A 
ATOM     84  C   UNL A   1      44.149  34.969  33.454  1.00  0.00     0.000 A 
ENDBRANCH  66  79
ENDBRANCH  40  41
ENDBRANCH  33  35
ENDBRANCH  32  33
ENDBRANCH  31  32
ENDBRANCH  30  31
ENDBRANCH  29  30
ENDBRANCH   1  29
TORSDOF 19
ENDMDL
MODEL 3
REMARK VINA RESULT:      -7.7      5.402     11.276
REMARK SMILES CC[C@@]1(CO)CCCN(c2nc(-c3ccc(C)s3)ccc2C(=O)OCCOCCOC(=O)c2ccc(-c3c4nc(c(-c5ccccc5)c5ccc([nH]5)c(-c5ccccc5)c5nc(c(-c6ccccc6)c6ccc3[nH]6)C=C5)C=C4)cc2)C1
REMARK SMILES IDX 26 1 25 2 24 3 22 4 23 5 21 6 10 7 11 8 12 9 20 10 19 11
REMARK SMILES IDX 9 12 3 13 6 14 81 15 7 16 8 17 2 18 1 19 4 20 5 21 13 23
REMARK SMILES IDX 14 24 18 25 15 26 16 27 17 28 27 29 28 30 29 31 30 32 31 33
REMARK SMILES IDX 32 34 33 35 34 36 80 37 35 38 79 39 36 40 37 41 38 42 73 43
REMARK SMILES IDX 39 44 78 45 72 46 74 47 40 48 77 49 71 50 70 51 41 53 63 54
REMARK SMILES IDX 48 55 62 56 49 57 52 58 61 59 75 60 50 61 51 62 60 64 76 65
REMARK SMILES IDX 53 66 42 67 43 68 47 69 44 70 46 71 45 72 64 73 65 74 69 75
REMARK SMILES IDX 66 76 68 77 67 78 54 79 55 80 59 81 56 82 58 83 57 84
REMARK H PARENT 5 22 74 52 52 63
REMARK Flexibility Score: inf
ROOT
ATOM      1  C   UNL A   1      34.429  33.703  32.240  1.00  0.00     0.202 C 
ENDROOT
BRANCH   1   2
ATOM      2  C   UNL A   1      35.150  32.383  32.518  1.00  0.00     0.261 C 
BRANCH   2   3
ATOM      3  O   UNL A   1      35.810  32.437  33.796  1.00  0.00    -0.460 OA
BRANCH   3   4
ATOM      4  C   UNL A   1      37.094  32.880  33.772  1.00  0.00     0.341 C 
ATOM      5  O   UNL A   1      37.456  34.012  33.507  1.00  0.00    -0.246 OA
BRANCH   4   6
ATOM      6  C   UNL A   1      37.998  31.775  34.151  1.00  0.00     0.102 A 
ATOM      7  C   UNL A   1      38.866  31.887  35.243  1.00  0.00     0.143 A 
ATOM      8  N   UNL A   1      39.876  31.001  35.416  1.00  0.00    -0.229 NA
ATOM      9  C   UNL A   1      40.007  29.973  34.547  1.00  0.00     0.083 A 
ATOM     10  C   UNL A   1      38.089  30.654  33.315  1.00  0.00     0.022 A 
ATOM     11  C   UNL A   1      39.108  29.734  33.518  1.00  0.00     0.031 A 
BRANCH   7  12
ATOM     12  N   UNL A   1      38.807  32.863  36.205  1.00  0.00    -0.355 N 
ATOM     13  C   UNL A   1      40.321  34.153  37.627  1.00  0.00     0.011 C 
ATOM     14  C   UNL A   1      39.087  34.498  38.513  1.00  0.00     0.013 C 
ATOM     15  C   UNL A   1      39.839  33.884  36.185  1.00  0.00     0.127 C 
ATOM     16  C   UNL A   1      37.957  33.468  38.412  1.00  0.00     0.022 C 
ATOM     17  C   UNL A   1      37.607  33.143  36.962  1.00  0.00     0.118 C 
BRANCH  13  18
ATOM     18  C   UNL A   1      41.264  35.389  37.640  1.00  0.00     0.008 C 
ATOM     19  C   UNL A   1      41.197  36.267  36.397  1.00  0.00     0.004 C 
ENDBRANCH  13  18
BRANCH  13  20
ATOM     20  C   UNL A   1      41.036  32.883  38.149  1.00  0.00     0.164 C 
BRANCH  20  21
ATOM     21  O   UNL A   1      41.999  32.420  37.205  1.00  0.00    -0.396 OA
ATOM     22  H   UNL A   1      42.129  31.466  37.317  1.00  0.00     0.210 HD
ENDBRANCH  20  21
ENDBRANCH  13  20
ENDBRANCH   7  12
BRANCH   9  23
ATOM     23  C   UNL A   1      41.259  29.228  34.642  1.00  0.00     0.053 A 
ATOM     24  C   UNL A   1      42.354  29.517  35.436  1.00  0.00     0.022 A 
ATOM     25  S   UNL A   1      41.509  27.798  33.736  1.00  0.00    -0.139 S 
ATOM     26  C   UNL A   1      43.398  28.560  35.297  1.00  0.00     0.016 A 
ATOM     27  C   UNL A   1      43.075  27.571  34.392  1.00  0.00     0.002 A 
ATOM     28  C   UNL A   1      43.900  26.405  33.970  1.00  0.00     0.056 C 
ENDBRANCH   9  23
ENDBRANCH   4   6
ENDBRANCH   3   4
ENDBRANCH   2   3
ENDBRANCH   1   2
BRANCH   1  29
ATOM     29  O   UNL A   1      34.837  34.455  31.095  1.00  0.00    -0.374 OA
BRANCH  29  30
ATOM     30  C   UNL A   1      34.075  34.314  29.903  1.00  0.00     0.202 C 
BRANCH  30  31
ATOM     31  C   UNL A   1      34.549  33.344  28.815  1.00  0.00     0.261 C 
BRANCH  31  32
ATOM     32  O   UNL A   1      34.399  31.975  29.173  1.00  0.00    -0.460 OA
BRANCH  32  33
ATOM     33  C   UNL A   1      34.579  31.136  28.126  1.00  0.00     0.338 C 
ATOM     34  O   UNL A   1      33.909  31.048  27.109  1.00  0.00    -0.246 OA
BRANCH  33  35
ATOM     35  C   UNL A   1      35.851  30.433  28.316  1.00  0.00     0.060 A 
ATOM     36  C   UNL A   1      36.091  29.863  29.571  1.00  0.00     0.016 A 
ATOM     37  C   UNL A   1      36.789  30.344  27.285  1.00  0.00     0.016 A 
ATOM     38  C   UNL A   1      37.301  29.233  29.816  1.00  0.00     0.010 A 
ATOM     39  C   UNL A   1      38.008  29.719  27.536  1.00  0.00     0.010 A 
ATOM     40  C   UNL A   1      38.278  29.195  28.811  1.00  0.00    -0.014 A 
BRANCH  40  41
ATOM     41  C   UNL A   1      39.637  28.733  29.151  1.00  0.00     0.031 A 
ATOM     42  C   UNL A   1      40.530  29.644  29.943  1.00  0.00     0.074 A 
ATOM     43  C   UNL A   1      40.043  27.506  28.790  1.00  0.00     0.049 A 
ATOM     44  N   UNL A   1      41.753  29.443  30.361  1.00  0.00    -0.248 NA
ATOM     45  C   UNL A   1      39.972  30.955  30.312  1.00  0.00     0.031 C 
ATOM     46  C   UNL A   1      39.239  26.531  28.054  1.00  0.00     0.029 A 
ATOM     47  N   UNL A   1      41.238  26.869  29.001  1.00  0.00    -0.354 N 
ATOM     48  C   UNL A   1      42.111  30.603  31.036  1.00  0.00     0.074 A 
ATOM     49  C   UNL A   1      40.994  31.515  30.940  1.00  0.00     0.031 C 
ATOM     50  C   UNL A   1      39.964  25.414  27.878  1.00  0.00     0.029 A 
ATOM     51  C   UNL A   1      41.291  25.611  28.456  1.00  0.00     0.049 A 
ATOM     52  H   UNL A   1      41.986  27.275  29.495  1.00  0.00     0.167 HD
ATOM     53  C   UNL A   1      43.268  30.877  31.682  1.00  0.00     0.031 A 
ATOM     54  C   UNL A   1      42.304  24.727  28.418  1.00  0.00     0.031 A 
ATOM     55  C   UNL A   1      44.380  29.967  31.754  1.00  0.00     0.049 A 
ATOM     56  C   UNL A   1      43.607  25.087  29.080  1.00  0.00     0.074 A 
ATOM     57  C   UNL A   1      45.592  30.136  32.396  1.00  0.00     0.029 A 
ATOM     58  N   UNL A   1      44.414  28.719  31.149  1.00  0.00    -0.354 N 
ATOM     59  N   UNL A   1      43.926  26.173  29.744  1.00  0.00    -0.248 NA
ATOM     60  C   UNL A   1      44.687  24.095  28.992  1.00  0.00     0.031 C 
ATOM     61  C   UNL A   1      46.387  29.018  32.123  1.00  0.00     0.029 A 
ATOM     62  C   UNL A   1      45.643  28.120  31.373  1.00  0.00     0.049 A 
ATOM     63  H   UNL A   1      43.676  28.318  30.636  1.00  0.00     0.167 HD
ATOM     64  C   UNL A   1      45.233  25.983  30.177  1.00  0.00     0.074 A 
ATOM     65  C   UNL A   1      45.637  24.670  29.715  1.00  0.00     0.031 C 
ATOM     66  C   UNL A   1      46.027  26.817  30.894  1.00  0.00     0.031 A 
BRANCH  53  67
ATOM     67  C   UNL A   1      43.398  32.230  32.323  1.00  0.00    -0.014 A 
ATOM     68  C   UNL A   1      43.970  33.316  31.640  1.00  0.00     0.009 A 
ATOM     69  C   UNL A   1      42.922  32.427  33.629  1.00  0.00     0.009 A 
ATOM     70  C   UNL A   1      44.095  34.560  32.265  1.00  0.00     0.001 A 
ATOM     71  C   UNL A   1      43.019  33.679  34.240  1.00  0.00     0.001 A 
ATOM     72  C   UNL A   1      43.615  34.741  33.562  1.00  0.00     0.000 A 
ENDBRANCH  53  67
BRANCH  54  73
ATOM     73  C   UNL A   1      42.132  23.428  27.720  1.00  0.00    -0.014 A 
ATOM     74  C   UNL A   1      41.527  22.339  28.366  1.00  0.00     0.009 A 
ATOM     75  C   UNL A   1      42.578  23.270  26.397  1.00  0.00     0.009 A 
ATOM     76  C   UNL A   1      41.396  21.112  27.710  1.00  0.00     0.001 A 
ATOM     77  C   UNL A   1      42.416  22.051  25.734  1.00  0.00     0.001 A 
ATOM     78  C   UNL A   1      41.835  20.972  26.394  1.00  0.00     0.000 A 
ENDBRANCH  54  73
BRANCH  66  79
ATOM     79  C   UNL A   1      47.400  26.318  31.247  1.00  0.00    -0.014 A 
ATOM     80  C   UNL A   1      47.673  25.748  32.500  1.00  0.00     0.009 A 
ATOM     81  C   UNL A   1      48.430  26.390  30.294  1.00  0.00     0.009 A 
ATOM     82  C   UNL A   1      48.959  25.297  32.805  1.00  0.00     0.001 A 
ATOM     83  C   UNL A   1      49.704  25.905  30.589  1.00  0.00     0.001 A 
ATOM     84  C   UNL A   1      49.971  25.371  31.848  1.00  0.00     0.000 A 
ENDBRANCH  66  79
ENDBRANCH  40  41
ENDBRANCH  33  35
ENDBRANCH  32  33
ENDBRANCH  31  32
ENDBRANCH  30  31
ENDBRANCH  29  30
ENDBRANCH   1  29
TORSDOF 19
ENDMDL
