MODEL 1
REMARK VINA RESULT:      -9.7      0.000      0.000
REMARK SMILES CCc1nc(COC)cc(N2CCCC[C@H]2C(=O)OCCOCCOC(=O)c2ccc(-c3c4nc(c(-c5ccccc5)c5ccc([nH]5)c(-c5ccccc5)c5nc(c(-c6ccccc6)c6ccc3[nH]6)C=C5)C=C4)cc2)n1
REMARK SMILES IDX 21 1 20 2 19 3 17 4 18 5 16 6 11 7 12 8 13 9 15 10 14 11
REMARK SMILES IDX 10 12 3 13 4 14 76 15 5 16 9 17 2 18 1 19 6 20 7 21 8 22
REMARK SMILES IDX 22 23 23 24 24 25 25 26 26 27 27 28 28 29 29 30 75 31 30 32
REMARK SMILES IDX 74 33 31 34 32 35 33 36 68 37 34 38 73 39 67 40 69 41 35 42
REMARK SMILES IDX 72 43 66 44 65 45 36 47 58 48 43 49 57 50 44 51 47 52 56 53
REMARK SMILES IDX 70 54 45 55 46 56 55 58 71 59 48 60 37 61 38 62 42 63 39 64
REMARK SMILES IDX 41 65 40 66 59 67 60 68 64 69 61 70 63 71 62 72 49 73 50 74
REMARK SMILES IDX 54 75 51 76 53 77 52 78
REMARK H PARENT 69 46 47 57
REMARK Flexibility Score: inf
ROOT
ATOM      1  C   UNL A   1      32.812  29.475  27.231  1.00  0.00     0.202 C 
ENDROOT
BRANCH   1   2
ATOM      2  C   UNL A   1      31.740  28.404  27.002  1.00  0.00     0.261 C 
BRANCH   2   3
ATOM      3  O   UNL A   1      31.823  27.826  25.695  1.00  0.00    -0.462 OA
BRANCH   3   4
ATOM      4  C   UNL A   1      32.149  26.496  25.670  1.00  0.00     0.328 C 
ATOM      5  O   UNL A   1      31.433  25.600  26.098  1.00  0.00    -0.250 OA
BRANCH   4   6
ATOM      6  C   UNL A   1      33.529  26.293  25.022  1.00  0.00     0.193 C 
ATOM      7  N   UNL A   1      33.599  25.035  24.278  1.00  0.00    -0.343 N 
ATOM      8  C   UNL A   1      32.798  24.902  23.066  1.00  0.00     0.119 C 
ATOM      9  C   UNL A   1      33.040  26.074  22.115  1.00  0.00     0.022 C 
ATOM     10  C   UNL A   1      33.876  27.448  24.068  1.00  0.00     0.037 C 
ATOM     11  C   UNL A   1      33.028  27.440  22.796  1.00  0.00     0.005 C 
BRANCH   7  12
ATOM     12  C   UNL A   1      34.191  23.910  24.807  1.00  0.00     0.133 A 
ATOM     13  C   UNL A   1      36.113  22.830  25.480  1.00  0.00     0.130 A 
ATOM     14  N   UNL A   1      35.463  21.722  25.868  1.00  0.00    -0.235 NA
ATOM     15  N   UNL A   1      35.527  23.908  24.925  1.00  0.00    -0.216 NA
ATOM     16  C   UNL A   1      34.129  21.714  25.692  1.00  0.00     0.072 A 
ATOM     17  C   UNL A   1      33.449  22.812  25.199  1.00  0.00     0.073 A 
BRANCH  13  18
ATOM     18  C   UNL A   1      37.603  22.872  25.677  1.00  0.00     0.074 C 
ATOM     19  C   UNL A   1      38.042  24.134  26.402  1.00  0.00     0.012 C 
ENDBRANCH  13  18
BRANCH  16  20
ATOM     20  C   UNL A   1      33.383  20.427  25.970  1.00  0.00     0.216 C 
BRANCH  20  21
ATOM     21  O   UNL A   1      32.217  20.253  25.154  1.00  0.00    -0.378 OA
ATOM     22  C   UNL A   1      32.405  19.347  24.076  1.00  0.00     0.195 C 
ENDBRANCH  20  21
ENDBRANCH  16  20
ENDBRANCH   7  12
ENDBRANCH   4   6
ENDBRANCH   3   4
ENDBRANCH   2   3
ENDBRANCH   1   2
BRANCH   1  23
ATOM     23  O   UNL A   1      32.698  30.675  26.473  1.00  0.00    -0.374 OA
BRANCH  23  24
ATOM     24  C   UNL A   1      31.626  31.570  26.773  1.00  0.00     0.202 C 
BRANCH  24  25
ATOM     25  C   UNL A   1      31.955  33.061  26.893  1.00  0.00     0.261 C 
BRANCH  25  26
ATOM     26  O   UNL A   1      32.293  33.430  28.244  1.00  0.00    -0.460 OA
BRANCH  26  27
ATOM     27  C   UNL A   1      33.407  34.187  28.358  1.00  0.00     0.338 C 
ATOM     28  O   UNL A   1      33.470  35.408  28.463  1.00  0.00    -0.246 OA
BRANCH  27  29
ATOM     29  C   UNL A   1      34.594  33.336  28.524  1.00  0.00     0.060 A 
ATOM     30  C   UNL A   1      34.414  32.084  29.123  1.00  0.00     0.016 A 
ATOM     31  C   UNL A   1      35.874  33.811  28.230  1.00  0.00     0.016 A 
ATOM     32  C   UNL A   1      35.520  31.326  29.493  1.00  0.00     0.010 A 
ATOM     33  C   UNL A   1      36.985  33.052  28.612  1.00  0.00     0.010 A 
ATOM     34  C   UNL A   1      36.811  31.830  29.286  1.00  0.00    -0.014 A 
BRANCH  34  35
ATOM     35  C   UNL A   1      37.955  31.156  29.943  1.00  0.00     0.031 A 
ATOM     36  C   UNL A   1      38.226  31.436  31.397  1.00  0.00     0.074 A 
ATOM     37  C   UNL A   1      38.700  30.260  29.275  1.00  0.00     0.049 A 
ATOM     38  N   UNL A   1      39.144  30.929  32.181  1.00  0.00    -0.248 NA
ATOM     39  C   UNL A   1      37.342  32.412  32.055  1.00  0.00     0.031 C 
ATOM     40  C   UNL A   1      38.503  29.866  27.882  1.00  0.00     0.029 A 
ATOM     41  N   UNL A   1      39.771  29.512  29.693  1.00  0.00    -0.354 N 
ATOM     42  C   UNL A   1      38.946  31.521  33.422  1.00  0.00     0.074 A 
ATOM     43  C   UNL A   1      37.844  32.448  33.280  1.00  0.00     0.031 C 
ATOM     44  C   UNL A   1      39.422  28.939  27.559  1.00  0.00     0.029 A 
ATOM     45  C   UNL A   1      40.284  28.697  28.714  1.00  0.00     0.049 A 
ATOM     46  H   UNL A   1      40.137  29.554  30.606  1.00  0.00     0.167 HD
ATOM     47  C   UNL A   1      39.616  31.309  34.580  1.00  0.00     0.031 A 
ATOM     48  C   UNL A   1      41.336  27.858  28.748  1.00  0.00     0.031 A 
ATOM     49  C   UNL A   1      40.724  30.405  34.720  1.00  0.00     0.049 A 
ATOM     50  C   UNL A   1      42.121  27.707  30.022  1.00  0.00     0.074 A 
ATOM     51  C   UNL A   1      41.468  30.118  35.851  1.00  0.00     0.029 A 
ATOM     52  N   UNL A   1      41.254  29.647  33.688  1.00  0.00    -0.354 N 
ATOM     53  N   UNL A   1      41.911  28.256  31.193  1.00  0.00    -0.248 NA
ATOM     54  C   UNL A   1      43.289  26.813  29.977  1.00  0.00     0.031 C 
ATOM     55  C   UNL A   1      42.480  29.221  35.493  1.00  0.00     0.029 A 
ATOM     56  C   UNL A   1      42.333  28.911  34.149  1.00  0.00     0.049 A 
ATOM     57  H   UNL A   1      40.915  29.633  32.764  1.00  0.00     0.167 HD
ATOM     58  C   UNL A   1      42.900  27.755  32.031  1.00  0.00     0.074 A 
ATOM     59  C   UNL A   1      43.704  26.849  31.236  1.00  0.00     0.031 C 
ATOM     60  C   UNL A   1      43.121  28.017  33.343  1.00  0.00     0.031 A 
BRANCH  47  61
ATOM     61  C   UNL A   1      39.180  32.102  35.779  1.00  0.00    -0.014 A 
ATOM     62  C   UNL A   1      39.729  33.365  36.054  1.00  0.00     0.009 A 
ATOM     63  C   UNL A   1      38.198  31.586  36.638  1.00  0.00     0.009 A 
ATOM     64  C   UNL A   1      39.327  34.079  37.186  1.00  0.00     0.001 A 
ATOM     65  C   UNL A   1      37.781  32.313  37.754  1.00  0.00     0.001 A 
ATOM     66  C   UNL A   1      38.353  33.553  38.033  1.00  0.00     0.000 A 
ENDBRANCH  47  61
BRANCH  48  67
ATOM     67  C   UNL A   1      41.714  27.092  27.532  1.00  0.00    -0.014 A 
ATOM     68  C   UNL A   1      41.275  25.772  27.355  1.00  0.00     0.009 A 
ATOM     69  C   UNL A   1      42.528  27.676  26.549  1.00  0.00     0.009 A 
ATOM     70  C   UNL A   1      41.660  25.045  26.226  1.00  0.00     0.001 A 
ATOM     71  C   UNL A   1      42.890  26.955  25.410  1.00  0.00     0.001 A 
ATOM     72  C   UNL A   1      42.463  25.639  25.253  1.00  0.00     0.000 A 
ENDBRANCH  48  67
BRANCH  60  73
ATOM     73  C   UNL A   1      44.256  27.290  34.006  1.00  0.00    -0.014 A 
ATOM     74  C   UNL A   1      45.540  27.852  34.073  1.00  0.00     0.009 A 
ATOM     75  C   UNL A   1      44.025  26.043  34.608  1.00  0.00     0.009 A 
ATOM     76  C   UNL A   1      46.578  27.163  34.705  1.00  0.00     0.001 A 
ATOM     77  C   UNL A   1      45.058  25.369  35.260  1.00  0.00     0.001 A 
ATOM     78  C   UNL A   1      46.336  25.926  35.300  1.00  0.00     0.000 A 
ENDBRANCH  60  73
ENDBRANCH  34  35
ENDBRANCH  27  29
ENDBRANCH  26  27
ENDBRANCH  25  26
ENDBRANCH  24  25
ENDBRANCH  23  24
ENDBRANCH   1  23
TORSDOF 18
ENDMDL
MODEL 2
REMARK VINA RESULT:      -9.6      3.876      9.346
REMARK SMILES CCc1nc(COC)cc(N2CCCC[C@H]2C(=O)OCCOCCOC(=O)c2ccc(-c3c4nc(c(-c5ccccc5)c5ccc([nH]5)c(-c5ccccc5)c5nc(c(-c6ccccc6)c6ccc3[nH]6)C=C5)C=C4)cc2)n1
REMARK SMILES IDX 21 1 20 2 19 3 17 4 18 5 16 6 11 7 12 8 13 9 15 10 14 11
REMARK SMILES IDX 10 12 3 13 4 14 76 15 5 16 9 17 2 18 1 19 6 20 7 21 8 22
REMARK SMILES IDX 22 23 23 24 24 25 25 26 26 27 27 28 28 29 29 30 75 31 30 32
REMARK SMILES IDX 74 33 31 34 32 35 33 36 68 37 34 38 73 39 67 40 69 41 35 42
REMARK SMILES IDX 72 43 66 44 65 45 36 47 58 48 43 49 57 50 44 51 47 52 56 53
REMARK SMILES IDX 70 54 45 55 46 56 55 58 71 59 48 60 37 61 38 62 42 63 39 64
REMARK SMILES IDX 41 65 40 66 59 67 60 68 64 69 61 70 63 71 62 72 49 73 50 74
REMARK SMILES IDX 54 75 51 76 53 77 52 78
REMARK H PARENT 69 46 47 57
REMARK Flexibility Score: inf
ROOT
ATOM      1  C   UNL A   1      35.572  22.483  23.578  1.00  0.00     0.202 C 
ENDROOT
BRANCH   1   2
ATOM      2  C   UNL A   1      34.442  23.149  22.786  1.00  0.00     0.261 C 
BRANCH   2   3
ATOM      3  O   UNL A   1      34.262  24.522  23.152  1.00  0.00    -0.462 OA
BRANCH   3   4
ATOM      4  C   UNL A   1      33.000  24.847  23.575  1.00  0.00     0.328 C 
ATOM      5  O   UNL A   1      31.981  24.650  22.926  1.00  0.00    -0.250 OA
BRANCH   4   6
ATOM      6  C   UNL A   1      33.050  25.481  24.976  1.00  0.00     0.193 C 
ATOM      7  N   UNL A   1      31.763  26.068  25.351  1.00  0.00    -0.343 N 
ATOM      8  C   UNL A   1      30.635  25.172  25.586  1.00  0.00     0.119 C 
ATOM      9  C   UNL A   1      31.005  24.071  26.579  1.00  0.00     0.022 C 
ATOM     10  C   UNL A   1      33.448  24.449  26.043  1.00  0.00     0.037 C 
ATOM     11  C   UNL A   1      32.355  23.414  26.305  1.00  0.00     0.005 C 
BRANCH   7  12
ATOM     12  C   UNL A   1      31.524  27.419  25.249  1.00  0.00     0.133 A 
ATOM     13  C   UNL A   1      31.892  29.548  26.053  1.00  0.00     0.130 A 
ATOM     14  N   UNL A   1      31.123  30.132  25.121  1.00  0.00    -0.235 NA
ATOM     15  N   UNL A   1      32.084  28.221  26.167  1.00  0.00    -0.216 NA
ATOM     16  C   UNL A   1      30.520  29.313  24.239  1.00  0.00     0.072 A 
ATOM     17  C   UNL A   1      30.730  27.946  24.247  1.00  0.00     0.073 A 
BRANCH  13  18
ATOM     18  C   UNL A   1      32.588  30.441  27.042  1.00  0.00     0.074 C 
ATOM     19  C   UNL A   1      34.089  30.197  27.064  1.00  0.00     0.012 C 
ENDBRANCH  13  18
BRANCH  16  20
ATOM     20  C   UNL A   1      29.523  29.917  23.274  1.00  0.00     0.216 C 
BRANCH  20  21
ATOM     21  O   UNL A   1      29.230  31.295  23.540  1.00  0.00    -0.378 OA
ATOM     22  C   UNL A   1      27.871  31.643  23.313  1.00  0.00     0.195 C 
ENDBRANCH  20  21
ENDBRANCH  16  20
ENDBRANCH   7  12
ENDBRANCH   4   6
ENDBRANCH   3   4
ENDBRANCH   2   3
ENDBRANCH   1   2
BRANCH   1  23
ATOM     23  O   UNL A   1      35.191  21.560  24.594  1.00  0.00    -0.374 OA
BRANCH  23  24
ATOM     24  C   UNL A   1      36.153  21.211  25.591  1.00  0.00     0.202 C 
BRANCH  24  25
ATOM     25  C   UNL A   1      37.450  20.542  25.127  1.00  0.00     0.261 C 
BRANCH  25  26
ATOM     26  O   UNL A   1      38.561  21.460  25.133  1.00  0.00    -0.460 OA
BRANCH  26  27
ATOM     27  C   UNL A   1      39.480  21.223  26.094  1.00  0.00     0.338 C 
ATOM     28  O   UNL A   1      40.104  20.183  26.288  1.00  0.00    -0.246 OA
BRANCH  27  29
ATOM     29  C   UNL A   1      39.800  22.461  26.819  1.00  0.00     0.060 A 
ATOM     30  C   UNL A   1      39.099  23.619  26.462  1.00  0.00     0.016 A 
ATOM     31  C   UNL A   1      40.860  22.517  27.726  1.00  0.00     0.016 A 
ATOM     32  C   UNL A   1      39.498  24.854  26.962  1.00  0.00     0.010 A 
ATOM     33  C   UNL A   1      41.267  23.761  28.220  1.00  0.00     0.010 A 
ATOM     34  C   UNL A   1      40.617  24.936  27.802  1.00  0.00    -0.014 A 
BRANCH  34  35
ATOM     35  C   UNL A   1      41.201  26.268  28.085  1.00  0.00     0.031 A 
ATOM     36  C   UNL A   1      42.536  26.619  27.484  1.00  0.00     0.074 A 
ATOM     37  C   UNL A   1      40.526  27.175  28.810  1.00  0.00     0.049 A 
ATOM     38  N   UNL A   1      43.213  27.736  27.565  1.00  0.00    -0.248 NA
ATOM     39  C   UNL A   1      43.191  25.572  26.682  1.00  0.00     0.031 C 
ATOM     40  C   UNL A   1      39.204  26.973  29.399  1.00  0.00     0.029 A 
ATOM     41  N   UNL A   1      40.863  28.457  29.162  1.00  0.00    -0.354 N 
ATOM     42  C   UNL A   1      44.369  27.528  26.824  1.00  0.00     0.074 A 
ATOM     43  C   UNL A   1      44.319  26.170  26.328  1.00  0.00     0.031 C 
ATOM     44  C   UNL A   1      38.837  28.098  30.038  1.00  0.00     0.029 A 
ATOM     45  C   UNL A   1      39.908  29.085  29.923  1.00  0.00     0.049 A 
ATOM     46  H   UNL A   1      41.709  28.885  28.896  1.00  0.00     0.167 HD
ATOM     47  C   UNL A   1      45.381  28.392  26.570  1.00  0.00     0.031 A 
ATOM     48  C   UNL A   1      39.906  30.315  30.469  1.00  0.00     0.031 A 
ATOM     49  C   UNL A   1      45.445  29.735  27.077  1.00  0.00     0.049 A 
ATOM     50  C   UNL A   1      41.084  31.225  30.248  1.00  0.00     0.074 A 
ATOM     51  C   UNL A   1      46.427  30.690  26.876  1.00  0.00     0.029 A 
ATOM     52  N   UNL A   1      44.488  30.311  27.897  1.00  0.00    -0.354 N 
ATOM     53  N   UNL A   1      42.160  31.025  29.528  1.00  0.00    -0.248 NA
ATOM     54  C   UNL A   1      41.040  32.536  30.914  1.00  0.00     0.031 C 
ATOM     55  C   UNL A   1      46.087  31.829  27.613  1.00  0.00     0.029 A 
ATOM     56  C   UNL A   1      44.868  31.600  28.233  1.00  0.00     0.049 A 
ATOM     57  H   UNL A   1      43.661  29.871  28.197  1.00  0.00     0.167 HD
ATOM     58  C   UNL A   1      42.909  32.190  29.631  1.00  0.00     0.074 A 
ATOM     59  C   UNL A   1      42.157  33.098  30.475  1.00  0.00     0.031 C 
ATOM     60  C   UNL A   1      44.109  32.487  29.074  1.00  0.00     0.031 A 
BRANCH  47  61
ATOM     61  C   UNL A   1      46.519  27.887  25.729  1.00  0.00    -0.014 A 
ATOM     62  C   UNL A   1      46.517  28.045  24.334  1.00  0.00     0.009 A 
ATOM     63  C   UNL A   1      47.612  27.256  26.340  1.00  0.00     0.009 A 
ATOM     64  C   UNL A   1      47.574  27.549  23.565  1.00  0.00     0.001 A 
ATOM     65  C   UNL A   1      48.678  26.784  25.572  1.00  0.00     0.001 A 
ATOM     66  C   UNL A   1      48.654  26.922  24.186  1.00  0.00     0.000 A 
ENDBRANCH  47  61
BRANCH  48  67
ATOM     67  C   UNL A   1      38.747  30.764  31.284  1.00  0.00    -0.014 A 
ATOM     68  C   UNL A   1      38.723  30.548  32.669  1.00  0.00     0.009 A 
ATOM     69  C   UNL A   1      37.654  31.400  30.675  1.00  0.00     0.009 A 
ATOM     70  C   UNL A   1      37.617  30.942  33.426  1.00  0.00     0.001 A 
ATOM     71  C   UNL A   1      36.562  31.815  31.439  1.00  0.00     0.001 A 
ATOM     72  C   UNL A   1      36.540  31.579  32.811  1.00  0.00     0.000 A 
ENDBRANCH  48  67
BRANCH  60  73
ATOM     73  C   UNL A   1      44.666  33.857  29.332  1.00  0.00    -0.014 A 
ATOM     74  C   UNL A   1      45.532  34.100  30.409  1.00  0.00     0.009 A 
ATOM     75  C   UNL A   1      44.350  34.911  28.459  1.00  0.00     0.009 A 
ATOM     76  C   UNL A   1      46.047  35.381  30.623  1.00  0.00     0.001 A 
ATOM     77  C   UNL A   1      44.887  36.183  28.661  1.00  0.00     0.001 A 
ATOM     78  C   UNL A   1      45.727  36.419  29.749  1.00  0.00     0.000 A 
ENDBRANCH  60  73
ENDBRANCH  34  35
ENDBRANCH  27  29
ENDBRANCH  26  27
ENDBRANCH  25  26
ENDBRANCH  24  25
ENDBRANCH  23  24
ENDBRANCH   1  23
TORSDOF 18
ENDMDL
MODEL 3
REMARK VINA RESULT:      -9.5      3.903      9.165
REMARK SMILES CCc1nc(COC)cc(N2CCCC[C@H]2C(=O)OCCOCCOC(=O)c2ccc(-c3c4nc(c(-c5ccccc5)c5ccc([nH]5)c(-c5ccccc5)c5nc(c(-c6ccccc6)c6ccc3[nH]6)C=C5)C=C4)cc2)n1
REMARK SMILES IDX 21 1 20 2 19 3 17 4 18 5 16 6 11 7 12 8 13 9 15 10 14 11
REMARK SMILES IDX 10 12 3 13 4 14 76 15 5 16 9 17 2 18 1 19 6 20 7 21 8 22
REMARK SMILES IDX 22 23 23 24 24 25 25 26 26 27 27 28 28 29 29 30 75 31 30 32
REMARK SMILES IDX 74 33 31 34 32 35 33 36 68 37 34 38 73 39 67 40 69 41 35 42
REMARK SMILES IDX 72 43 66 44 65 45 36 47 58 48 43 49 57 50 44 51 47 52 56 53
REMARK SMILES IDX 70 54 45 55 46 56 55 58 71 59 48 60 37 61 38 62 42 63 39 64
REMARK SMILES IDX 41 65 40 66 59 67 60 68 64 69 61 70 63 71 62 72 49 73 50 74
REMARK SMILES IDX 54 75 51 76 53 77 52 78
REMARK H PARENT 69 46 47 57
REMARK Flexibility Score: inf
ROOT
ATOM      1  C   UNL A   1      37.368  22.874  25.171  1.00  0.00     0.202 C 
ENDROOT
BRANCH   1   2
ATOM      2  C   UNL A   1      36.592  23.075  23.865  1.00  0.00     0.261 C 
BRANCH   2   3
ATOM      3  O   UNL A   1      35.192  22.821  24.022  1.00  0.00    -0.462 OA
BRANCH   3   4
ATOM      4  C   UNL A   1      34.375  23.875  23.712  1.00  0.00     0.328 C 
ATOM      5  O   UNL A   1      34.186  24.294  22.577  1.00  0.00    -0.250 OA
BRANCH   4   6
ATOM      6  C   UNL A   1      33.726  24.445  24.985  1.00  0.00     0.193 C 
ATOM      7  N   UNL A   1      32.413  25.029  24.710  1.00  0.00    -0.343 N 
ATOM      8  C   UNL A   1      31.325  24.137  24.324  1.00  0.00     0.119 C 
ATOM      9  C   UNL A   1      31.175  22.988  25.320  1.00  0.00     0.022 C 
ATOM     10  C   UNL A   1      33.564  23.361  26.064  1.00  0.00     0.037 C 
ATOM     11  C   UNL A   1      32.495  22.328  25.711  1.00  0.00     0.005 C 
BRANCH   7  12
ATOM     12  C   UNL A   1      32.238  26.387  24.565  1.00  0.00     0.133 A 
ATOM     13  C   UNL A   1      32.656  28.517  25.339  1.00  0.00     0.130 A 
ATOM     14  N   UNL A   1      31.962  29.110  24.355  1.00  0.00    -0.235 NA
ATOM     15  N   UNL A   1      32.784  27.187  25.494  1.00  0.00    -0.216 NA
ATOM     16  C   UNL A   1      31.371  28.295  23.461  1.00  0.00     0.072 A 
ATOM     17  C   UNL A   1      31.521  26.921  23.512  1.00  0.00     0.073 A 
BRANCH  13  18
ATOM     18  C   UNL A   1      33.338  29.404  26.343  1.00  0.00     0.074 C 
ATOM     19  C   UNL A   1      32.387  30.439  26.923  1.00  0.00     0.012 C 
ENDBRANCH  13  18
BRANCH  16  20
ATOM     20  C   UNL A   1      30.452  28.916  22.432  1.00  0.00     0.216 C 
BRANCH  20  21
ATOM     21  O   UNL A   1      29.577  29.914  22.972  1.00  0.00    -0.378 OA
ATOM     22  C   UNL A   1      28.198  29.626  22.785  1.00  0.00     0.195 C 
ENDBRANCH  20  21
ENDBRANCH  16  20
ENDBRANCH   7  12
ENDBRANCH   4   6
ENDBRANCH   3   4
ENDBRANCH   2   3
ENDBRANCH   1   2
BRANCH   1  23
ATOM     23  O   UNL A   1      37.415  21.551  25.696  1.00  0.00    -0.374 OA
BRANCH  23  24
ATOM     24  C   UNL A   1      37.737  20.478  24.810  1.00  0.00     0.202 C 
BRANCH  24  25
ATOM     25  C   UNL A   1      38.794  19.469  25.269  1.00  0.00     0.261 C 
BRANCH  25  26
ATOM     26  O   UNL A   1      39.613  19.994  26.332  1.00  0.00    -0.460 OA
BRANCH  26  27
ATOM     27  C   UNL A   1      40.943  19.859  26.135  1.00  0.00     0.338 C 
ATOM     28  O   UNL A   1      41.517  18.974  25.507  1.00  0.00    -0.246 OA
BRANCH  27  29
ATOM     29  C   UNL A   1      41.660  21.042  26.632  1.00  0.00     0.060 A 
ATOM     30  C   UNL A   1      41.657  21.267  28.014  1.00  0.00     0.016 A 
ATOM     31  C   UNL A   1      42.203  21.983  25.755  1.00  0.00     0.016 A 
ATOM     32  C   UNL A   1      42.138  22.469  28.523  1.00  0.00     0.010 A 
ATOM     33  C   UNL A   1      42.675  23.196  26.268  1.00  0.00     0.010 A 
ATOM     34  C   UNL A   1      42.601  23.460  27.648  1.00  0.00    -0.014 A 
BRANCH  34  35
ATOM     35  C   UNL A   1      42.830  24.826  28.172  1.00  0.00     0.031 A 
ATOM     36  C   UNL A   1      44.235  25.254  28.497  1.00  0.00     0.074 A 
ATOM     37  C   UNL A   1      41.812  25.694  28.295  1.00  0.00     0.049 A 
ATOM     38  N   UNL A   1      44.671  26.411  28.928  1.00  0.00    -0.248 NA
ATOM     39  C   UNL A   1      45.291  24.245  28.307  1.00  0.00     0.031 C 
ATOM     40  C   UNL A   1      40.417  25.416  27.962  1.00  0.00     0.029 A 
ATOM     41  N   UNL A   1      41.805  26.996  28.726  1.00  0.00    -0.354 N 
ATOM     42  C   UNL A   1      46.047  26.270  29.056  1.00  0.00     0.074 A 
ATOM     43  C   UNL A   1      46.371  24.908  28.690  1.00  0.00     0.031 C 
ATOM     44  C   UNL A   1      39.686  26.520  28.196  1.00  0.00     0.029 A 
ATOM     45  C   UNL A   1      40.558  27.570  28.718  1.00  0.00     0.049 A 
ATOM     46  H   UNL A   1      42.617  27.474  29.014  1.00  0.00     0.167 HD
ATOM     47  C   UNL A   1      46.962  27.193  29.437  1.00  0.00     0.031 A 
ATOM     48  C   UNL A   1      40.167  28.801  29.096  1.00  0.00     0.031 A 
ATOM     49  C   UNL A   1      46.642  28.540  29.821  1.00  0.00     0.049 A 
ATOM     50  C   UNL A   1      41.192  29.779  29.603  1.00  0.00     0.074 A 
ATOM     51  C   UNL A   1      47.499  29.552  30.222  1.00  0.00     0.029 A 
ATOM     52  N   UNL A   1      45.359  29.062  29.861  1.00  0.00    -0.354 N 
ATOM     53  N   UNL A   1      42.491  29.641  29.699  1.00  0.00    -0.248 NA
ATOM     54  C   UNL A   1      40.690  31.089  30.048  1.00  0.00     0.031 C 
ATOM     55  C   UNL A   1      46.728  30.672  30.550  1.00  0.00     0.029 A 
ATOM     56  C   UNL A   1      45.396  30.373  30.304  1.00  0.00     0.049 A 
ATOM     57  H   UNL A   1      44.542  28.573  29.612  1.00  0.00     0.167 HD
ATOM     58  C   UNL A   1      42.967  30.851  30.189  1.00  0.00     0.074 A 
ATOM     59  C   UNL A   1      41.817  31.716  30.359  1.00  0.00     0.031 C 
ATOM     60  C   UNL A   1      44.242  31.216  30.469  1.00  0.00     0.031 A 
BRANCH  47  61
ATOM     61  C   UNL A   1      48.398  26.753  29.488  1.00  0.00    -0.014 A 
ATOM     62  C   UNL A   1      48.935  26.155  30.640  1.00  0.00     0.009 A 
ATOM     63  C   UNL A   1      49.222  26.927  28.366  1.00  0.00     0.009 A 
ATOM     64  C   UNL A   1      50.278  25.772  30.677  1.00  0.00     0.001 A 
ATOM     65  C   UNL A   1      50.557  26.520  28.398  1.00  0.00     0.001 A 
ATOM     66  C   UNL A   1      51.086  25.953  29.555  1.00  0.00     0.000 A 
ENDBRANCH  47  61
BRANCH  48  67
ATOM     67  C   UNL A   1      38.733  29.182  29.014  1.00  0.00    -0.014 A 
ATOM     68  C   UNL A   1      38.204  29.718  27.832  1.00  0.00     0.009 A 
ATOM     69  C   UNL A   1      37.891  29.023  30.126  1.00  0.00     0.009 A 
ATOM     70  C   UNL A   1      36.863  30.106  27.770  1.00  0.00     0.001 A 
ATOM     71  C   UNL A   1      36.546  29.387  30.053  1.00  0.00     0.001 A 
ATOM     72  C   UNL A   1      36.035  29.936  28.878  1.00  0.00     0.000 A 
ENDBRANCH  48  67
BRANCH  60  73
ATOM     73  C   UNL A   1      44.463  32.620  30.955  1.00  0.00    -0.014 A 
ATOM     74  C   UNL A   1      44.479  32.921  32.326  1.00  0.00     0.009 A 
ATOM     75  C   UNL A   1      44.697  33.648  30.028  1.00  0.00     0.009 A 
ATOM     76  C   UNL A   1      44.697  34.232  32.756  1.00  0.00     0.001 A 
ATOM     77  C   UNL A   1      44.940  34.951  30.462  1.00  0.00     0.001 A 
ATOM     78  C   UNL A   1      44.931  35.244  31.825  1.00  0.00     0.000 A 
ENDBRANCH  60  73
ENDBRANCH  34  35
ENDBRANCH  27  29
ENDBRANCH  26  27
ENDBRANCH  25  26
ENDBRANCH  24  25
ENDBRANCH  23  24
ENDBRANCH   1  23
TORSDOF 18
ENDMDL
