MODEL 1
REMARK VINA RESULT:      -9.9      0.000      0.000
REMARK SMILES O=Cc1ccc(-c2cnccc2C(=O)OCCOCCOC(=O)c2ccc(-c3c4nc(c(-c5ccccc5)c5ccc([nH]5)c(-c5ccccc5)c5nc(c(-c6ccccc6)c6ccc3[nH]6)C=C5)C=C4)cc2)s1
REMARK SMILES IDX 18 1 17 2 16 3 15 4 13 5 14 6 12 7 7 8 8 9 9 10 11 11 10 12
REMARK SMILES IDX 6 13 3 14 4 15 72 16 5 17 2 18 1 19 19 20 20 21 21 22 22 23
REMARK SMILES IDX 23 24 24 25 25 26 71 27 26 28 70 29 27 30 28 31 29 32 64 33
REMARK SMILES IDX 30 34 69 35 63 36 65 37 31 38 68 39 62 40 61 41 32 43 54 44
REMARK SMILES IDX 39 45 53 46 40 47 43 48 52 49 66 50 41 51 42 52 51 54 67 55
REMARK SMILES IDX 44 56 33 57 34 58 38 59 35 60 37 61 36 62 55 63 56 64 60 65
REMARK SMILES IDX 57 66 59 67 58 68 45 69 46 70 50 71 47 72 49 73 48 74
REMARK H PARENT 65 42 43 53
REMARK Flexibility Score: inf
ROOT
ATOM      1  O   UNL A   1      32.521  30.945  27.111  1.00  0.00    -0.374 OA
ENDROOT
BRANCH   1   2
ATOM      2  C   UNL A   1      31.991  29.637  26.884  1.00  0.00     0.202 C 
BRANCH   2   3
ATOM      3  C   UNL A   1      32.582  28.885  25.691  1.00  0.00     0.261 C 
BRANCH   3   4
ATOM      4  O   UNL A   1      33.158  27.646  26.133  1.00  0.00    -0.460 OA
BRANCH   4   5
ATOM      5  C   UNL A   1      32.400  26.544  25.951  1.00  0.00     0.338 C 
ATOM      6  O   UNL A   1      31.448  26.192  26.633  1.00  0.00    -0.246 OA
BRANCH   5   7
ATOM      7  C   UNL A   1      32.744  25.886  24.672  1.00  0.00     0.071 A 
ATOM      8  C   UNL A   1      31.975  25.958  23.503  1.00  0.00     0.025 A 
ATOM      9  C   UNL A   1      32.488  25.270  22.400  1.00  0.00     0.121 A 
ATOM     10  N   UNL A   1      33.623  24.527  22.398  1.00  0.00    -0.264 NA
ATOM     11  C   UNL A   1      33.924  25.124  24.698  1.00  0.00     0.036 A 
ATOM     12  C   UNL A   1      34.313  24.465  23.550  1.00  0.00     0.112 A 
BRANCH   8  13
ATOM     13  C   UNL A   1      30.717  26.703  23.373  1.00  0.00     0.037 A 
ATOM     14  C   UNL A   1      29.053  28.452  22.828  1.00  0.00     0.067 A 
ATOM     15  C   UNL A   1      28.487  27.389  23.495  1.00  0.00     0.024 A 
ATOM     16  S   UNL A   1      30.711  28.206  22.533  1.00  0.00    -0.132 S 
ATOM     17  C   UNL A   1      29.447  26.384  23.818  1.00  0.00     0.021 A 
BRANCH  14  18
ATOM     18  C   UNL A   1      28.420  29.674  22.391  1.00  0.00     0.270 C 
ATOM     19  O   UNL A   1      28.410  30.075  21.231  1.00  0.00    -0.297 OA
ENDBRANCH  14  18
ENDBRANCH   8  13
ENDBRANCH   5   7
ENDBRANCH   4   5
ENDBRANCH   3   4
ENDBRANCH   2   3
ENDBRANCH   1   2
BRANCH   1  20
ATOM     20  C   UNL A   1      31.656  32.057  26.874  1.00  0.00     0.202 C 
BRANCH  20  21
ATOM     21  C   UNL A   1      32.304  33.446  26.909  1.00  0.00     0.261 C 
BRANCH  21  22
ATOM     22  O   UNL A   1      32.163  34.099  28.184  1.00  0.00    -0.460 OA
BRANCH  22  23
ATOM     23  C   UNL A   1      33.243  34.817  28.576  1.00  0.00     0.338 C 
ATOM     24  O   UNL A   1      33.305  36.022  28.770  1.00  0.00    -0.246 OA
BRANCH  23  25
ATOM     25  C   UNL A   1      34.360  33.914  28.900  1.00  0.00     0.060 A 
ATOM     26  C   UNL A   1      34.070  32.755  29.629  1.00  0.00     0.016 A 
ATOM     27  C   UNL A   1      35.680  34.244  28.589  1.00  0.00     0.016 A 
ATOM     28  C   UNL A   1      35.102  31.934  30.078  1.00  0.00     0.010 A 
ATOM     29  C   UNL A   1      36.716  33.426  29.051  1.00  0.00     0.010 A 
ATOM     30  C   UNL A   1      36.435  32.280  29.818  1.00  0.00    -0.014 A 
BRANCH  30  31
ATOM     31  C   UNL A   1      37.534  31.507  30.447  1.00  0.00     0.031 A 
ATOM     32  C   UNL A   1      37.880  31.754  31.890  1.00  0.00     0.074 A 
ATOM     33  C   UNL A   1      38.211  30.582  29.742  1.00  0.00     0.049 A 
ATOM     34  N   UNL A   1      38.834  31.226  32.615  1.00  0.00    -0.248 NA
ATOM     35  C   UNL A   1      37.045  32.728  32.611  1.00  0.00     0.031 C 
ATOM     36  C   UNL A   1      37.957  30.229  28.347  1.00  0.00     0.029 A 
ATOM     37  N   UNL A   1      39.266  29.782  30.107  1.00  0.00    -0.354 N 
ATOM     38  C   UNL A   1      38.723  31.813  33.869  1.00  0.00     0.074 A 
ATOM     39  C   UNL A   1      37.623  32.750  33.804  1.00  0.00     0.031 C 
ATOM     40  C   UNL A   1      38.849  29.300  27.963  1.00  0.00     0.029 A 
ATOM     41  C   UNL A   1      39.753  29.017  29.075  1.00  0.00     0.049 A 
ATOM     42  H   UNL A   1      39.636  29.759  31.019  1.00  0.00     0.167 HD
ATOM     43  C   UNL A   1      39.470  31.589  34.976  1.00  0.00     0.031 A 
ATOM     44  C   UNL A   1      40.827  28.206  29.023  1.00  0.00     0.031 A 
ATOM     45  C   UNL A   1      40.562  30.654  35.045  1.00  0.00     0.049 A 
ATOM     46  C   UNL A   1      41.676  28.020  30.253  1.00  0.00     0.074 A 
ATOM     47  C   UNL A   1      41.345  30.328  36.138  1.00  0.00     0.029 A 
ATOM     48  N   UNL A   1      41.029  29.906  33.978  1.00  0.00    -0.354 N 
ATOM     49  N   UNL A   1      41.528  28.540  31.447  1.00  0.00    -0.248 NA
ATOM     50  C   UNL A   1      42.837  27.127  30.127  1.00  0.00     0.031 C 
ATOM     51  C   UNL A   1      42.324  29.422  35.719  1.00  0.00     0.029 A 
ATOM     52  C   UNL A   1      42.113  29.143  34.378  1.00  0.00     0.049 A 
ATOM     53  H   UNL A   1      40.647  29.914  33.070  1.00  0.00     0.167 HD
ATOM     54  C   UNL A   1      42.558  28.019  32.219  1.00  0.00     0.074 A 
ATOM     55  C   UNL A   1      43.314  27.127  31.364  1.00  0.00     0.031 C 
ATOM     56  C   UNL A   1      42.854  28.257  33.520  1.00  0.00     0.031 A 
BRANCH  43  57
ATOM     57  C   UNL A   1      39.157  32.392  36.205  1.00  0.00    -0.014 A 
ATOM     58  C   UNL A   1      39.811  33.605  36.472  1.00  0.00     0.009 A 
ATOM     59  C   UNL A   1      38.143  31.960  37.074  1.00  0.00     0.009 A 
ATOM     60  C   UNL A   1      39.467  34.358  37.597  1.00  0.00     0.001 A 
ATOM     61  C   UNL A   1      37.785  32.726  38.184  1.00  0.00     0.001 A 
ATOM     62  C   UNL A   1      38.451  33.923  38.447  1.00  0.00     0.000 A 
ENDBRANCH  43  57
BRANCH  44  63
ATOM     63  C   UNL A   1      41.195  27.533  27.749  1.00  0.00    -0.014 A 
ATOM     64  C   UNL A   1      42.007  28.177  26.804  1.00  0.00     0.009 A 
ATOM     65  C   UNL A   1      40.700  26.253  27.459  1.00  0.00     0.009 A 
ATOM     66  C   UNL A   1      42.288  27.565  25.580  1.00  0.00     0.001 A 
ATOM     67  C   UNL A   1      41.006  25.631  26.247  1.00  0.00     0.001 A 
ATOM     68  C   UNL A   1      41.790  26.293  25.303  1.00  0.00     0.000 A 
ENDBRANCH  44  63
BRANCH  56  69
ATOM     69  C   UNL A   1      44.020  27.517  34.111  1.00  0.00    -0.014 A 
ATOM     70  C   UNL A   1      45.305  28.078  34.130  1.00  0.00     0.009 A 
ATOM     71  C   UNL A   1      43.818  26.257  34.697  1.00  0.00     0.009 A 
ATOM     72  C   UNL A   1      46.371  27.379  34.698  1.00  0.00     0.001 A 
ATOM     73  C   UNL A   1      44.880  25.572  35.288  1.00  0.00     0.001 A 
ATOM     74  C   UNL A   1      46.157  26.130  35.281  1.00  0.00     0.000 A 
ENDBRANCH  56  69
ENDBRANCH  30  31
ENDBRANCH  23  25
ENDBRANCH  22  23
ENDBRANCH  21  22
ENDBRANCH  20  21
ENDBRANCH   1  20
TORSDOF 16
ENDMDL
MODEL 2
REMARK VINA RESULT:      -9.8      4.934      8.891
REMARK SMILES O=Cc1ccc(-c2cnccc2C(=O)OCCOCCOC(=O)c2ccc(-c3c4nc(c(-c5ccccc5)c5ccc([nH]5)c(-c5ccccc5)c5nc(c(-c6ccccc6)c6ccc3[nH]6)C=C5)C=C4)cc2)s1
REMARK SMILES IDX 18 1 17 2 16 3 15 4 13 5 14 6 12 7 7 8 8 9 9 10 11 11 10 12
REMARK SMILES IDX 6 13 3 14 4 15 72 16 5 17 2 18 1 19 19 20 20 21 21 22 22 23
REMARK SMILES IDX 23 24 24 25 25 26 71 27 26 28 70 29 27 30 28 31 29 32 64 33
REMARK SMILES IDX 30 34 69 35 63 36 65 37 31 38 68 39 62 40 61 41 32 43 54 44
REMARK SMILES IDX 39 45 53 46 40 47 43 48 52 49 66 50 41 51 42 52 51 54 67 55
REMARK SMILES IDX 44 56 33 57 34 58 38 59 35 60 37 61 36 62 55 63 56 64 60 65
REMARK SMILES IDX 57 66 59 67 58 68 45 69 46 70 50 71 47 72 49 73 48 74
REMARK H PARENT 65 42 43 53
REMARK Flexibility Score: inf
ROOT
ATOM      1  O   UNL A   1      38.468  21.640  25.420  1.00  0.00    -0.374 OA
ENDROOT
BRANCH   1   2
ATOM      2  C   UNL A   1      37.263  22.401  25.524  1.00  0.00     0.202 C 
BRANCH   2   3
ATOM      3  C   UNL A   1      36.041  21.799  24.832  1.00  0.00     0.261 C 
BRANCH   3   4
ATOM      4  O   UNL A   1      35.320  20.966  25.754  1.00  0.00    -0.460 OA
BRANCH   4   5
ATOM      5  C   UNL A   1      33.980  21.131  25.774  1.00  0.00     0.338 C 
ATOM      6  O   UNL A   1      33.353  21.933  26.451  1.00  0.00    -0.246 OA
BRANCH   5   7
ATOM      7  C   UNL A   1      33.346  20.330  24.704  1.00  0.00     0.071 A 
ATOM      8  C   UNL A   1      32.623  20.863  23.628  1.00  0.00     0.025 A 
ATOM      9  C   UNL A   1      32.116  19.930  22.721  1.00  0.00     0.121 A 
ATOM     10  N   UNL A   1      32.237  18.583  22.831  1.00  0.00    -0.264 NA
ATOM     11  C   UNL A   1      33.488  18.940  24.842  1.00  0.00     0.036 A 
ATOM     12  C   UNL A   1      32.915  18.118  23.894  1.00  0.00     0.112 A 
BRANCH   8  13
ATOM     13  C   UNL A   1      32.394  22.296  23.401  1.00  0.00     0.037 A 
ATOM     14  C   UNL A   1      32.662  24.643  22.662  1.00  0.00     0.067 A 
ATOM     15  C   UNL A   1      31.517  24.461  23.404  1.00  0.00     0.024 A 
ATOM     16  S   UNL A   1      33.508  23.183  22.434  1.00  0.00    -0.132 S 
ATOM     17  C   UNL A   1      31.366  23.110  23.839  1.00  0.00     0.021 A 
BRANCH  14  18
ATOM     18  C   UNL A   1      33.182  25.868  22.103  1.00  0.00     0.270 C 
ATOM     19  O   UNL A   1      33.365  26.064  20.905  1.00  0.00    -0.297 OA
ENDBRANCH  14  18
ENDBRANCH   8  13
ENDBRANCH   5   7
ENDBRANCH   4   5
ENDBRANCH   3   4
ENDBRANCH   2   3
ENDBRANCH   1   2
BRANCH   1  20
ATOM     20  C   UNL A   1      38.352  20.271  25.029  1.00  0.00     0.202 C 
BRANCH  20  21
ATOM     21  C   UNL A   1      39.331  19.288  25.683  1.00  0.00     0.261 C 
BRANCH  21  22
ATOM     22  O   UNL A   1      40.671  19.407  25.170  1.00  0.00    -0.460 OA
BRANCH  22  23
ATOM     23  C   UNL A   1      41.636  19.476  26.118  1.00  0.00     0.338 C 
ATOM     24  O   UNL A   1      42.427  18.601  26.438  1.00  0.00    -0.246 OA
BRANCH  23  25
ATOM     25  C   UNL A   1      41.728  20.847  26.648  1.00  0.00     0.060 A 
ATOM     26  C   UNL A   1      42.094  21.865  25.759  1.00  0.00     0.016 A 
ATOM     27  C   UNL A   1      41.561  21.117  28.007  1.00  0.00     0.016 A 
ATOM     28  C   UNL A   1      42.326  23.155  26.232  1.00  0.00     0.010 A 
ATOM     29  C   UNL A   1      41.807  22.410  28.482  1.00  0.00     0.010 A 
ATOM     30  C   UNL A   1      42.214  23.429  27.601  1.00  0.00    -0.014 A 
BRANCH  30  31
ATOM     31  C   UNL A   1      42.634  24.752  28.126  1.00  0.00     0.031 A 
ATOM     32  C   UNL A   1      41.599  25.818  28.358  1.00  0.00     0.074 A 
ATOM     33  C   UNL A   1      43.927  24.998  28.405  1.00  0.00     0.049 A 
ATOM     34  N   UNL A   1      41.758  27.053  28.761  1.00  0.00    -0.248 NA
ATOM     35  C   UNL A   1      40.199  25.446  28.098  1.00  0.00     0.031 C 
ATOM     36  C   UNL A   1      45.023  24.044  28.249  1.00  0.00     0.029 A 
ATOM     37  N   UNL A   1      44.536  26.140  28.864  1.00  0.00    -0.354 N 
ATOM     38  C   UNL A   1      40.485  27.608  28.789  1.00  0.00     0.074 A 
ATOM     39  C   UNL A   1      39.565  26.585  28.345  1.00  0.00     0.031 C 
ATOM     40  C   UNL A   1      46.177  24.647  28.582  1.00  0.00     0.029 A 
ATOM     41  C   UNL A   1      45.904  26.035  28.945  1.00  0.00     0.049 A 
ATOM     42  H   UNL A   1      44.041  26.954  29.112  1.00  0.00     0.167 HD
ATOM     43  C   UNL A   1      40.116  28.859  29.153  1.00  0.00     0.031 A 
ATOM     44  C   UNL A   1      46.833  26.963  29.244  1.00  0.00     0.031 A 
ATOM     45  C   UNL A   1      41.028  29.879  29.599  1.00  0.00     0.049 A 
ATOM     46  C   UNL A   1      46.399  28.363  29.589  1.00  0.00     0.074 A 
ATOM     47  C   UNL A   1      40.738  31.161  30.033  1.00  0.00     0.029 A 
ATOM     48  N   UNL A   1      42.404  29.736  29.659  1.00  0.00    -0.354 N 
ATOM     49  N   UNL A   1      45.188  28.859  29.663  1.00  0.00    -0.248 NA
ATOM     50  C   UNL A   1      47.463  29.329  29.899  1.00  0.00     0.031 C 
ATOM     51  C   UNL A   1      41.944  31.814  30.303  1.00  0.00     0.029 A 
ATOM     52  C   UNL A   1      42.980  30.919  30.090  1.00  0.00     0.049 A 
ATOM     53  H   UNL A   1      42.898  28.916  29.430  1.00  0.00     0.167 HD
ATOM     54  C   UNL A   1      45.343  30.184  30.052  1.00  0.00     0.074 A 
ATOM     55  C   UNL A   1      46.764  30.410  30.217  1.00  0.00     0.031 C 
ATOM     56  C   UNL A   1      44.395  31.130  30.255  1.00  0.00     0.031 A 
BRANCH  43  57
ATOM     57  C   UNL A   1      38.660  29.215  29.057  1.00  0.00    -0.014 A 
ATOM     58  C   UNL A   1      37.799  29.071  30.156  1.00  0.00     0.009 A 
ATOM     59  C   UNL A   1      38.160  29.765  27.866  1.00  0.00     0.009 A 
ATOM     60  C   UNL A   1      36.460  29.454  30.055  1.00  0.00     0.001 A 
ATOM     61  C   UNL A   1      36.828  30.169  27.777  1.00  0.00     0.001 A 
ATOM     62  C   UNL A   1      35.977  30.009  28.870  1.00  0.00     0.000 A 
ENDBRANCH  43  57
BRANCH  44  63
ATOM     63  C   UNL A   1      48.279  26.617  29.193  1.00  0.00    -0.014 A 
ATOM     64  C   UNL A   1      49.018  26.789  28.014  1.00  0.00     0.009 A 
ATOM     65  C   UNL A   1      48.914  26.076  30.321  1.00  0.00     0.009 A 
ATOM     66  C   UNL A   1      50.357  26.394  27.955  1.00  0.00     0.001 A 
ATOM     67  C   UNL A   1      50.261  25.709  30.269  1.00  0.00     0.001 A 
ATOM     68  C   UNL A   1      50.978  25.857  29.082  1.00  0.00     0.000 A 
ENDBRANCH  44  63
BRANCH  56  69
ATOM     69  C   UNL A   1      44.855  32.484  30.713  1.00  0.00    -0.014 A 
ATOM     70  C   UNL A   1      45.023  32.775  32.075  1.00  0.00     0.009 A 
ATOM     71  C   UNL A   1      45.169  33.469  29.762  1.00  0.00     0.009 A 
ATOM     72  C   UNL A   1      45.467  34.036  32.477  1.00  0.00     0.001 A 
ATOM     73  C   UNL A   1      45.638  34.719  30.167  1.00  0.00     0.001 A 
ATOM     74  C   UNL A   1      45.779  35.004  31.524  1.00  0.00     0.000 A 
ENDBRANCH  56  69
ENDBRANCH  30  31
ENDBRANCH  23  25
ENDBRANCH  22  23
ENDBRANCH  21  22
ENDBRANCH  20  21
ENDBRANCH   1  20
TORSDOF 16
ENDMDL
MODEL 3
REMARK VINA RESULT:      -9.8      4.718      9.299
REMARK SMILES O=Cc1ccc(-c2cnccc2C(=O)OCCOCCOC(=O)c2ccc(-c3c4nc(c(-c5ccccc5)c5ccc([nH]5)c(-c5ccccc5)c5nc(c(-c6ccccc6)c6ccc3[nH]6)C=C5)C=C4)cc2)s1
REMARK SMILES IDX 18 1 17 2 16 3 15 4 13 5 14 6 12 7 7 8 8 9 9 10 11 11 10 12
REMARK SMILES IDX 6 13 3 14 4 15 72 16 5 17 2 18 1 19 19 20 20 21 21 22 22 23
REMARK SMILES IDX 23 24 24 25 25 26 71 27 26 28 70 29 27 30 28 31 29 32 64 33
REMARK SMILES IDX 30 34 69 35 63 36 65 37 31 38 68 39 62 40 61 41 32 43 54 44
REMARK SMILES IDX 39 45 53 46 40 47 43 48 52 49 66 50 41 51 42 52 51 54 67 55
REMARK SMILES IDX 44 56 33 57 34 58 38 59 35 60 37 61 36 62 55 63 56 64 60 65
REMARK SMILES IDX 57 66 59 67 58 68 45 69 46 70 50 71 47 72 49 73 48 74
REMARK H PARENT 65 42 43 53
REMARK Flexibility Score: inf
ROOT
ATOM      1  O   UNL A   1      37.420  21.587  25.904  1.00  0.00    -0.374 OA
ENDROOT
BRANCH   1   2
ATOM      2  C   UNL A   1      36.825  22.866  25.671  1.00  0.00     0.202 C 
BRANCH   2   3
ATOM      3  C   UNL A   1      35.306  22.926  25.838  1.00  0.00     0.261 C 
BRANCH   3   4
ATOM      4  O   UNL A   1      34.784  21.602  26.030  1.00  0.00    -0.460 OA
BRANCH   4   5
ATOM      5  C   UNL A   1      33.440  21.484  25.977  1.00  0.00     0.338 C 
ATOM      6  O   UNL A   1      32.625  22.127  26.622  1.00  0.00    -0.246 OA
BRANCH   5   7
ATOM      7  C   UNL A   1      33.044  20.589  24.868  1.00  0.00     0.071 A 
ATOM      8  C   UNL A   1      32.451  21.012  23.670  1.00  0.00     0.025 A 
ATOM      9  C   UNL A   1      32.167  20.001  22.748  1.00  0.00     0.121 A 
ATOM     10  N   UNL A   1      32.380  18.677  22.946  1.00  0.00    -0.264 NA
ATOM     11  C   UNL A   1      33.277  19.223  25.098  1.00  0.00     0.036 A 
ATOM     12  C   UNL A   1      32.924  18.316  24.121  1.00  0.00     0.112 A 
BRANCH   8  13
ATOM     13  C   UNL A   1      32.143  22.408  23.337  1.00  0.00     0.037 A 
ATOM     14  C   UNL A   1      32.277  24.703  22.419  1.00  0.00     0.067 A 
ATOM     15  C   UNL A   1      31.147  24.516  23.183  1.00  0.00     0.024 A 
ATOM     16  S   UNL A   1      33.200  23.278  22.294  1.00  0.00    -0.132 S 
ATOM     17  C   UNL A   1      31.073  23.196  23.721  1.00  0.00     0.021 A 
BRANCH  14  18
ATOM     18  C   UNL A   1      32.725  25.908  21.763  1.00  0.00     0.270 C 
ATOM     19  O   UNL A   1      33.900  26.252  21.667  1.00  0.00    -0.297 OA
ENDBRANCH  14  18
ENDBRANCH   8  13
ENDBRANCH   5   7
ENDBRANCH   4   5
ENDBRANCH   3   4
ENDBRANCH   2   3
ENDBRANCH   1   2
BRANCH   1  20
ATOM     20  C   UNL A   1      38.831  21.471  25.713  1.00  0.00     0.202 C 
BRANCH  20  21
ATOM     21  C   UNL A   1      39.371  20.061  25.445  1.00  0.00     0.261 C 
BRANCH  21  22
ATOM     22  O   UNL A   1      40.348  19.642  26.415  1.00  0.00    -0.460 OA
BRANCH  22  23
ATOM     23  C   UNL A   1      41.636  19.790  26.022  1.00  0.00     0.338 C 
ATOM     24  O   UNL A   1      42.271  19.066  25.269  1.00  0.00    -0.246 OA
BRANCH  23  25
ATOM     25  C   UNL A   1      42.172  21.071  26.512  1.00  0.00     0.060 A 
ATOM     26  C   UNL A   1      42.084  21.330  27.885  1.00  0.00     0.016 A 
ATOM     27  C   UNL A   1      42.657  22.043  25.635  1.00  0.00     0.016 A 
ATOM     28  C   UNL A   1      42.453  22.577  28.385  1.00  0.00     0.010 A 
ATOM     29  C   UNL A   1      43.014  23.299  26.138  1.00  0.00     0.010 A 
ATOM     30  C   UNL A   1      42.891  23.581  27.512  1.00  0.00    -0.014 A 
BRANCH  30  31
ATOM     31  C   UNL A   1      43.111  24.957  28.019  1.00  0.00     0.031 A 
ATOM     32  C   UNL A   1      44.494  25.383  28.427  1.00  0.00     0.074 A 
ATOM     33  C   UNL A   1      42.087  25.826  28.105  1.00  0.00     0.049 A 
ATOM     34  N   UNL A   1      44.893  26.519  28.942  1.00  0.00    -0.248 NA
ATOM     35  C   UNL A   1      45.571  24.399  28.234  1.00  0.00     0.031 C 
ATOM     36  C   UNL A   1      40.705  25.547  27.718  1.00  0.00     0.029 A 
ATOM     37  N   UNL A   1      42.054  27.120  28.564  1.00  0.00    -0.354 N 
ATOM     38  C   UNL A   1      46.260  26.381  29.147  1.00  0.00     0.074 A 
ATOM     39  C   UNL A   1      46.621  25.047  28.720  1.00  0.00     0.031 C 
ATOM     40  C   UNL A   1      39.952  26.629  27.980  1.00  0.00     0.029 A 
ATOM     41  C   UNL A   1      40.792  27.663  28.579  1.00  0.00     0.049 A 
ATOM     42  H   UNL A   1      42.857  27.611  28.853  1.00  0.00     0.167 HD
ATOM     43  C   UNL A   1      47.135  27.286  29.646  1.00  0.00     0.031 A 
ATOM     44  C   UNL A   1      40.357  28.846  29.053  1.00  0.00     0.031 A 
ATOM     45  C   UNL A   1      46.780  28.615  30.067  1.00  0.00     0.049 A 
ATOM     46  C   UNL A   1      41.344  29.810  29.656  1.00  0.00     0.074 A 
ATOM     47  C   UNL A   1      47.609  29.616  30.542  1.00  0.00     0.029 A 
ATOM     48  N   UNL A   1      45.492  29.123  30.074  1.00  0.00    -0.354 N 
ATOM     49  N   UNL A   1      42.642  29.688  29.795  1.00  0.00    -0.248 NA
ATOM     50  C   UNL A   1      40.804  31.081  30.161  1.00  0.00     0.031 C 
ATOM     51  C   UNL A   1      46.815  30.713  30.889  1.00  0.00     0.029 A 
ATOM     52  C   UNL A   1      45.499  30.413  30.578  1.00  0.00     0.049 A 
ATOM     53  H   UNL A   1      44.691  28.639  29.767  1.00  0.00     0.167 HD
ATOM     54  C   UNL A   1      43.075  30.872  30.378  1.00  0.00     0.074 A 
ATOM     55  C   UNL A   1      41.905  31.709  30.550  1.00  0.00     0.031 C 
ATOM     56  C   UNL A   1      44.329  31.236  30.739  1.00  0.00     0.031 A 
BRANCH  43  57
ATOM     57  C   UNL A   1      48.568  26.863  29.796  1.00  0.00    -0.014 A 
ATOM     58  C   UNL A   1      49.525  27.165  28.815  1.00  0.00     0.009 A 
ATOM     59  C   UNL A   1      48.978  26.210  30.970  1.00  0.00     0.009 A 
ATOM     60  C   UNL A   1      50.862  26.803  29.000  1.00  0.00     0.001 A 
ATOM     61  C   UNL A   1      50.317  25.872  31.162  1.00  0.00     0.001 A 
ATOM     62  C   UNL A   1      51.258  26.164  30.175  1.00  0.00     0.000 A 
ENDBRANCH  43  57
BRANCH  44  63
ATOM     63  C   UNL A   1      38.909  29.179  29.020  1.00  0.00    -0.014 A 
ATOM     64  C   UNL A   1      38.331  29.765  27.884  1.00  0.00     0.009 A 
ATOM     65  C   UNL A   1      38.105  28.943  30.146  1.00  0.00     0.009 A 
ATOM     66  C   UNL A   1      36.985  30.139  27.889  1.00  0.00     0.001 A 
ATOM     67  C   UNL A   1      36.752  29.292  30.138  1.00  0.00     0.001 A 
ATOM     68  C   UNL A   1      36.197  29.901  29.014  1.00  0.00     0.000 A 
ENDBRANCH  44  63
BRANCH  56  69
ATOM     69  C   UNL A   1      44.511  32.608  31.322  1.00  0.00    -0.014 A 
ATOM     70  C   UNL A   1      44.798  33.714  30.507  1.00  0.00     0.009 A 
ATOM     71  C   UNL A   1      44.347  32.804  32.703  1.00  0.00     0.009 A 
ATOM     72  C   UNL A   1      44.948  34.984  31.069  1.00  0.00     0.001 A 
ATOM     73  C   UNL A   1      44.470  34.079  33.257  1.00  0.00     0.001 A 
ATOM     74  C   UNL A   1      44.778  35.166  32.440  1.00  0.00     0.000 A 
ENDBRANCH  56  69
ENDBRANCH  30  31
ENDBRANCH  23  25
ENDBRANCH  22  23
ENDBRANCH  21  22
ENDBRANCH  20  21
ENDBRANCH   1  20
TORSDOF 16
ENDMDL
