MODEL 1
REMARK VINA RESULT:      -9.5      0.000      0.000
REMARK SMILES O=C(CCCCNc1ncnc2c1CCCC2)OCCOCCOC(=O)c1ccc(-c2c3nc(c(-c4ccccc4)c4ccc([nH]4)c(-c4ccccc4)c4nc(c(-c5ccccc5)c5ccc2[nH]5)C=C4)C=C3)cc1
REMARK SMILES IDX 19 1 18 2 2 3 1 4 3 5 4 6 5 7 6 8 7 9 8 11 9 12 13 13 10 14
REMARK SMILES IDX 12 15 14 16 11 17 17 18 15 19 16 20 20 21 21 22 22 23 23 24
REMARK SMILES IDX 24 25 25 26 26 27 27 28 28 29 74 30 29 31 73 32 30 33 31 34
REMARK SMILES IDX 32 35 67 36 33 37 72 38 66 39 68 40 34 41 71 42 65 43 64 44
REMARK SMILES IDX 35 46 57 47 42 48 56 49 43 50 46 51 55 52 69 53 44 54 45 55
REMARK SMILES IDX 54 57 70 58 47 59 36 60 37 61 41 62 38 63 40 64 39 65 58 66
REMARK SMILES IDX 59 67 63 68 60 69 62 70 61 71 48 72 49 73 53 74 50 75 52 76
REMARK SMILES IDX 51 77
REMARK H PARENT 7 10 68 45 46 56
REMARK Flexibility Score: inf
ROOT
ATOM      1  C   UNL A   1      35.347  32.226  27.948  1.00  0.00     0.261 C 
ENDROOT
BRANCH   1   2
ATOM      2  O   UNL A   1      34.893  30.878  28.119  1.00  0.00    -0.463 OA
BRANCH   2   3
ATOM      3  C   UNL A   1      34.084  30.198  27.279  1.00  0.00     0.305 C 
ATOM      4  O   UNL A   1      32.958  30.642  27.053  1.00  0.00    -0.252 OA
BRANCH   3   5
ATOM      5  C   UNL A   1      34.514  28.889  26.650  1.00  0.00     0.123 C 
BRANCH   5   6
ATOM      6  C   UNL A   1      33.576  28.276  25.616  1.00  0.00     0.013 C 
BRANCH   6   7
ATOM      7  C   UNL A   1      33.987  28.389  24.142  1.00  0.00     0.022 C 
BRANCH   7   8
ATOM      8  C   UNL A   1      32.992  29.086  23.200  1.00  0.00     0.114 C 
BRANCH   8   9
ATOM      9  N   UNL A   1      32.257  28.106  22.452  1.00  0.00    -0.370 N 
ATOM     10  H   UNL A   1      32.609  27.751  21.604  1.00  0.00     0.162 HD
BRANCH   9  11
ATOM     11  C   UNL A   1      31.046  27.672  22.950  1.00  0.00     0.132 A 
ATOM     12  N   UNL A   1      30.975  26.440  23.478  1.00  0.00    -0.219 NA
ATOM     13  C   UNL A   1      29.930  28.481  22.796  1.00  0.00     0.016 A 
ATOM     14  C   UNL A   1      29.773  26.044  23.909  1.00  0.00     0.224 A 
ATOM     15  C   UNL A   1      28.729  27.961  23.254  1.00  0.00     0.049 A 
ATOM     16  C   UNL A   1      30.030  29.835  22.151  1.00  0.00     0.041 C 
ATOM     17  N   UNL A   1      28.633  26.741  23.821  1.00  0.00    -0.241 NA
ATOM     18  C   UNL A   1      27.431  28.693  23.033  1.00  0.00     0.057 C 
ATOM     19  C   UNL A   1      28.691  30.339  21.626  1.00  0.00     0.005 C 
ATOM     20  C   UNL A   1      27.617  30.171  22.692  1.00  0.00     0.007 C 
ENDBRANCH   9  11
ENDBRANCH   8   9
ENDBRANCH   7   8
ENDBRANCH   6   7
ENDBRANCH   5   6
ENDBRANCH   3   5
ENDBRANCH   2   3
ENDBRANCH   1   2
BRANCH   1  21
ATOM     21  C   UNL A   1      34.956  33.133  29.101  1.00  0.00     0.202 C 
BRANCH  21  22
ATOM     22  O   UNL A   1      33.707  33.785  28.892  1.00  0.00    -0.374 OA
BRANCH  22  23
ATOM     23  C   UNL A   1      33.790  35.211  28.839  1.00  0.00     0.202 C 
BRANCH  23  24
ATOM     24  C   UNL A   1      32.705  35.885  29.688  1.00  0.00     0.261 C 
BRANCH  24  25
ATOM     25  O   UNL A   1      33.255  36.293  30.951  1.00  0.00    -0.460 OA
BRANCH  25  26
ATOM     26  C   UNL A   1      32.949  35.494  32.005  1.00  0.00     0.338 C 
ATOM     27  O   UNL A   1      31.841  35.263  32.457  1.00  0.00    -0.246 OA
BRANCH  26  28
ATOM     28  C   UNL A   1      34.168  34.752  32.408  1.00  0.00     0.060 A 
ATOM     29  C   UNL A   1      35.408  35.377  32.213  1.00  0.00     0.016 A 
ATOM     30  C   UNL A   1      34.100  33.508  33.044  1.00  0.00     0.016 A 
ATOM     31  C   UNL A   1      36.581  34.754  32.637  1.00  0.00     0.010 A 
ATOM     32  C   UNL A   1      35.275  32.880  33.462  1.00  0.00     0.010 A 
ATOM     33  C   UNL A   1      36.520  33.489  33.234  1.00  0.00    -0.014 A 
BRANCH  33  34
ATOM     34  C   UNL A   1      37.765  32.716  33.435  1.00  0.00     0.031 A 
ATOM     35  C   UNL A   1      38.544  32.953  34.695  1.00  0.00     0.074 A 
ATOM     36  C   UNL A   1      38.191  31.819  32.530  1.00  0.00     0.049 A 
ATOM     37  N   UNL A   1      39.637  32.370  35.115  1.00  0.00    -0.248 NA
ATOM     38  C   UNL A   1      38.022  33.988  35.603  1.00  0.00     0.031 C 
ATOM     39  C   UNL A   1      37.515  31.492  31.277  1.00  0.00     0.029 A 
ATOM     40  N   UNL A   1      39.305  31.018  32.536  1.00  0.00    -0.354 N 
ATOM     41  C   UNL A   1      39.927  32.964  36.336  1.00  0.00     0.074 A 
ATOM     42  C   UNL A   1      38.924  33.979  36.570  1.00  0.00     0.031 C 
ATOM     43  C   UNL A   1      38.230  30.552  30.633  1.00  0.00     0.029 A 
ATOM     44  C   UNL A   1      39.419  30.225  31.420  1.00  0.00     0.049 A 
ATOM     45  H   UNL A   1      39.962  31.011  33.270  1.00  0.00     0.167 HD
ATOM     46  C   UNL A   1      40.933  32.681  37.194  1.00  0.00     0.031 A 
ATOM     47  C   UNL A   1      40.375  29.341  31.075  1.00  0.00     0.031 A 
ATOM     48  C   UNL A   1      41.943  31.690  36.951  1.00  0.00     0.049 A 
ATOM     49  C   UNL A   1      41.528  29.089  32.009  1.00  0.00     0.074 A 
ATOM     50  C   UNL A   1      42.983  31.304  37.776  1.00  0.00     0.029 A 
ATOM     51  N   UNL A   1      42.046  30.943  35.789  1.00  0.00    -0.354 N 
ATOM     52  N   UNL A   1      41.756  29.607  33.192  1.00  0.00    -0.248 NA
ATOM     53  C   UNL A   1      42.551  28.130  31.567  1.00  0.00     0.031 C 
ATOM     54  C   UNL A   1      43.754  30.365  37.085  1.00  0.00     0.029 A 
ATOM     55  C   UNL A   1      43.159  30.125  35.856  1.00  0.00     0.049 A 
ATOM     56  H   UNL A   1      41.422  30.988  35.029  1.00  0.00     0.167 HD
ATOM     57  C   UNL A   1      42.933  29.023  33.645  1.00  0.00     0.074 A 
ATOM     58  C   UNL A   1      43.372  28.108  32.611  1.00  0.00     0.031 C 
ATOM     59  C   UNL A   1      43.586  29.224  34.816  1.00  0.00     0.031 A 
BRANCH  46  60
ATOM     60  C   UNL A   1      40.998  33.484  38.460  1.00  0.00    -0.014 A 
ATOM     61  C   UNL A   1      41.745  34.671  38.530  1.00  0.00     0.009 A 
ATOM     62  C   UNL A   1      40.295  33.052  39.595  1.00  0.00     0.009 A 
ATOM     63  C   UNL A   1      41.817  35.389  39.724  1.00  0.00     0.001 A 
ATOM     64  C   UNL A   1      40.346  33.787  40.779  1.00  0.00     0.001 A 
ATOM     65  C   UNL A   1      41.116  34.948  40.846  1.00  0.00     0.000 A 
ENDBRANCH  46  60
BRANCH  47  66
ATOM     66  C   UNL A   1      40.261  28.614  29.784  1.00  0.00    -0.014 A 
ATOM     67  C   UNL A   1      39.601  27.378  29.719  1.00  0.00     0.009 A 
ATOM     68  C   UNL A   1      40.766  29.178  28.602  1.00  0.00     0.009 A 
ATOM     69  C   UNL A   1      39.450  26.721  28.495  1.00  0.00     0.001 A 
ATOM     70  C   UNL A   1      40.594  28.529  27.376  1.00  0.00     0.001 A 
ATOM     71  C   UNL A   1      39.938  27.301  27.325  1.00  0.00     0.000 A 
ENDBRANCH  47  66
BRANCH  59  72
ATOM     72  C   UNL A   1      44.845  28.444  35.070  1.00  0.00    -0.014 A 
ATOM     73  C   UNL A   1      44.796  27.163  35.638  1.00  0.00     0.009 A 
ATOM     74  C   UNL A   1      46.075  28.940  34.607  1.00  0.00     0.009 A 
ATOM     75  C   UNL A   1      45.957  26.393  35.737  1.00  0.00     0.001 A 
ATOM     76  C   UNL A   1      47.228  28.159  34.686  1.00  0.00     0.001 A 
ATOM     77  C   UNL A   1      47.168  26.887  35.252  1.00  0.00     0.000 A 
ENDBRANCH  59  72
ENDBRANCH  33  34
ENDBRANCH  26  28
ENDBRANCH  25  26
ENDBRANCH  24  25
ENDBRANCH  23  24
ENDBRANCH  22  23
ENDBRANCH  21  22
ENDBRANCH   1  21
TORSDOF 19
ENDMDL
MODEL 2
REMARK VINA RESULT:      -9.2      1.446      2.477
REMARK SMILES O=C(CCCCNc1ncnc2c1CCCC2)OCCOCCOC(=O)c1ccc(-c2c3nc(c(-c4ccccc4)c4ccc([nH]4)c(-c4ccccc4)c4nc(c(-c5ccccc5)c5ccc2[nH]5)C=C4)C=C3)cc1
REMARK SMILES IDX 19 1 18 2 2 3 1 4 3 5 4 6 5 7 6 8 7 9 8 11 9 12 13 13 10 14
REMARK SMILES IDX 12 15 14 16 11 17 17 18 15 19 16 20 20 21 21 22 22 23 23 24
REMARK SMILES IDX 24 25 25 26 26 27 27 28 28 29 74 30 29 31 73 32 30 33 31 34
REMARK SMILES IDX 32 35 67 36 33 37 72 38 66 39 68 40 34 41 71 42 65 43 64 44
REMARK SMILES IDX 35 46 57 47 42 48 56 49 43 50 46 51 55 52 69 53 44 54 45 55
REMARK SMILES IDX 54 57 70 58 47 59 36 60 37 61 41 62 38 63 40 64 39 65 58 66
REMARK SMILES IDX 59 67 63 68 60 69 62 70 61 71 48 72 49 73 53 74 50 75 52 76
REMARK SMILES IDX 51 77
REMARK H PARENT 7 10 68 45 46 56
REMARK Flexibility Score: inf
ROOT
ATOM      1  C   UNL A   1      35.841  32.816  28.087  1.00  0.00     0.261 C 
ENDROOT
BRANCH   1   2
ATOM      2  O   UNL A   1      35.576  31.417  28.243  1.00  0.00    -0.463 OA
BRANCH   2   3
ATOM      3  C   UNL A   1      34.592  30.721  27.635  1.00  0.00     0.305 C 
ATOM      4  O   UNL A   1      33.454  31.194  27.621  1.00  0.00    -0.252 OA
BRANCH   3   5
ATOM      5  C   UNL A   1      34.848  29.363  27.015  1.00  0.00     0.123 C 
BRANCH   5   6
ATOM      6  C   UNL A   1      33.660  28.665  26.363  1.00  0.00     0.013 C 
BRANCH   6   7
ATOM      7  C   UNL A   1      33.824  28.218  24.904  1.00  0.00     0.022 C 
BRANCH   7   8
ATOM      8  C   UNL A   1      32.536  28.076  24.077  1.00  0.00     0.114 C 
BRANCH   8   9
ATOM      9  N   UNL A   1      32.302  26.694  23.769  1.00  0.00    -0.370 N 
ATOM     10  H   UNL A   1      32.575  26.317  22.902  1.00  0.00     0.162 HD
BRANCH   9  11
ATOM     11  C   UNL A   1      31.684  25.906  24.718  1.00  0.00     0.132 A 
ATOM     12  N   UNL A   1      30.425  26.204  25.077  1.00  0.00    -0.219 NA
ATOM     13  C   UNL A   1      32.416  24.903  25.336  1.00  0.00     0.016 A 
ATOM     14  C   UNL A   1      29.880  25.440  26.030  1.00  0.00     0.224 A 
ATOM     15  C   UNL A   1      31.762  24.191  26.331  1.00  0.00     0.049 A 
ATOM     16  C   UNL A   1      33.843  24.628  24.953  1.00  0.00     0.041 C 
ATOM     17  N   UNL A   1      30.486  24.444  26.687  1.00  0.00    -0.241 NA
ATOM     18  C   UNL A   1      32.489  23.162  27.155  1.00  0.00     0.057 C 
ATOM     19  C   UNL A   1      34.611  23.879  26.034  1.00  0.00     0.005 C 
ATOM     20  C   UNL A   1      33.796  22.689  26.522  1.00  0.00     0.007 C 
ENDBRANCH   9  11
ENDBRANCH   8   9
ENDBRANCH   7   8
ENDBRANCH   6   7
ENDBRANCH   5   6
ENDBRANCH   3   5
ENDBRANCH   2   3
ENDBRANCH   1   2
BRANCH   1  21
ATOM     21  C   UNL A   1      35.384  33.642  29.276  1.00  0.00     0.202 C 
BRANCH  21  22
ATOM     22  O   UNL A   1      34.028  34.065  29.165  1.00  0.00    -0.374 OA
BRANCH  22  23
ATOM     23  C   UNL A   1      33.862  35.480  29.047  1.00  0.00     0.202 C 
BRANCH  23  24
ATOM     24  C   UNL A   1      32.686  35.997  29.884  1.00  0.00     0.261 C 
BRANCH  24  25
ATOM     25  O   UNL A   1      33.150  36.397  31.184  1.00  0.00    -0.460 OA
BRANCH  25  26
ATOM     26  C   UNL A   1      32.842  35.550  32.199  1.00  0.00     0.338 C 
ATOM     27  O   UNL A   1      31.732  35.281  32.624  1.00  0.00    -0.246 OA
BRANCH  26  28
ATOM     28  C   UNL A   1      34.069  34.814  32.590  1.00  0.00     0.060 A 
ATOM     29  C   UNL A   1      35.297  35.480  32.473  1.00  0.00     0.016 A 
ATOM     30  C   UNL A   1      34.016  33.530  33.143  1.00  0.00     0.016 A 
ATOM     31  C   UNL A   1      36.474  34.861  32.892  1.00  0.00     0.010 A 
ATOM     32  C   UNL A   1      35.195  32.906  33.555  1.00  0.00     0.010 A 
ATOM     33  C   UNL A   1      36.430  33.559  33.405  1.00  0.00    -0.014 A 
BRANCH  33  34
ATOM     34  C   UNL A   1      37.688  32.806  33.594  1.00  0.00     0.031 A 
ATOM     35  C   UNL A   1      38.471  33.048  34.850  1.00  0.00     0.074 A 
ATOM     36  C   UNL A   1      38.123  31.921  32.680  1.00  0.00     0.049 A 
ATOM     37  N   UNL A   1      39.576  32.481  35.260  1.00  0.00    -0.248 NA
ATOM     38  C   UNL A   1      37.937  34.069  35.768  1.00  0.00     0.031 C 
ATOM     39  C   UNL A   1      37.445  31.590  31.430  1.00  0.00     0.029 A 
ATOM     40  N   UNL A   1      39.251  31.138  32.675  1.00  0.00    -0.354 N 
ATOM     41  C   UNL A   1      39.864  33.072  36.483  1.00  0.00     0.074 A 
ATOM     42  C   UNL A   1      38.846  34.069  36.729  1.00  0.00     0.031 C 
ATOM     43  C   UNL A   1      38.171  30.665  30.776  1.00  0.00     0.029 A 
ATOM     44  C   UNL A   1      39.371  30.354  31.554  1.00  0.00     0.049 A 
ATOM     45  H   UNL A   1      39.912  31.138  33.405  1.00  0.00     0.167 HD
ATOM     46  C   UNL A   1      40.880  32.801  37.332  1.00  0.00     0.031 A 
ATOM     47  C   UNL A   1      40.339  29.488  31.197  1.00  0.00     0.031 A 
ATOM     48  C   UNL A   1      41.904  31.829  37.077  1.00  0.00     0.049 A 
ATOM     49  C   UNL A   1      41.502  29.250  32.123  1.00  0.00     0.074 A 
ATOM     50  C   UNL A   1      42.956  31.455  37.893  1.00  0.00     0.029 A 
ATOM     51  N   UNL A   1      42.013  31.090  35.910  1.00  0.00    -0.354 N 
ATOM     52  N   UNL A   1      41.729  29.764  33.307  1.00  0.00    -0.248 NA
ATOM     53  C   UNL A   1      42.538  28.311  31.669  1.00  0.00     0.031 C 
ATOM     54  C   UNL A   1      43.738  30.533  37.193  1.00  0.00     0.029 A 
ATOM     55  C   UNL A   1      43.140  30.291  35.966  1.00  0.00     0.049 A 
ATOM     56  H   UNL A   1      41.383  31.129  35.155  1.00  0.00     0.167 HD
ATOM     57  C   UNL A   1      42.918  29.197  33.750  1.00  0.00     0.074 A 
ATOM     58  C   UNL A   1      43.366  28.296  32.708  1.00  0.00     0.031 C 
ATOM     59  C   UNL A   1      43.575  29.403  34.918  1.00  0.00     0.031 A 
BRANCH  46  60
ATOM     60  C   UNL A   1      40.939  33.598  38.603  1.00  0.00    -0.014 A 
ATOM     61  C   UNL A   1      40.405  33.095  39.801  1.00  0.00     0.009 A 
ATOM     62  C   UNL A   1      41.546  34.863  38.604  1.00  0.00     0.009 A 
ATOM     63  C   UNL A   1      40.444  33.862  40.966  1.00  0.00     0.001 A 
ATOM     64  C   UNL A   1      41.609  35.615  39.777  1.00  0.00     0.001 A 
ATOM     65  C   UNL A   1      41.048  35.119  40.954  1.00  0.00     0.000 A 
ENDBRANCH  46  60
BRANCH  47  66
ATOM     66  C   UNL A   1      40.228  28.767  29.904  1.00  0.00    -0.014 A 
ATOM     67  C   UNL A   1      39.579  27.525  29.833  1.00  0.00     0.009 A 
ATOM     68  C   UNL A   1      40.727  29.341  28.723  1.00  0.00     0.009 A 
ATOM     69  C   UNL A   1      39.432  26.873  28.605  1.00  0.00     0.001 A 
ATOM     70  C   UNL A   1      40.559  28.696  27.494  1.00  0.00     0.001 A 
ATOM     71  C   UNL A   1      39.913  27.463  27.438  1.00  0.00     0.000 A 
ENDBRANCH  47  66
BRANCH  59  72
ATOM     72  C   UNL A   1      44.848  28.642  35.159  1.00  0.00    -0.014 A 
ATOM     73  C   UNL A   1      44.824  27.354  35.712  1.00  0.00     0.009 A 
ATOM     74  C   UNL A   1      46.068  29.166  34.699  1.00  0.00     0.009 A 
ATOM     75  C   UNL A   1      45.998  26.603  35.800  1.00  0.00     0.001 A 
ATOM     76  C   UNL A   1      47.235  28.404  34.766  1.00  0.00     0.001 A 
ATOM     77  C   UNL A   1      47.199  27.125  35.317  1.00  0.00     0.000 A 
ENDBRANCH  59  72
ENDBRANCH  33  34
ENDBRANCH  26  28
ENDBRANCH  25  26
ENDBRANCH  24  25
ENDBRANCH  23  24
ENDBRANCH  22  23
ENDBRANCH  21  22
ENDBRANCH   1  21
TORSDOF 19
ENDMDL
MODEL 3
REMARK VINA RESULT:      -9.2      5.500     10.191
REMARK SMILES O=C(CCCCNc1ncnc2c1CCCC2)OCCOCCOC(=O)c1ccc(-c2c3nc(c(-c4ccccc4)c4ccc([nH]4)c(-c4ccccc4)c4nc(c(-c5ccccc5)c5ccc2[nH]5)C=C4)C=C3)cc1
REMARK SMILES IDX 19 1 18 2 2 3 1 4 3 5 4 6 5 7 6 8 7 9 8 11 9 12 13 13 10 14
REMARK SMILES IDX 12 15 14 16 11 17 17 18 15 19 16 20 20 21 21 22 22 23 23 24
REMARK SMILES IDX 24 25 25 26 26 27 27 28 28 29 74 30 29 31 73 32 30 33 31 34
REMARK SMILES IDX 32 35 67 36 33 37 72 38 66 39 68 40 34 41 71 42 65 43 64 44
REMARK SMILES IDX 35 46 57 47 42 48 56 49 43 50 46 51 55 52 69 53 44 54 45 55
REMARK SMILES IDX 54 57 70 58 47 59 36 60 37 61 41 62 38 63 40 64 39 65 58 66
REMARK SMILES IDX 59 67 63 68 60 69 62 70 61 71 48 72 49 73 53 74 50 75 52 76
REMARK SMILES IDX 51 77
REMARK H PARENT 7 10 68 45 46 56
REMARK Flexibility Score: inf
ROOT
ATOM      1  C   UNL A   1      36.922  21.957  25.346  1.00  0.00     0.261 C 
ENDROOT
BRANCH   1   2
ATOM      2  O   UNL A   1      35.719  22.509  25.894  1.00  0.00    -0.463 OA
BRANCH   2   3
ATOM      3  C   UNL A   1      34.544  21.863  26.044  1.00  0.00     0.305 C 
ATOM      4  O   UNL A   1      34.265  21.391  27.147  1.00  0.00    -0.252 OA
BRANCH   3   5
ATOM      5  C   UNL A   1      33.591  21.670  24.882  1.00  0.00     0.123 C 
BRANCH   5   6
ATOM      6  C   UNL A   1      32.966  22.925  24.283  1.00  0.00     0.013 C 
BRANCH   6   7
ATOM      7  C   UNL A   1      31.572  23.322  24.786  1.00  0.00     0.022 C 
BRANCH   7   8
ATOM      8  C   UNL A   1      30.735  24.220  23.861  1.00  0.00     0.114 C 
BRANCH   8   9
ATOM      9  N   UNL A   1      30.138  25.282  24.618  1.00  0.00    -0.370 N 
ATOM     10  H   UNL A   1      29.569  25.088  25.397  1.00  0.00     0.162 HD
BRANCH   9  11
ATOM     11  C   UNL A   1      30.382  26.583  24.229  1.00  0.00     0.132 A 
ATOM     12  N   UNL A   1      30.132  26.928  22.956  1.00  0.00    -0.219 NA
ATOM     13  C   UNL A   1      30.967  27.455  25.135  1.00  0.00     0.016 A 
ATOM     14  C   UNL A   1      30.423  28.187  22.611  1.00  0.00     0.224 A 
ATOM     15  C   UNL A   1      31.251  28.728  24.664  1.00  0.00     0.049 A 
ATOM     16  C   UNL A   1      31.286  27.025  26.539  1.00  0.00     0.041 C 
ATOM     17  N   UNL A   1      30.979  29.114  23.401  1.00  0.00    -0.241 NA
ATOM     18  C   UNL A   1      31.995  29.723  25.515  1.00  0.00     0.057 C 
ATOM     19  C   UNL A   1      32.340  27.902  27.201  1.00  0.00     0.005 C 
ATOM     20  C   UNL A   1      31.994  29.372  27.002  1.00  0.00     0.007 C 
ENDBRANCH   9  11
ENDBRANCH   8   9
ENDBRANCH   7   8
ENDBRANCH   6   7
ENDBRANCH   5   6
ENDBRANCH   3   5
ENDBRANCH   2   3
ENDBRANCH   1   2
BRANCH   1  21
ATOM     21  C   UNL A   1      38.178  22.593  25.916  1.00  0.00     0.202 C 
BRANCH  21  22
ATOM     22  O   UNL A   1      39.221  21.649  26.141  1.00  0.00    -0.374 OA
BRANCH  22  23
ATOM     23  C   UNL A   1      39.079  20.430  25.408  1.00  0.00     0.202 C 
BRANCH  23  24
ATOM     24  C   UNL A   1      39.989  19.321  25.948  1.00  0.00     0.261 C 
BRANCH  24  25
ATOM     25  O   UNL A   1      41.255  19.351  25.268  1.00  0.00    -0.460 OA
BRANCH  25  26
ATOM     26  C   UNL A   1      42.344  19.471  26.070  1.00  0.00     0.338 C 
ATOM     27  O   UNL A   1      43.253  18.671  26.204  1.00  0.00    -0.246 OA
BRANCH  26  28
ATOM     28  C   UNL A   1      42.379  20.849  26.616  1.00  0.00     0.060 A 
ATOM     29  C   UNL A   1      42.613  21.903  25.721  1.00  0.00     0.016 A 
ATOM     30  C   UNL A   1      42.103  21.119  27.961  1.00  0.00     0.016 A 
ATOM     31  C   UNL A   1      42.587  23.223  26.169  1.00  0.00     0.010 A 
ATOM     32  C   UNL A   1      42.086  22.440  28.412  1.00  0.00     0.010 A 
ATOM     33  C   UNL A   1      42.355  23.493  27.523  1.00  0.00    -0.014 A 
BRANCH  33  34
ATOM     34  C   UNL A   1      42.594  24.856  28.046  1.00  0.00     0.031 A 
ATOM     35  C   UNL A   1      44.002  25.235  28.400  1.00  0.00     0.074 A 
ATOM     36  C   UNL A   1      41.593  25.739  28.195  1.00  0.00     0.049 A 
ATOM     37  N   UNL A   1      44.467  26.378  28.834  1.00  0.00    -0.248 NA
ATOM     38  C   UNL A   1      45.022  24.184  28.245  1.00  0.00     0.031 C 
ATOM     39  C   UNL A   1      40.189  25.493  27.874  1.00  0.00     0.029 A 
ATOM     40  N   UNL A   1      41.615  27.030  28.660  1.00  0.00    -0.354 N 
ATOM     41  C   UNL A   1      45.832  26.183  28.998  1.00  0.00     0.074 A 
ATOM     42  C   UNL A   1      46.114  24.806  28.659  1.00  0.00     0.031 C 
ATOM     43  C   UNL A   1      39.481  26.603  28.149  1.00  0.00     0.029 A 
ATOM     44  C   UNL A   1      40.380  27.629  28.681  1.00  0.00     0.049 A 
ATOM     45  H   UNL A   1      42.438  27.485  28.952  1.00  0.00     0.167 HD
ATOM     46  C   UNL A   1      46.771  27.075  29.385  1.00  0.00     0.031 A 
ATOM     47  C   UNL A   1      40.016  28.862  29.085  1.00  0.00     0.031 A 
ATOM     48  C   UNL A   1      46.488  28.436  29.744  1.00  0.00     0.049 A 
ATOM     49  C   UNL A   1      41.065  29.821  29.582  1.00  0.00     0.074 A 
ATOM     50  C   UNL A   1      47.377  29.429  30.115  1.00  0.00     0.029 A 
ATOM     51  N   UNL A   1      45.219  28.987  29.795  1.00  0.00    -0.354 N 
ATOM     52  N   UNL A   1      42.362  29.649  29.668  1.00  0.00    -0.248 NA
ATOM     53  C   UNL A   1      40.604  31.144  30.030  1.00  0.00     0.031 C 
ATOM     54  C   UNL A   1      46.636  30.565  30.450  1.00  0.00     0.029 A 
ATOM     55  C   UNL A   1      45.294  30.297  30.231  1.00  0.00     0.049 A 
ATOM     56  H   UNL A   1      44.387  28.517  29.557  1.00  0.00     0.167 HD
ATOM     57  C   UNL A   1      42.875  30.844  30.158  1.00  0.00     0.074 A 
ATOM     58  C   UNL A   1      41.750  31.736  30.348  1.00  0.00     0.031 C 
ATOM     59  C   UNL A   1      44.164  31.171  30.421  1.00  0.00     0.031 A 
BRANCH  46  60
ATOM     60  C   UNL A   1      48.187  26.586  29.465  1.00  0.00    -0.014 A 
ATOM     61  C   UNL A   1      48.691  26.009  30.642  1.00  0.00     0.009 A 
ATOM     62  C   UNL A   1      49.026  26.693  28.345  1.00  0.00     0.009 A 
ATOM     63  C   UNL A   1      50.019  25.586  30.708  1.00  0.00     0.001 A 
ATOM     64  C   UNL A   1      50.345  26.244  28.405  1.00  0.00     0.001 A 
ATOM     65  C   UNL A   1      50.843  25.701  29.589  1.00  0.00     0.000 A 
ENDBRANCH  46  60
BRANCH  47  66
ATOM     66  C   UNL A   1      38.587  29.259  29.012  1.00  0.00    -0.014 A 
ATOM     67  C   UNL A   1      37.749  29.115  30.128  1.00  0.00     0.009 A 
ATOM     68  C   UNL A   1      38.066  29.832  27.841  1.00  0.00     0.009 A 
ATOM     69  C   UNL A   1      36.418  29.537  30.073  1.00  0.00     0.001 A 
ATOM     70  C   UNL A   1      36.740  30.273  27.796  1.00  0.00     0.001 A 
ATOM     71  C   UNL A   1      35.918  30.123  28.911  1.00  0.00     0.000 A 
ENDBRANCH  47  66
BRANCH  59  72
ATOM     72  C   UNL A   1      44.455  32.552  30.935  1.00  0.00    -0.014 A 
ATOM     73  C   UNL A   1      44.506  32.813  32.311  1.00  0.00     0.009 A 
ATOM     74  C   UNL A   1      44.816  33.567  30.033  1.00  0.00     0.009 A 
ATOM     75  C   UNL A   1      44.916  34.065  32.776  1.00  0.00     0.001 A 
ATOM     76  C   UNL A   1      45.248  34.809  30.501  1.00  0.00     0.001 A 
ATOM     77  C   UNL A   1      45.296  35.057  31.872  1.00  0.00     0.000 A 
ENDBRANCH  59  72
ENDBRANCH  33  34
ENDBRANCH  26  28
ENDBRANCH  25  26
ENDBRANCH  24  25
ENDBRANCH  23  24
ENDBRANCH  22  23
ENDBRANCH  21  22
ENDBRANCH   1  21
TORSDOF 19
ENDMDL
