MODEL 1
REMARK VINA RESULT:      -9.0      0.000      0.000
REMARK SMILES Cc1cc2c(c(C)c1Cl)C=C(C(=O)OCCOCCOC(=O)c1ccc(-c3c4nc(c(-c5ccccc5)c5ccc([nH]5)c(-c5ccccc5)c5nc(c(-c6ccccc6)c6ccc3[nH]6)C=C5)C=C4)cc1)[C@@H](C(F)(F)F)O2
REMARK SMILES IDX 18 1 17 2 16 3 15 4 14 5 12 6 13 7 11 8 1 9 2 10 3 11 8 12
REMARK SMILES IDX 4 13 6 14 9 15 5 16 76 17 7 18 10 19 71 20 72 21 73 22 74 23
REMARK SMILES IDX 75 24 19 25 20 26 21 27 22 28 23 29 24 30 70 31 25 32 69 33
REMARK SMILES IDX 26 34 27 35 28 36 63 37 29 38 68 39 62 40 64 41 30 42 67 43
REMARK SMILES IDX 61 44 60 45 31 47 53 48 38 49 52 50 39 51 42 52 51 53 65 54
REMARK SMILES IDX 40 55 41 56 50 58 66 59 43 60 32 61 33 62 37 63 34 64 36 65
REMARK SMILES IDX 35 66 54 67 55 68 59 69 56 70 58 71 57 72 44 73 45 74 49 75
REMARK SMILES IDX 46 76 48 77 47 78
REMARK H PARENT 64 46 42 57
REMARK Flexibility Score: inf
ROOT
ATOM      1  C   UNL A   1      42.308  19.520  25.820  1.00  0.00     0.202 C 
ENDROOT
BRANCH   1   2
ATOM      2  O   UNL A   1      43.695  19.178  25.793  1.00  0.00    -0.374 OA
BRANCH   2   3
ATOM      3  C   UNL A   1      44.481  19.683  24.716  1.00  0.00     0.202 C 
BRANCH   3   4
ATOM      4  C   UNL A   1      45.709  20.510  25.101  1.00  0.00     0.261 C 
BRANCH   4   5
ATOM      5  O   UNL A   1      45.771  21.735  24.354  1.00  0.00    -0.460 OA
BRANCH   5   6
ATOM      6  C   UNL A   1      44.992  22.729  24.840  1.00  0.00     0.338 C 
ATOM      7  O   UNL A   1      43.893  23.067  24.427  1.00  0.00    -0.246 OA
BRANCH   6   8
ATOM      8  C   UNL A   1      45.605  23.298  26.053  1.00  0.00     0.087 C 
ATOM      9  C   UNL A   1      46.695  26.430  31.598  1.00  0.00     0.046 C 
ATOM     10  C   UNL A   1      46.185  25.503  30.527  1.00  0.00    -0.028 A 
ATOM     11  C   UNL A   1      46.983  25.342  29.384  1.00  0.00     0.052 A 
ATOM     12  C   UNL A   1      44.978  24.782  30.619  1.00  0.00     0.047 A 
ATOM     13  C   UNL A   1      46.554  24.562  28.313  1.00  0.00     0.128 A 
ATOM     14  C   UNL A   1      44.534  23.971  29.547  1.00  0.00    -0.021 A 
ATOM     15  Cl  UNL A   1      44.026  24.911  32.067  1.00  0.00    -0.084 Cl
ATOM     16  C   UNL A   1      45.318  23.912  28.367  1.00  0.00     0.022 A 
ATOM     17  O   UNL A   1      47.417  24.499  27.256  1.00  0.00    -0.475 OA
ATOM     18  C   UNL A   1      43.245  23.182  29.622  1.00  0.00     0.047 C 
ATOM     19  C   UNL A   1      44.848  23.246  27.156  1.00  0.00     0.027 C 
ATOM     20  C   UNL A   1      46.970  23.915  26.003  1.00  0.00     0.316 C 
BRANCH  20  21
ATOM     21  C   UNL A   1      47.107  24.978  24.903  1.00  0.00     0.430 C 
ATOM     22  F   UNL A   1      48.059  25.890  25.221  1.00  0.00    -0.167 F 
ATOM     23  F   UNL A   1      47.475  24.435  23.720  1.00  0.00    -0.167 F 
ATOM     24  F   UNL A   1      45.952  25.652  24.701  1.00  0.00    -0.167 F 
ENDBRANCH  20  21
ENDBRANCH   6   8
ENDBRANCH   5   6
ENDBRANCH   4   5
ENDBRANCH   3   4
ENDBRANCH   2   3
ENDBRANCH   1   2
BRANCH   1  25
ATOM     25  C   UNL A   1      41.892  20.643  26.777  1.00  0.00     0.261 C 
BRANCH  25  26
ATOM     26  O   UNL A   1      41.582  21.861  26.072  1.00  0.00    -0.460 OA
BRANCH  26  27
ATOM     27  C   UNL A   1      40.304  22.287  26.210  1.00  0.00     0.338 C 
ATOM     28  O   UNL A   1      39.283  21.627  26.090  1.00  0.00    -0.246 OA
BRANCH  27  29
ATOM     29  C   UNL A   1      40.287  23.668  26.724  1.00  0.00     0.060 A 
ATOM     30  C   UNL A   1      40.581  24.698  25.821  1.00  0.00     0.016 A 
ATOM     31  C   UNL A   1      40.085  23.942  28.077  1.00  0.00     0.016 A 
ATOM     32  C   UNL A   1      40.719  26.007  26.279  1.00  0.00     0.010 A 
ATOM     33  C   UNL A   1      40.239  25.256  28.538  1.00  0.00     0.010 A 
ATOM     34  C   UNL A   1      40.592  26.285  27.646  1.00  0.00    -0.014 A 
BRANCH  34  35
ATOM     35  C   UNL A   1      40.982  27.621  28.152  1.00  0.00     0.031 A 
ATOM     36  C   UNL A   1      42.439  27.996  28.172  1.00  0.00     0.074 A 
ATOM     37  C   UNL A   1      40.051  28.510  28.539  1.00  0.00     0.049 A 
ATOM     38  N   UNL A   1      43.001  29.108  28.570  1.00  0.00    -0.248 NA
ATOM     39  C   UNL A   1      43.387  26.989  27.666  1.00  0.00     0.031 C 
ATOM     40  C   UNL A   1      38.605  28.290  28.511  1.00  0.00     0.029 A 
ATOM     41  N   UNL A   1      40.188  29.786  29.027  1.00  0.00    -0.354 N 
ATOM     42  C   UNL A   1      44.364  28.938  28.359  1.00  0.00     0.074 A 
ATOM     43  C   UNL A   1      44.549  27.606  27.826  1.00  0.00     0.031 C 
ATOM     44  C   UNL A   1      37.988  29.397  28.959  1.00  0.00     0.029 A 
ATOM     45  C   UNL A   1      38.994  30.389  29.334  1.00  0.00     0.049 A 
ATOM     46  H   UNL A   1      41.060  30.227  29.146  1.00  0.00     0.167 HD
ATOM     47  C   UNL A   1      45.370  29.815  28.580  1.00  0.00     0.031 A 
ATOM     48  C   UNL A   1      38.742  31.600  29.870  1.00  0.00     0.031 A 
ATOM     49  C   UNL A   1      45.193  31.134  29.123  1.00  0.00     0.049 A 
ATOM     50  C   UNL A   1      39.888  32.516  30.202  1.00  0.00     0.074 A 
ATOM     51  C   UNL A   1      46.156  32.092  29.387  1.00  0.00     0.029 A 
ATOM     52  N   UNL A   1      43.973  31.679  29.486  1.00  0.00    -0.354 N 
ATOM     53  N   UNL A   1      41.171  32.343  29.995  1.00  0.00    -0.248 NA
ATOM     54  C   UNL A   1      39.551  33.796  30.844  1.00  0.00     0.031 C 
ATOM     55  C   UNL A   1      45.523  33.200  29.956  1.00  0.00     0.029 A 
ATOM     56  C   UNL A   1      44.161  32.951  29.996  1.00  0.00     0.049 A 
ATOM     57  H   UNL A   1      43.102  31.229  29.395  1.00  0.00     0.167 HD
ATOM     58  C   UNL A   1      41.790  33.499  30.457  1.00  0.00     0.074 A 
ATOM     59  C   UNL A   1      40.742  34.371  30.943  1.00  0.00     0.031 C 
ATOM     60  C   UNL A   1      43.109  33.808  30.476  1.00  0.00     0.031 A 
BRANCH  47  61
ATOM     61  C   UNL A   1      46.766  29.372  28.251  1.00  0.00    -0.014 A 
ATOM     62  C   UNL A   1      47.626  28.894  29.252  1.00  0.00     0.009 A 
ATOM     63  C   UNL A   1      47.200  29.361  26.917  1.00  0.00     0.009 A 
ATOM     64  C   UNL A   1      48.901  28.429  28.923  1.00  0.00     0.001 A 
ATOM     65  C   UNL A   1      48.466  28.875  26.588  1.00  0.00     0.001 A 
ATOM     66  C   UNL A   1      49.317  28.413  27.592  1.00  0.00     0.000 A 
ENDBRANCH  47  61
BRANCH  48  67
ATOM     67  C   UNL A   1      37.342  32.016  30.144  1.00  0.00    -0.014 A 
ATOM     68  C   UNL A   1      36.749  31.751  31.388  1.00  0.00     0.009 A 
ATOM     69  C   UNL A   1      36.585  32.665  29.156  1.00  0.00     0.009 A 
ATOM     70  C   UNL A   1      35.420  32.109  31.629  1.00  0.00     0.001 A 
ATOM     71  C   UNL A   1      35.265  33.045  29.408  1.00  0.00     0.001 A 
ATOM     72  C   UNL A   1      34.682  32.759  30.641  1.00  0.00     0.000 A 
ENDBRANCH  48  67
BRANCH  60  73
ATOM     73  C   UNL A   1      43.502  35.152  31.020  1.00  0.00    -0.014 A 
ATOM     74  C   UNL A   1      43.620  36.267  30.177  1.00  0.00     0.009 A 
ATOM     75  C   UNL A   1      43.678  35.319  32.402  1.00  0.00     0.009 A 
ATOM     76  C   UNL A   1      43.928  37.521  30.707  1.00  0.00     0.001 A 
ATOM     77  C   UNL A   1      43.960  36.578  32.932  1.00  0.00     0.001 A 
ATOM     78  C   UNL A   1      44.090  37.677  32.084  1.00  0.00     0.000 A 
ENDBRANCH  60  73
ENDBRANCH  34  35
ENDBRANCH  27  29
ENDBRANCH  26  27
ENDBRANCH  25  26
ENDBRANCH   1  25
TORSDOF 15
ENDMDL
MODEL 2
REMARK VINA RESULT:      -9.0      5.164      9.840
REMARK SMILES Cc1cc2c(c(C)c1Cl)C=C(C(=O)OCCOCCOC(=O)c1ccc(-c3c4nc(c(-c5ccccc5)c5ccc([nH]5)c(-c5ccccc5)c5nc(c(-c6ccccc6)c6ccc3[nH]6)C=C5)C=C4)cc1)[C@@H](C(F)(F)F)O2
REMARK SMILES IDX 18 1 17 2 16 3 15 4 14 5 12 6 13 7 11 8 1 9 2 10 3 11 8 12
REMARK SMILES IDX 4 13 6 14 9 15 5 16 76 17 7 18 10 19 71 20 72 21 73 22 74 23
REMARK SMILES IDX 75 24 19 25 20 26 21 27 22 28 23 29 24 30 70 31 25 32 69 33
REMARK SMILES IDX 26 34 27 35 28 36 63 37 29 38 68 39 62 40 64 41 30 42 67 43
REMARK SMILES IDX 61 44 60 45 31 47 53 48 38 49 52 50 39 51 42 52 51 53 65 54
REMARK SMILES IDX 40 55 41 56 50 58 66 59 43 60 32 61 33 62 37 63 34 64 36 65
REMARK SMILES IDX 35 66 54 67 55 68 59 69 56 70 58 71 57 72 44 73 45 74 49 75
REMARK SMILES IDX 46 76 48 77 47 78
REMARK H PARENT 64 46 42 57
REMARK Flexibility Score: inf
ROOT
ATOM      1  C   UNL A   1      38.218  19.957  24.817  1.00  0.00     0.202 C 
ENDROOT
BRANCH   1   2
ATOM      2  O   UNL A   1      37.436  21.015  25.372  1.00  0.00    -0.374 OA
BRANCH   2   3
ATOM      3  C   UNL A   1      38.103  22.233  25.698  1.00  0.00     0.202 C 
BRANCH   3   4
ATOM      4  C   UNL A   1      37.412  23.525  25.258  1.00  0.00     0.261 C 
BRANCH   4   5
ATOM      5  O   UNL A   1      36.026  23.301  24.955  1.00  0.00    -0.460 OA
BRANCH   5   6
ATOM      6  C   UNL A   1      35.733  23.303  23.634  1.00  0.00     0.338 C 
ATOM      7  O   UNL A   1      36.453  22.926  22.722  1.00  0.00    -0.246 OA
BRANCH   6   8
ATOM      8  C   UNL A   1      34.334  23.723  23.433  1.00  0.00     0.087 C 
ATOM      9  C   UNL A   1      28.576  26.620  23.873  1.00  0.00     0.046 C 
ATOM     10  C   UNL A   1      30.040  26.310  23.697  1.00  0.00    -0.028 A 
ATOM     11  C   UNL A   1      30.385  24.977  23.429  1.00  0.00     0.052 A 
ATOM     12  C   UNL A   1      31.063  27.277  23.764  1.00  0.00     0.047 A 
ATOM     13  C   UNL A   1      31.718  24.588  23.325  1.00  0.00     0.128 A 
ATOM     14  C   UNL A   1      32.422  26.902  23.644  1.00  0.00    -0.021 A 
ATOM     15  Cl  UNL A   1      30.635  28.943  24.011  1.00  0.00    -0.084 Cl
ATOM     16  C   UNL A   1      32.739  25.531  23.474  1.00  0.00     0.022 A 
ATOM     17  O   UNL A   1      31.920  23.260  23.077  1.00  0.00    -0.475 OA
ATOM     18  C   UNL A   1      33.540  27.920  23.706  1.00  0.00     0.047 C 
ATOM     19  C   UNL A   1      34.114  25.041  23.519  1.00  0.00     0.027 C 
ATOM     20  C   UNL A   1      33.260  22.709  23.186  1.00  0.00     0.316 C 
BRANCH  20  21
ATOM     21  C   UNL A   1      33.234  21.594  24.241  1.00  0.00     0.430 C 
ATOM     22  F   UNL A   1      34.342  20.817  24.159  1.00  0.00    -0.167 F 
ATOM     23  F   UNL A   1      33.207  22.091  25.500  1.00  0.00    -0.167 F 
ATOM     24  F   UNL A   1      32.160  20.785  24.100  1.00  0.00    -0.167 F 
ENDBRANCH  20  21
ENDBRANCH   6   8
ENDBRANCH   5   6
ENDBRANCH   4   5
ENDBRANCH   3   4
ENDBRANCH   2   3
ENDBRANCH   1   2
BRANCH   1  25
ATOM     25  C   UNL A   1      39.253  19.304  25.741  1.00  0.00     0.261 C 
BRANCH  25  26
ATOM     26  O   UNL A   1      40.583  19.374  25.192  1.00  0.00    -0.460 OA
BRANCH  26  27
ATOM     27  C   UNL A   1      41.571  19.492  26.111  1.00  0.00     0.338 C 
ATOM     28  O   UNL A   1      42.416  18.659  26.406  1.00  0.00    -0.246 OA
BRANCH  27  29
ATOM     29  C   UNL A   1      41.625  20.874  26.617  1.00  0.00     0.060 A 
ATOM     30  C   UNL A   1      42.015  21.877  25.721  1.00  0.00     0.016 A 
ATOM     31  C   UNL A   1      41.393  21.170  27.962  1.00  0.00     0.016 A 
ATOM     32  C   UNL A   1      42.221  23.177  26.177  1.00  0.00     0.010 A 
ATOM     33  C   UNL A   1      41.615  22.474  28.421  1.00  0.00     0.010 A 
ATOM     34  C   UNL A   1      42.065  23.472  27.537  1.00  0.00    -0.014 A 
BRANCH  34  35
ATOM     35  C   UNL A   1      42.521  24.784  28.052  1.00  0.00     0.031 A 
ATOM     36  C   UNL A   1      41.512  25.884  28.239  1.00  0.00     0.074 A 
ATOM     37  C   UNL A   1      43.805  24.980  28.398  1.00  0.00     0.049 A 
ATOM     38  N   UNL A   1      41.689  27.104  28.676  1.00  0.00    -0.248 NA
ATOM     39  C   UNL A   1      40.115  25.563  27.899  1.00  0.00     0.031 C 
ATOM     40  C   UNL A   1      44.866  23.977  28.322  1.00  0.00     0.029 A 
ATOM     41  N   UNL A   1      44.432  26.096  28.894  1.00  0.00    -0.354 N 
ATOM     42  C   UNL A   1      40.432  27.694  28.669  1.00  0.00     0.074 A 
ATOM     43  C   UNL A   1      39.503  26.711  28.157  1.00  0.00     0.031 C 
ATOM     44  C   UNL A   1      46.014  24.523  28.760  1.00  0.00     0.029 A 
ATOM     45  C   UNL A   1      45.775  25.920  29.117  1.00  0.00     0.049 A 
ATOM     46  H   UNL A   1      43.963  26.943  29.074  1.00  0.00     0.167 HD
ATOM     47  C   UNL A   1      40.079  28.940  29.062  1.00  0.00     0.031 A 
ATOM     48  C   UNL A   1      46.708  26.792  29.548  1.00  0.00     0.031 A 
ATOM     49  C   UNL A   1      41.001  29.925  29.558  1.00  0.00     0.049 A 
ATOM     50  C   UNL A   1      46.306  28.203  29.880  1.00  0.00     0.074 A 
ATOM     51  C   UNL A   1      40.735  31.218  29.976  1.00  0.00     0.029 A 
ATOM     52  N   UNL A   1      42.364  29.728  29.700  1.00  0.00    -0.354 N 
ATOM     53  N   UNL A   1      45.113  28.746  29.872  1.00  0.00    -0.248 NA
ATOM     54  C   UNL A   1      47.381  29.123  30.282  1.00  0.00     0.031 C 
ATOM     55  C   UNL A   1      41.947  31.819  30.326  1.00  0.00     0.029 A 
ATOM     56  C   UNL A   1      42.958  30.884  30.176  1.00  0.00     0.049 A 
ATOM     57  H   UNL A   1      42.840  28.891  29.494  1.00  0.00     0.167 HD
ATOM     58  C   UNL A   1      45.290  30.060  30.288  1.00  0.00     0.074 A 
ATOM     59  C   UNL A   1      46.703  30.230  30.555  1.00  0.00     0.031 C 
ATOM     60  C   UNL A   1      44.365  31.038  30.437  1.00  0.00     0.031 A 
BRANCH  47  61
ATOM     61  C   UNL A   1      38.632  29.321  28.957  1.00  0.00    -0.014 A 
ATOM     62  C   UNL A   1      38.092  29.776  27.744  1.00  0.00     0.009 A 
ATOM     63  C   UNL A   1      37.782  29.152  30.061  1.00  0.00     0.009 A 
ATOM     64  C   UNL A   1      36.730  30.070  27.644  1.00  0.00     0.001 A 
ATOM     65  C   UNL A   1      36.418  29.425  29.953  1.00  0.00     0.001 A 
ATOM     66  C   UNL A   1      35.894  29.887  28.746  1.00  0.00     0.000 A 
ENDBRANCH  47  61
BRANCH  48  67
ATOM     67  C   UNL A   1      48.125  26.363  29.675  1.00  0.00    -0.014 A 
ATOM     68  C   UNL A   1      48.604  25.828  30.880  1.00  0.00     0.009 A 
ATOM     69  C   UNL A   1      49.012  26.505  28.596  1.00  0.00     0.009 A 
ATOM     70  C   UNL A   1      49.947  25.462  31.008  1.00  0.00     0.001 A 
ATOM     71  C   UNL A   1      50.347  26.116  28.717  1.00  0.00     0.001 A 
ATOM     72  C   UNL A   1      50.815  25.603  29.926  1.00  0.00     0.000 A 
ENDBRANCH  48  67
BRANCH  60  73
ATOM     73  C   UNL A   1      44.837  32.376  30.928  1.00  0.00    -0.014 A 
ATOM     74  C   UNL A   1      45.228  33.380  30.030  1.00  0.00     0.009 A 
ATOM     75  C   UNL A   1      44.814  32.661  32.302  1.00  0.00     0.009 A 
ATOM     76  C   UNL A   1      45.607  34.639  30.501  1.00  0.00     0.001 A 
ATOM     77  C   UNL A   1      45.169  33.927  32.768  1.00  0.00     0.001 A 
ATOM     78  C   UNL A   1      45.570  34.913  31.869  1.00  0.00     0.000 A 
ENDBRANCH  60  73
ENDBRANCH  34  35
ENDBRANCH  27  29
ENDBRANCH  26  27
ENDBRANCH  25  26
ENDBRANCH   1  25
TORSDOF 15
ENDMDL
MODEL 3
REMARK VINA RESULT:      -8.9      5.195      8.159
REMARK SMILES Cc1cc2c(c(C)c1Cl)C=C(C(=O)OCCOCCOC(=O)c1ccc(-c3c4nc(c(-c5ccccc5)c5ccc([nH]5)c(-c5ccccc5)c5nc(c(-c6ccccc6)c6ccc3[nH]6)C=C5)C=C4)cc1)[C@@H](C(F)(F)F)O2
REMARK SMILES IDX 18 1 17 2 16 3 15 4 14 5 12 6 13 7 11 8 1 9 2 10 3 11 8 12
REMARK SMILES IDX 4 13 6 14 9 15 5 16 76 17 7 18 10 19 71 20 72 21 73 22 74 23
REMARK SMILES IDX 75 24 19 25 20 26 21 27 22 28 23 29 24 30 70 31 25 32 69 33
REMARK SMILES IDX 26 34 27 35 28 36 63 37 29 38 68 39 62 40 64 41 30 42 67 43
REMARK SMILES IDX 61 44 60 45 31 47 53 48 38 49 52 50 39 51 42 52 51 53 65 54
REMARK SMILES IDX 40 55 41 56 50 58 66 59 43 60 32 61 33 62 37 63 34 64 36 65
REMARK SMILES IDX 35 66 54 67 55 68 59 69 56 70 58 71 57 72 44 73 45 74 49 75
REMARK SMILES IDX 46 76 48 77 47 78
REMARK H PARENT 64 46 42 57
REMARK Flexibility Score: inf
ROOT
ATOM      1  C   UNL A   1      38.324  20.907  25.368  1.00  0.00     0.202 C 
ENDROOT
BRANCH   1   2
ATOM      2  O   UNL A   1      38.810  22.027  26.111  1.00  0.00    -0.374 OA
BRANCH   2   3
ATOM      3  C   UNL A   1      38.023  23.215  26.109  1.00  0.00     0.202 C 
BRANCH   3   4
ATOM      4  C   UNL A   1      36.539  23.047  25.774  1.00  0.00     0.261 C 
BRANCH   4   5
ATOM      5  O   UNL A   1      36.082  24.077  24.884  1.00  0.00    -0.460 OA
BRANCH   5   6
ATOM      6  C   UNL A   1      35.662  23.630  23.678  1.00  0.00     0.338 C 
ATOM      7  O   UNL A   1      36.295  22.947  22.887  1.00  0.00    -0.246 OA
BRANCH   6   8
ATOM      8  C   UNL A   1      34.245  23.985  23.479  1.00  0.00     0.087 C 
ATOM      9  C   UNL A   1      28.384  26.674  23.871  1.00  0.00     0.046 C 
ATOM     10  C   UNL A   1      29.855  26.413  23.686  1.00  0.00    -0.028 A 
ATOM     11  C   UNL A   1      30.249  25.082  23.480  1.00  0.00     0.052 A 
ATOM     12  C   UNL A   1      30.840  27.421  23.688  1.00  0.00     0.047 A 
ATOM     13  C   UNL A   1      31.595  24.740  23.373  1.00  0.00     0.128 A 
ATOM     14  C   UNL A   1      32.212  27.093  23.563  1.00  0.00    -0.021 A 
ATOM     15  Cl  UNL A   1      30.350  29.079  23.859  1.00  0.00    -0.084 Cl
ATOM     16  C   UNL A   1      32.580  25.729  23.457  1.00  0.00     0.022 A 
ATOM     17  O   UNL A   1      31.846  23.410  23.188  1.00  0.00    -0.475 OA
ATOM     18  C   UNL A   1      33.289  28.156  23.555  1.00  0.00     0.047 C 
ATOM     19  C   UNL A   1      33.974  25.295  23.503  1.00  0.00     0.027 C 
ATOM     20  C   UNL A   1      33.208  22.918  23.302  1.00  0.00     0.316 C 
BRANCH  20  21
ATOM     21  C   UNL A   1      33.242  21.858  24.412  1.00  0.00     0.430 C 
ATOM     22  F   UNL A   1      32.130  21.083  24.382  1.00  0.00    -0.167 F 
ATOM     23  F   UNL A   1      34.297  21.021  24.277  1.00  0.00    -0.167 F 
ATOM     24  F   UNL A   1      33.318  22.413  25.642  1.00  0.00    -0.167 F 
ENDBRANCH  20  21
ENDBRANCH   6   8
ENDBRANCH   5   6
ENDBRANCH   4   5
ENDBRANCH   3   4
ENDBRANCH   2   3
ENDBRANCH   1   2
BRANCH   1  25
ATOM     25  C   UNL A   1      39.189  19.641  25.383  1.00  0.00     0.261 C 
BRANCH  25  26
ATOM     26  O   UNL A   1      40.055  19.595  26.534  1.00  0.00    -0.460 OA
BRANCH  26  27
ATOM     27  C   UNL A   1      41.376  19.519  26.248  1.00  0.00     0.338 C 
ATOM     28  O   UNL A   1      41.970  18.590  25.720  1.00  0.00    -0.246 OA
BRANCH  27  29
ATOM     29  C   UNL A   1      42.021  20.820  26.496  1.00  0.00     0.060 A 
ATOM     30  C   UNL A   1      42.256  21.182  27.829  1.00  0.00     0.016 A 
ATOM     31  C   UNL A   1      42.301  21.707  25.456  1.00  0.00     0.016 A 
ATOM     32  C   UNL A   1      42.731  22.457  28.130  1.00  0.00     0.010 A 
ATOM     33  C   UNL A   1      42.764  22.993  25.762  1.00  0.00     0.010 A 
ATOM     34  C   UNL A   1      42.945  23.382  27.101  1.00  0.00    -0.014 A 
BRANCH  34  35
ATOM     35  C   UNL A   1      43.209  24.800  27.445  1.00  0.00     0.031 A 
ATOM     36  C   UNL A   1      44.588  25.358  27.221  1.00  0.00     0.074 A 
ATOM     37  C   UNL A   1      42.225  25.594  27.900  1.00  0.00     0.049 A 
ATOM     38  N   UNL A   1      45.039  26.565  27.448  1.00  0.00    -0.248 NA
ATOM     39  C   UNL A   1      45.589  24.437  26.655  1.00  0.00     0.031 C 
ATOM     40  C   UNL A   1      40.834  25.188  28.103  1.00  0.00     0.029 A 
ATOM     41  N   UNL A   1      42.247  26.916  28.267  1.00  0.00    -0.354 N 
ATOM     42  C   UNL A   1      46.369  26.552  27.051  1.00  0.00     0.074 A 
ATOM     43  C   UNL A   1      46.664  25.211  26.595  1.00  0.00     0.031 C 
ATOM     44  C   UNL A   1      40.135  26.244  28.555  1.00  0.00     0.029 A 
ATOM     45  C   UNL A   1      41.034  27.388  28.703  1.00  0.00     0.049 A 
ATOM     46  H   UNL A   1      43.057  27.475  28.222  1.00  0.00     0.167 HD
ATOM     47  C   UNL A   1      47.264  27.567  27.055  1.00  0.00     0.031 A 
ATOM     48  C   UNL A   1      40.690  28.600  29.179  1.00  0.00     0.031 A 
ATOM     49  C   UNL A   1      46.980  28.897  27.519  1.00  0.00     0.049 A 
ATOM     50  C   UNL A   1      41.732  29.683  29.270  1.00  0.00     0.074 A 
ATOM     51  C   UNL A   1      47.826  29.991  27.566  1.00  0.00     0.029 A 
ATOM     52  N   UNL A   1      45.757  29.313  28.019  1.00  0.00    -0.354 N 
ATOM     53  N   UNL A   1      42.986  29.657  28.887  1.00  0.00    -0.248 NA
ATOM     54  C   UNL A   1      41.311  30.963  29.858  1.00  0.00     0.031 C 
ATOM     55  C   UNL A   1      47.128  31.057  28.140  1.00  0.00     0.029 A 
ATOM     56  C   UNL A   1      45.832  30.640  28.400  1.00  0.00     0.049 A 
ATOM     57  H   UNL A   1      44.953  28.748  28.091  1.00  0.00     0.167 HD
ATOM     58  C   UNL A   1      43.494  30.920  29.166  1.00  0.00     0.074 A 
ATOM     59  C   UNL A   1      42.411  31.693  29.738  1.00  0.00     0.031 C 
ATOM     60  C   UNL A   1      44.747  31.396  28.967  1.00  0.00     0.031 A 
BRANCH  47  61
ATOM     61  C   UNL A   1      48.649  27.278  26.556  1.00  0.00    -0.014 A 
ATOM     62  C   UNL A   1      49.663  26.869  27.437  1.00  0.00     0.009 A 
ATOM     63  C   UNL A   1      48.925  27.342  25.181  1.00  0.00     0.009 A 
ATOM     64  C   UNL A   1      50.931  26.546  26.950  1.00  0.00     0.001 A 
ATOM     65  C   UNL A   1      50.187  26.997  24.696  1.00  0.00     0.001 A 
ATOM     66  C   UNL A   1      51.190  26.602  25.581  1.00  0.00     0.000 A 
ENDBRANCH  47  61
BRANCH  48  67
ATOM     67  C   UNL A   1      39.297  28.857  29.627  1.00  0.00    -0.014 A 
ATOM     68  C   UNL A   1      38.346  29.380  28.738  1.00  0.00     0.009 A 
ATOM     69  C   UNL A   1      38.917  28.599  30.953  1.00  0.00     0.009 A 
ATOM     70  C   UNL A   1      37.047  29.657  29.174  1.00  0.00     0.001 A 
ATOM     71  C   UNL A   1      37.612  28.852  31.380  1.00  0.00     0.001 A 
ATOM     72  C   UNL A   1      36.681  29.389  30.492  1.00  0.00     0.000 A 
ENDBRANCH  48  67
BRANCH  60  73
ATOM     73  C   UNL A   1      45.019  32.824  29.346  1.00  0.00    -0.014 A 
ATOM     74  C   UNL A   1      45.458  33.159  30.636  1.00  0.00     0.009 A 
ATOM     75  C   UNL A   1      44.909  33.834  28.378  1.00  0.00     0.009 A 
ATOM     76  C   UNL A   1      45.764  34.483  30.954  1.00  0.00     0.001 A 
ATOM     77  C   UNL A   1      45.240  35.153  28.692  1.00  0.00     0.001 A 
ATOM     78  C   UNL A   1      45.662  35.477  29.980  1.00  0.00     0.000 A 
ENDBRANCH  60  73
ENDBRANCH  34  35
ENDBRANCH  27  29
ENDBRANCH  26  27
ENDBRANCH  25  26
ENDBRANCH   1  25
TORSDOF 15
ENDMDL
