MODEL 1
REMARK VINA RESULT:      -9.6      0.000      0.000
REMARK SMILES C=CCOc1ccccc1/C=C/c1cc(C(=O)OCCOCCOC(=O)c2ccc(-c3c4nc(c(-c5ccccc5)c5ccc([nH]5)c(-c5ccccc5)c5nc(c(-c6ccccc6)c6ccc3[nH]6)C=C5)C=C4)cc2)ncn1
REMARK SMILES IDX 19 1 18 2 16 3 17 4 15 5 13 6 14 7 77 8 76 9 75 10 12 11
REMARK SMILES IDX 11 12 10 13 5 14 6 15 7 16 9 17 8 18 4 19 3 20 2 21 1 22
REMARK SMILES IDX 20 23 21 24 22 25 23 26 24 27 25 28 26 29 27 30 28 31 74 32
REMARK SMILES IDX 29 33 73 34 30 35 31 36 32 37 67 38 33 39 72 40 66 41 68 42
REMARK SMILES IDX 34 43 71 44 65 45 64 46 35 48 57 49 42 50 56 51 43 52 46 53
REMARK SMILES IDX 55 54 69 55 44 56 45 57 54 59 70 60 47 61 36 62 37 63 41 64
REMARK SMILES IDX 38 65 40 66 39 67 58 68 59 69 63 70 60 71 62 72 61 73 48 74
REMARK SMILES IDX 49 75 53 76 50 77 52 78 51 79
REMARK H PARENT 68 47 46 58
REMARK Flexibility Score: inf
ROOT
ATOM      1  C   UNL A   1      31.855  30.492  26.714  1.00  0.00     0.261 C 
ENDROOT
BRANCH   1   2
ATOM      2  O   UNL A   1      31.760  29.250  25.994  1.00  0.00    -0.459 OA
BRANCH   2   3
ATOM      3  C   UNL A   1      31.636  28.134  26.760  1.00  0.00     0.357 C 
ATOM      4  O   UNL A   1      31.200  28.090  27.902  1.00  0.00    -0.244 OA
BRANCH   3   5
ATOM      5  C   UNL A   1      32.006  26.932  25.956  1.00  0.00     0.152 A 
ATOM      6  C   UNL A   1      33.433  25.169  25.391  1.00  0.00     0.067 A 
ATOM      7  C   UNL A   1      33.244  26.341  26.093  1.00  0.00     0.064 A 
ATOM      8  N   UNL A   1      32.502  24.678  24.548  1.00  0.00    -0.237 NA
ATOM      9  C   UNL A   1      31.353  25.360  24.452  1.00  0.00     0.223 A 
ATOM     10  N   UNL A   1      31.044  26.465  25.131  1.00  0.00    -0.229 NA
BRANCH   6  11
ATOM     11  C   UNL A   1      34.536  24.237  25.677  1.00  0.00     0.029 C 
ATOM     12  C   UNL A   1      35.646  24.112  24.932  1.00  0.00     0.014 C 
BRANCH  12  13
ATOM     13  C   UNL A   1      36.894  23.516  25.431  1.00  0.00     0.017 A 
ATOM     14  C   UNL A   1      37.203  22.189  25.074  1.00  0.00     0.126 A 
ATOM     15  C   UNL A   1      38.359  21.566  25.547  1.00  0.00     0.047 A 
ATOM     16  C   UNL A   1      39.247  22.281  26.348  1.00  0.00     0.004 A 
ATOM     17  C   UNL A   1      37.794  24.220  26.238  1.00  0.00     0.012 A 
ATOM     18  C   UNL A   1      38.968  23.607  26.687  1.00  0.00     0.001 A 
BRANCH  14  19
ATOM     19  O   UNL A   1      36.340  21.467  24.282  1.00  0.00    -0.489 OA
BRANCH  19  20
ATOM     20  C   UNL A   1      35.714  20.406  25.020  1.00  0.00     0.257 C 
BRANCH  20  21
ATOM     21  C   UNL A   1      34.222  20.558  24.936  1.00  0.00     0.006 C 
ATOM     22  C   UNL A   1      33.423  20.766  25.992  1.00  0.00     0.007 C 
ENDBRANCH  20  21
ENDBRANCH  19  20
ENDBRANCH  14  19
ENDBRANCH  12  13
ENDBRANCH   6  11
ENDBRANCH   3   5
ENDBRANCH   2   3
ENDBRANCH   1   2
BRANCH   1  23
ATOM     23  C   UNL A   1      33.270  30.679  27.271  1.00  0.00     0.202 C 
BRANCH  23  24
ATOM     24  O   UNL A   1      33.594  31.994  27.723  1.00  0.00    -0.374 OA
BRANCH  24  25
ATOM     25  C   UNL A   1      34.923  32.221  28.190  1.00  0.00     0.202 C 
BRANCH  25  26
ATOM     26  C   UNL A   1      35.090  32.399  29.704  1.00  0.00     0.261 C 
BRANCH  26  27
ATOM     27  O   UNL A   1      36.454  32.218  30.124  1.00  0.00    -0.460 OA
BRANCH  27  28
ATOM     28  C   UNL A   1      36.669  31.112  30.874  1.00  0.00     0.338 C 
ATOM     29  O   UNL A   1      35.963  30.675  31.772  1.00  0.00    -0.246 OA
BRANCH  28  30
ATOM     30  C   UNL A   1      37.830  30.366  30.358  1.00  0.00     0.060 A 
ATOM     31  C   UNL A   1      38.684  29.774  31.297  1.00  0.00     0.016 A 
ATOM     32  C   UNL A   1      38.128  30.315  28.995  1.00  0.00     0.016 A 
ATOM     33  C   UNL A   1      39.868  29.170  30.881  1.00  0.00     0.010 A 
ATOM     34  C   UNL A   1      39.323  29.715  28.579  1.00  0.00     0.010 A 
ATOM     35  C   UNL A   1      40.213  29.173  29.523  1.00  0.00    -0.014 A 
BRANCH  35  36
ATOM     36  C   UNL A   1      41.569  28.733  29.113  1.00  0.00     0.031 A 
ATOM     37  C   UNL A   1      42.703  29.720  29.150  1.00  0.00     0.074 A 
ATOM     38  C   UNL A   1      41.795  27.460  28.741  1.00  0.00     0.049 A 
ATOM     39  N   UNL A   1      43.958  29.553  28.822  1.00  0.00    -0.248 NA
ATOM     40  C   UNL A   1      42.377  31.075  29.623  1.00  0.00     0.031 C 
ATOM     41  C   UNL A   1      40.793  26.397  28.703  1.00  0.00     0.029 A 
ATOM     42  N   UNL A   1      42.951  26.852  28.320  1.00  0.00    -0.354 N 
ATOM     43  C   UNL A   1      44.570  30.781  29.039  1.00  0.00     0.074 A 
ATOM     44  C   UNL A   1      43.545  31.690  29.502  1.00  0.00     0.031 C 
ATOM     45  C   UNL A   1      41.377  25.264  28.275  1.00  0.00     0.029 A 
ATOM     46  C   UNL A   1      42.784  25.532  27.982  1.00  0.00     0.049 A 
ATOM     47  H   UNL A   1      43.817  27.317  28.266  1.00  0.00     0.167 HD
ATOM     48  C   UNL A   1      45.871  31.121  28.873  1.00  0.00     0.031 A 
ATOM     49  C   UNL A   1      43.661  24.645  27.474  1.00  0.00     0.031 A 
ATOM     50  C   UNL A   1      46.892  30.224  28.401  1.00  0.00     0.049 A 
ATOM     51  C   UNL A   1      45.084  25.068  27.226  1.00  0.00     0.074 A 
ATOM     52  C   UNL A   1      48.241  30.472  28.216  1.00  0.00     0.029 A 
ATOM     53  N   UNL A   1      46.672  28.907  28.030  1.00  0.00    -0.354 N 
ATOM     54  N   UNL A   1      45.656  26.224  27.462  1.00  0.00    -0.248 NA
ATOM     55  C   UNL A   1      45.983  24.060  26.647  1.00  0.00     0.031 C 
ATOM     56  C   UNL A   1      48.827  29.320  27.684  1.00  0.00     0.029 A 
ATOM     57  C   UNL A   1      47.855  28.337  27.590  1.00  0.00     0.049 A 
ATOM     58  H   UNL A   1      45.803  28.444  28.073  1.00  0.00     0.167 HD
ATOM     59  C   UNL A   1      46.986  26.073  27.086  1.00  0.00     0.074 A 
ATOM     60  C   UNL A   1      47.138  24.711  26.620  1.00  0.00     0.031 C 
ATOM     61  C   UNL A   1      47.991  26.981  27.128  1.00  0.00     0.031 A 
BRANCH  48  62
ATOM     62  C   UNL A   1      46.256  32.542  29.175  1.00  0.00    -0.014 A 
ATOM     63  C   UNL A   1      46.194  33.540  28.191  1.00  0.00     0.009 A 
ATOM     64  C   UNL A   1      46.658  32.891  30.474  1.00  0.00     0.009 A 
ATOM     65  C   UNL A   1      46.557  34.854  28.493  1.00  0.00     0.001 A 
ATOM     66  C   UNL A   1      46.995  34.211  30.780  1.00  0.00     0.001 A 
ATOM     67  C   UNL A   1      46.953  35.189  29.788  1.00  0.00     0.000 A 
ENDBRANCH  48  62
BRANCH  49  68
ATOM     68  C   UNL A   1      43.217  23.266  27.143  1.00  0.00    -0.014 A 
ATOM     69  C   UNL A   1      43.142  22.838  25.809  1.00  0.00     0.009 A 
ATOM     70  C   UNL A   1      42.849  22.376  28.165  1.00  0.00     0.009 A 
ATOM     71  C   UNL A   1      42.682  21.555  25.504  1.00  0.00     0.001 A 
ATOM     72  C   UNL A   1      42.416  21.084  27.857  1.00  0.00     0.001 A 
ATOM     73  C   UNL A   1      42.325  20.677  26.528  1.00  0.00     0.000 A 
ENDBRANCH  49  68
BRANCH  61  74
ATOM     74  C   UNL A   1      49.354  26.521  26.691  1.00  0.00    -0.014 A 
ATOM     75  C   UNL A   1      50.238  25.900  27.587  1.00  0.00     0.009 A 
ATOM     76  C   UNL A   1      49.740  26.672  25.350  1.00  0.00     0.009 A 
ATOM     77  C   UNL A   1      51.494  25.470  27.154  1.00  0.00     0.001 A 
ATOM     78  C   UNL A   1      50.984  26.216  24.914  1.00  0.00     0.001 A 
ATOM     79  C   UNL A   1      51.864  25.624  25.819  1.00  0.00     0.000 A 
ENDBRANCH  61  74
ENDBRANCH  35  36
ENDBRANCH  28  30
ENDBRANCH  27  28
ENDBRANCH  26  27
ENDBRANCH  25  26
ENDBRANCH  24  25
ENDBRANCH  23  24
ENDBRANCH   1  23
TORSDOF 19
ENDMDL
MODEL 2
REMARK VINA RESULT:      -9.3      0.646      5.876
REMARK SMILES C=CCOc1ccccc1/C=C/c1cc(C(=O)OCCOCCOC(=O)c2ccc(-c3c4nc(c(-c5ccccc5)c5ccc([nH]5)c(-c5ccccc5)c5nc(c(-c6ccccc6)c6ccc3[nH]6)C=C5)C=C4)cc2)ncn1
REMARK SMILES IDX 19 1 18 2 16 3 17 4 15 5 13 6 14 7 77 8 76 9 75 10 12 11
REMARK SMILES IDX 11 12 10 13 5 14 6 15 7 16 9 17 8 18 4 19 3 20 2 21 1 22
REMARK SMILES IDX 20 23 21 24 22 25 23 26 24 27 25 28 26 29 27 30 28 31 74 32
REMARK SMILES IDX 29 33 73 34 30 35 31 36 32 37 67 38 33 39 72 40 66 41 68 42
REMARK SMILES IDX 34 43 71 44 65 45 64 46 35 48 57 49 42 50 56 51 43 52 46 53
REMARK SMILES IDX 55 54 69 55 44 56 45 57 54 59 70 60 47 61 36 62 37 63 41 64
REMARK SMILES IDX 38 65 40 66 39 67 58 68 59 69 63 70 60 71 62 72 61 73 48 74
REMARK SMILES IDX 49 75 53 76 50 77 52 78 51 79
REMARK H PARENT 68 47 46 58
REMARK Flexibility Score: inf
ROOT
ATOM      1  C   UNL A   1      31.909  31.129  26.840  1.00  0.00     0.261 C 
ENDROOT
BRANCH   1   2
ATOM      2  O   UNL A   1      31.680  30.004  25.972  1.00  0.00    -0.459 OA
BRANCH   2   3
ATOM      3  C   UNL A   1      31.705  28.784  26.571  1.00  0.00     0.357 C 
ATOM      4  O   UNL A   1      31.332  28.534  27.708  1.00  0.00    -0.244 OA
BRANCH   3   5
ATOM      5  C   UNL A   1      32.152  27.754  25.587  1.00  0.00     0.152 A 
ATOM      6  C   UNL A   1      33.446  25.916  24.945  1.00  0.00     0.067 A 
ATOM      7  C   UNL A   1      33.198  26.905  25.876  1.00  0.00     0.064 A 
ATOM      8  N   UNL A   1      32.770  25.840  23.781  1.00  0.00    -0.237 NA
ATOM      9  C   UNL A   1      31.806  26.747  23.581  1.00  0.00     0.223 A 
ATOM     10  N   UNL A   1      31.443  27.702  24.438  1.00  0.00    -0.229 NA
BRANCH   6  11
ATOM     11  C   UNL A   1      34.275  24.736  25.238  1.00  0.00     0.029 C 
ATOM     12  C   UNL A   1      35.296  24.310  24.476  1.00  0.00     0.014 C 
BRANCH  12  13
ATOM     13  C   UNL A   1      36.358  23.420  24.969  1.00  0.00     0.017 A 
ATOM     14  C   UNL A   1      36.239  22.034  24.753  1.00  0.00     0.126 A 
ATOM     15  C   UNL A   1      37.203  21.144  25.228  1.00  0.00     0.047 A 
ATOM     16  C   UNL A   1      38.327  21.637  25.888  1.00  0.00     0.004 A 
ATOM     17  C   UNL A   1      37.491  23.900  25.635  1.00  0.00     0.012 A 
ATOM     18  C   UNL A   1      38.474  23.011  26.084  1.00  0.00     0.001 A 
BRANCH  14  19
ATOM     19  O   UNL A   1      35.137  21.528  24.102  1.00  0.00    -0.489 OA
BRANCH  19  20
ATOM     20  C   UNL A   1      34.503  20.494  24.870  1.00  0.00     0.257 C 
BRANCH  20  21
ATOM     21  C   UNL A   1      33.385  21.091  25.677  1.00  0.00     0.006 C 
ATOM     22  C   UNL A   1      32.137  21.271  25.223  1.00  0.00     0.007 C 
ENDBRANCH  20  21
ENDBRANCH  19  20
ENDBRANCH  14  19
ENDBRANCH  12  13
ENDBRANCH   6  11
ENDBRANCH   3   5
ENDBRANCH   2   3
ENDBRANCH   1   2
BRANCH   1  23
ATOM     23  C   UNL A   1      33.369  31.154  27.306  1.00  0.00     0.202 C 
BRANCH  23  24
ATOM     24  O   UNL A   1      33.802  32.361  27.932  1.00  0.00    -0.374 OA
BRANCH  24  25
ATOM     25  C   UNL A   1      35.128  32.390  28.460  1.00  0.00     0.202 C 
BRANCH  25  26
ATOM     26  C   UNL A   1      35.253  32.311  29.987  1.00  0.00     0.261 C 
BRANCH  26  27
ATOM     27  O   UNL A   1      36.602  32.037  30.407  1.00  0.00    -0.460 OA
BRANCH  27  28
ATOM     28  C   UNL A   1      36.776  30.827  30.986  1.00  0.00     0.338 C 
ATOM     29  O   UNL A   1      36.032  30.271  31.783  1.00  0.00    -0.246 OA
BRANCH  28  30
ATOM     30  C   UNL A   1      37.946  30.147  30.404  1.00  0.00     0.060 A 
ATOM     31  C   UNL A   1      38.849  29.546  31.289  1.00  0.00     0.016 A 
ATOM     32  C   UNL A   1      38.204  30.168  29.031  1.00  0.00     0.016 A 
ATOM     33  C   UNL A   1      40.040  29.005  30.811  1.00  0.00     0.010 A 
ATOM     34  C   UNL A   1      39.405  29.631  28.554  1.00  0.00     0.010 A 
ATOM     35  C   UNL A   1      40.343  29.080  29.445  1.00  0.00    -0.014 A 
BRANCH  35  36
ATOM     36  C   UNL A   1      41.700  28.709  28.976  1.00  0.00     0.031 A 
ATOM     37  C   UNL A   1      41.956  27.302  28.513  1.00  0.00     0.074 A 
ATOM     38  C   UNL A   1      42.686  29.622  28.934  1.00  0.00     0.049 A 
ATOM     39  N   UNL A   1      43.066  26.761  28.079  1.00  0.00    -0.248 NA
ATOM     40  C   UNL A   1      40.807  26.382  28.540  1.00  0.00     0.031 C 
ATOM     41  C   UNL A   1      42.556  31.028  29.313  1.00  0.00     0.029 A 
ATOM     42  N   UNL A   1      43.998  29.494  28.551  1.00  0.00    -0.354 N 
ATOM     43  C   UNL A   1      42.752  25.438  27.791  1.00  0.00     0.074 A 
ATOM     44  C   UNL A   1      41.357  25.251  28.123  1.00  0.00     0.031 C 
ATOM     45  C   UNL A   1      43.745  31.634  29.149  1.00  0.00     0.029 A 
ATOM     46  C   UNL A   1      44.723  30.652  28.683  1.00  0.00     0.049 A 
ATOM     47  H   UNL A   1      44.382  28.653  28.213  1.00  0.00     0.167 HD
ATOM     48  C   UNL A   1      43.553  24.467  27.290  1.00  0.00     0.031 A 
ATOM     49  C   UNL A   1      46.032  30.889  28.472  1.00  0.00     0.031 A 
ATOM     50  C   UNL A   1      44.944  24.645  26.970  1.00  0.00     0.049 A 
ATOM     51  C   UNL A   1      46.918  29.773  27.988  1.00  0.00     0.074 A 
ATOM     52  C   UNL A   1      45.832  23.725  26.442  1.00  0.00     0.029 A 
ATOM     53  N   UNL A   1      45.650  25.822  27.158  1.00  0.00    -0.354 N 
ATOM     54  N   UNL A   1      46.603  28.535  27.693  1.00  0.00    -0.248 NA
ATOM     55  C   UNL A   1      48.342  30.092  27.802  1.00  0.00     0.031 C 
ATOM     56  C   UNL A   1      47.090  24.331  26.360  1.00  0.00     0.029 A 
ATOM     57  C   UNL A   1      46.971  25.644  26.784  1.00  0.00     0.049 A 
ATOM     58  H   UNL A   1      45.269  26.661  27.507  1.00  0.00     0.167 HD
ATOM     59  C   UNL A   1      47.782  27.936  27.260  1.00  0.00     0.074 A 
ATOM     60  C   UNL A   1      48.813  28.950  27.320  1.00  0.00     0.031 C 
ATOM     61  C   UNL A   1      47.988  26.662  26.849  1.00  0.00     0.031 A 
BRANCH  48  62
ATOM     62  C   UNL A   1      42.944  23.108  27.088  1.00  0.00    -0.014 A 
ATOM     63  C   UNL A   1      42.769  22.220  28.161  1.00  0.00     0.009 A 
ATOM     64  C   UNL A   1      42.511  22.724  25.809  1.00  0.00     0.009 A 
ATOM     65  C   UNL A   1      42.201  20.962  27.951  1.00  0.00     0.001 A 
ATOM     66  C   UNL A   1      41.920  21.475  25.607  1.00  0.00     0.001 A 
ATOM     67  C   UNL A   1      41.774  20.592  26.675  1.00  0.00     0.000 A 
ENDBRANCH  48  62
BRANCH  49  68
ATOM     68  C   UNL A   1      46.596  32.238  28.736  1.00  0.00    -0.014 A 
ATOM     69  C   UNL A   1      46.670  33.196  27.713  1.00  0.00     0.009 A 
ATOM     70  C   UNL A   1      47.081  32.567  30.012  1.00  0.00     0.009 A 
ATOM     71  C   UNL A   1      47.241  34.447  27.958  1.00  0.00     0.001 A 
ATOM     72  C   UNL A   1      47.626  33.828  30.259  1.00  0.00     0.001 A 
ATOM     73  C   UNL A   1      47.714  34.764  29.231  1.00  0.00     0.000 A 
ENDBRANCH  49  68
BRANCH  61  74
ATOM     74  C   UNL A   1      49.375  26.300  26.395  1.00  0.00    -0.014 A 
ATOM     75  C   UNL A   1      49.829  26.625  25.107  1.00  0.00     0.009 A 
ATOM     76  C   UNL A   1      50.252  25.663  27.286  1.00  0.00     0.009 A 
ATOM     77  C   UNL A   1      51.126  26.289  24.713  1.00  0.00     0.001 A 
ATOM     78  C   UNL A   1      51.556  25.355  26.899  1.00  0.00     0.001 A 
ATOM     79  C   UNL A   1      51.989  25.660  25.609  1.00  0.00     0.000 A 
ENDBRANCH  61  74
ENDBRANCH  35  36
ENDBRANCH  28  30
ENDBRANCH  27  28
ENDBRANCH  26  27
ENDBRANCH  25  26
ENDBRANCH  24  25
ENDBRANCH  23  24
ENDBRANCH   1  23
TORSDOF 19
ENDMDL
MODEL 3
REMARK VINA RESULT:      -9.3      4.870      7.461
REMARK SMILES C=CCOc1ccccc1/C=C/c1cc(C(=O)OCCOCCOC(=O)c2ccc(-c3c4nc(c(-c5ccccc5)c5ccc([nH]5)c(-c5ccccc5)c5nc(c(-c6ccccc6)c6ccc3[nH]6)C=C5)C=C4)cc2)ncn1
REMARK SMILES IDX 19 1 18 2 16 3 17 4 15 5 13 6 14 7 77 8 76 9 75 10 12 11
REMARK SMILES IDX 11 12 10 13 5 14 6 15 7 16 9 17 8 18 4 19 3 20 2 21 1 22
REMARK SMILES IDX 20 23 21 24 22 25 23 26 24 27 25 28 26 29 27 30 28 31 74 32
REMARK SMILES IDX 29 33 73 34 30 35 31 36 32 37 67 38 33 39 72 40 66 41 68 42
REMARK SMILES IDX 34 43 71 44 65 45 64 46 35 48 57 49 42 50 56 51 43 52 46 53
REMARK SMILES IDX 55 54 69 55 44 56 45 57 54 59 70 60 47 61 36 62 37 63 41 64
REMARK SMILES IDX 38 65 40 66 39 67 58 68 59 69 63 70 60 71 62 72 61 73 48 74
REMARK SMILES IDX 49 75 53 76 50 77 52 78 51 79
REMARK H PARENT 68 47 46 58
REMARK Flexibility Score: inf
ROOT
ATOM      1  C   UNL A   1      34.275  31.376  27.642  1.00  0.00     0.261 C 
ENDROOT
BRANCH   1   2
ATOM      2  O   UNL A   1      33.386  30.244  27.615  1.00  0.00    -0.459 OA
BRANCH   2   3
ATOM      3  C   UNL A   1      32.583  30.154  26.522  1.00  0.00     0.357 C 
ATOM      4  O   UNL A   1      31.669  30.914  26.237  1.00  0.00    -0.244 OA
BRANCH   3   5
ATOM      5  C   UNL A   1      33.056  29.041  25.645  1.00  0.00     0.152 A 
ATOM      6  C   UNL A   1      33.468  26.786  25.190  1.00  0.00     0.067 A 
ATOM      7  C   UNL A   1      33.134  27.750  26.119  1.00  0.00     0.064 A 
ATOM      8  N   UNL A   1      33.789  27.096  23.918  1.00  0.00    -0.237 NA
ATOM      9  C   UNL A   1      33.728  28.389  23.576  1.00  0.00     0.223 A 
ATOM     10  N   UNL A   1      33.358  29.390  24.376  1.00  0.00    -0.229 NA
BRANCH   6  11
ATOM     11  C   UNL A   1      33.268  25.347  25.425  1.00  0.00     0.029 C 
ATOM     12  C   UNL A   1      33.144  24.423  24.460  1.00  0.00     0.014 C 
BRANCH  12  13
ATOM     13  C   UNL A   1      33.367  22.986  24.679  1.00  0.00     0.017 A 
ATOM     14  C   UNL A   1      34.661  22.463  24.497  1.00  0.00     0.126 A 
ATOM     15  C   UNL A   1      34.918  21.101  24.662  1.00  0.00     0.047 A 
ATOM     16  C   UNL A   1      33.889  20.250  25.058  1.00  0.00     0.004 A 
ATOM     17  C   UNL A   1      32.343  22.118  25.075  1.00  0.00     0.012 A 
ATOM     18  C   UNL A   1      32.606  20.759  25.272  1.00  0.00     0.001 A 
BRANCH  14  19
ATOM     19  O   UNL A   1      35.692  23.287  24.106  1.00  0.00    -0.489 OA
BRANCH  19  20
ATOM     20  C   UNL A   1      36.936  22.889  24.701  1.00  0.00     0.257 C 
BRANCH  20  21
ATOM     21  C   UNL A   1      37.191  23.726  25.923  1.00  0.00     0.006 C 
ATOM     22  C   UNL A   1      38.409  24.078  26.357  1.00  0.00     0.007 C 
ENDBRANCH  20  21
ENDBRANCH  19  20
ENDBRANCH  14  19
ENDBRANCH  12  13
ENDBRANCH   6  11
ENDBRANCH   3   5
ENDBRANCH   2   3
ENDBRANCH   1   2
BRANCH   1  23
ATOM     23  C   UNL A   1      33.522  32.634  28.085  1.00  0.00     0.202 C 
BRANCH  23  24
ATOM     24  O   UNL A   1      34.224  33.500  28.977  1.00  0.00    -0.374 OA
BRANCH  24  25
ATOM     25  C   UNL A   1      34.200  34.898  28.692  1.00  0.00     0.202 C 
BRANCH  25  26
ATOM     26  C   UNL A   1      33.089  35.710  29.368  1.00  0.00     0.261 C 
BRANCH  26  27
ATOM     27  O   UNL A   1      32.520  35.018  30.494  1.00  0.00    -0.460 OA
BRANCH  27  28
ATOM     28  C   UNL A   1      32.803  35.572  31.695  1.00  0.00     0.338 C 
ATOM     29  O   UNL A   1      32.157  36.423  32.292  1.00  0.00    -0.246 OA
BRANCH  28  30
ATOM     30  C   UNL A   1      33.954  34.890  32.312  1.00  0.00     0.060 A 
ATOM     31  C   UNL A   1      35.200  35.524  32.226  1.00  0.00     0.016 A 
ATOM     32  C   UNL A   1      33.840  33.623  32.886  1.00  0.00     0.016 A 
ATOM     33  C   UNL A   1      36.348  34.871  32.670  1.00  0.00     0.010 A 
ATOM     34  C   UNL A   1      34.996  32.965  33.324  1.00  0.00     0.010 A 
ATOM     35  C   UNL A   1      36.257  33.571  33.185  1.00  0.00    -0.014 A 
BRANCH  35  36
ATOM     36  C   UNL A   1      37.496  32.800  33.445  1.00  0.00     0.031 A 
ATOM     37  C   UNL A   1      38.250  33.033  34.725  1.00  0.00     0.074 A 
ATOM     38  C   UNL A   1      37.930  31.880  32.566  1.00  0.00     0.049 A 
ATOM     39  N   UNL A   1      39.359  32.482  35.146  1.00  0.00    -0.248 NA
ATOM     40  C   UNL A   1      37.674  34.017  35.656  1.00  0.00     0.031 C 
ATOM     41  C   UNL A   1      37.268  31.529  31.311  1.00  0.00     0.029 A 
ATOM     42  N   UNL A   1      39.040  31.073  32.601  1.00  0.00    -0.354 N 
ATOM     43  C   UNL A   1      39.620  33.058  36.383  1.00  0.00     0.074 A 
ATOM     44  C   UNL A   1      38.568  34.018  36.634  1.00  0.00     0.031 C 
ATOM     45  C   UNL A   1      37.990  30.579  30.690  1.00  0.00     0.029 A 
ATOM     46  C   UNL A   1      39.177  30.279  31.490  1.00  0.00     0.049 A 
ATOM     47  H   UNL A   1      39.677  31.064  33.352  1.00  0.00     0.167 HD
ATOM     48  C   UNL A   1      40.640  32.805  37.238  1.00  0.00     0.031 A 
ATOM     49  C   UNL A   1      40.157  29.423  31.146  1.00  0.00     0.031 A 
ATOM     50  C   UNL A   1      41.695  31.860  36.987  1.00  0.00     0.049 A 
ATOM     51  C   UNL A   1      41.321  29.216  32.078  1.00  0.00     0.074 A 
ATOM     52  C   UNL A   1      42.763  31.523  37.800  1.00  0.00     0.029 A 
ATOM     53  N   UNL A   1      41.819  31.106  35.831  1.00  0.00    -0.354 N 
ATOM     54  N   UNL A   1      41.541  29.746  33.257  1.00  0.00    -0.248 NA
ATOM     55  C   UNL A   1      42.369  28.287  31.632  1.00  0.00     0.031 C 
ATOM     56  C   UNL A   1      43.562  30.604  37.113  1.00  0.00     0.029 A 
ATOM     57  C   UNL A   1      42.961  30.326  35.896  1.00  0.00     0.049 A 
ATOM     58  H   UNL A   1      41.187  31.123  35.075  1.00  0.00     0.167 HD
ATOM     59  C   UNL A   1      42.736  29.193  33.705  1.00  0.00     0.074 A 
ATOM     60  C   UNL A   1      43.186  28.280  32.676  1.00  0.00     0.031 C 
ATOM     61  C   UNL A   1      43.397  29.422  34.865  1.00  0.00     0.031 A 
BRANCH  48  62
ATOM     62  C   UNL A   1      40.680  33.595  38.516  1.00  0.00    -0.014 A 
ATOM     63  C   UNL A   1      41.297  34.854  38.577  1.00  0.00     0.009 A 
ATOM     64  C   UNL A   1      40.064  33.082  39.669  1.00  0.00     0.009 A 
ATOM     65  C   UNL A   1      41.323  35.570  39.775  1.00  0.00     0.001 A 
ATOM     66  C   UNL A   1      40.068  33.812  40.858  1.00  0.00     0.001 A 
ATOM     67  C   UNL A   1      40.705  35.050  40.914  1.00  0.00     0.000 A 
ENDBRANCH  48  62
BRANCH  49  68
ATOM     68  C   UNL A   1      40.097  28.705  29.846  1.00  0.00    -0.014 A 
ATOM     69  C   UNL A   1      39.511  27.432  29.758  1.00  0.00     0.009 A 
ATOM     70  C   UNL A   1      40.642  29.284  28.690  1.00  0.00     0.009 A 
ATOM     71  C   UNL A   1      39.497  26.745  28.542  1.00  0.00     0.001 A 
ATOM     72  C   UNL A   1      40.601  28.605  27.470  1.00  0.00     0.001 A 
ATOM     73  C   UNL A   1      40.037  27.333  27.399  1.00  0.00     0.000 A 
ENDBRANCH  49  68
BRANCH  61  74
ATOM     74  C   UNL A   1      44.662  28.644  35.101  1.00  0.00    -0.014 A 
ATOM     75  C   UNL A   1      45.904  29.114  34.647  1.00  0.00     0.009 A 
ATOM     76  C   UNL A   1      44.613  27.444  35.829  1.00  0.00     0.009 A 
ATOM     77  C   UNL A   1      47.066  28.379  34.890  1.00  0.00     0.001 A 
ATOM     78  C   UNL A   1      45.779  26.727  36.094  1.00  0.00     0.001 A 
ATOM     79  C   UNL A   1      47.004  27.191  35.616  1.00  0.00     0.000 A 
ENDBRANCH  61  74
ENDBRANCH  35  36
ENDBRANCH  28  30
ENDBRANCH  27  28
ENDBRANCH  26  27
ENDBRANCH  25  26
ENDBRANCH  24  25
ENDBRANCH  23  24
ENDBRANCH   1  23
TORSDOF 19
ENDMDL
