MODEL 1
REMARK VINA RESULT:     -10.9      0.000      0.000
REMARK SMILES O=C(OCCOCCOC(=O)c1cnc2c(ccn2C2CCCCC2)c1)c1ccc(-c2c3nc(c(-c4ccccc4)c4ccc([nH]4)c(-c4ccccc4)c4nc(c(-c5ccccc5)c5ccc2[nH]5)C=C4)C=C3)cc1
REMARK SMILES IDX 5 1 4 2 3 3 2 4 1 5 27 6 28 7 74 8 29 9 73 10 30 11 31 12
REMARK SMILES IDX 32 13 67 14 33 15 72 16 66 17 68 18 34 19 71 20 65 21 64 22
REMARK SMILES IDX 35 24 57 25 42 26 56 27 43 28 46 29 55 30 69 31 44 32 45 33
REMARK SMILES IDX 54 35 70 36 47 37 36 38 37 39 41 40 38 41 40 42 39 43 58 44
REMARK SMILES IDX 59 45 63 46 60 47 62 48 61 49 48 50 49 51 53 52 50 53 52 54
REMARK SMILES IDX 51 55 6 56 7 57 8 58 9 59 10 60 11 61 12 62 13 63 26 64
REMARK SMILES IDX 14 65 16 66 15 67 17 68 19 69 18 70 20 71 21 72 25 73 22 74
REMARK SMILES IDX 24 75 23 76
REMARK H PARENT 68 23 46 34
REMARK Flexibility Score: inf
ROOT
ATOM      1  C   UNL A   1      31.839  29.243  26.606  1.00  0.00     0.202 C 
ENDROOT
BRANCH   1   2
ATOM      2  C   UNL A   1      31.703  30.764  26.727  1.00  0.00     0.261 C 
BRANCH   2   3
ATOM      3  O   UNL A   1      32.918  31.393  27.149  1.00  0.00    -0.460 OA
BRANCH   3   4
ATOM      4  C   UNL A   1      33.008  32.665  27.586  1.00  0.00     0.338 C 
ATOM      5  O   UNL A   1      32.038  33.414  27.492  1.00  0.00    -0.246 OA
BRANCH   4   6
ATOM      6  C   UNL A   1      34.196  33.115  28.365  1.00  0.00     0.060 A 
ATOM      7  C   UNL A   1      35.220  33.924  27.870  1.00  0.00     0.016 A 
ATOM      8  C   UNL A   1      34.372  32.455  29.586  1.00  0.00     0.016 A 
ATOM      9  C   UNL A   1      36.499  33.713  28.291  1.00  0.00     0.010 A 
ATOM     10  C   UNL A   1      35.643  32.292  30.073  1.00  0.00     0.010 A 
ATOM     11  C   UNL A   1      36.684  32.789  29.304  1.00  0.00    -0.014 A 
BRANCH  11  12
ATOM     12  C   UNL A   1      38.033  32.341  29.502  1.00  0.00     0.031 A 
ATOM     13  C   UNL A   1      38.189  30.896  29.250  1.00  0.00     0.074 A 
ATOM     14  C   UNL A   1      38.962  33.232  29.885  1.00  0.00     0.049 A 
ATOM     15  N   UNL A   1      38.479  29.969  30.099  1.00  0.00    -0.248 NA
ATOM     16  C   UNL A   1      37.755  30.406  27.930  1.00  0.00     0.031 C 
ATOM     17  C   UNL A   1      38.877  34.697  29.933  1.00  0.00     0.029 A 
ATOM     18  N   UNL A   1      40.251  33.008  30.209  1.00  0.00    -0.354 N 
ATOM     19  C   UNL A   1      38.442  28.789  29.370  1.00  0.00     0.074 A 
ATOM     20  C   UNL A   1      37.806  29.088  28.112  1.00  0.00     0.031 C 
ATOM     21  C   UNL A   1      40.131  35.207  29.955  1.00  0.00     0.029 A 
ATOM     22  C   UNL A   1      41.076  34.109  30.057  1.00  0.00     0.049 A 
ATOM     23  H   UNL A   1      40.577  32.134  30.525  1.00  0.00     0.167 HD
ATOM     24  C   UNL A   1      39.183  27.704  29.713  1.00  0.00     0.031 A 
ATOM     25  C   UNL A   1      42.420  34.042  29.874  1.00  0.00     0.031 A 
ATOM     26  C   UNL A   1      39.642  27.754  31.070  1.00  0.00     0.049 A 
ATOM     27  C   UNL A   1      42.840  32.680  30.315  1.00  0.00     0.074 A 
ATOM     28  C   UNL A   1      39.004  27.735  32.295  1.00  0.00     0.029 A 
ATOM     29  N   UNL A   1      40.888  28.288  31.296  1.00  0.00    -0.354 N 
ATOM     30  N   UNL A   1      42.747  32.270  31.551  1.00  0.00    -0.248 NA
ATOM     31  C   UNL A   1      42.866  31.623  29.309  1.00  0.00     0.031 C 
ATOM     32  C   UNL A   1      39.703  28.691  33.086  1.00  0.00     0.029 A 
ATOM     33  C   UNL A   1      40.769  29.185  32.331  1.00  0.00     0.049 A 
ATOM     34  H   UNL A   1      41.715  28.070  30.807  1.00  0.00     0.167 HD
ATOM     35  C   UNL A   1      42.300  30.957  31.465  1.00  0.00     0.074 A 
ATOM     36  C   UNL A   1      42.447  30.594  30.055  1.00  0.00     0.031 C 
ATOM     37  C   UNL A   1      41.564  30.386  32.464  1.00  0.00     0.031 A 
BRANCH  24  38
ATOM     38  C   UNL A   1      39.787  26.832  28.658  1.00  0.00    -0.014 A 
ATOM     39  C   UNL A   1      40.664  27.366  27.709  1.00  0.00     0.009 A 
ATOM     40  C   UNL A   1      39.331  25.511  28.450  1.00  0.00     0.009 A 
ATOM     41  C   UNL A   1      41.074  26.601  26.609  1.00  0.00     0.001 A 
ATOM     42  C   UNL A   1      39.770  24.733  27.383  1.00  0.00     0.001 A 
ATOM     43  C   UNL A   1      40.634  25.287  26.451  1.00  0.00     0.000 A 
ENDBRANCH  24  38
BRANCH  25  44
ATOM     44  C   UNL A   1      43.211  34.838  28.897  1.00  0.00    -0.014 A 
ATOM     45  C   UNL A   1      44.574  35.087  29.123  1.00  0.00     0.009 A 
ATOM     46  C   UNL A   1      42.708  35.115  27.611  1.00  0.00     0.009 A 
ATOM     47  C   UNL A   1      45.407  35.542  28.089  1.00  0.00     0.001 A 
ATOM     48  C   UNL A   1      43.535  35.575  26.581  1.00  0.00     0.001 A 
ATOM     49  C   UNL A   1      44.891  35.770  26.815  1.00  0.00     0.000 A 
ENDBRANCH  25  44
BRANCH  37  50
ATOM     50  C   UNL A   1      41.354  31.180  33.731  1.00  0.00    -0.014 A 
ATOM     51  C   UNL A   1      40.310  32.113  33.889  1.00  0.00     0.009 A 
ATOM     52  C   UNL A   1      42.098  30.822  34.862  1.00  0.00     0.009 A 
ATOM     53  C   UNL A   1      40.030  32.673  35.143  1.00  0.00     0.001 A 
ATOM     54  C   UNL A   1      41.809  31.367  36.115  1.00  0.00     0.001 A 
ATOM     55  C   UNL A   1      40.775  32.291  36.256  1.00  0.00     0.000 A 
ENDBRANCH  37  50
ENDBRANCH  11  12
ENDBRANCH   4   6
ENDBRANCH   3   4
ENDBRANCH   2   3
ENDBRANCH   1   2
BRANCH   1  56
ATOM     56  O   UNL A   1      31.475  28.559  25.411  1.00  0.00    -0.374 OA
BRANCH  56  57
ATOM     57  C   UNL A   1      31.086  29.352  24.276  1.00  0.00     0.202 C 
BRANCH  57  58
ATOM     58  C   UNL A   1      29.970  28.862  23.336  1.00  0.00     0.261 C 
BRANCH  58  59
ATOM     59  O   UNL A   1      30.175  27.518  22.860  1.00  0.00    -0.460 OA
BRANCH  59  60
ATOM     60  C   UNL A   1      29.625  26.545  23.637  1.00  0.00     0.339 C 
ATOM     61  O   UNL A   1      28.455  26.409  23.919  1.00  0.00    -0.246 OA
BRANCH  60  62
ATOM     62  C   UNL A   1      30.627  25.482  23.844  1.00  0.00     0.079 A 
ATOM     63  C   UNL A   1      31.800  25.448  23.117  1.00  0.00     0.129 A 
ATOM     64  C   UNL A   1      30.360  24.469  24.780  1.00  0.00     0.029 A 
ATOM     65  N   UNL A   1      32.784  24.538  23.293  1.00  0.00    -0.237 NA
ATOM     66  C   UNL A   1      31.315  23.459  24.937  1.00  0.00     0.020 A 
ATOM     67  C   UNL A   1      32.496  23.596  24.219  1.00  0.00     0.140 A 
ATOM     68  C   UNL A   1      31.419  22.265  25.698  1.00  0.00     0.030 A 
ATOM     69  N   UNL A   1      33.371  22.651  24.702  1.00  0.00    -0.329 N 
ATOM     70  C   UNL A   1      32.703  21.785  25.535  1.00  0.00     0.088 A 
BRANCH  69  71
ATOM     71  C   UNL A   1      34.820  22.695  24.521  1.00  0.00     0.088 C 
ATOM     72  C   UNL A   1      35.479  23.773  25.391  1.00  0.00     0.025 C 
ATOM     73  C   UNL A   1      35.435  21.296  24.727  1.00  0.00     0.025 C 
ATOM     74  C   UNL A   1      36.999  23.741  25.276  1.00  0.00     0.002 C 
ATOM     75  C   UNL A   1      36.954  21.308  24.634  1.00  0.00     0.002 C 
ATOM     76  C   UNL A   1      37.554  22.351  25.570  1.00  0.00     0.000 C 
ENDBRANCH  69  71
ENDBRANCH  60  62
ENDBRANCH  59  60
ENDBRANCH  58  59
ENDBRANCH  57  58
ENDBRANCH  56  57
ENDBRANCH   1  56
TORSDOF 15
ENDMDL
MODEL 2
REMARK VINA RESULT:     -10.8      4.182      9.040
REMARK SMILES O=C(OCCOCCOC(=O)c1cnc2c(ccn2C2CCCCC2)c1)c1ccc(-c2c3nc(c(-c4ccccc4)c4ccc([nH]4)c(-c4ccccc4)c4nc(c(-c5ccccc5)c5ccc2[nH]5)C=C4)C=C3)cc1
REMARK SMILES IDX 5 1 4 2 3 3 2 4 1 5 27 6 28 7 74 8 29 9 73 10 30 11 31 12
REMARK SMILES IDX 32 13 67 14 33 15 72 16 66 17 68 18 34 19 71 20 65 21 64 22
REMARK SMILES IDX 35 24 57 25 42 26 56 27 43 28 46 29 55 30 69 31 44 32 45 33
REMARK SMILES IDX 54 35 70 36 47 37 36 38 37 39 41 40 38 41 40 42 39 43 58 44
REMARK SMILES IDX 59 45 63 46 60 47 62 48 61 49 48 50 49 51 53 52 50 53 52 54
REMARK SMILES IDX 51 55 6 56 7 57 8 58 9 59 10 60 11 61 12 62 13 63 26 64
REMARK SMILES IDX 14 65 16 66 15 67 17 68 19 69 18 70 20 71 21 72 25 73 22 74
REMARK SMILES IDX 24 75 23 76
REMARK H PARENT 68 23 46 34
REMARK Flexibility Score: inf
ROOT
ATOM      1  C   UNL A   1      36.410  22.105  24.947  1.00  0.00     0.202 C 
ENDROOT
BRANCH   1   2
ATOM      2  C   UNL A   1      37.689  21.918  25.770  1.00  0.00     0.261 C 
BRANCH   2   3
ATOM      3  O   UNL A   1      38.655  21.095  25.106  1.00  0.00    -0.460 OA
BRANCH   3   4
ATOM      4  C   UNL A   1      39.569  20.329  25.736  1.00  0.00     0.338 C 
ATOM      5  O   UNL A   1      39.536  19.107  25.607  1.00  0.00    -0.246 OA
BRANCH   4   6
ATOM      6  C   UNL A   1      40.736  20.954  26.418  1.00  0.00     0.060 A 
ATOM      7  C   UNL A   1      41.050  20.803  27.771  1.00  0.00     0.016 A 
ATOM      8  C   UNL A   1      41.387  21.940  25.668  1.00  0.00     0.016 A 
ATOM      9  C   UNL A   1      41.592  21.854  28.450  1.00  0.00     0.010 A 
ATOM     10  C   UNL A   1      42.006  22.971  26.327  1.00  0.00     0.010 A 
ATOM     11  C   UNL A   1      41.934  22.973  27.711  1.00  0.00    -0.014 A 
BRANCH  11  12
ATOM     12  C   UNL A   1      42.184  24.167  28.466  1.00  0.00     0.031 A 
ATOM     13  C   UNL A   1      41.191  25.223  28.197  1.00  0.00     0.074 A 
ATOM     14  C   UNL A   1      43.247  24.202  29.288  1.00  0.00     0.049 A 
ATOM     15  N   UNL A   1      41.380  26.363  27.622  1.00  0.00    -0.248 NA
ATOM     16  C   UNL A   1      39.776  24.866  28.403  1.00  0.00     0.031 C 
ATOM     17  C   UNL A   1      44.114  23.103  29.728  1.00  0.00     0.029 A 
ATOM     18  N   UNL A   1      43.709  25.241  30.010  1.00  0.00    -0.354 N 
ATOM     19  C   UNL A   1      40.123  26.947  27.561  1.00  0.00     0.074 A 
ATOM     20  C   UNL A   1      39.162  25.917  27.866  1.00  0.00     0.031 C 
ATOM     21  C   UNL A   1      44.764  23.483  30.854  1.00  0.00     0.029 A 
ATOM     22  C   UNL A   1      44.455  24.877  31.118  1.00  0.00     0.049 A 
ATOM     23  H   UNL A   1      43.530  26.179  29.771  1.00  0.00     0.167 HD
ATOM     24  C   UNL A   1      39.952  28.294  27.545  1.00  0.00     0.031 A 
ATOM     25  C   UNL A   1      44.636  25.660  32.214  1.00  0.00     0.031 A 
ATOM     26  C   UNL A   1      41.145  28.999  27.179  1.00  0.00     0.049 A 
ATOM     27  C   UNL A   1      44.293  27.052  31.801  1.00  0.00     0.074 A 
ATOM     28  C   UNL A   1      41.903  29.058  26.026  1.00  0.00     0.029 A 
ATOM     29  N   UNL A   1      41.964  29.428  28.197  1.00  0.00    -0.354 N 
ATOM     30  N   UNL A   1      44.977  27.722  30.913  1.00  0.00    -0.248 NA
ATOM     31  C   UNL A   1      42.912  27.488  31.981  1.00  0.00     0.031 C 
ATOM     32  C   UNL A   1      43.254  29.050  26.476  1.00  0.00     0.029 A 
ATOM     33  C   UNL A   1      43.248  29.063  27.872  1.00  0.00     0.049 A 
ATOM     34  H   UNL A   1      41.682  29.908  29.009  1.00  0.00     0.167 HD
ATOM     35  C   UNL A   1      44.026  28.382  30.145  1.00  0.00     0.074 A 
ATOM     36  C   UNL A   1      42.772  28.246  30.886  1.00  0.00     0.031 C 
ATOM     37  C   UNL A   1      44.263  28.706  28.840  1.00  0.00     0.031 A 
BRANCH  24  38
ATOM     38  C   UNL A   1      38.796  28.922  28.258  1.00  0.00    -0.014 A 
ATOM     39  C   UNL A   1      38.629  28.748  29.635  1.00  0.00     0.009 A 
ATOM     40  C   UNL A   1      37.731  29.516  27.545  1.00  0.00     0.009 A 
ATOM     41  C   UNL A   1      37.451  29.166  30.267  1.00  0.00     0.001 A 
ATOM     42  C   UNL A   1      36.577  29.971  28.175  1.00  0.00     0.001 A 
ATOM     43  C   UNL A   1      36.431  29.782  29.540  1.00  0.00     0.000 A 
ENDBRANCH  24  38
BRANCH  25  44
ATOM     44  C   UNL A   1      44.562  25.212  33.630  1.00  0.00    -0.014 A 
ATOM     45  C   UNL A   1      43.371  24.672  34.143  1.00  0.00     0.009 A 
ATOM     46  C   UNL A   1      45.729  25.048  34.402  1.00  0.00     0.009 A 
ATOM     47  C   UNL A   1      43.362  23.955  35.349  1.00  0.00     0.001 A 
ATOM     48  C   UNL A   1      45.721  24.339  35.607  1.00  0.00     0.001 A 
ATOM     49  C   UNL A   1      44.539  23.775  36.072  1.00  0.00     0.000 A 
ENDBRANCH  25  44
BRANCH  37  50
ATOM     50  C   UNL A   1      45.642  28.442  28.283  1.00  0.00    -0.014 A 
ATOM     51  C   UNL A   1      46.048  27.181  27.803  1.00  0.00     0.009 A 
ATOM     52  C   UNL A   1      46.476  29.542  28.044  1.00  0.00     0.009 A 
ATOM     53  C   UNL A   1      47.258  27.032  27.112  1.00  0.00     0.001 A 
ATOM     54  C   UNL A   1      47.673  29.395  27.341  1.00  0.00     0.001 A 
ATOM     55  C   UNL A   1      48.064  28.142  26.874  1.00  0.00     0.000 A 
ENDBRANCH  37  50
ENDBRANCH  11  12
ENDBRANCH   4   6
ENDBRANCH   3   4
ENDBRANCH   2   3
ENDBRANCH   1   2
BRANCH   1  56
ATOM     56  O   UNL A   1      35.142  21.694  25.447  1.00  0.00    -0.374 OA
BRANCH  56  57
ATOM     57  C   UNL A   1      33.966  22.258  24.838  1.00  0.00     0.202 C 
BRANCH  57  58
ATOM     58  C   UNL A   1      32.568  21.869  25.350  1.00  0.00     0.261 C 
BRANCH  58  59
ATOM     59  O   UNL A   1      31.560  22.856  25.063  1.00  0.00    -0.460 OA
BRANCH  59  60
ATOM     60  C   UNL A   1      31.573  23.943  25.883  1.00  0.00     0.339 C 
ATOM     61  O   UNL A   1      31.932  23.982  27.039  1.00  0.00    -0.246 OA
BRANCH  60  62
ATOM     62  C   UNL A   1      31.376  25.155  25.065  1.00  0.00     0.079 A 
ATOM     63  C   UNL A   1      30.127  25.514  24.600  1.00  0.00     0.129 A 
ATOM     64  C   UNL A   1      32.493  25.937  24.728  1.00  0.00     0.029 A 
ATOM     65  N   UNL A   1      29.866  26.636  23.894  1.00  0.00    -0.237 NA
ATOM     66  C   UNL A   1      32.282  27.065  23.928  1.00  0.00     0.020 A 
ATOM     67  C   UNL A   1      30.965  27.371  23.612  1.00  0.00     0.140 A 
ATOM     68  C   UNL A   1      33.102  28.059  23.332  1.00  0.00     0.030 A 
ATOM     69  N   UNL A   1      30.969  28.624  23.047  1.00  0.00    -0.329 N 
ATOM     70  C   UNL A   1      32.263  29.014  22.793  1.00  0.00     0.088 A 
BRANCH  69  71
ATOM     71  C   UNL A   1      29.794  29.486  22.933  1.00  0.00     0.088 C 
ATOM     72  C   UNL A   1      29.805  30.618  23.967  1.00  0.00     0.025 C 
ATOM     73  C   UNL A   1      29.633  29.994  21.485  1.00  0.00     0.025 C 
ATOM     74  C   UNL A   1      28.633  31.573  23.773  1.00  0.00     0.002 C 
ATOM     75  C   UNL A   1      28.471  30.965  21.336  1.00  0.00     0.002 C 
ATOM     76  C   UNL A   1      28.572  32.104  22.345  1.00  0.00     0.000 C 
ENDBRANCH  69  71
ENDBRANCH  60  62
ENDBRANCH  59  60
ENDBRANCH  58  59
ENDBRANCH  57  58
ENDBRANCH  56  57
ENDBRANCH   1  56
TORSDOF 15
ENDMDL
MODEL 3
REMARK VINA RESULT:     -10.8      4.972      9.252
REMARK SMILES O=C(OCCOCCOC(=O)c1cnc2c(ccn2C2CCCCC2)c1)c1ccc(-c2c3nc(c(-c4ccccc4)c4ccc([nH]4)c(-c4ccccc4)c4nc(c(-c5ccccc5)c5ccc2[nH]5)C=C4)C=C3)cc1
REMARK SMILES IDX 5 1 4 2 3 3 2 4 1 5 27 6 28 7 74 8 29 9 73 10 30 11 31 12
REMARK SMILES IDX 32 13 67 14 33 15 72 16 66 17 68 18 34 19 71 20 65 21 64 22
REMARK SMILES IDX 35 24 57 25 42 26 56 27 43 28 46 29 55 30 69 31 44 32 45 33
REMARK SMILES IDX 54 35 70 36 47 37 36 38 37 39 41 40 38 41 40 42 39 43 58 44
REMARK SMILES IDX 59 45 63 46 60 47 62 48 61 49 48 50 49 51 53 52 50 53 52 54
REMARK SMILES IDX 51 55 6 56 7 57 8 58 9 59 10 60 11 61 12 62 13 63 26 64
REMARK SMILES IDX 14 65 16 66 15 67 17 68 19 69 18 70 20 71 21 72 25 73 22 74
REMARK SMILES IDX 24 75 23 76
REMARK H PARENT 68 23 46 34
REMARK Flexibility Score: inf
ROOT
ATOM      1  C   UNL A   1      41.411  20.616  26.997  1.00  0.00     0.202 C 
ENDROOT
BRANCH   1   2
ATOM      2  C   UNL A   1      42.233  21.334  25.922  1.00  0.00     0.261 C 
BRANCH   2   3
ATOM      3  O   UNL A   1      43.189  20.471  25.293  1.00  0.00    -0.460 OA
BRANCH   3   4
ATOM      4  C   UNL A   1      44.322  20.893  24.697  1.00  0.00     0.338 C 
ATOM      5  O   UNL A   1      44.783  20.266  23.746  1.00  0.00    -0.246 OA
BRANCH   4   6
ATOM      6  C   UNL A   1      44.909  22.219  25.042  1.00  0.00     0.060 A 
ATOM      7  C   UNL A   1      45.803  22.451  26.089  1.00  0.00     0.016 A 
ATOM      8  C   UNL A   1      44.303  23.305  24.402  1.00  0.00     0.016 A 
ATOM      9  C   UNL A   1      45.732  23.626  26.777  1.00  0.00     0.010 A 
ATOM     10  C   UNL A   1      44.281  24.520  25.038  1.00  0.00     0.010 A 
ATOM     11  C   UNL A   1      44.859  24.586  26.296  1.00  0.00    -0.014 A 
BRANCH  11  12
ATOM     12  C   UNL A   1      44.553  25.659  27.198  1.00  0.00     0.031 A 
ATOM     13  C   UNL A   1      45.616  26.681  27.240  1.00  0.00     0.074 A 
ATOM     14  C   UNL A   1      43.397  25.620  27.882  1.00  0.00     0.049 A 
ATOM     15  N   UNL A   1      46.390  26.980  28.228  1.00  0.00    -0.248 NA
ATOM     16  C   UNL A   1      45.999  27.288  25.954  1.00  0.00     0.031 C 
ATOM     17  C   UNL A   1      42.241  24.735  27.698  1.00  0.00     0.029 A 
ATOM     18  N   UNL A   1      42.961  26.469  28.834  1.00  0.00    -0.354 N 
ATOM     19  C   UNL A   1      47.245  27.954  27.732  1.00  0.00     0.074 A 
ATOM     20  C   UNL A   1      47.095  27.959  26.299  1.00  0.00     0.031 C 
ATOM     21  C   UNL A   1      41.159  25.301  28.283  1.00  0.00     0.029 A 
ATOM     22  C   UNL A   1      41.585  26.501  28.981  1.00  0.00     0.049 A 
ATOM     23  H   UNL A   1      43.570  27.020  29.377  1.00  0.00     0.167 HD
ATOM     24  C   UNL A   1      47.814  28.891  28.533  1.00  0.00     0.031 A 
ATOM     25  C   UNL A   1      40.893  27.544  29.508  1.00  0.00     0.031 A 
ATOM     26  C   UNL A   1      47.789  28.525  29.918  1.00  0.00     0.049 A 
ATOM     27  C   UNL A   1      41.880  28.367  30.266  1.00  0.00     0.074 A 
ATOM     28  C   UNL A   1      48.376  27.511  30.649  1.00  0.00     0.029 A 
ATOM     29  N   UNL A   1      46.730  28.975  30.671  1.00  0.00    -0.354 N 
ATOM     30  N   UNL A   1      42.504  27.935  31.328  1.00  0.00    -0.248 NA
ATOM     31  C   UNL A   1      42.547  29.450  29.549  1.00  0.00     0.031 C 
ATOM     32  C   UNL A   1      47.367  27.083  31.558  1.00  0.00     0.029 A 
ATOM     33  C   UNL A   1      46.250  27.903  31.386  1.00  0.00     0.049 A 
ATOM     34  H   UNL A   1      46.380  29.895  30.695  1.00  0.00     0.167 HD
ATOM     35  C   UNL A   1      43.809  28.392  31.192  1.00  0.00     0.074 A 
ATOM     36  C   UNL A   1      43.762  29.369  30.105  1.00  0.00     0.031 C 
ATOM     37  C   UNL A   1      44.862  27.722  31.749  1.00  0.00     0.031 A 
BRANCH  24  38
ATOM     38  C   UNL A   1      48.014  30.291  28.042  1.00  0.00    -0.014 A 
ATOM     39  C   UNL A   1      46.916  31.115  27.776  1.00  0.00     0.009 A 
ATOM     40  C   UNL A   1      49.284  30.747  27.625  1.00  0.00     0.009 A 
ATOM     41  C   UNL A   1      47.091  32.347  27.134  1.00  0.00     0.001 A 
ATOM     42  C   UNL A   1      49.467  31.989  27.026  1.00  0.00     0.001 A 
ATOM     43  C   UNL A   1      48.363  32.786  26.767  1.00  0.00     0.000 A 
ENDBRANCH  24  38
BRANCH  25  44
ATOM     44  C   UNL A   1      39.630  28.116  28.970  1.00  0.00    -0.014 A 
ATOM     45  C   UNL A   1      38.529  28.328  29.816  1.00  0.00     0.009 A 
ATOM     46  C   UNL A   1      39.590  28.718  27.696  1.00  0.00     0.009 A 
ATOM     47  C   UNL A   1      37.461  29.149  29.423  1.00  0.00     0.001 A 
ATOM     48  C   UNL A   1      38.524  29.532  27.300  1.00  0.00     0.001 A 
ATOM     49  C   UNL A   1      37.467  29.764  28.172  1.00  0.00     0.000 A 
ENDBRANCH  25  44
BRANCH  37  50
ATOM     50  C   UNL A   1      44.560  26.533  32.630  1.00  0.00    -0.014 A 
ATOM     51  C   UNL A   1      44.461  25.217  32.136  1.00  0.00     0.009 A 
ATOM     52  C   UNL A   1      44.583  26.720  34.018  1.00  0.00     0.009 A 
ATOM     53  C   UNL A   1      44.383  24.126  33.012  1.00  0.00     0.001 A 
ATOM     54  C   UNL A   1      44.522  25.631  34.889  1.00  0.00     0.001 A 
ATOM     55  C   UNL A   1      44.423  24.335  34.388  1.00  0.00     0.000 A 
ENDBRANCH  37  50
ENDBRANCH  11  12
ENDBRANCH   4   6
ENDBRANCH   3   4
ENDBRANCH   2   3
ENDBRANCH   1   2
BRANCH   1  56
ATOM     56  O   UNL A   1      40.087  21.030  27.317  1.00  0.00    -0.374 OA
BRANCH  56  57
ATOM     57  C   UNL A   1      39.349  21.752  26.316  1.00  0.00     0.202 C 
BRANCH  57  58
ATOM     58  C   UNL A   1      38.468  20.995  25.308  1.00  0.00     0.261 C 
BRANCH  58  59
ATOM     59  O   UNL A   1      37.538  21.846  24.610  1.00  0.00    -0.460 OA
BRANCH  59  60
ATOM     60  C   UNL A   1      36.233  21.469  24.708  1.00  0.00     0.339 C 
ATOM     61  O   UNL A   1      35.808  20.354  24.919  1.00  0.00    -0.246 OA
BRANCH  60  62
ATOM     62  C   UNL A   1      35.399  22.680  24.829  1.00  0.00     0.079 A 
ATOM     63  C   UNL A   1      34.891  23.085  26.047  1.00  0.00     0.129 A 
ATOM     64  C   UNL A   1      35.093  23.413  23.671  1.00  0.00     0.029 A 
ATOM     65  N   UNL A   1      34.168  24.210  26.239  1.00  0.00    -0.237 NA
ATOM     66  C   UNL A   1      34.278  24.541  23.809  1.00  0.00     0.020 A 
ATOM     67  C   UNL A   1      33.916  24.898  25.102  1.00  0.00     0.140 A 
ATOM     68  C   UNL A   1      33.700  25.495  22.931  1.00  0.00     0.030 A 
ATOM     69  N   UNL A   1      33.341  26.144  25.028  1.00  0.00    -0.329 N 
ATOM     70  C   UNL A   1      33.127  26.478  23.712  1.00  0.00     0.088 A 
BRANCH  69  71
ATOM     71  C   UNL A   1      33.182  27.052  26.162  1.00  0.00     0.088 C 
ATOM     72  C   UNL A   1      34.075  28.293  26.039  1.00  0.00     0.025 C 
ATOM     73  C   UNL A   1      31.694  27.398  26.375  1.00  0.00     0.025 C 
ATOM     74  C   UNL A   1      33.825  29.284  27.171  1.00  0.00     0.002 C 
ATOM     75  C   UNL A   1      31.487  28.410  27.492  1.00  0.00     0.002 C 
ATOM     76  C   UNL A   1      32.348  29.650  27.280  1.00  0.00     0.000 C 
ENDBRANCH  69  71
ENDBRANCH  60  62
ENDBRANCH  59  60
ENDBRANCH  58  59
ENDBRANCH  57  58
ENDBRANCH  56  57
ENDBRANCH   1  56
TORSDOF 15
ENDMDL
