MODEL 1
REMARK VINA RESULT:     -11.1      0.000      0.000
REMARK SMILES CS(=O)(=O)c1ccc(/C=C(/C(=O)OCCOCCOC(=O)c2ccc(-c3c4nc(c(-c5ccccc5)c5ccc([nH]5)c(-c5ccccc5)c5nc(c(-c6ccccc6)c6ccc3[nH]6)C=C5)C=C4)cc2)c2ccc(O)cc2)cc1
REMARK SMILES IDX 16 1 15 2 14 3 13 4 11 5 12 6 10 7 9 8 8 9 5 10 6 11 78 12
REMARK SMILES IDX 7 13 77 14 2 15 1 16 3 17 4 18 70 19 71 20 76 21 72 22 75 23
REMARK SMILES IDX 73 24 74 25 17 27 18 28 19 29 20 30 21 31 22 32 23 33 69 34
REMARK SMILES IDX 24 35 68 36 25 37 26 38 27 39 62 40 28 41 67 42 61 43 63 44
REMARK SMILES IDX 29 45 66 46 60 47 59 48 30 50 52 51 37 52 51 53 38 54 41 55
REMARK SMILES IDX 50 56 64 57 39 58 40 59 49 61 65 62 42 63 31 64 32 65 36 66
REMARK SMILES IDX 33 67 35 68 34 69 53 70 54 71 58 72 55 73 57 74 56 75 43 76
REMARK SMILES IDX 44 77 48 78 45 79 47 80 46 81
REMARK H PARENT 74 26 63 49 41 60
REMARK Flexibility Score: inf
ROOT
ATOM      1  O   UNL A   1      33.079  29.238  25.485  1.00  0.00    -0.374 OA
ENDROOT
BRANCH   1   2
ATOM      2  C   UNL A   1      33.109  29.264  24.057  1.00  0.00     0.202 C 
BRANCH   2   3
ATOM      3  C   UNL A   1      32.488  28.070  23.326  1.00  0.00     0.261 C 
BRANCH   3   4
ATOM      4  O   UNL A   1      32.968  26.821  23.859  1.00  0.00    -0.460 OA
BRANCH   4   5
ATOM      5  C   UNL A   1      33.443  25.953  22.929  1.00  0.00     0.338 C 
ATOM      6  O   UNL A   1      33.880  26.258  21.829  1.00  0.00    -0.246 OA
BRANCH   5   7
ATOM      7  C   UNL A   1      33.485  24.547  23.446  1.00  0.00     0.067 C 
ATOM      8  C   UNL A   1      32.372  23.776  23.414  1.00  0.00     0.024 C 
BRANCH   8   9
ATOM      9  C   UNL A   1      32.271  22.310  23.637  1.00  0.00    -0.025 A 
ATOM     10  C   UNL A   1      32.496  19.517  23.849  1.00  0.00     0.067 A 
ATOM     11  C   UNL A   1      32.528  20.301  24.999  1.00  0.00     0.021 A 
ATOM     12  C   UNL A   1      32.231  20.093  22.609  1.00  0.00     0.021 A 
ATOM     13  C   UNL A   1      32.385  21.687  24.888  1.00  0.00     0.009 A 
ATOM     14  C   UNL A   1      32.121  21.487  22.508  1.00  0.00     0.009 A 
BRANCH  10  15
ATOM     15  S   UNL A   1      32.828  17.777  23.983  1.00  0.00     0.175 S 
ATOM     16  C   UNL A   1      34.542  17.721  24.450  1.00  0.00     0.163 C 
ATOM     17  O   UNL A   1      32.714  17.201  22.658  1.00  0.00    -0.224 OA
ATOM     18  O   UNL A   1      32.035  17.275  25.090  1.00  0.00    -0.224 OA
ENDBRANCH  10  15
ENDBRANCH   8   9
BRANCH   7  19
ATOM     19  C   UNL A   1      34.805  24.056  23.886  1.00  0.00    -0.011 A 
ATOM     20  C   UNL A   1      35.263  24.369  25.175  1.00  0.00     0.013 A 
ATOM     21  C   UNL A   1      35.583  23.233  23.062  1.00  0.00     0.013 A 
ATOM     22  C   UNL A   1      36.460  23.837  25.649  1.00  0.00     0.047 A 
ATOM     23  C   UNL A   1      36.781  22.696  23.540  1.00  0.00     0.047 A 
ATOM     24  C   UNL A   1      37.201  22.993  24.833  1.00  0.00     0.115 A 
BRANCH  24  25
ATOM     25  O   UNL A   1      38.342  22.460  25.352  1.00  0.00    -0.508 OA
ATOM     26  H   UNL A   1      38.706  22.809  26.142  1.00  0.00     0.293 HD
ENDBRANCH  24  25
ENDBRANCH   7  19
ENDBRANCH   5   7
ENDBRANCH   4   5
ENDBRANCH   3   4
ENDBRANCH   2   3
ENDBRANCH   1   2
BRANCH   1  27
ATOM     27  C   UNL A   1      32.177  30.124  26.140  1.00  0.00     0.202 C 
BRANCH  27  28
ATOM     28  C   UNL A   1      32.748  31.052  27.220  1.00  0.00     0.261 C 
BRANCH  28  29
ATOM     29  O   UNL A   1      34.175  31.172  27.151  1.00  0.00    -0.460 OA
BRANCH  29  30
ATOM     30  C   UNL A   1      34.770  31.344  28.353  1.00  0.00     0.338 C 
ATOM     31  O   UNL A   1      34.344  31.980  29.312  1.00  0.00    -0.246 OA
BRANCH  30  32
ATOM     32  C   UNL A   1      35.974  30.504  28.448  1.00  0.00     0.060 A 
ATOM     33  C   UNL A   1      36.306  30.003  29.713  1.00  0.00     0.016 A 
ATOM     34  C   UNL A   1      36.802  30.268  27.347  1.00  0.00     0.016 A 
ATOM     35  C   UNL A   1      37.503  29.319  29.897  1.00  0.00     0.010 A 
ATOM     36  C   UNL A   1      38.008  29.586  27.535  1.00  0.00     0.010 A 
ATOM     37  C   UNL A   1      38.382  29.151  28.819  1.00  0.00    -0.014 A 
BRANCH  37  38
ATOM     38  C   UNL A   1      39.759  28.675  29.087  1.00  0.00     0.031 A 
ATOM     39  C   UNL A   1      40.699  29.566  29.852  1.00  0.00     0.074 A 
ATOM     40  C   UNL A   1      40.147  27.444  28.712  1.00  0.00     0.049 A 
ATOM     41  N   UNL A   1      41.931  29.340  30.233  1.00  0.00    -0.248 NA
ATOM     42  C   UNL A   1      40.180  30.888  30.243  1.00  0.00     0.031 C 
ATOM     43  C   UNL A   1      39.314  26.472  28.005  1.00  0.00     0.029 A 
ATOM     44  N   UNL A   1      41.346  26.800  28.886  1.00  0.00    -0.354 N 
ATOM     45  C   UNL A   1      42.334  30.490  30.902  1.00  0.00     0.074 A 
ATOM     46  C   UNL A   1      41.230  31.423  30.847  1.00  0.00     0.031 C 
ATOM     47  C   UNL A   1      40.029  25.350  27.807  1.00  0.00     0.029 A 
ATOM     48  C   UNL A   1      41.373  25.536  28.350  1.00  0.00     0.049 A 
ATOM     49  H   UNL A   1      42.113  27.206  29.350  1.00  0.00     0.167 HD
ATOM     50  C   UNL A   1      43.513  30.743  31.517  1.00  0.00     0.031 A 
ATOM     51  C   UNL A   1      42.373  24.637  28.297  1.00  0.00     0.031 A 
ATOM     52  C   UNL A   1      44.615  29.820  31.563  1.00  0.00     0.049 A 
ATOM     53  C   UNL A   1      43.699  24.969  28.927  1.00  0.00     0.074 A 
ATOM     54  C   UNL A   1      45.848  29.977  32.172  1.00  0.00     0.029 A 
ATOM     55  N   UNL A   1      44.619  28.569  30.967  1.00  0.00    -0.354 N 
ATOM     56  N   UNL A   1      44.057  26.047  29.583  1.00  0.00    -0.248 NA
ATOM     57  C   UNL A   1      44.754  23.952  28.819  1.00  0.00     0.031 C 
ATOM     58  C   UNL A   1      46.618  28.842  31.898  1.00  0.00     0.029 A 
ATOM     59  C   UNL A   1      45.842  27.953  31.171  1.00  0.00     0.049 A 
ATOM     60  H   UNL A   1      43.863  28.175  30.472  1.00  0.00     0.167 HD
ATOM     61  C   UNL A   1      45.367  25.825  29.991  1.00  0.00     0.074 A 
ATOM     62  C   UNL A   1      45.734  24.505  29.521  1.00  0.00     0.031 C 
ATOM     63  C   UNL A   1      46.191  26.640  30.694  1.00  0.00     0.031 A 
BRANCH  50  64
ATOM     64  C   UNL A   1      43.680  32.091  32.160  1.00  0.00    -0.014 A 
ATOM     65  C   UNL A   1      43.345  32.304  33.507  1.00  0.00     0.009 A 
ATOM     66  C   UNL A   1      44.202  33.159  31.413  1.00  0.00     0.009 A 
ATOM     67  C   UNL A   1      43.496  33.568  34.081  1.00  0.00     0.001 A 
ATOM     68  C   UNL A   1      44.379  34.413  31.997  1.00  0.00     0.001 A 
ATOM     69  C   UNL A   1      44.017  34.620  33.328  1.00  0.00     0.000 A 
ENDBRANCH  50  64
BRANCH  51  70
ATOM     70  C   UNL A   1      42.166  23.334  27.613  1.00  0.00    -0.014 A 
ATOM     71  C   UNL A   1      41.630  22.237  28.303  1.00  0.00     0.009 A 
ATOM     72  C   UNL A   1      42.524  23.178  26.264  1.00  0.00     0.009 A 
ATOM     73  C   UNL A   1      41.481  21.003  27.664  1.00  0.00     0.001 A 
ATOM     74  C   UNL A   1      42.347  21.951  25.620  1.00  0.00     0.001 A 
ATOM     75  C   UNL A   1      41.835  20.862  26.323  1.00  0.00     0.000 A 
ENDBRANCH  51  70
BRANCH  63  76
ATOM     76  C   UNL A   1      47.559  26.111  31.030  1.00  0.00    -0.014 A 
ATOM     77  C   UNL A   1      48.593  26.104  30.082  1.00  0.00     0.009 A 
ATOM     78  C   UNL A   1      47.821  25.644  32.328  1.00  0.00     0.009 A 
ATOM     79  C   UNL A   1      49.854  25.606  30.419  1.00  0.00     0.001 A 
ATOM     80  C   UNL A   1      49.091  25.175  32.669  1.00  0.00     0.001 A 
ATOM     81  C   UNL A   1      50.103  25.146  31.712  1.00  0.00     0.000 A 
ENDBRANCH  63  76
ENDBRANCH  37  38
ENDBRANCH  30  32
ENDBRANCH  29  30
ENDBRANCH  28  29
ENDBRANCH  27  28
ENDBRANCH   1  27
TORSDOF 18
ENDMDL
MODEL 2
REMARK VINA RESULT:     -10.9      3.569      8.453
REMARK SMILES CS(=O)(=O)c1ccc(/C=C(/C(=O)OCCOCCOC(=O)c2ccc(-c3c4nc(c(-c5ccccc5)c5ccc([nH]5)c(-c5ccccc5)c5nc(c(-c6ccccc6)c6ccc3[nH]6)C=C5)C=C4)cc2)c2ccc(O)cc2)cc1
REMARK SMILES IDX 16 1 15 2 14 3 13 4 11 5 12 6 10 7 9 8 8 9 5 10 6 11 78 12
REMARK SMILES IDX 7 13 77 14 2 15 1 16 3 17 4 18 70 19 71 20 76 21 72 22 75 23
REMARK SMILES IDX 73 24 74 25 17 27 18 28 19 29 20 30 21 31 22 32 23 33 69 34
REMARK SMILES IDX 24 35 68 36 25 37 26 38 27 39 62 40 28 41 67 42 61 43 63 44
REMARK SMILES IDX 29 45 66 46 60 47 59 48 30 50 52 51 37 52 51 53 38 54 41 55
REMARK SMILES IDX 50 56 64 57 39 58 40 59 49 61 65 62 42 63 31 64 32 65 36 66
REMARK SMILES IDX 33 67 35 68 34 69 53 70 54 71 58 72 55 73 57 74 56 75 43 76
REMARK SMILES IDX 44 77 48 78 45 79 47 80 46 81
REMARK H PARENT 74 26 63 49 41 60
REMARK Flexibility Score: inf
ROOT
ATOM      1  O   UNL A   1      35.497  22.411  24.361  1.00  0.00    -0.374 OA
ENDROOT
BRANCH   1   2
ATOM      2  C   UNL A   1      35.194  23.371  25.374  1.00  0.00     0.202 C 
BRANCH   2   3
ATOM      3  C   UNL A   1      34.214  22.941  26.469  1.00  0.00     0.261 C 
BRANCH   3   4
ATOM      4  O   UNL A   1      33.262  23.983  26.760  1.00  0.00    -0.460 OA
BRANCH   4   5
ATOM      5  C   UNL A   1      32.075  23.863  26.111  1.00  0.00     0.338 C 
ATOM      6  O   UNL A   1      31.344  22.883  26.139  1.00  0.00    -0.246 OA
BRANCH   5   7
ATOM      7  C   UNL A   1      31.681  25.136  25.426  1.00  0.00     0.067 C 
ATOM      8  C   UNL A   1      30.908  25.100  24.315  1.00  0.00     0.024 C 
BRANCH   8   9
ATOM      9  C   UNL A   1      30.212  26.233  23.650  1.00  0.00    -0.025 A 
ATOM     10  C   UNL A   1      28.865  28.556  22.822  1.00  0.00     0.067 A 
ATOM     11  C   UNL A   1      30.188  28.353  22.441  1.00  0.00     0.021 A 
ATOM     12  C   UNL A   1      28.167  27.562  23.505  1.00  0.00     0.021 A 
ATOM     13  C   UNL A   1      30.843  27.181  22.831  1.00  0.00     0.009 A 
ATOM     14  C   UNL A   1      28.844  26.407  23.917  1.00  0.00     0.009 A 
BRANCH  10  15
ATOM     15  S   UNL A   1      28.090  30.111  22.451  1.00  0.00     0.175 S 
ATOM     16  C   UNL A   1      29.276  31.306  23.020  1.00  0.00     0.163 C 
ATOM     17  O   UNL A   1      26.911  30.228  23.286  1.00  0.00    -0.224 OA
ATOM     18  O   UNL A   1      27.999  30.208  21.006  1.00  0.00    -0.224 OA
ENDBRANCH  10  15
ENDBRANCH   8   9
BRANCH   7  19
ATOM     19  C   UNL A   1      32.105  26.387  26.085  1.00  0.00    -0.011 A 
ATOM     20  C   UNL A   1      33.311  26.994  25.701  1.00  0.00     0.013 A 
ATOM     21  C   UNL A   1      31.296  27.010  27.043  1.00  0.00     0.013 A 
ATOM     22  C   UNL A   1      33.684  28.225  26.238  1.00  0.00     0.047 A 
ATOM     23  C   UNL A   1      31.669  28.247  27.577  1.00  0.00     0.047 A 
ATOM     24  C   UNL A   1      32.854  28.847  27.159  1.00  0.00     0.115 A 
BRANCH  24  25
ATOM     25  O   UNL A   1      33.235  30.069  27.624  1.00  0.00    -0.508 OA
ATOM     26  H   UNL A   1      33.302  30.795  27.035  1.00  0.00     0.293 HD
ENDBRANCH  24  25
ENDBRANCH   7  19
ENDBRANCH   5   7
ENDBRANCH   4   5
ENDBRANCH   3   4
ENDBRANCH   2   3
ENDBRANCH   1   2
BRANCH   1  27
ATOM     27  C   UNL A   1      36.863  22.260  23.986  1.00  0.00     0.202 C 
BRANCH  27  28
ATOM     28  C   UNL A   1      37.651  21.104  24.617  1.00  0.00     0.261 C 
BRANCH  28  29
ATOM     29  O   UNL A   1      38.011  21.358  25.982  1.00  0.00    -0.460 OA
BRANCH  29  30
ATOM     30  C   UNL A   1      39.345  21.358  26.207  1.00  0.00     0.338 C 
ATOM     31  O   UNL A   1      40.166  20.532  25.822  1.00  0.00    -0.246 OA
BRANCH  30  32
ATOM     32  C   UNL A   1      39.748  22.613  26.861  1.00  0.00     0.060 A 
ATOM     33  C   UNL A   1      39.061  23.776  26.491  1.00  0.00     0.016 A 
ATOM     34  C   UNL A   1      40.818  22.670  27.758  1.00  0.00     0.016 A 
ATOM     35  C   UNL A   1      39.484  25.013  26.966  1.00  0.00     0.010 A 
ATOM     36  C   UNL A   1      41.244  23.915  28.230  1.00  0.00     0.010 A 
ATOM     37  C   UNL A   1      40.607  25.093  27.798  1.00  0.00    -0.014 A 
BRANCH  37  38
ATOM     38  C   UNL A   1      41.206  26.421  28.065  1.00  0.00     0.031 A 
ATOM     39  C   UNL A   1      42.534  26.757  27.443  1.00  0.00     0.074 A 
ATOM     40  C   UNL A   1      40.550  27.337  28.798  1.00  0.00     0.049 A 
ATOM     41  N   UNL A   1      43.223  27.868  27.508  1.00  0.00    -0.248 NA
ATOM     42  C   UNL A   1      43.168  25.701  26.637  1.00  0.00     0.031 C 
ATOM     43  C   UNL A   1      39.239  27.146  29.417  1.00  0.00     0.029 A 
ATOM     44  N   UNL A   1      40.901  28.620  29.136  1.00  0.00    -0.354 N 
ATOM     45  C   UNL A   1      44.371  27.643  26.757  1.00  0.00     0.074 A 
ATOM     46  C   UNL A   1      44.302  26.281  26.274  1.00  0.00     0.031 C 
ATOM     47  C   UNL A   1      38.893  28.276  30.059  1.00  0.00     0.029 A 
ATOM     48  C   UNL A   1      39.968  29.256  29.917  1.00  0.00     0.049 A 
ATOM     49  H   UNL A   1      41.741  29.043  28.846  1.00  0.00     0.167 HD
ATOM     50  C   UNL A   1      45.386  28.496  26.484  1.00  0.00     0.031 A 
ATOM     51  C   UNL A   1      39.985  30.487  30.461  1.00  0.00     0.031 A 
ATOM     52  C   UNL A   1      45.460  29.846  26.972  1.00  0.00     0.049 A 
ATOM     53  C   UNL A   1      41.159  31.393  30.201  1.00  0.00     0.074 A 
ATOM     54  C   UNL A   1      46.441  30.795  26.742  1.00  0.00     0.029 A 
ATOM     55  N   UNL A   1      44.518  30.437  27.799  1.00  0.00    -0.354 N 
ATOM     56  N   UNL A   1      42.223  31.179  29.464  1.00  0.00    -0.248 NA
ATOM     57  C   UNL A   1      41.126  32.717  30.839  1.00  0.00     0.031 C 
ATOM     58  C   UNL A   1      46.120  31.942  27.474  1.00  0.00     0.029 A 
ATOM     59  C   UNL A   1      44.907  31.729  28.110  1.00  0.00     0.049 A 
ATOM     60  H   UNL A   1      43.693  30.003  28.117  1.00  0.00     0.167 HD
ATOM     61  C   UNL A   1      42.969  32.349  29.526  1.00  0.00     0.074 A 
ATOM     62  C   UNL A   1      42.229  33.274  30.360  1.00  0.00     0.031 C 
ATOM     63  C   UNL A   1      44.159  32.634  28.943  1.00  0.00     0.031 A 
BRANCH  50  64
ATOM     64  C   UNL A   1      46.517  27.975  25.643  1.00  0.00    -0.014 A 
ATOM     65  C   UNL A   1      46.464  28.016  24.240  1.00  0.00     0.009 A 
ATOM     66  C   UNL A   1      47.664  27.454  26.264  1.00  0.00     0.009 A 
ATOM     67  C   UNL A   1      47.522  27.514  23.479  1.00  0.00     0.001 A 
ATOM     68  C   UNL A   1      48.731  26.980  25.501  1.00  0.00     0.001 A 
ATOM     69  C   UNL A   1      48.656  27.001  24.108  1.00  0.00     0.000 A 
ENDBRANCH  50  64
BRANCH  51  70
ATOM     70  C   UNL A   1      38.858  30.938  31.318  1.00  0.00    -0.014 A 
ATOM     71  C   UNL A   1      38.864  30.696  32.700  1.00  0.00     0.009 A 
ATOM     72  C   UNL A   1      37.757  31.599  30.750  1.00  0.00     0.009 A 
ATOM     73  C   UNL A   1      37.780  31.084  33.491  1.00  0.00     0.001 A 
ATOM     74  C   UNL A   1      36.687  32.010  31.548  1.00  0.00     0.001 A 
ATOM     75  C   UNL A   1      36.695  31.744  32.916  1.00  0.00     0.000 A 
ENDBRANCH  51  70
BRANCH  63  76
ATOM     76  C   UNL A   1      44.716  34.015  29.156  1.00  0.00    -0.014 A 
ATOM     77  C   UNL A   1      45.511  34.320  30.272  1.00  0.00     0.009 A 
ATOM     78  C   UNL A   1      44.467  35.016  28.204  1.00  0.00     0.009 A 
ATOM     79  C   UNL A   1      46.015  35.610  30.448  1.00  0.00     0.001 A 
ATOM     80  C   UNL A   1      44.998  36.297  28.367  1.00  0.00     0.001 A 
ATOM     81  C   UNL A   1      45.762  36.596  29.493  1.00  0.00     0.000 A 
ENDBRANCH  63  76
ENDBRANCH  37  38
ENDBRANCH  30  32
ENDBRANCH  29  30
ENDBRANCH  28  29
ENDBRANCH  27  28
ENDBRANCH   1  27
TORSDOF 18
ENDMDL
MODEL 3
REMARK VINA RESULT:     -10.7      2.983      8.516
REMARK SMILES CS(=O)(=O)c1ccc(/C=C(/C(=O)OCCOCCOC(=O)c2ccc(-c3c4nc(c(-c5ccccc5)c5ccc([nH]5)c(-c5ccccc5)c5nc(c(-c6ccccc6)c6ccc3[nH]6)C=C5)C=C4)cc2)c2ccc(O)cc2)cc1
REMARK SMILES IDX 16 1 15 2 14 3 13 4 11 5 12 6 10 7 9 8 8 9 5 10 6 11 78 12
REMARK SMILES IDX 7 13 77 14 2 15 1 16 3 17 4 18 70 19 71 20 76 21 72 22 75 23
REMARK SMILES IDX 73 24 74 25 17 27 18 28 19 29 20 30 21 31 22 32 23 33 69 34
REMARK SMILES IDX 24 35 68 36 25 37 26 38 27 39 62 40 28 41 67 42 61 43 63 44
REMARK SMILES IDX 29 45 66 46 60 47 59 48 30 50 52 51 37 52 51 53 38 54 41 55
REMARK SMILES IDX 50 56 64 57 39 58 40 59 49 61 65 62 42 63 31 64 32 65 36 66
REMARK SMILES IDX 33 67 35 68 34 69 53 70 54 71 58 72 55 73 57 74 56 75 43 76
REMARK SMILES IDX 44 77 48 78 45 79 47 80 46 81
REMARK H PARENT 74 26 63 49 41 60
REMARK Flexibility Score: inf
ROOT
ATOM      1  O   UNL A   1      36.384  22.633  25.534  1.00  0.00    -0.374 OA
ENDROOT
BRANCH   1   2
ATOM      2  C   UNL A   1      35.029  22.638  25.081  1.00  0.00     0.202 C 
BRANCH   2   3
ATOM      3  C   UNL A   1      33.967  23.128  26.069  1.00  0.00     0.261 C 
BRANCH   3   4
ATOM      4  O   UNL A   1      32.721  23.409  25.403  1.00  0.00    -0.460 OA
BRANCH   4   5
ATOM      5  C   UNL A   1      31.845  24.150  26.128  1.00  0.00     0.338 C 
ATOM      6  O   UNL A   1      31.397  23.851  27.226  1.00  0.00    -0.246 OA
BRANCH   5   7
ATOM      7  C   UNL A   1      31.557  25.470  25.480  1.00  0.00     0.067 C 
ATOM      8  C   UNL A   1      30.794  25.529  24.363  1.00  0.00     0.024 C 
BRANCH   8   9
ATOM      9  C   UNL A   1      30.195  26.732  23.729  1.00  0.00    -0.025 A 
ATOM     10  C   UNL A   1      28.966  29.141  22.966  1.00  0.00     0.067 A 
ATOM     11  C   UNL A   1      30.333  28.972  22.768  1.00  0.00     0.021 A 
ATOM     12  C   UNL A   1      28.182  28.084  23.424  1.00  0.00     0.021 A 
ATOM     13  C   UNL A   1      30.933  27.759  23.122  1.00  0.00     0.009 A 
ATOM     14  C   UNL A   1      28.801  26.886  23.805  1.00  0.00     0.009 A 
BRANCH  10  15
ATOM     15  S   UNL A   1      28.240  30.733  22.655  1.00  0.00     0.175 S 
ATOM     16  C   UNL A   1      28.045  30.755  20.888  1.00  0.00     0.163 C 
ATOM     17  O   UNL A   1      29.221  31.742  23.002  1.00  0.00    -0.224 OA
ATOM     18  O   UNL A   1      26.922  30.727  23.260  1.00  0.00    -0.224 OA
ENDBRANCH  10  15
ENDBRANCH   8   9
BRANCH   7  19
ATOM     19  C   UNL A   1      32.072  26.663  26.180  1.00  0.00    -0.011 A 
ATOM     20  C   UNL A   1      33.425  27.013  26.044  1.00  0.00     0.013 A 
ATOM     21  C   UNL A   1      31.222  27.486  26.928  1.00  0.00     0.013 A 
ATOM     22  C   UNL A   1      33.913  28.187  26.613  1.00  0.00     0.047 A 
ATOM     23  C   UNL A   1      31.711  28.666  27.496  1.00  0.00     0.047 A 
ATOM     24  C   UNL A   1      33.049  29.010  27.321  1.00  0.00     0.115 A 
BRANCH  24  25
ATOM     25  O   UNL A   1      33.557  30.170  27.823  1.00  0.00    -0.508 OA
ATOM     26  H   UNL A   1      34.317  30.557  27.435  1.00  0.00     0.293 HD
ENDBRANCH  24  25
ENDBRANCH   7  19
ENDBRANCH   5   7
ENDBRANCH   4   5
ENDBRANCH   3   4
ENDBRANCH   2   3
ENDBRANCH   1   2
BRANCH   1  27
ATOM     27  C   UNL A   1      37.357  22.025  24.691  1.00  0.00     0.202 C 
BRANCH  27  28
ATOM     28  C   UNL A   1      38.497  21.249  25.364  1.00  0.00     0.261 C 
BRANCH  28  29
ATOM     29  O   UNL A   1      38.979  21.890  26.553  1.00  0.00    -0.460 OA
BRANCH  29  30
ATOM     30  C   UNL A   1      40.171  22.510  26.398  1.00  0.00     0.338 C 
ATOM     31  O   UNL A   1      41.156  22.093  25.797  1.00  0.00    -0.246 OA
BRANCH  30  32
ATOM     32  C   UNL A   1      40.098  23.885  26.917  1.00  0.00     0.060 A 
ATOM     33  C   UNL A   1      40.744  24.883  26.176  1.00  0.00     0.016 A 
ATOM     34  C   UNL A   1      39.479  24.187  28.132  1.00  0.00     0.016 A 
ATOM     35  C   UNL A   1      40.832  26.176  26.681  1.00  0.00     0.010 A 
ATOM     36  C   UNL A   1      39.573  25.485  28.641  1.00  0.00     0.010 A 
ATOM     37  C   UNL A   1      40.290  26.471  27.938  1.00  0.00    -0.014 A 
BRANCH  37  38
ATOM     38  C   UNL A   1      40.631  27.763  28.578  1.00  0.00     0.031 A 
ATOM     39  C   UNL A   1      42.046  27.998  29.030  1.00  0.00     0.074 A 
ATOM     40  C   UNL A   1      39.710  28.735  28.698  1.00  0.00     0.049 A 
ATOM     41  N   UNL A   1      42.577  29.062  29.576  1.00  0.00    -0.248 NA
ATOM     42  C   UNL A   1      42.990  26.884  28.837  1.00  0.00     0.031 C 
ATOM     43  C   UNL A   1      38.319  28.644  28.259  1.00  0.00     0.029 A 
ATOM     44  N   UNL A   1      39.819  29.999  29.220  1.00  0.00    -0.354 N 
ATOM     45  C   UNL A   1      43.912  28.746  29.796  1.00  0.00     0.074 A 
ATOM     46  C   UNL A   1      44.103  27.382  29.356  1.00  0.00     0.031 C 
ATOM     47  C   UNL A   1      37.701  29.807  28.528  1.00  0.00     0.029 A 
ATOM     48  C   UNL A   1      38.646  30.712  29.180  1.00  0.00     0.049 A 
ATOM     49  H   UNL A   1      40.657  30.360  29.589  1.00  0.00     0.167 HD
ATOM     50  C   UNL A   1      44.894  29.525  30.308  1.00  0.00     0.031 A 
ATOM     51  C   UNL A   1      38.367  31.951  29.627  1.00  0.00     0.031 A 
ATOM     52  C   UNL A   1      44.702  30.877  30.755  1.00  0.00     0.049 A 
ATOM     53  C   UNL A   1      39.460  32.772  30.257  1.00  0.00     0.074 A 
ATOM     54  C   UNL A   1      45.637  31.754  31.278  1.00  0.00     0.029 A 
ATOM     55  N   UNL A   1      43.489  31.546  30.741  1.00  0.00    -0.354 N 
ATOM     56  N   UNL A   1      40.725  32.473  30.431  1.00  0.00    -0.248 NA
ATOM     57  C   UNL A   1      39.086  34.108  30.741  1.00  0.00     0.031 C 
ATOM     58  C   UNL A   1      44.977  32.936  31.631  1.00  0.00     0.029 A 
ATOM     59  C   UNL A   1      43.644  32.816  31.270  1.00  0.00     0.049 A 
ATOM     60  H   UNL A   1      42.641  31.174  30.404  1.00  0.00     0.167 HD
ATOM     61  C   UNL A   1      41.304  33.593  31.016  1.00  0.00     0.074 A 
ATOM     62  C   UNL A   1      40.254  34.582  31.153  1.00  0.00     0.031 C 
ATOM     63  C   UNL A   1      42.588  33.787  31.401  1.00  0.00     0.031 A 
BRANCH  50  64
ATOM     64  C   UNL A   1      46.260  28.912  30.442  1.00  0.00    -0.014 A 
ATOM     65  C   UNL A   1      46.609  28.143  31.564  1.00  0.00     0.009 A 
ATOM     66  C   UNL A   1      47.205  29.089  29.419  1.00  0.00     0.009 A 
ATOM     67  C   UNL A   1      47.889  27.594  31.673  1.00  0.00     0.001 A 
ATOM     68  C   UNL A   1      48.473  28.515  29.518  1.00  0.00     0.001 A 
ATOM     69  C   UNL A   1      48.818  27.775  30.650  1.00  0.00     0.000 A 
ENDBRANCH  50  64
BRANCH  51  70
ATOM     70  C   UNL A   1      36.989  32.492  29.506  1.00  0.00    -0.014 A 
ATOM     71  C   UNL A   1      36.048  32.300  30.529  1.00  0.00     0.009 A 
ATOM     72  C   UNL A   1      36.602  33.192  28.351  1.00  0.00     0.009 A 
ATOM     73  C   UNL A   1      34.742  32.775  30.387  1.00  0.00     0.001 A 
ATOM     74  C   UNL A   1      35.303  33.690  28.225  1.00  0.00     0.001 A 
ATOM     75  C   UNL A   1      34.372  33.472  29.238  1.00  0.00     0.000 A 
ENDBRANCH  51  70
BRANCH  63  76
ATOM     76  C   UNL A   1      42.938  35.133  31.975  1.00  0.00    -0.014 A 
ATOM     77  C   UNL A   1      42.753  35.419  33.336  1.00  0.00     0.009 A 
ATOM     78  C   UNL A   1      43.496  36.116  31.142  1.00  0.00     0.009 A 
ATOM     79  C   UNL A   1      43.084  36.677  33.843  1.00  0.00     0.001 A 
ATOM     80  C   UNL A   1      43.855  37.362  31.659  1.00  0.00     0.001 A 
ATOM     81  C   UNL A   1      43.639  37.645  33.006  1.00  0.00     0.000 A 
ENDBRANCH  63  76
ENDBRANCH  37  38
ENDBRANCH  30  32
ENDBRANCH  29  30
ENDBRANCH  28  29
ENDBRANCH  27  28
ENDBRANCH   1  27
TORSDOF 18
ENDMDL
