MODEL 1
REMARK VINA RESULT:     -11.2      0.000      0.000
REMARK SMILES O=C(OCCOCCOC(=O)[C@H](c1ccc(O)cc1)[NH+]1CC[NH+](Cc2cccc(Cl)c2)CC1)c1ccc(-c2c3nc(c(-c4ccccc4)c4ccc([nH]4)c(-c4ccccc4)c4nc(c(-c5ccccc5)c5ccc2[nH]5)C=C4)C=C3)cc1
REMARK SMILES IDX 7 1 6 2 5 3 4 4 3 5 2 6 1 7 34 8 35 9 81 10 36 11 80 12
REMARK SMILES IDX 37 13 38 14 39 15 74 16 40 17 79 18 73 19 75 20 41 21 78 22
REMARK SMILES IDX 72 23 71 24 42 26 64 27 49 28 63 29 50 30 53 31 62 32 76 33
REMARK SMILES IDX 51 34 52 35 61 37 77 38 54 39 43 40 44 41 48 42 45 43 47 44
REMARK SMILES IDX 46 45 65 46 66 47 70 48 67 49 69 50 68 51 55 52 56 53 60 54
REMARK SMILES IDX 57 55 59 56 58 57 8 58 9 59 10 60 11 61 12 62 20 63 21 64
REMARK SMILES IDX 33 65 22 67 32 68 23 69 24 71 25 72 26 73 31 74 27 75 29 76
REMARK SMILES IDX 28 77 30 78 13 79 14 80 19 81 15 82 18 83 16 84 17 85
REMARK H PARENT 75 25 53 36 20 66 23 70 17 86
REMARK Flexibility Score: inf
ROOT
ATOM      1  C   UNL A   1      32.326  30.076  25.651  1.00  0.00     0.202 C 
ENDROOT
BRANCH   1   2
ATOM      2  O   UNL A   1      31.430  31.145  25.921  1.00  0.00    -0.374 OA
BRANCH   2   3
ATOM      3  C   UNL A   1      31.576  31.828  27.163  1.00  0.00     0.202 C 
BRANCH   3   4
ATOM      4  C   UNL A   1      32.612  32.948  27.070  1.00  0.00     0.261 C 
BRANCH   4   5
ATOM      5  O   UNL A   1      32.305  34.009  27.986  1.00  0.00    -0.460 OA
BRANCH   5   6
ATOM      6  C   UNL A   1      33.093  34.495  28.975  1.00  0.00     0.338 C 
ATOM      7  O   UNL A   1      32.758  35.550  29.516  1.00  0.00    -0.246 OA
BRANCH   6   8
ATOM      8  C   UNL A   1      34.350  33.843  29.465  1.00  0.00     0.060 A 
ATOM      9  C   UNL A   1      34.436  32.823  30.422  1.00  0.00     0.016 A 
ATOM     10  C   UNL A   1      35.537  34.231  28.821  1.00  0.00     0.016 A 
ATOM     11  C   UNL A   1      35.609  32.147  30.679  1.00  0.00     0.010 A 
ATOM     12  C   UNL A   1      36.752  33.631  29.146  1.00  0.00     0.010 A 
ATOM     13  C   UNL A   1      36.774  32.595  30.083  1.00  0.00    -0.014 A 
BRANCH  13  14
ATOM     14  C   UNL A   1      38.014  32.179  30.729  1.00  0.00     0.031 A 
ATOM     15  C   UNL A   1      38.768  31.083  30.052  1.00  0.00     0.074 A 
ATOM     16  C   UNL A   1      38.492  32.861  31.777  1.00  0.00     0.049 A 
ATOM     17  N   UNL A   1      39.773  30.380  30.484  1.00  0.00    -0.248 NA
ATOM     18  C   UNL A   1      38.324  30.733  28.688  1.00  0.00     0.031 C 
ATOM     19  C   UNL A   1      37.908  34.084  32.330  1.00  0.00     0.029 A 
ATOM     20  N   UNL A   1      39.584  32.618  32.557  1.00  0.00    -0.354 N 
ATOM     21  C   UNL A   1      40.031  29.459  29.477  1.00  0.00     0.074 A 
ATOM     22  C   UNL A   1      39.110  29.713  28.398  1.00  0.00     0.031 C 
ATOM     23  C   UNL A   1      38.634  34.466  33.393  1.00  0.00     0.029 A 
ATOM     24  C   UNL A   1      39.667  33.466  33.633  1.00  0.00     0.049 A 
ATOM     25  H   UNL A   1      40.241  31.911  32.369  1.00  0.00     0.167 HD
ATOM     26  C   UNL A   1      40.937  28.458  29.498  1.00  0.00     0.031 A 
ATOM     27  C   UNL A   1      40.447  33.366  34.722  1.00  0.00     0.031 A 
ATOM     28  C   UNL A   1      41.792  28.244  30.629  1.00  0.00     0.049 A 
ATOM     29  C   UNL A   1      41.370  32.180  34.794  1.00  0.00     0.074 A 
ATOM     30  C   UNL A   1      42.699  27.232  30.861  1.00  0.00     0.029 A 
ATOM     31  N   UNL A   1      41.825  29.088  31.736  1.00  0.00    -0.354 N 
ATOM     32  N   UNL A   1      41.548  31.222  33.910  1.00  0.00    -0.248 NA
ATOM     33  C   UNL A   1      42.181  32.040  36.006  1.00  0.00     0.031 C 
ATOM     34  C   UNL A   1      43.240  27.436  32.137  1.00  0.00     0.029 A 
ATOM     35  C   UNL A   1      42.723  28.614  32.667  1.00  0.00     0.049 A 
ATOM     36  H   UNL A   1      41.284  29.904  31.839  1.00  0.00     0.167 HD
ATOM     37  C   UNL A   1      42.508  30.377  34.443  1.00  0.00     0.074 A 
ATOM     38  C   UNL A   1      42.874  30.942  35.732  1.00  0.00     0.031 C 
ATOM     39  C   UNL A   1      43.045  29.243  33.927  1.00  0.00     0.031 A 
BRANCH  26  40
ATOM     40  C   UNL A   1      40.892  27.489  28.351  1.00  0.00    -0.014 A 
ATOM     41  C   UNL A   1      41.583  27.717  27.149  1.00  0.00     0.009 A 
ATOM     42  C   UNL A   1      40.034  26.380  28.435  1.00  0.00     0.009 A 
ATOM     43  C   UNL A   1      41.364  26.895  26.039  1.00  0.00     0.001 A 
ATOM     44  C   UNL A   1      39.843  25.542  27.335  1.00  0.00     0.001 A 
ATOM     45  C   UNL A   1      40.493  25.811  26.132  1.00  0.00     0.000 A 
ENDBRANCH  26  40
BRANCH  27  46
ATOM     46  C   UNL A   1      40.299  34.347  35.829  1.00  0.00    -0.014 A 
ATOM     47  C   UNL A   1      40.987  35.567  35.813  1.00  0.00     0.009 A 
ATOM     48  C   UNL A   1      39.410  34.090  36.890  1.00  0.00     0.009 A 
ATOM     49  C   UNL A   1      40.791  36.505  36.832  1.00  0.00     0.001 A 
ATOM     50  C   UNL A   1      39.195  35.038  37.891  1.00  0.00     0.001 A 
ATOM     51  C   UNL A   1      39.890  36.244  37.865  1.00  0.00     0.000 A 
ENDBRANCH  27  46
BRANCH  39  52
ATOM     52  C   UNL A   1      44.127  28.584  34.726  1.00  0.00    -0.014 A 
ATOM     53  C   UNL A   1      45.427  29.106  34.763  1.00  0.00     0.009 A 
ATOM     54  C   UNL A   1      43.794  27.493  35.544  1.00  0.00     0.009 A 
ATOM     55  C   UNL A   1      46.381  28.534  35.604  1.00  0.00     0.001 A 
ATOM     56  C   UNL A   1      44.743  26.945  36.404  1.00  0.00     0.001 A 
ATOM     57  C   UNL A   1      46.036  27.464  36.430  1.00  0.00     0.000 A 
ENDBRANCH  39  52
ENDBRANCH  13  14
ENDBRANCH   6   8
ENDBRANCH   5   6
ENDBRANCH   4   5
ENDBRANCH   3   4
ENDBRANCH   2   3
ENDBRANCH   1   2
BRANCH   1  58
ATOM     58  C   UNL A   1      32.465  29.266  26.914  1.00  0.00     0.261 C 
BRANCH  58  59
ATOM     59  O   UNL A   1      32.948  27.976  26.535  1.00  0.00    -0.459 OA
BRANCH  59  60
ATOM     60  C   UNL A   1      32.024  26.961  26.540  1.00  0.00     0.369 C 
ATOM     61  O   UNL A   1      30.957  26.956  27.136  1.00  0.00    -0.245 OA
BRANCH  60  62
ATOM     62  C   UNL A   1      32.636  25.776  25.807  1.00  0.00     0.326 C 
BRANCH  62  63
ATOM     63  N   UNL A   1      32.231  24.500  26.463  1.00  0.00    -0.310 N 
ATOM     64  C   UNL A   1      31.096  23.808  25.807  1.00  0.00     0.325 C 
ATOM     65  C   UNL A   1      33.323  23.541  26.668  1.00  0.00     0.325 C 
ATOM     66  H   UNL A   1      31.922  24.828  27.379  1.00  0.00     0.349 HD
ATOM     67  C   UNL A   1      31.357  22.626  24.808  1.00  0.00     0.324 C 
ATOM     68  C   UNL A   1      33.711  22.618  25.484  1.00  0.00     0.324 C 
ATOM     69  N   UNL A   1      32.612  21.861  24.880  1.00  0.00    -0.322 N 
ATOM     70  H   UNL A   1      32.864  21.716  23.903  1.00  0.00     0.348 HD
BRANCH  69  71
ATOM     71  C   UNL A   1      32.488  20.488  25.406  1.00  0.00     0.299 C 
BRANCH  71  72
ATOM     72  C   UNL A   1      33.050  19.439  24.472  1.00  0.00     0.008 A 
ATOM     73  C   UNL A   1      32.425  19.206  23.241  1.00  0.00     0.009 A 
ATOM     74  C   UNL A   1      34.002  18.519  24.947  1.00  0.00     0.030 A 
ATOM     75  C   UNL A   1      32.607  17.992  22.583  1.00  0.00     0.002 A 
ATOM     76  C   UNL A   1      34.169  17.300  24.291  1.00  0.00     0.041 A 
ATOM     77  C   UNL A   1      33.452  17.024  23.128  1.00  0.00     0.020 A 
ATOM     78  Cl  UNL A   1      35.120  16.068  25.025  1.00  0.00    -0.084 Cl
ENDBRANCH  71  72
ENDBRANCH  69  71
ENDBRANCH  62  63
BRANCH  62  79
ATOM     79  C   UNL A   1      32.419  25.833  24.283  1.00  0.00     0.021 A 
ATOM     80  C   UNL A   1      33.361  25.357  23.352  1.00  0.00     0.014 A 
ATOM     81  C   UNL A   1      31.203  26.322  23.768  1.00  0.00     0.014 A 
ATOM     82  C   UNL A   1      33.145  25.441  21.973  1.00  0.00     0.046 A 
ATOM     83  C   UNL A   1      30.965  26.369  22.387  1.00  0.00     0.046 A 
ATOM     84  C   UNL A   1      31.947  25.951  21.501  1.00  0.00     0.115 A 
BRANCH  84  85
ATOM     85  O   UNL A   1      31.695  26.045  20.165  1.00  0.00    -0.508 OA
ATOM     86  H   UNL A   1      31.724  25.278  19.628  1.00  0.00     0.293 HD
ENDBRANCH  84  85
ENDBRANCH  62  79
ENDBRANCH  60  62
ENDBRANCH  59  60
ENDBRANCH  58  59
ENDBRANCH   1  58
TORSDOF 19
ENDMDL
MODEL 2
REMARK VINA RESULT:     -11.2      4.044      8.481
REMARK SMILES O=C(OCCOCCOC(=O)[C@H](c1ccc(O)cc1)[NH+]1CC[NH+](Cc2cccc(Cl)c2)CC1)c1ccc(-c2c3nc(c(-c4ccccc4)c4ccc([nH]4)c(-c4ccccc4)c4nc(c(-c5ccccc5)c5ccc2[nH]5)C=C4)C=C3)cc1
REMARK SMILES IDX 7 1 6 2 5 3 4 4 3 5 2 6 1 7 34 8 35 9 81 10 36 11 80 12
REMARK SMILES IDX 37 13 38 14 39 15 74 16 40 17 79 18 73 19 75 20 41 21 78 22
REMARK SMILES IDX 72 23 71 24 42 26 64 27 49 28 63 29 50 30 53 31 62 32 76 33
REMARK SMILES IDX 51 34 52 35 61 37 77 38 54 39 43 40 44 41 48 42 45 43 47 44
REMARK SMILES IDX 46 45 65 46 66 47 70 48 67 49 69 50 68 51 55 52 56 53 60 54
REMARK SMILES IDX 57 55 59 56 58 57 8 58 9 59 10 60 11 61 12 62 20 63 21 64
REMARK SMILES IDX 33 65 22 67 32 68 23 69 24 71 25 72 26 73 31 74 27 75 29 76
REMARK SMILES IDX 28 77 30 78 13 79 14 80 19 81 15 82 18 83 16 84 17 85
REMARK H PARENT 75 25 53 36 20 66 23 70 17 86
REMARK Flexibility Score: inf
ROOT
ATOM      1  C   UNL A   1      35.690  24.102  25.757  1.00  0.00     0.202 C 
ENDROOT
BRANCH   1   2
ATOM      2  O   UNL A   1      35.429  22.811  25.222  1.00  0.00    -0.374 OA
BRANCH   2   3
ATOM      3  C   UNL A   1      35.872  21.685  25.974  1.00  0.00     0.202 C 
BRANCH   3   4
ATOM      4  C   UNL A   1      36.942  20.893  25.223  1.00  0.00     0.261 C 
BRANCH   4   5
ATOM      5  O   UNL A   1      38.171  21.630  25.152  1.00  0.00    -0.460 OA
BRANCH   5   6
ATOM      6  C   UNL A   1      39.125  21.732  26.108  1.00  0.00     0.338 C 
ATOM      7  O   UNL A   1      39.541  20.693  26.624  1.00  0.00    -0.246 OA
BRANCH   6   8
ATOM      8  C   UNL A   1      39.718  23.020  26.592  1.00  0.00     0.060 A 
ATOM      9  C   UNL A   1      39.330  24.308  26.202  1.00  0.00     0.016 A 
ATOM     10  C   UNL A   1      40.684  22.911  27.607  1.00  0.00     0.016 A 
ATOM     11  C   UNL A   1      39.794  25.443  26.833  1.00  0.00     0.010 A 
ATOM     12  C   UNL A   1      41.242  24.051  28.182  1.00  0.00     0.010 A 
ATOM     13  C   UNL A   1      40.792  25.311  27.779  1.00  0.00    -0.014 A 
BRANCH  13  14
ATOM     14  C   UNL A   1      41.563  26.519  28.058  1.00  0.00     0.031 A 
ATOM     15  C   UNL A   1      40.932  27.495  28.994  1.00  0.00     0.074 A 
ATOM     16  C   UNL A   1      42.816  26.640  27.604  1.00  0.00     0.049 A 
ATOM     17  N   UNL A   1      41.274  28.719  29.268  1.00  0.00    -0.248 NA
ATOM     18  C   UNL A   1      39.745  27.017  29.731  1.00  0.00     0.031 C 
ATOM     19  C   UNL A   1      43.559  25.608  26.879  1.00  0.00     0.029 A 
ATOM     20  N   UNL A   1      43.684  27.688  27.694  1.00  0.00    -0.354 N 
ATOM     21  C   UNL A   1      40.304  29.178  30.148  1.00  0.00     0.074 A 
ATOM     22  C   UNL A   1      39.384  28.098  30.397  1.00  0.00     0.031 C 
ATOM     23  C   UNL A   1      44.768  26.094  26.555  1.00  0.00     0.029 A 
ATOM     24  C   UNL A   1      44.835  27.489  26.976  1.00  0.00     0.049 A 
ATOM     25  H   UNL A   1      43.503  28.501  28.218  1.00  0.00     0.167 HD
ATOM     26  C   UNL A   1      40.185  30.425  30.654  1.00  0.00     0.031 A 
ATOM     27  C   UNL A   1      45.780  28.382  26.638  1.00  0.00     0.031 A 
ATOM     28  C   UNL A   1      41.121  31.460  30.327  1.00  0.00     0.049 A 
ATOM     29  C   UNL A   1      45.579  29.797  27.106  1.00  0.00     0.074 A 
ATOM     30  C   UNL A   1      41.106  32.795  30.672  1.00  0.00     0.029 A 
ATOM     31  N   UNL A   1      42.259  31.249  29.552  1.00  0.00    -0.354 N 
ATOM     32  N   UNL A   1      44.604  30.290  27.839  1.00  0.00    -0.248 NA
ATOM     33  C   UNL A   1      46.579  30.784  26.691  1.00  0.00     0.031 C 
ATOM     34  C   UNL A   1      42.208  33.401  30.056  1.00  0.00     0.029 A 
ATOM     35  C   UNL A   1      42.947  32.431  29.388  1.00  0.00     0.049 A 
ATOM     36  H   UNL A   1      42.530  30.381  29.174  1.00  0.00     0.167 HD
ATOM     37  C   UNL A   1      44.883  31.638  27.997  1.00  0.00     0.074 A 
ATOM     38  C   UNL A   1      46.124  31.882  27.281  1.00  0.00     0.031 C 
ATOM     39  C   UNL A   1      44.190  32.592  28.670  1.00  0.00     0.031 A 
BRANCH  26  40
ATOM     40  C   UNL A   1      38.940  30.711  31.445  1.00  0.00    -0.014 A 
ATOM     41  C   UNL A   1      37.744  31.129  30.837  1.00  0.00     0.009 A 
ATOM     42  C   UNL A   1      39.006  30.678  32.848  1.00  0.00     0.009 A 
ATOM     43  C   UNL A   1      36.670  31.570  31.616  1.00  0.00     0.001 A 
ATOM     44  C   UNL A   1      37.920  31.087  33.623  1.00  0.00     0.001 A 
ATOM     45  C   UNL A   1      36.759  31.551  33.006  1.00  0.00     0.000 A 
ENDBRANCH  26  40
BRANCH  27  46
ATOM     46  C   UNL A   1      46.903  27.971  25.755  1.00  0.00    -0.014 A 
ATOM     47  C   UNL A   1      46.759  27.948  24.361  1.00  0.00     0.009 A 
ATOM     48  C   UNL A   1      48.159  27.654  26.306  1.00  0.00     0.009 A 
ATOM     49  C   UNL A   1      47.843  27.616  23.542  1.00  0.00     0.001 A 
ATOM     50  C   UNL A   1      49.246  27.350  25.486  1.00  0.00     0.001 A 
ATOM     51  C   UNL A   1      49.086  27.326  24.103  1.00  0.00     0.000 A 
ENDBRANCH  27  46
BRANCH  39  52
ATOM     52  C   UNL A   1      44.796  33.961  28.715  1.00  0.00    -0.014 A 
ATOM     53  C   UNL A   1      44.427  34.951  27.794  1.00  0.00     0.009 A 
ATOM     54  C   UNL A   1      45.657  34.285  29.774  1.00  0.00     0.009 A 
ATOM     55  C   UNL A   1      44.925  36.247  27.931  1.00  0.00     0.001 A 
ATOM     56  C   UNL A   1      46.127  35.587  29.924  1.00  0.00     0.001 A 
ATOM     57  C   UNL A   1      45.763  36.565  29.001  1.00  0.00     0.000 A 
ENDBRANCH  39  52
ENDBRANCH  13  14
ENDBRANCH   6   8
ENDBRANCH   5   6
ENDBRANCH   4   5
ENDBRANCH   3   4
ENDBRANCH   2   3
ENDBRANCH   1   2
BRANCH   1  58
ATOM     58  C   UNL A   1      34.559  25.006  25.343  1.00  0.00     0.261 C 
BRANCH  58  59
ATOM     59  O   UNL A   1      33.554  24.912  26.354  1.00  0.00    -0.459 OA
BRANCH  59  60
ATOM     60  C   UNL A   1      32.286  25.284  25.980  1.00  0.00     0.369 C 
ATOM     61  O   UNL A   1      31.361  25.560  26.730  1.00  0.00    -0.245 OA
BRANCH  60  62
ATOM     62  C   UNL A   1      32.187  25.130  24.469  1.00  0.00     0.326 C 
BRANCH  62  63
ATOM     63  N   UNL A   1      31.387  23.920  24.127  1.00  0.00    -0.310 N 
ATOM     64  C   UNL A   1      31.888  23.166  22.953  1.00  0.00     0.325 C 
ATOM     65  C   UNL A   1      31.176  22.987  25.240  1.00  0.00     0.325 C 
ATOM     66  H   UNL A   1      30.485  24.332  23.884  1.00  0.00     0.349 HD
ATOM     67  C   UNL A   1      32.789  21.897  23.149  1.00  0.00     0.324 C 
ATOM     68  C   UNL A   1      32.294  21.957  25.547  1.00  0.00     0.324 C 
ATOM     69  N   UNL A   1      32.739  21.145  24.413  1.00  0.00    -0.322 N 
ATOM     70  H   UNL A   1      33.715  20.909  24.593  1.00  0.00     0.348 HD
BRANCH  69  71
ATOM     71  C   UNL A   1      32.080  19.827  24.341  1.00  0.00     0.299 C 
BRANCH  71  72
ATOM     72  C   UNL A   1      32.968  18.691  24.799  1.00  0.00     0.008 A 
ATOM     73  C   UNL A   1      34.300  18.640  24.372  1.00  0.00     0.009 A 
ATOM     74  C   UNL A   1      32.394  17.557  25.403  1.00  0.00     0.030 A 
ATOM     75  C   UNL A   1      34.991  17.431  24.378  1.00  0.00     0.002 A 
ATOM     76  C   UNL A   1      33.087  16.347  25.394  1.00  0.00     0.041 A 
ATOM     77  C   UNL A   1      34.370  16.276  24.856  1.00  0.00     0.020 A 
ATOM     78  Cl  UNL A   1      32.279  14.907  25.877  1.00  0.00    -0.084 Cl
ENDBRANCH  71  72
ENDBRANCH  69  71
ENDBRANCH  62  63
BRANCH  62  79
ATOM     79  C   UNL A   1      31.761  26.428  23.757  1.00  0.00     0.021 A 
ATOM     80  C   UNL A   1      30.417  26.819  23.606  1.00  0.00     0.014 A 
ATOM     81  C   UNL A   1      32.743  27.316  23.277  1.00  0.00     0.014 A 
ATOM     82  C   UNL A   1      30.060  27.993  22.937  1.00  0.00     0.046 A 
ATOM     83  C   UNL A   1      32.390  28.515  22.642  1.00  0.00     0.046 A 
ATOM     84  C   UNL A   1      31.052  28.832  22.456  1.00  0.00     0.115 A 
BRANCH  84  85
ATOM     85  O   UNL A   1      30.746  29.988  21.802  1.00  0.00    -0.508 OA
ATOM     86  H   UNL A   1      31.191  30.209  21.008  1.00  0.00     0.293 HD
ENDBRANCH  84  85
ENDBRANCH  62  79
ENDBRANCH  60  62
ENDBRANCH  59  60
ENDBRANCH  58  59
ENDBRANCH   1  58
TORSDOF 19
ENDMDL
MODEL 3
REMARK VINA RESULT:     -11.1      5.287     10.159
REMARK SMILES O=C(OCCOCCOC(=O)[C@H](c1ccc(O)cc1)[NH+]1CC[NH+](Cc2cccc(Cl)c2)CC1)c1ccc(-c2c3nc(c(-c4ccccc4)c4ccc([nH]4)c(-c4ccccc4)c4nc(c(-c5ccccc5)c5ccc2[nH]5)C=C4)C=C3)cc1
REMARK SMILES IDX 7 1 6 2 5 3 4 4 3 5 2 6 1 7 34 8 35 9 81 10 36 11 80 12
REMARK SMILES IDX 37 13 38 14 39 15 74 16 40 17 79 18 73 19 75 20 41 21 78 22
REMARK SMILES IDX 72 23 71 24 42 26 64 27 49 28 63 29 50 30 53 31 62 32 76 33
REMARK SMILES IDX 51 34 52 35 61 37 77 38 54 39 43 40 44 41 48 42 45 43 47 44
REMARK SMILES IDX 46 45 65 46 66 47 70 48 67 49 69 50 68 51 55 52 56 53 60 54
REMARK SMILES IDX 57 55 59 56 58 57 8 58 9 59 10 60 11 61 12 62 20 63 21 64
REMARK SMILES IDX 33 65 22 67 32 68 23 69 24 71 25 72 26 73 31 74 27 75 29 76
REMARK SMILES IDX 28 77 30 78 13 79 14 80 19 81 15 82 18 83 16 84 17 85
REMARK H PARENT 75 25 53 36 20 66 23 70 17 86
REMARK Flexibility Score: inf
ROOT
ATOM      1  C   UNL A   1      37.589  21.775  25.391  1.00  0.00     0.202 C 
ENDROOT
BRANCH   1   2
ATOM      2  O   UNL A   1      37.635  20.648  24.527  1.00  0.00    -0.374 OA
BRANCH   2   3
ATOM      3  C   UNL A   1      38.319  19.488  24.994  1.00  0.00     0.202 C 
BRANCH   3   4
ATOM      4  C   UNL A   1      39.408  19.847  26.005  1.00  0.00     0.261 C 
BRANCH   4   5
ATOM      5  O   UNL A   1      40.628  19.149  25.715  1.00  0.00    -0.460 OA
BRANCH   5   6
ATOM      6  C   UNL A   1      41.890  19.635  25.789  1.00  0.00     0.338 C 
ATOM      7  O   UNL A   1      42.817  18.889  25.471  1.00  0.00    -0.246 OA
BRANCH   6   8
ATOM      8  C   UNL A   1      42.248  21.021  26.231  1.00  0.00     0.060 A 
ATOM      9  C   UNL A   1      42.477  22.123  25.398  1.00  0.00     0.016 A 
ATOM     10  C   UNL A   1      42.251  21.244  27.619  1.00  0.00     0.016 A 
ATOM     11  C   UNL A   1      42.615  23.405  25.886  1.00  0.00     0.010 A 
ATOM     12  C   UNL A   1      42.495  22.515  28.134  1.00  0.00     0.010 A 
ATOM     13  C   UNL A   1      42.683  23.586  27.255  1.00  0.00    -0.014 A 
BRANCH  13  14
ATOM     14  C   UNL A   1      43.290  24.837  27.698  1.00  0.00     0.031 A 
ATOM     15  C   UNL A   1      42.358  25.845  28.283  1.00  0.00     0.074 A 
ATOM     16  C   UNL A   1      44.621  24.977  27.703  1.00  0.00     0.049 A 
ATOM     17  N   UNL A   1      42.565  27.096  28.571  1.00  0.00    -0.248 NA
ATOM     18  C   UNL A   1      40.994  25.369  28.591  1.00  0.00     0.031 C 
ATOM     19  C   UNL A   1      45.585  23.930  27.358  1.00  0.00     0.029 A 
ATOM     20  N   UNL A   1      45.387  26.061  28.015  1.00  0.00    -0.354 N 
ATOM     21  C   UNL A   1      41.341  27.571  29.021  1.00  0.00     0.074 A 
ATOM     22  C   UNL A   1      40.407  26.475  29.010  1.00  0.00     0.031 C 
ATOM     23  C   UNL A   1      46.824  24.441  27.443  1.00  0.00     0.029 A 
ATOM     24  C   UNL A   1      46.720  25.860  27.760  1.00  0.00     0.049 A 
ATOM     25  H   UNL A   1      45.023  26.897  28.384  1.00  0.00     0.167 HD
ATOM     26  C   UNL A   1      41.035  28.841  29.364  1.00  0.00     0.031 A 
ATOM     27  C   UNL A   1      47.712  26.766  27.711  1.00  0.00     0.031 A 
ATOM     28  C   UNL A   1      42.012  29.889  29.311  1.00  0.00     0.049 A 
ATOM     29  C   UNL A   1      47.339  28.199  27.976  1.00  0.00     0.074 A 
ATOM     30  C   UNL A   1      41.858  31.241  29.532  1.00  0.00     0.029 A 
ATOM     31  N   UNL A   1      43.352  29.673  28.999  1.00  0.00    -0.354 N 
ATOM     32  N   UNL A   1      46.162  28.699  28.286  1.00  0.00    -0.248 NA
ATOM     33  C   UNL A   1      48.408  29.196  27.868  1.00  0.00     0.031 C 
ATOM     34  C   UNL A   1      43.098  31.849  29.298  1.00  0.00     0.029 A 
ATOM     35  C   UNL A   1      44.038  30.868  29.002  1.00  0.00     0.049 A 
ATOM     36  H   UNL A   1      43.751  28.795  28.803  1.00  0.00     0.167 HD
ATOM     37  C   UNL A   1      46.349  30.064  28.435  1.00  0.00     0.074 A 
ATOM     38  C   UNL A   1      47.760  30.310  28.182  1.00  0.00     0.031 C 
ATOM     39  C   UNL A   1      45.452  31.031  28.753  1.00  0.00     0.031 A 
BRANCH  26  40
ATOM     40  C   UNL A   1      39.588  29.128  29.648  1.00  0.00    -0.014 A 
ATOM     41  C   UNL A   1      39.020  28.936  30.918  1.00  0.00     0.009 A 
ATOM     42  C   UNL A   1      38.747  29.483  28.581  1.00  0.00     0.009 A 
ATOM     43  C   UNL A   1      37.636  29.027  31.097  1.00  0.00     0.001 A 
ATOM     44  C   UNL A   1      37.369  29.607  28.769  1.00  0.00     0.001 A 
ATOM     45  C   UNL A   1      36.812  29.360  30.023  1.00  0.00     0.000 A 
ENDBRANCH  26  40
BRANCH  27  46
ATOM     46  C   UNL A   1      49.078  26.344  27.307  1.00  0.00    -0.014 A 
ATOM     47  C   UNL A   1      50.007  25.893  28.254  1.00  0.00     0.009 A 
ATOM     48  C   UNL A   1      49.444  26.333  25.948  1.00  0.00     0.009 A 
ATOM     49  C   UNL A   1      51.269  25.443  27.851  1.00  0.00     0.001 A 
ATOM     50  C   UNL A   1      50.694  25.857  25.545  1.00  0.00     0.001 A 
ATOM     51  C   UNL A   1      51.608  25.417  26.499  1.00  0.00     0.000 A 
ENDBRANCH  27  46
BRANCH  39  52
ATOM     52  C   UNL A   1      45.984  32.423  28.909  1.00  0.00    -0.014 A 
ATOM     53  C   UNL A   1      46.521  32.866  30.125  1.00  0.00     0.009 A 
ATOM     54  C   UNL A   1      46.051  33.251  27.778  1.00  0.00     0.009 A 
ATOM     55  C   UNL A   1      47.110  34.127  30.205  1.00  0.00     0.001 A 
ATOM     56  C   UNL A   1      46.667  34.497  27.856  1.00  0.00     0.001 A 
ATOM     57  C   UNL A   1      47.192  34.935  29.070  1.00  0.00     0.000 A 
ENDBRANCH  39  52
ENDBRANCH  13  14
ENDBRANCH   6   8
ENDBRANCH   5   6
ENDBRANCH   4   5
ENDBRANCH   3   4
ENDBRANCH   2   3
ENDBRANCH   1   2
BRANCH   1  58
ATOM     58  C   UNL A   1      37.006  22.925  24.613  1.00  0.00     0.261 C 
BRANCH  58  59
ATOM     59  O   UNL A   1      35.622  23.008  24.960  1.00  0.00    -0.459 OA
BRANCH  59  60
ATOM     60  C   UNL A   1      34.730  22.719  23.957  1.00  0.00     0.369 C 
ATOM     61  O   UNL A   1      34.820  23.062  22.787  1.00  0.00    -0.245 OA
BRANCH  60  62
ATOM     62  C   UNL A   1      33.527  22.036  24.591  1.00  0.00     0.326 C 
BRANCH  62  63
ATOM     63  N   UNL A   1      32.295  22.841  24.355  1.00  0.00    -0.310 N 
ATOM     64  C   UNL A   1      31.253  22.685  25.397  1.00  0.00     0.325 C 
ATOM     65  C   UNL A   1      32.530  24.271  24.125  1.00  0.00     0.325 C 
ATOM     66  H   UNL A   1      31.946  22.434  23.487  1.00  0.00     0.349 HD
ATOM     67  C   UNL A   1      31.116  23.741  26.550  1.00  0.00     0.324 C 
ATOM     68  C   UNL A   1      32.694  25.190  25.363  1.00  0.00     0.324 C 
ATOM     69  N   UNL A   1      31.627  25.108  26.362  1.00  0.00    -0.322 N 
ATOM     70  H   UNL A   1      32.054  25.333  27.260  1.00  0.00     0.348 HD
BRANCH  69  71
ATOM     71  C   UNL A   1      30.597  26.153  26.206  1.00  0.00     0.299 C 
BRANCH  71  72
ATOM     72  C   UNL A   1      31.173  27.514  25.883  1.00  0.00     0.008 A 
ATOM     73  C   UNL A   1      31.106  27.998  24.571  1.00  0.00     0.009 A 
ATOM     74  C   UNL A   1      32.012  28.156  26.812  1.00  0.00     0.030 A 
ATOM     75  C   UNL A   1      31.991  28.985  24.143  1.00  0.00     0.002 A 
ATOM     76  C   UNL A   1      32.906  29.133  26.374  1.00  0.00     0.041 A 
ATOM     77  C   UNL A   1      32.917  29.525  25.037  1.00  0.00     0.020 A 
ATOM     78  Cl  UNL A   1      34.118  29.713  27.448  1.00  0.00    -0.084 Cl
ENDBRANCH  71  72
ENDBRANCH  69  71
ENDBRANCH  62  63
BRANCH  62  79
ATOM     79  C   UNL A   1      33.420  20.542  24.228  1.00  0.00     0.021 A 
ATOM     80  C   UNL A   1      34.254  19.553  24.780  1.00  0.00     0.014 A 
ATOM     81  C   UNL A   1      32.408  20.108  23.350  1.00  0.00     0.014 A 
ATOM     82  C   UNL A   1      34.146  18.207  24.416  1.00  0.00     0.046 A 
ATOM     83  C   UNL A   1      32.270  18.754  23.014  1.00  0.00     0.046 A 
ATOM     84  C   UNL A   1      33.155  17.819  23.530  1.00  0.00     0.115 A 
BRANCH  84  85
ATOM     85  O   UNL A   1      33.013  16.517  23.153  1.00  0.00    -0.508 OA
ATOM     86  H   UNL A   1      33.635  15.876  23.438  1.00  0.00     0.293 HD
ENDBRANCH  84  85
ENDBRANCH  62  79
ENDBRANCH  60  62
ENDBRANCH  59  60
ENDBRANCH  58  59
ENDBRANCH   1  58
TORSDOF 19
ENDMDL
