MODEL 1
REMARK VINA RESULT:     -11.3      0.000      0.000
REMARK SMILES O=C(OCCOCCOC(=O)c1nccnc1C(=O)Nc1ccc2c(c1)OCO2)c1ccc(-c2c3nc(c(-c4ccccc4)c4ccc([nH]4)c(-c4ccccc4)c4nc(c(-c5ccccc5)c5ccc2[nH]5)C=C4)C=C3)cc1
REMARK SMILES IDX 6 1 5 2 4 3 3 4 2 5 1 6 30 7 31 8 77 9 32 10 76 11 33 12
REMARK SMILES IDX 34 13 35 14 70 15 36 16 75 17 69 18 71 19 37 20 74 21 68 22
REMARK SMILES IDX 67 23 38 25 60 26 45 27 59 28 46 29 49 30 58 31 72 32 47 33
REMARK SMILES IDX 48 34 57 36 73 37 50 38 39 39 40 40 44 41 41 42 43 43 42 44
REMARK SMILES IDX 61 45 62 46 66 47 63 48 65 49 64 50 51 51 52 52 56 53 53 54
REMARK SMILES IDX 55 55 54 56 7 57 8 58 9 59 10 60 11 61 12 62 13 63 17 64
REMARK SMILES IDX 14 65 16 66 15 67 18 68 19 69 20 70 21 72 22 73 26 74 23 75
REMARK SMILES IDX 25 76 24 77 27 78 29 79 28 80
REMARK H PARENT 71 24 49 35 20 71
REMARK Flexibility Score: inf
ROOT
ATOM      1  O   UNL A   1      39.314  21.922  25.755  1.00  0.00    -0.374 OA
ENDROOT
BRANCH   1   2
ATOM      2  C   UNL A   1      40.067  20.951  26.473  1.00  0.00     0.202 C 
BRANCH   2   3
ATOM      3  C   UNL A   1      41.445  20.541  25.938  1.00  0.00     0.261 C 
BRANCH   3   4
ATOM      4  O   UNL A   1      42.516  21.472  26.176  1.00  0.00    -0.460 OA
BRANCH   4   5
ATOM      5  C   UNL A   1      42.638  22.738  25.727  1.00  0.00     0.338 C 
ATOM      6  O   UNL A   1      43.030  22.960  24.585  1.00  0.00    -0.246 OA
BRANCH   5   7
ATOM      7  C   UNL A   1      42.265  23.886  26.574  1.00  0.00     0.060 A 
ATOM      8  C   UNL A   1      41.424  23.769  27.680  1.00  0.00     0.016 A 
ATOM      9  C   UNL A   1      42.947  25.084  26.363  1.00  0.00     0.016 A 
ATOM     10  C   UNL A   1      41.150  24.856  28.494  1.00  0.00     0.010 A 
ATOM     11  C   UNL A   1      42.765  26.147  27.245  1.00  0.00     0.010 A 
ATOM     12  C   UNL A   1      41.852  26.042  28.308  1.00  0.00    -0.014 A 
BRANCH  12  13
ATOM     13  C   UNL A   1      41.649  27.175  29.230  1.00  0.00     0.031 A 
ATOM     14  C   UNL A   1      42.555  27.301  30.414  1.00  0.00     0.074 A 
ATOM     15  C   UNL A   1      40.644  28.047  29.020  1.00  0.00     0.049 A 
ATOM     16  N   UNL A   1      42.410  28.028  31.487  1.00  0.00    -0.248 NA
ATOM     17  C   UNL A   1      43.775  26.476  30.398  1.00  0.00     0.031 C 
ATOM     18  C   UNL A   1      39.747  28.051  27.860  1.00  0.00     0.029 A 
ATOM     19  N   UNL A   1      40.198  29.095  29.784  1.00  0.00    -0.354 N 
ATOM     20  C   UNL A   1      43.477  27.690  32.307  1.00  0.00     0.074 A 
ATOM     21  C   UNL A   1      44.272  26.710  31.604  1.00  0.00     0.031 C 
ATOM     22  C   UNL A   1      38.870  29.058  27.984  1.00  0.00     0.029 A 
ATOM     23  C   UNL A   1      39.079  29.706  29.269  1.00  0.00     0.049 A 
ATOM     24  H   UNL A   1      40.637  29.381  30.617  1.00  0.00     0.167 HD
ATOM     25  C   UNL A   1      43.741  28.149  33.551  1.00  0.00     0.031 A 
ATOM     26  C   UNL A   1      38.269  30.636  29.809  1.00  0.00     0.031 A 
ATOM     27  C   UNL A   1      42.943  29.145  34.210  1.00  0.00     0.049 A 
ATOM     28  C   UNL A   1      38.566  31.099  31.207  1.00  0.00     0.074 A 
ATOM     29  C   UNL A   1      43.118  29.702  35.462  1.00  0.00     0.029 A 
ATOM     30  N   UNL A   1      41.814  29.734  33.657  1.00  0.00    -0.354 N 
ATOM     31  N   UNL A   1      39.560  30.759  31.993  1.00  0.00    -0.248 NA
ATOM     32  C   UNL A   1      37.616  32.044  31.806  1.00  0.00     0.031 C 
ATOM     33  C   UNL A   1      42.064  30.594  35.687  1.00  0.00     0.029 A 
ATOM     34  C   UNL A   1      41.262  30.627  34.556  1.00  0.00     0.049 A 
ATOM     35  H   UNL A   1      41.460  29.544  32.759  1.00  0.00     0.167 HD
ATOM     36  C   UNL A   1      39.356  31.445  33.180  1.00  0.00     0.074 A 
ATOM     37  C   UNL A   1      38.161  32.247  32.997  1.00  0.00     0.031 C 
ATOM     38  C   UNL A   1      40.074  31.406  34.327  1.00  0.00     0.031 A 
BRANCH  25  39
ATOM     39  C   UNL A   1      44.886  27.524  34.291  1.00  0.00    -0.014 A 
ATOM     40  C   UNL A   1      46.182  28.059  34.243  1.00  0.00     0.009 A 
ATOM     41  C   UNL A   1      44.653  26.376  35.065  1.00  0.00     0.009 A 
ATOM     42  C   UNL A   1      47.226  27.440  34.934  1.00  0.00     0.001 A 
ATOM     43  C   UNL A   1      45.693  25.773  35.774  1.00  0.00     0.001 A 
ATOM     44  C   UNL A   1      46.980  26.301  35.701  1.00  0.00     0.000 A 
ENDBRANCH  25  39
BRANCH  26  45
ATOM     45  C   UNL A   1      37.063  31.109  29.076  1.00  0.00    -0.014 A 
ATOM     46  C   UNL A   1      36.020  30.226  28.763  1.00  0.00     0.009 A 
ATOM     47  C   UNL A   1      36.953  32.450  28.670  1.00  0.00     0.009 A 
ATOM     48  C   UNL A   1      34.907  30.668  28.039  1.00  0.00     0.001 A 
ATOM     49  C   UNL A   1      35.825  32.898  27.979  1.00  0.00     0.001 A 
ATOM     50  C   UNL A   1      34.810  32.004  27.652  1.00  0.00     0.000 A 
ENDBRANCH  26  45
BRANCH  38  51
ATOM     51  C   UNL A   1      39.591  32.265  35.456  1.00  0.00    -0.014 A 
ATOM     52  C   UNL A   1      39.927  33.625  35.520  1.00  0.00     0.009 A 
ATOM     53  C   UNL A   1      38.739  31.718  36.429  1.00  0.00     0.009 A 
ATOM     54  C   UNL A   1      39.434  34.420  36.554  1.00  0.00     0.001 A 
ATOM     55  C   UNL A   1      38.227  32.523  37.445  1.00  0.00     0.001 A 
ATOM     56  C   UNL A   1      38.579  33.870  37.510  1.00  0.00     0.000 A 
ENDBRANCH  38  51
ENDBRANCH  12  13
ENDBRANCH   5   7
ENDBRANCH   4   5
ENDBRANCH   3   4
ENDBRANCH   2   3
ENDBRANCH   1   2
BRANCH   1  57
ATOM     57  C   UNL A   1      37.889  21.840  25.832  1.00  0.00     0.202 C 
BRANCH  57  58
ATOM     58  C   UNL A   1      37.385  21.278  24.527  1.00  0.00     0.261 C 
BRANCH  58  59
ATOM     59  O   UNL A   1      36.043  21.770  24.443  1.00  0.00    -0.458 OA
BRANCH  59  60
ATOM     60  C   UNL A   1      35.840  22.633  23.443  1.00  0.00     0.359 C 
ATOM     61  O   UNL A   1      36.701  23.201  22.777  1.00  0.00    -0.244 OA
BRANCH  60  62
ATOM     62  C   UNL A   1      34.409  22.927  23.379  1.00  0.00     0.179 A 
ATOM     63  N   UNL A   1      34.136  23.774  22.329  1.00  0.00    -0.245 NA
ATOM     64  C   UNL A   1      33.433  22.491  24.269  1.00  0.00     0.161 A 
ATOM     65  C   UNL A   1      32.873  24.218  22.222  1.00  0.00     0.132 A 
ATOM     66  N   UNL A   1      32.138  22.930  24.088  1.00  0.00    -0.247 NA
ATOM     67  C   UNL A   1      31.889  23.801  23.087  1.00  0.00     0.132 A 
BRANCH  64  68
ATOM     68  C   UNL A   1      33.545  21.832  25.608  1.00  0.00     0.276 C 
ATOM     69  O   UNL A   1      33.636  22.609  26.577  1.00  0.00    -0.267 OA
ATOM     70  N   UNL A   1      33.477  20.516  25.994  1.00  0.00    -0.320 N 
ATOM     71  H   UNL A   1      33.336  20.454  26.965  1.00  0.00     0.170 HD
BRANCH  70  72
ATOM     72  C   UNL A   1      33.547  19.241  25.433  1.00  0.00     0.045 A 
ATOM     73  C   UNL A   1      34.502  18.829  24.513  1.00  0.00     0.030 A 
ATOM     74  C   UNL A   1      32.628  18.297  25.932  1.00  0.00     0.076 A 
ATOM     75  C   UNL A   1      34.707  17.466  24.250  1.00  0.00     0.053 A 
ATOM     76  C   UNL A   1      32.803  16.968  25.607  1.00  0.00     0.167 A 
ATOM     77  C   UNL A   1      33.847  16.558  24.820  1.00  0.00     0.165 A 
ATOM     78  O   UNL A   1      32.033  15.930  26.029  1.00  0.00    -0.454 OA
ATOM     79  O   UNL A   1      33.891  15.208  24.675  1.00  0.00    -0.454 OA
ATOM     80  C   UNL A   1      32.685  14.825  25.367  1.00  0.00     0.468 C 
ENDBRANCH  70  72
ENDBRANCH  64  68
ENDBRANCH  60  62
ENDBRANCH  59  60
ENDBRANCH  58  59
ENDBRANCH  57  58
ENDBRANCH   1  57
TORSDOF 16
ENDMDL
MODEL 2
REMARK VINA RESULT:     -11.3      4.153      8.636
REMARK SMILES O=C(OCCOCCOC(=O)c1nccnc1C(=O)Nc1ccc2c(c1)OCO2)c1ccc(-c2c3nc(c(-c4ccccc4)c4ccc([nH]4)c(-c4ccccc4)c4nc(c(-c5ccccc5)c5ccc2[nH]5)C=C4)C=C3)cc1
REMARK SMILES IDX 6 1 5 2 4 3 3 4 2 5 1 6 30 7 31 8 77 9 32 10 76 11 33 12
REMARK SMILES IDX 34 13 35 14 70 15 36 16 75 17 69 18 71 19 37 20 74 21 68 22
REMARK SMILES IDX 67 23 38 25 60 26 45 27 59 28 46 29 49 30 58 31 72 32 47 33
REMARK SMILES IDX 48 34 57 36 73 37 50 38 39 39 40 40 44 41 41 42 43 43 42 44
REMARK SMILES IDX 61 45 62 46 66 47 63 48 65 49 64 50 51 51 52 52 56 53 53 54
REMARK SMILES IDX 55 55 54 56 7 57 8 58 9 59 10 60 11 61 12 62 13 63 17 64
REMARK SMILES IDX 14 65 16 66 15 67 18 68 19 69 20 70 21 72 22 73 26 74 23 75
REMARK SMILES IDX 25 76 24 77 27 78 29 79 28 80
REMARK H PARENT 71 24 49 35 20 71
REMARK Flexibility Score: inf
ROOT
ATOM      1  O   UNL A   1      31.976  29.430  25.747  1.00  0.00    -0.374 OA
ENDROOT
BRANCH   1   2
ATOM      2  C   UNL A   1      31.827  30.458  26.720  1.00  0.00     0.202 C 
BRANCH   2   3
ATOM      3  C   UNL A   1      33.077  31.206  27.202  1.00  0.00     0.261 C 
BRANCH   3   4
ATOM      4  O   UNL A   1      33.991  30.448  28.013  1.00  0.00    -0.460 OA
BRANCH   4   5
ATOM      5  C   UNL A   1      35.033  30.899  28.743  1.00  0.00     0.338 C 
ATOM      6  O   UNL A   1      34.907  31.882  29.467  1.00  0.00    -0.246 OA
BRANCH   5   7
ATOM      7  C   UNL A   1      36.332  30.204  28.726  1.00  0.00     0.060 A 
ATOM      8  C   UNL A   1      37.205  30.255  27.639  1.00  0.00     0.016 A 
ATOM      9  C   UNL A   1      36.774  29.645  29.925  1.00  0.00     0.016 A 
ATOM     10  C   UNL A   1      38.449  29.647  27.684  1.00  0.00     0.010 A 
ATOM     11  C   UNL A   1      38.067  29.133  30.014  1.00  0.00     0.010 A 
ATOM     12  C   UNL A   1      38.905  29.118  28.887  1.00  0.00    -0.014 A 
BRANCH  12  13
ATOM     13  C   UNL A   1      40.268  28.560  28.980  1.00  0.00     0.031 A 
ATOM     14  C   UNL A   1      41.394  29.482  29.325  1.00  0.00     0.074 A 
ATOM     15  C   UNL A   1      40.484  27.256  28.721  1.00  0.00     0.049 A 
ATOM     16  N   UNL A   1      42.678  29.295  29.201  1.00  0.00    -0.248 NA
ATOM     17  C   UNL A   1      41.020  30.804  29.858  1.00  0.00     0.031 C 
ATOM     18  C   UNL A   1      39.446  26.259  28.440  1.00  0.00     0.029 A 
ATOM     19  N   UNL A   1      41.654  26.545  28.637  1.00  0.00    -0.354 N 
ATOM     20  C   UNL A   1      43.263  30.500  29.564  1.00  0.00     0.074 A 
ATOM     21  C   UNL A   1      42.198  31.406  29.933  1.00  0.00     0.031 C 
ATOM     22  C   UNL A   1      40.024  25.067  28.230  1.00  0.00     0.029 A 
ATOM     23  C   UNL A   1      41.469  25.235  28.264  1.00  0.00     0.049 A 
ATOM     24  H   UNL A   1      42.537  26.935  28.827  1.00  0.00     0.167 HD
ATOM     25  C   UNL A   1      44.576  30.816  29.559  1.00  0.00     0.031 A 
ATOM     26  C   UNL A   1      42.367  24.294  27.918  1.00  0.00     0.031 A 
ATOM     27  C   UNL A   1      45.611  29.882  29.213  1.00  0.00     0.049 A 
ATOM     28  C   UNL A   1      43.817  24.685  27.885  1.00  0.00     0.074 A 
ATOM     29  C   UNL A   1      46.978  30.079  29.186  1.00  0.00     0.029 A 
ATOM     30  N   UNL A   1      45.381  28.566  28.834  1.00  0.00    -0.354 N 
ATOM     31  N   UNL A   1      44.367  25.834  28.202  1.00  0.00    -0.248 NA
ATOM     32  C   UNL A   1      44.766  23.669  27.414  1.00  0.00     0.031 C 
ATOM     33  C   UNL A   1      47.574  28.893  28.742  1.00  0.00     0.029 A 
ATOM     34  C   UNL A   1      46.581  27.946  28.540  1.00  0.00     0.049 A 
ATOM     35  H   UNL A   1      44.496  28.139  28.783  1.00  0.00     0.167 HD
ATOM     36  C   UNL A   1      45.724  25.679  27.970  1.00  0.00     0.074 A 
ATOM     37  C   UNL A   1      45.918  24.316  27.517  1.00  0.00     0.031 C 
ATOM     38  C   UNL A   1      46.724  26.585  28.098  1.00  0.00     0.031 A 
BRANCH  25  39
ATOM     39  C   UNL A   1      44.949  32.238  29.864  1.00  0.00    -0.014 A 
ATOM     40  C   UNL A   1      44.844  33.255  28.905  1.00  0.00     0.009 A 
ATOM     41  C   UNL A   1      45.405  32.561  31.152  1.00  0.00     0.009 A 
ATOM     42  C   UNL A   1      45.214  34.564  29.223  1.00  0.00     0.001 A 
ATOM     43  C   UNL A   1      45.752  33.874  31.474  1.00  0.00     0.001 A 
ATOM     44  C   UNL A   1      45.664  34.873  30.507  1.00  0.00     0.000 A 
ENDBRANCH  25  39
BRANCH  26  45
ATOM     45  C   UNL A   1      41.920  22.941  27.483  1.00  0.00    -0.014 A 
ATOM     46  C   UNL A   1      41.554  22.698  26.151  1.00  0.00     0.009 A 
ATOM     47  C   UNL A   1      41.839  21.885  28.406  1.00  0.00     0.009 A 
ATOM     48  C   UNL A   1      41.097  21.435  25.760  1.00  0.00     0.001 A 
ATOM     49  C   UNL A   1      41.417  20.616  28.006  1.00  0.00     0.001 A 
ATOM     50  C   UNL A   1      41.033  20.395  26.686  1.00  0.00     0.000 A 
ENDBRANCH  26  45
BRANCH  38  51
ATOM     51  C   UNL A   1      48.106  26.117  27.757  1.00  0.00    -0.014 A 
ATOM     52  C   UNL A   1      48.897  25.458  28.709  1.00  0.00     0.009 A 
ATOM     53  C   UNL A   1      48.593  26.283  26.451  1.00  0.00     0.009 A 
ATOM     54  C   UNL A   1      50.165  24.991  28.363  1.00  0.00     0.001 A 
ATOM     55  C   UNL A   1      49.850  25.791  26.103  1.00  0.00     0.001 A 
ATOM     56  C   UNL A   1      50.636  25.151  27.060  1.00  0.00     0.000 A 
ENDBRANCH  38  51
ENDBRANCH  12  13
ENDBRANCH   5   7
ENDBRANCH   4   5
ENDBRANCH   3   4
ENDBRANCH   2   3
ENDBRANCH   1   2
BRANCH   1  57
ATOM     57  C   UNL A   1      33.183  29.417  24.981  1.00  0.00     0.202 C 
BRANCH  57  58
ATOM     58  C   UNL A   1      33.892  28.116  25.256  1.00  0.00     0.261 C 
BRANCH  58  59
ATOM     59  O   UNL A   1      33.988  27.504  23.966  1.00  0.00    -0.458 OA
BRANCH  59  60
ATOM     60  C   UNL A   1      33.390  26.312  23.881  1.00  0.00     0.359 C 
ATOM     61  O   UNL A   1      33.941  25.222  23.753  1.00  0.00    -0.244 OA
BRANCH  60  62
ATOM     62  C   UNL A   1      31.947  26.530  23.795  1.00  0.00     0.179 A 
ATOM     63  N   UNL A   1      31.629  27.209  22.640  1.00  0.00    -0.245 NA
ATOM     64  C   UNL A   1      30.998  26.181  24.750  1.00  0.00     0.161 A 
ATOM     65  C   UNL A   1      30.346  27.577  22.489  1.00  0.00     0.132 A 
ATOM     66  N   UNL A   1      29.683  26.531  24.525  1.00  0.00    -0.247 NA
ATOM     67  C   UNL A   1      29.387  27.242  23.416  1.00  0.00     0.132 A 
BRANCH  64  68
ATOM     68  C   UNL A   1      31.148  25.721  26.166  1.00  0.00     0.276 C 
ATOM     69  O   UNL A   1      30.828  26.556  27.032  1.00  0.00    -0.267 OA
ATOM     70  N   UNL A   1      31.493  24.507  26.708  1.00  0.00    -0.320 N 
ATOM     71  H   UNL A   1      31.250  24.479  27.661  1.00  0.00     0.170 HD
BRANCH  70  72
ATOM     72  C   UNL A   1      32.080  23.302  26.323  1.00  0.00     0.045 A 
ATOM     73  C   UNL A   1      31.426  22.277  25.653  1.00  0.00     0.030 A 
ATOM     74  C   UNL A   1      33.465  23.190  26.556  1.00  0.00     0.076 A 
ATOM     75  C   UNL A   1      32.148  21.256  25.018  1.00  0.00     0.053 A 
ATOM     76  C   UNL A   1      34.150  22.140  25.980  1.00  0.00     0.167 A 
ATOM     77  C   UNL A   1      33.511  21.220  25.192  1.00  0.00     0.165 A 
ATOM     78  O   UNL A   1      35.485  21.904  26.076  1.00  0.00    -0.454 OA
ATOM     79  O   UNL A   1      34.366  20.308  24.658  1.00  0.00    -0.454 OA
ATOM     80  C   UNL A   1      35.600  20.693  25.297  1.00  0.00     0.468 C 
ENDBRANCH  70  72
ENDBRANCH  64  68
ENDBRANCH  60  62
ENDBRANCH  59  60
ENDBRANCH  58  59
ENDBRANCH  57  58
ENDBRANCH   1  57
TORSDOF 16
ENDMDL
MODEL 3
REMARK VINA RESULT:     -11.2      4.538      8.677
REMARK SMILES O=C(OCCOCCOC(=O)c1nccnc1C(=O)Nc1ccc2c(c1)OCO2)c1ccc(-c2c3nc(c(-c4ccccc4)c4ccc([nH]4)c(-c4ccccc4)c4nc(c(-c5ccccc5)c5ccc2[nH]5)C=C4)C=C3)cc1
REMARK SMILES IDX 6 1 5 2 4 3 3 4 2 5 1 6 30 7 31 8 77 9 32 10 76 11 33 12
REMARK SMILES IDX 34 13 35 14 70 15 36 16 75 17 69 18 71 19 37 20 74 21 68 22
REMARK SMILES IDX 67 23 38 25 60 26 45 27 59 28 46 29 49 30 58 31 72 32 47 33
REMARK SMILES IDX 48 34 57 36 73 37 50 38 39 39 40 40 44 41 41 42 43 43 42 44
REMARK SMILES IDX 61 45 62 46 66 47 63 48 65 49 64 50 51 51 52 52 56 53 53 54
REMARK SMILES IDX 55 55 54 56 7 57 8 58 9 59 10 60 11 61 12 62 13 63 17 64
REMARK SMILES IDX 14 65 16 66 15 67 18 68 19 69 20 70 21 72 22 73 26 74 23 75
REMARK SMILES IDX 25 76 24 77 27 78 29 79 28 80
REMARK H PARENT 71 24 49 35 20 71
REMARK Flexibility Score: inf
ROOT
ATOM      1  O   UNL A   1      34.190  22.682  23.121  1.00  0.00    -0.374 OA
ENDROOT
BRANCH   1   2
ATOM      2  C   UNL A   1      35.122  22.693  24.197  1.00  0.00     0.202 C 
BRANCH   2   3
ATOM      3  C   UNL A   1      35.764  21.369  24.631  1.00  0.00     0.261 C 
BRANCH   3   4
ATOM      4  O   UNL A   1      36.657  21.440  25.756  1.00  0.00    -0.460 OA
BRANCH   4   5
ATOM      5  C   UNL A   1      38.006  21.424  25.755  1.00  0.00     0.338 C 
ATOM      6  O   UNL A   1      38.617  20.501  25.225  1.00  0.00    -0.246 OA
BRANCH   5   7
ATOM      7  C   UNL A   1      38.781  22.529  26.348  1.00  0.00     0.060 A 
ATOM      8  C   UNL A   1      40.018  22.340  26.965  1.00  0.00     0.016 A 
ATOM      9  C   UNL A   1      38.339  23.827  26.097  1.00  0.00     0.016 A 
ATOM     10  C   UNL A   1      40.751  23.410  27.451  1.00  0.00     0.010 A 
ATOM     11  C   UNL A   1      39.126  24.911  26.480  1.00  0.00     0.010 A 
ATOM     12  C   UNL A   1      40.330  24.707  27.173  1.00  0.00    -0.014 A 
BRANCH  12  13
ATOM     13  C   UNL A   1      41.153  25.857  27.592  1.00  0.00     0.031 A 
ATOM     14  C   UNL A   1      40.553  26.862  28.522  1.00  0.00     0.074 A 
ATOM     15  C   UNL A   1      42.403  26.006  27.111  1.00  0.00     0.049 A 
ATOM     16  N   UNL A   1      40.963  28.066  28.809  1.00  0.00    -0.248 NA
ATOM     17  C   UNL A   1      39.306  26.467  29.201  1.00  0.00     0.031 C 
ATOM     18  C   UNL A   1      43.106  25.047  26.251  1.00  0.00     0.029 A 
ATOM     19  N   UNL A   1      43.303  27.029  27.265  1.00  0.00    -0.354 N 
ATOM     20  C   UNL A   1      39.987  28.601  29.638  1.00  0.00     0.074 A 
ATOM     21  C   UNL A   1      38.974  27.587  29.825  1.00  0.00     0.031 C 
ATOM     22  C   UNL A   1      44.327  25.522  25.968  1.00  0.00     0.029 A 
ATOM     23  C   UNL A   1      44.458  26.853  26.541  1.00  0.00     0.049 A 
ATOM     24  H   UNL A   1      43.137  27.811  27.840  1.00  0.00     0.167 HD
ATOM     25  C   UNL A   1      39.941  29.844  30.166  1.00  0.00     0.031 A 
ATOM     26  C   UNL A   1      45.476  27.701  26.307  1.00  0.00     0.031 A 
ATOM     27  C   UNL A   1      40.980  30.818  29.981  1.00  0.00     0.049 A 
ATOM     28  C   UNL A   1      45.380  29.088  26.876  1.00  0.00     0.074 A 
ATOM     29  C   UNL A   1      41.056  32.105  30.479  1.00  0.00     0.029 A 
ATOM     30  N   UNL A   1      42.130  30.602  29.234  1.00  0.00    -0.354 N 
ATOM     31  N   UNL A   1      44.442  29.602  27.637  1.00  0.00    -0.248 NA
ATOM     32  C   UNL A   1      46.457  30.022  26.528  1.00  0.00     0.031 C 
ATOM     33  C   UNL A   1      42.231  32.685  29.991  1.00  0.00     0.029 A 
ATOM     34  C   UNL A   1      42.909  31.744  29.231  1.00  0.00     0.049 A 
ATOM     35  H   UNL A   1      42.357  29.762  28.776  1.00  0.00     0.167 HD
ATOM     36  C   UNL A   1      44.815  30.918  27.859  1.00  0.00     0.074 A 
ATOM     37  C   UNL A   1      46.081  31.113  27.180  1.00  0.00     0.031 C 
ATOM     38  C   UNL A   1      44.165  31.889  28.544  1.00  0.00     0.031 A 
BRANCH  25  39
ATOM     39  C   UNL A   1      38.704  30.230  30.922  1.00  0.00    -0.014 A 
ATOM     40  C   UNL A   1      38.658  30.224  32.323  1.00  0.00     0.009 A 
ATOM     41  C   UNL A   1      37.561  30.621  30.206  1.00  0.00     0.009 A 
ATOM     42  C   UNL A   1      37.482  30.576  32.992  1.00  0.00     0.001 A 
ATOM     43  C   UNL A   1      36.396  30.996  30.875  1.00  0.00     0.001 A 
ATOM     44  C   UNL A   1      36.355  30.965  32.268  1.00  0.00     0.000 A 
ENDBRANCH  25  39
BRANCH  26  45
ATOM     45  C   UNL A   1      46.608  27.303  25.425  1.00  0.00    -0.014 A 
ATOM     46  C   UNL A   1      47.596  26.417  25.879  1.00  0.00     0.009 A 
ATOM     47  C   UNL A   1      46.717  27.821  24.124  1.00  0.00     0.009 A 
ATOM     48  C   UNL A   1      48.677  26.079  25.059  1.00  0.00     0.001 A 
ATOM     49  C   UNL A   1      47.778  27.454  23.294  1.00  0.00     0.001 A 
ATOM     50  C   UNL A   1      48.764  26.594  23.766  1.00  0.00     0.000 A 
ENDBRANCH  26  45
BRANCH  38  51
ATOM     51  C   UNL A   1      44.825  33.233  28.599  1.00  0.00    -0.014 A 
ATOM     52  C   UNL A   1      44.511  34.227  27.661  1.00  0.00     0.009 A 
ATOM     53  C   UNL A   1      45.722  33.524  29.639  1.00  0.00     0.009 A 
ATOM     54  C   UNL A   1      45.102  35.487  27.751  1.00  0.00     0.001 A 
ATOM     55  C   UNL A   1      46.289  34.793  29.741  1.00  0.00     0.001 A 
ATOM     56  C   UNL A   1      45.984  35.771  28.795  1.00  0.00     0.000 A 
ENDBRANCH  38  51
ENDBRANCH  12  13
ENDBRANCH   5   7
ENDBRANCH   4   5
ENDBRANCH   3   4
ENDBRANCH   2   3
ENDBRANCH   1   2
BRANCH   1  57
ATOM     57  C   UNL A   1      33.480  23.893  22.852  1.00  0.00     0.202 C 
BRANCH  57  58
ATOM     58  C   UNL A   1      32.203  23.871  23.652  1.00  0.00     0.261 C 
BRANCH  58  59
ATOM     59  O   UNL A   1      32.094  25.208  24.152  1.00  0.00    -0.458 OA
BRANCH  59  60
ATOM     60  C   UNL A   1      32.812  25.439  25.255  1.00  0.00     0.359 C 
ATOM     61  O   UNL A   1      33.056  24.638  26.153  1.00  0.00    -0.244 OA
BRANCH  60  62
ATOM     62  C   UNL A   1      33.125  26.866  25.305  1.00  0.00     0.179 A 
ATOM     63  N   UNL A   1      33.268  27.285  26.608  1.00  0.00    -0.245 NA
ATOM     64  C   UNL A   1      33.209  27.734  24.221  1.00  0.00     0.161 A 
ATOM     65  C   UNL A   1      33.445  28.602  26.805  1.00  0.00     0.132 A 
ATOM     66  N   UNL A   1      33.447  29.070  24.468  1.00  0.00    -0.247 NA
ATOM     67  C   UNL A   1      33.534  29.481  25.751  1.00  0.00     0.132 A 
BRANCH  64  68
ATOM     68  C   UNL A   1      32.808  27.564  22.789  1.00  0.00     0.276 C 
ATOM     69  O   UNL A   1      33.693  27.105  22.041  1.00  0.00    -0.267 OA
ATOM     70  N   UNL A   1      31.609  27.734  22.143  1.00  0.00    -0.320 N 
ATOM     71  H   UNL A   1      31.633  27.296  21.262  1.00  0.00     0.170 HD
BRANCH  70  72
ATOM     72  C   UNL A   1      30.369  28.337  22.350  1.00  0.00     0.045 A 
ATOM     73  C   UNL A   1      29.280  27.725  22.957  1.00  0.00     0.030 A 
ATOM     74  C   UNL A   1      30.278  29.698  21.999  1.00  0.00     0.076 A 
ATOM     75  C   UNL A   1      28.195  28.483  23.422  1.00  0.00     0.053 A 
ATOM     76  C   UNL A   1      29.170  30.413  22.405  1.00  0.00     0.167 A 
ATOM     77  C   UNL A   1      28.173  29.828  23.139  1.00  0.00     0.165 A 
ATOM     78  O   UNL A   1      28.943  31.735  22.181  1.00  0.00    -0.454 OA
ATOM     79  O   UNL A   1      27.208  30.711  23.504  1.00  0.00    -0.454 OA
ATOM     80  C   UNL A   1      27.655  31.896  22.815  1.00  0.00     0.468 C 
ENDBRANCH  70  72
ENDBRANCH  64  68
ENDBRANCH  60  62
ENDBRANCH  59  60
ENDBRANCH  58  59
ENDBRANCH  57  58
ENDBRANCH   1  57
TORSDOF 16
ENDMDL
