MODEL 1
REMARK VINA RESULT:     -11.1      0.000      0.000
REMARK SMILES NC(=O)c1cc(NC(=O)/C=C\C(=O)OCCOCCOC(=O)c2ccc(-c3c4nc(c(-c5ccccc5)c5ccc([nH]5)c(-c5ccccc5)c5nc(c(-c6ccccc6)c6ccc3[nH]6)C=C5)C=C4)cc2)ccc1N1CCOCC1
REMARK SMILES IDX 16 1 15 2 14 3 12 4 13 5 11 6 10 7 8 8 7 9 9 11 6 12 4 13
REMARK SMILES IDX 5 14 73 15 72 16 71 17 2 18 1 19 3 22 74 23 75 24 79 25
REMARK SMILES IDX 76 26 78 27 77 28 17 29 18 30 19 31 20 32 21 33 22 34 23 35
REMARK SMILES IDX 24 36 70 37 25 38 69 39 26 40 27 41 28 42 63 43 29 44 68 45
REMARK SMILES IDX 62 46 64 47 30 48 67 49 61 50 60 51 31 53 53 54 38 55 52 56
REMARK SMILES IDX 39 57 42 58 51 59 65 60 40 61 41 62 50 64 66 65 43 66 32 67
REMARK SMILES IDX 33 68 37 69 34 70 36 71 35 72 54 73 55 74 59 75 56 76 58 77
REMARK SMILES IDX 57 78 44 79 45 80 49 81 46 82 48 83 47 84
REMARK H PARENT 7 10 1 20 1 21 64 52 42 63
REMARK Flexibility Score: inf
ROOT
ATOM      1  C   UNL A   1      39.654  21.575  26.228  1.00  0.00     0.202 C 
ENDROOT
BRANCH   1   2
ATOM      2  C   UNL A   1      38.356  21.640  25.407  1.00  0.00     0.261 C 
BRANCH   2   3
ATOM      3  O   UNL A   1      37.006  21.804  25.857  1.00  0.00    -0.460 OA
BRANCH   3   4
ATOM      4  C   UNL A   1      36.261  22.885  25.596  1.00  0.00     0.331 C 
ATOM      5  O   UNL A   1      36.493  23.758  24.786  1.00  0.00    -0.247 OA
BRANCH   4   6
ATOM      6  C   UNL A   1      35.035  22.891  26.419  1.00  0.00     0.099 C 
ATOM      7  C   UNL A   1      33.946  22.128  26.231  1.00  0.00     0.079 C 
BRANCH   7   8
ATOM      8  C   UNL A   1      33.631  21.185  25.131  1.00  0.00     0.248 C 
ATOM      9  N   UNL A   1      32.844  21.489  24.057  1.00  0.00    -0.322 N 
ATOM     10  H   UNL A   1      32.762  20.753  23.408  1.00  0.00     0.170 HD
ATOM     11  O   UNL A   1      34.126  20.057  25.200  1.00  0.00    -0.270 OA
BRANCH   9  12
ATOM     12  C   UNL A   1      32.124  22.643  23.692  1.00  0.00     0.042 A 
ATOM     13  C   UNL A   1      32.055  24.796  22.596  1.00  0.00     0.064 A 
ATOM     14  C   UNL A   1      32.442  23.442  22.607  1.00  0.00     0.042 A 
ATOM     15  C   UNL A   1      31.283  25.352  23.645  1.00  0.00     0.050 A 
ATOM     16  C   UNL A   1      30.771  24.448  24.586  1.00  0.00     0.029 A 
ATOM     17  C   UNL A   1      31.152  23.095  24.588  1.00  0.00     0.028 A 
BRANCH  13  18
ATOM     18  C   UNL A   1      32.700  25.603  21.525  1.00  0.00     0.250 C 
ATOM     19  N   UNL A   1      31.944  25.870  20.422  1.00  0.00    -0.366 N 
ATOM     20  H   UNL A   1      32.323  26.399  19.683  1.00  0.00     0.159 HD
ATOM     21  H   UNL A   1      31.021  25.533  20.365  1.00  0.00     0.159 HD
ATOM     22  O   UNL A   1      33.816  26.085  21.675  1.00  0.00    -0.269 OA
ENDBRANCH  13  18
BRANCH  15  23
ATOM     23  N   UNL A   1      31.054  26.712  23.758  1.00  0.00    -0.366 N 
ATOM     24  C   UNL A   1      29.772  27.252  23.294  1.00  0.00     0.145 C 
ATOM     25  C   UNL A   1      31.760  27.583  24.707  1.00  0.00     0.145 C 
ATOM     26  C   UNL A   1      29.984  28.684  22.773  1.00  0.00     0.181 C 
ATOM     27  C   UNL A   1      31.880  29.003  24.134  1.00  0.00     0.181 C 
ATOM     28  O   UNL A   1      30.599  29.528  23.764  1.00  0.00    -0.378 OA
ENDBRANCH  15  23
ENDBRANCH   9  12
ENDBRANCH   7   8
ENDBRANCH   4   6
ENDBRANCH   3   4
ENDBRANCH   2   3
ENDBRANCH   1   2
BRANCH   1  29
ATOM     29  O   UNL A   1      40.744  20.689  26.110  1.00  0.00    -0.374 OA
BRANCH  29  30
ATOM     30  C   UNL A   1      41.961  20.972  26.756  1.00  0.00     0.202 C 
BRANCH  30  31
ATOM     31  C   UNL A   1      43.052  21.510  25.823  1.00  0.00     0.261 C 
BRANCH  31  32
ATOM     32  O   UNL A   1      42.651  22.620  24.996  1.00  0.00    -0.460 OA
BRANCH  32  33
ATOM     33  C   UNL A   1      43.443  23.720  25.066  1.00  0.00     0.338 C 
ATOM     34  O   UNL A   1      44.506  23.900  24.501  1.00  0.00    -0.246 OA
BRANCH  33  35
ATOM     35  C   UNL A   1      42.759  24.780  25.847  1.00  0.00     0.060 A 
ATOM     36  C   UNL A   1      43.389  26.028  25.980  1.00  0.00     0.016 A 
ATOM     37  C   UNL A   1      41.527  24.550  26.462  1.00  0.00     0.016 A 
ATOM     38  C   UNL A   1      42.815  27.032  26.762  1.00  0.00     0.010 A 
ATOM     39  C   UNL A   1      40.975  25.538  27.286  1.00  0.00     0.010 A 
ATOM     40  C   UNL A   1      41.640  26.765  27.475  1.00  0.00    -0.014 A 
BRANCH  40  41
ATOM     41  C   UNL A   1      41.276  27.640  28.617  1.00  0.00     0.031 A 
ATOM     42  C   UNL A   1      42.104  27.532  29.872  1.00  0.00     0.074 A 
ATOM     43  C   UNL A   1      40.275  28.535  28.548  1.00  0.00     0.049 A 
ATOM     44  N   UNL A   1      41.960  28.138  31.022  1.00  0.00    -0.248 NA
ATOM     45  C   UNL A   1      43.252  26.612  29.815  1.00  0.00     0.031 C 
ATOM     46  C   UNL A   1      39.449  28.799  27.373  1.00  0.00     0.029 A 
ATOM     47  N   UNL A   1      39.784  29.389  29.506  1.00  0.00    -0.354 N 
ATOM     48  C   UNL A   1      42.989  27.662  31.827  1.00  0.00     0.074 A 
ATOM     49  C   UNL A   1      43.733  26.701  31.044  1.00  0.00     0.031 C 
ATOM     50  C   UNL A   1      38.542  29.742  27.684  1.00  0.00     0.029 A 
ATOM     51  C   UNL A   1      38.696  30.116  29.088  1.00  0.00     0.049 A 
ATOM     52  H   UNL A   1      40.175  29.472  30.405  1.00  0.00     0.167 HD
ATOM     53  C   UNL A   1      43.288  27.992  33.106  1.00  0.00     0.031 A 
ATOM     54  C   UNL A   1      37.900  30.963  29.774  1.00  0.00     0.031 A 
ATOM     55  C   UNL A   1      42.533  28.927  33.893  1.00  0.00     0.049 A 
ATOM     56  C   UNL A   1      38.185  31.231  31.230  1.00  0.00     0.074 A 
ATOM     57  C   UNL A   1      42.752  29.328  35.199  1.00  0.00     0.029 A 
ATOM     58  N   UNL A   1      41.403  29.597  33.450  1.00  0.00    -0.354 N 
ATOM     59  N   UNL A   1      39.163  30.782  31.980  1.00  0.00    -0.248 NA
ATOM     60  C   UNL A   1      37.256  32.130  31.932  1.00  0.00     0.031 C 
ATOM     61  C   UNL A   1      41.715  30.191  35.568  1.00  0.00     0.029 A 
ATOM     62  C   UNL A   1      40.895  30.385  34.469  1.00  0.00     0.049 A 
ATOM     63  H   UNL A   1      41.020  29.524  32.547  1.00  0.00     0.167 HD
ATOM     64  C   UNL A   1      38.985  31.369  33.229  1.00  0.00     0.074 A 
ATOM     65  C   UNL A   1      37.815  32.216  33.131  1.00  0.00     0.031 C 
ATOM     66  C   UNL A   1      39.728  31.223  34.355  1.00  0.00     0.031 A 
BRANCH  53  67
ATOM     67  C   UNL A   1      44.453  27.285  33.744  1.00  0.00    -0.014 A 
ATOM     68  C   UNL A   1      44.295  26.059  34.412  1.00  0.00     0.009 A 
ATOM     69  C   UNL A   1      45.734  27.854  33.668  1.00  0.00     0.009 A 
ATOM     70  C   UNL A   1      45.388  25.441  35.024  1.00  0.00     0.001 A 
ATOM     71  C   UNL A   1      46.830  27.217  34.251  1.00  0.00     0.001 A 
ATOM     72  C   UNL A   1      46.654  26.018  34.940  1.00  0.00     0.000 A 
ENDBRANCH  53  67
BRANCH  54  73
ATOM     73  C   UNL A   1      36.733  31.598  29.104  1.00  0.00    -0.014 A 
ATOM     74  C   UNL A   1      35.561  30.868  28.858  1.00  0.00     0.009 A 
ATOM     75  C   UNL A   1      36.795  32.936  28.684  1.00  0.00     0.009 A 
ATOM     76  C   UNL A   1      34.484  31.457  28.188  1.00  0.00     0.001 A 
ATOM     77  C   UNL A   1      35.707  33.532  28.042  1.00  0.00     0.001 A 
ATOM     78  C   UNL A   1      34.556  32.789  27.787  1.00  0.00     0.000 A 
ENDBRANCH  54  73
BRANCH  66  79
ATOM     79  C   UNL A   1      39.328  32.031  35.561  1.00  0.00    -0.014 A 
ATOM     80  C   UNL A   1      39.797  33.338  35.761  1.00  0.00     0.009 A 
ATOM     81  C   UNL A   1      38.422  31.487  36.486  1.00  0.00     0.009 A 
ATOM     82  C   UNL A   1      39.395  34.069  36.881  1.00  0.00     0.001 A 
ATOM     83  C   UNL A   1      37.996  32.232  37.586  1.00  0.00     0.001 A 
ATOM     84  C   UNL A   1      38.490  33.518  37.789  1.00  0.00     0.000 A 
ENDBRANCH  66  79
ENDBRANCH  40  41
ENDBRANCH  33  35
ENDBRANCH  32  33
ENDBRANCH  31  32
ENDBRANCH  30  31
ENDBRANCH  29  30
ENDBRANCH   1  29
TORSDOF 18
ENDMDL
MODEL 2
REMARK VINA RESULT:     -10.6      3.569      7.278
REMARK SMILES NC(=O)c1cc(NC(=O)/C=C\C(=O)OCCOCCOC(=O)c2ccc(-c3c4nc(c(-c5ccccc5)c5ccc([nH]5)c(-c5ccccc5)c5nc(c(-c6ccccc6)c6ccc3[nH]6)C=C5)C=C4)cc2)ccc1N1CCOCC1
REMARK SMILES IDX 16 1 15 2 14 3 12 4 13 5 11 6 10 7 8 8 7 9 9 11 6 12 4 13
REMARK SMILES IDX 5 14 73 15 72 16 71 17 2 18 1 19 3 22 74 23 75 24 79 25
REMARK SMILES IDX 76 26 78 27 77 28 17 29 18 30 19 31 20 32 21 33 22 34 23 35
REMARK SMILES IDX 24 36 70 37 25 38 69 39 26 40 27 41 28 42 63 43 29 44 68 45
REMARK SMILES IDX 62 46 64 47 30 48 67 49 61 50 60 51 31 53 53 54 38 55 52 56
REMARK SMILES IDX 39 57 42 58 51 59 65 60 40 61 41 62 50 64 66 65 43 66 32 67
REMARK SMILES IDX 33 68 37 69 34 70 36 71 35 72 54 73 55 74 59 75 56 76 58 77
REMARK SMILES IDX 57 78 44 79 45 80 49 81 46 82 48 83 47 84
REMARK H PARENT 7 10 1 20 1 21 64 52 42 63
REMARK Flexibility Score: inf
ROOT
ATOM      1  C   UNL A   1      36.663  21.475  24.342  1.00  0.00     0.202 C 
ENDROOT
BRANCH   1   2
ATOM      2  C   UNL A   1      35.712  22.601  24.783  1.00  0.00     0.261 C 
BRANCH   2   3
ATOM      3  O   UNL A   1      34.547  22.531  25.613  1.00  0.00    -0.460 OA
BRANCH   3   4
ATOM      4  C   UNL A   1      33.544  23.414  25.562  1.00  0.00     0.331 C 
ATOM      5  O   UNL A   1      33.568  24.574  25.918  1.00  0.00    -0.247 OA
BRANCH   4   6
ATOM      6  C   UNL A   1      32.339  22.810  24.959  1.00  0.00     0.099 C 
ATOM      7  C   UNL A   1      31.065  23.065  25.297  1.00  0.00     0.079 C 
BRANCH   7   8
ATOM      8  C   UNL A   1      30.529  23.904  26.395  1.00  0.00     0.248 C 
ATOM      9  N   UNL A   1      30.217  25.229  26.271  1.00  0.00    -0.322 N 
ATOM     10  H   UNL A   1      29.847  25.624  27.093  1.00  0.00     0.170 HD
ATOM     11  O   UNL A   1      30.352  23.356  27.486  1.00  0.00    -0.270 OA
BRANCH   9  12
ATOM     12  C   UNL A   1      30.318  26.141  25.204  1.00  0.00     0.042 A 
ATOM     13  C   UNL A   1      31.091  28.263  24.342  1.00  0.00     0.064 A 
ATOM     14  C   UNL A   1      31.318  27.091  25.090  1.00  0.00     0.042 A 
ATOM     15  C   UNL A   1      29.879  28.467  23.640  1.00  0.00     0.050 A 
ATOM     16  C   UNL A   1      29.006  27.373  23.574  1.00  0.00     0.029 A 
ATOM     17  C   UNL A   1      29.241  26.201  24.315  1.00  0.00     0.028 A 
BRANCH  13  18
ATOM     18  C   UNL A   1      32.124  29.316  24.536  1.00  0.00     0.250 C 
ATOM     19  N   UNL A   1      33.084  29.417  23.573  1.00  0.00    -0.366 N 
ATOM     20  H   UNL A   1      33.791  30.097  23.653  1.00  0.00     0.159 HD
ATOM     21  H   UNL A   1      33.069  28.810  22.798  1.00  0.00     0.159 HD
ATOM     22  O   UNL A   1      32.053  30.114  25.463  1.00  0.00    -0.269 OA
ENDBRANCH  13  18
BRANCH  15  23
ATOM     23  N   UNL A   1      29.552  29.681  23.061  1.00  0.00    -0.366 N 
ATOM     24  C   UNL A   1      29.279  30.828  23.933  1.00  0.00     0.145 C 
ATOM     25  C   UNL A   1      29.904  30.050  21.683  1.00  0.00     0.145 C 
ATOM     26  C   UNL A   1      28.243  31.742  23.259  1.00  0.00     0.181 C 
ATOM     27  C   UNL A   1      28.850  31.006  21.105  1.00  0.00     0.181 C 
ATOM     28  O   UNL A   1      28.665  32.152  21.945  1.00  0.00    -0.378 OA
ENDBRANCH  15  23
ENDBRANCH   9  12
ENDBRANCH   7   8
ENDBRANCH   4   6
ENDBRANCH   3   4
ENDBRANCH   2   3
ENDBRANCH   1   2
BRANCH   1  29
ATOM     29  O   UNL A   1      37.852  21.020  24.947  1.00  0.00    -0.374 OA
BRANCH  29  30
ATOM     30  C   UNL A   1      38.192  19.656  24.904  1.00  0.00     0.202 C 
BRANCH  30  31
ATOM     31  C   UNL A   1      39.332  19.267  25.851  1.00  0.00     0.261 C 
BRANCH  31  32
ATOM     32  O   UNL A   1      40.649  19.321  25.270  1.00  0.00    -0.460 OA
BRANCH  32  33
ATOM     33  C   UNL A   1      41.674  19.465  26.148  1.00  0.00     0.338 C 
ATOM     34  O   UNL A   1      42.532  18.645  26.420  1.00  0.00    -0.246 OA
BRANCH  33  35
ATOM     35  C   UNL A   1      41.699  20.855  26.665  1.00  0.00     0.060 A 
ATOM     36  C   UNL A   1      41.975  21.900  25.769  1.00  0.00     0.016 A 
ATOM     37  C   UNL A   1      41.479  21.133  28.016  1.00  0.00     0.016 A 
ATOM     38  C   UNL A   1      42.076  23.215  26.224  1.00  0.00     0.010 A 
ATOM     39  C   UNL A   1      41.630  22.445  28.481  1.00  0.00     0.010 A 
ATOM     40  C   UNL A   1      41.973  23.483  27.594  1.00  0.00    -0.014 A 
BRANCH  40  41
ATOM     41  C   UNL A   1      42.504  24.765  28.120  1.00  0.00     0.031 A 
ATOM     42  C   UNL A   1      41.517  25.873  28.385  1.00  0.00     0.074 A 
ATOM     43  C   UNL A   1      43.806  24.946  28.398  1.00  0.00     0.049 A 
ATOM     44  N   UNL A   1      41.726  27.100  28.789  1.00  0.00    -0.248 NA
ATOM     45  C   UNL A   1      40.098  25.546  28.165  1.00  0.00     0.031 C 
ATOM     46  C   UNL A   1      44.852  23.936  28.265  1.00  0.00     0.029 A 
ATOM     47  N   UNL A   1      44.468  26.062  28.850  1.00  0.00    -0.354 N 
ATOM     48  C   UNL A   1      40.470  27.692  28.855  1.00  0.00     0.074 A 
ATOM     49  C   UNL A   1      39.508  26.701  28.429  1.00  0.00     0.031 C 
ATOM     50  C   UNL A   1      46.030  24.483  28.614  1.00  0.00     0.029 A 
ATOM     51  C   UNL A   1      45.827  25.890  28.955  1.00  0.00     0.049 A 
ATOM     52  H   UNL A   1      44.012  26.903  29.078  1.00  0.00     0.167 HD
ATOM     53  C   UNL A   1      40.144  28.950  29.234  1.00  0.00     0.031 A 
ATOM     54  C   UNL A   1      46.795  26.778  29.260  1.00  0.00     0.031 A 
ATOM     55  C   UNL A   1      41.102  29.944  29.632  1.00  0.00     0.049 A 
ATOM     56  C   UNL A   1      46.420  28.205  29.572  1.00  0.00     0.074 A 
ATOM     57  C   UNL A   1      40.874  31.249  30.032  1.00  0.00     0.029 A 
ATOM     58  N   UNL A   1      42.473  29.747  29.667  1.00  0.00    -0.354 N 
ATOM     59  N   UNL A   1      45.230  28.754  29.639  1.00  0.00    -0.248 NA
ATOM     60  C   UNL A   1      47.524  29.134  29.855  1.00  0.00     0.031 C 
ATOM     61  C   UNL A   1      42.113  31.861  30.245  1.00  0.00     0.029 A 
ATOM     62  C   UNL A   1      43.107  30.916  30.051  1.00  0.00     0.049 A 
ATOM     63  H   UNL A   1      42.928  28.901  29.452  1.00  0.00     0.167 HD
ATOM     64  C   UNL A   1      45.442  30.080  30.003  1.00  0.00     0.074 A 
ATOM     65  C   UNL A   1      46.871  30.248  30.156  1.00  0.00     0.031 C 
ATOM     66  C   UNL A   1      44.533  31.067  30.199  1.00  0.00     0.031 A 
BRANCH  53  67
ATOM     67  C   UNL A   1      38.689  29.330  29.176  1.00  0.00    -0.014 A 
ATOM     68  C   UNL A   1      37.845  29.187  30.290  1.00  0.00     0.009 A 
ATOM     69  C   UNL A   1      38.156  29.849  27.986  1.00  0.00     0.009 A 
ATOM     70  C   UNL A   1      36.490  29.517  30.199  1.00  0.00     0.001 A 
ATOM     71  C   UNL A   1      36.810  30.210  27.908  1.00  0.00     0.001 A 
ATOM     72  C   UNL A   1      35.976  30.031  29.010  1.00  0.00     0.000 A 
ENDBRANCH  53  67
BRANCH  54  73
ATOM     73  C   UNL A   1      48.223  26.358  29.256  1.00  0.00    -0.014 A 
ATOM     74  C   UNL A   1      48.796  25.753  30.385  1.00  0.00     0.009 A 
ATOM     75  C   UNL A   1      49.028  26.583  28.128  1.00  0.00     0.009 A 
ATOM     76  C   UNL A   1      50.149  25.401  30.391  1.00  0.00     0.001 A 
ATOM     77  C   UNL A   1      50.372  26.202  28.126  1.00  0.00     0.001 A 
ATOM     78  C   UNL A   1      50.933  25.620  29.260  1.00  0.00     0.000 A 
ENDBRANCH  54  73
BRANCH  66  79
ATOM     79  C   UNL A   1      45.049  32.409  30.646  1.00  0.00    -0.014 A 
ATOM     80  C   UNL A   1      45.295  33.446  29.733  1.00  0.00     0.009 A 
ATOM     81  C   UNL A   1      45.243  32.653  32.016  1.00  0.00     0.009 A 
ATOM     82  C   UNL A   1      45.757  34.686  30.179  1.00  0.00     0.001 A 
ATOM     83  C   UNL A   1      45.672  33.904  32.462  1.00  0.00     0.001 A 
ATOM     84  C   UNL A   1      45.939  34.916  31.543  1.00  0.00     0.000 A 
ENDBRANCH  66  79
ENDBRANCH  40  41
ENDBRANCH  33  35
ENDBRANCH  32  33
ENDBRANCH  31  32
ENDBRANCH  30  31
ENDBRANCH  29  30
ENDBRANCH   1  29
TORSDOF 18
ENDMDL
MODEL 3
REMARK VINA RESULT:     -10.6      3.579      7.612
REMARK SMILES NC(=O)c1cc(NC(=O)/C=C\C(=O)OCCOCCOC(=O)c2ccc(-c3c4nc(c(-c5ccccc5)c5ccc([nH]5)c(-c5ccccc5)c5nc(c(-c6ccccc6)c6ccc3[nH]6)C=C5)C=C4)cc2)ccc1N1CCOCC1
REMARK SMILES IDX 16 1 15 2 14 3 12 4 13 5 11 6 10 7 8 8 7 9 9 11 6 12 4 13
REMARK SMILES IDX 5 14 73 15 72 16 71 17 2 18 1 19 3 22 74 23 75 24 79 25
REMARK SMILES IDX 76 26 78 27 77 28 17 29 18 30 19 31 20 32 21 33 22 34 23 35
REMARK SMILES IDX 24 36 70 37 25 38 69 39 26 40 27 41 28 42 63 43 29 44 68 45
REMARK SMILES IDX 62 46 64 47 30 48 67 49 61 50 60 51 31 53 53 54 38 55 52 56
REMARK SMILES IDX 39 57 42 58 51 59 65 60 40 61 41 62 50 64 66 65 43 66 32 67
REMARK SMILES IDX 33 68 37 69 34 70 36 71 35 72 54 73 55 74 59 75 56 76 58 77
REMARK SMILES IDX 57 78 44 79 45 80 49 81 46 82 48 83 47 84
REMARK H PARENT 7 10 1 20 1 21 64 52 42 63
REMARK Flexibility Score: inf
ROOT
ATOM      1  C   UNL A   1      35.152  24.642  24.145  1.00  0.00     0.202 C 
ENDROOT
BRANCH   1   2
ATOM      2  C   UNL A   1      34.355  25.383  25.231  1.00  0.00     0.261 C 
BRANCH   2   3
ATOM      3  O   UNL A   1      33.723  26.668  25.174  1.00  0.00    -0.460 OA
BRANCH   3   4
ATOM      4  C   UNL A   1      33.752  27.555  26.175  1.00  0.00     0.331 C 
ATOM      5  O   UNL A   1      34.698  28.223  26.537  1.00  0.00    -0.247 OA
BRANCH   4   6
ATOM      6  C   UNL A   1      32.425  27.675  26.811  1.00  0.00     0.099 C 
ATOM      7  C   UNL A   1      31.254  27.870  26.183  1.00  0.00     0.079 C 
BRANCH   7   8
ATOM      8  C   UNL A   1      30.983  28.119  24.747  1.00  0.00     0.248 C 
ATOM      9  N   UNL A   1      30.754  27.138  23.824  1.00  0.00    -0.322 N 
ATOM     10  H   UNL A   1      30.564  27.483  22.922  1.00  0.00     0.170 HD
ATOM     11  O   UNL A   1      30.959  29.296  24.376  1.00  0.00    -0.270 OA
BRANCH   9  12
ATOM     12  C   UNL A   1      30.735  25.733  23.904  1.00  0.00     0.042 A 
ATOM     13  C   UNL A   1      30.834  23.719  25.238  1.00  0.00     0.064 A 
ATOM     14  C   UNL A   1      30.352  25.027  25.031  1.00  0.00     0.042 A 
ATOM     15  C   UNL A   1      31.654  23.075  24.280  1.00  0.00     0.050 A 
ATOM     16  C   UNL A   1      31.802  23.727  23.048  1.00  0.00     0.029 A 
ATOM     17  C   UNL A   1      31.311  25.028  22.843  1.00  0.00     0.028 A 
BRANCH  13  18
ATOM     18  C   UNL A   1      30.585  23.189  26.605  1.00  0.00     0.250 C 
ATOM     19  N   UNL A   1      29.581  22.276  26.734  1.00  0.00    -0.366 N 
ATOM     20  H   UNL A   1      29.374  21.894  27.618  1.00  0.00     0.159 HD
ATOM     21  H   UNL A   1      29.063  22.000  25.944  1.00  0.00     0.159 HD
ATOM     22  O   UNL A   1      31.312  23.486  27.546  1.00  0.00    -0.269 OA
ENDBRANCH  13  18
BRANCH  15  23
ATOM     23  N   UNL A   1      32.296  21.878  24.539  1.00  0.00    -0.366 N 
ATOM     24  C   UNL A   1      32.370  20.872  23.473  1.00  0.00     0.145 C 
ATOM     25  C   UNL A   1      33.301  21.700  25.596  1.00  0.00     0.145 C 
ATOM     26  C   UNL A   1      32.362  19.468  24.099  1.00  0.00     0.181 C 
ATOM     27  C   UNL A   1      33.263  20.259  26.126  1.00  0.00     0.181 C 
ATOM     28  O   UNL A   1      33.416  19.307  25.066  1.00  0.00    -0.378 OA
ENDBRANCH  15  23
ENDBRANCH   9  12
ENDBRANCH   7   8
ENDBRANCH   4   6
ENDBRANCH   3   4
ENDBRANCH   2   3
ENDBRANCH   1   2
BRANCH   1  29
ATOM     29  O   UNL A   1      35.381  23.259  23.990  1.00  0.00    -0.374 OA
BRANCH  29  30
ATOM     30  C   UNL A   1      36.656  22.789  23.627  1.00  0.00     0.202 C 
BRANCH  30  31
ATOM     31  C   UNL A   1      37.108  21.548  24.404  1.00  0.00     0.261 C 
BRANCH  31  32
ATOM     32  O   UNL A   1      37.494  21.794  25.770  1.00  0.00    -0.460 OA
BRANCH  32  33
ATOM     33  C   UNL A   1      38.805  21.592  26.056  1.00  0.00     0.338 C 
ATOM     34  O   UNL A   1      39.487  20.631  25.749  1.00  0.00    -0.246 OA
BRANCH  33  35
ATOM     35  C   UNL A   1      39.368  22.802  26.703  1.00  0.00     0.060 A 
ATOM     36  C   UNL A   1      38.772  24.045  26.438  1.00  0.00     0.016 A 
ATOM     37  C   UNL A   1      40.481  22.726  27.543  1.00  0.00     0.016 A 
ATOM     38  C   UNL A   1      39.310  25.217  26.972  1.00  0.00     0.010 A 
ATOM     39  C   UNL A   1      41.051  23.905  28.038  1.00  0.00     0.010 A 
ATOM     40  C   UNL A   1      40.494  25.158  27.717  1.00  0.00    -0.014 A 
BRANCH  40  41
ATOM     41  C   UNL A   1      41.290  26.396  27.905  1.00  0.00     0.031 A 
ATOM     42  C   UNL A   1      40.695  27.486  28.758  1.00  0.00     0.074 A 
ATOM     43  C   UNL A   1      42.518  26.549  27.380  1.00  0.00     0.049 A 
ATOM     44  N   UNL A   1      41.157  28.680  29.031  1.00  0.00    -0.248 NA
ATOM     45  C   UNL A   1      39.400  27.183  29.390  1.00  0.00     0.031 C 
ATOM     46  C   UNL A   1      43.243  25.547  26.604  1.00  0.00     0.029 A 
ATOM     47  N   UNL A   1      43.370  27.627  27.422  1.00  0.00    -0.354 N 
ATOM     48  C   UNL A   1      40.203  29.271  29.852  1.00  0.00     0.074 A 
ATOM     49  C   UNL A   1      39.128  28.319  30.013  1.00  0.00     0.031 C 
ATOM     50  C   UNL A   1      44.428  26.061  26.230  1.00  0.00     0.029 A 
ATOM     51  C   UNL A   1      44.526  27.441  26.704  1.00  0.00     0.049 A 
ATOM     52  H   UNL A   1      43.172  28.451  27.920  1.00  0.00     0.167 HD
ATOM     53  C   UNL A   1      40.217  30.500  30.420  1.00  0.00     0.031 A 
ATOM     54  C   UNL A   1      45.531  28.299  26.436  1.00  0.00     0.031 A 
ATOM     55  C   UNL A   1      41.273  31.458  30.239  1.00  0.00     0.049 A 
ATOM     56  C   UNL A   1      45.474  29.702  26.987  1.00  0.00     0.074 A 
ATOM     57  C   UNL A   1      41.382  32.732  30.769  1.00  0.00     0.029 A 
ATOM     58  N   UNL A   1      42.398  31.252  29.455  1.00  0.00    -0.354 N 
ATOM     59  N   UNL A   1      44.573  30.250  27.767  1.00  0.00    -0.248 NA
ATOM     60  C   UNL A   1      46.579  30.602  26.624  1.00  0.00     0.031 C 
ATOM     61  C   UNL A   1      42.540  33.320  30.252  1.00  0.00     0.029 A 
ATOM     62  C   UNL A   1      43.190  32.387  29.461  1.00  0.00     0.049 A 
ATOM     63  H   UNL A   1      42.602  30.421  28.968  1.00  0.00     0.167 HD
ATOM     64  C   UNL A   1      45.019  31.545  28.013  1.00  0.00     0.074 A 
ATOM     65  C   UNL A   1      46.276  31.695  27.311  1.00  0.00     0.031 C 
ATOM     66  C   UNL A   1      44.441  32.520  28.757  1.00  0.00     0.031 A 
BRANCH  53  67
ATOM     67  C   UNL A   1      39.021  30.891  31.244  1.00  0.00    -0.014 A 
ATOM     68  C   UNL A   1      38.964  30.642  32.625  1.00  0.00     0.009 A 
ATOM     69  C   UNL A   1      37.933  31.527  30.626  1.00  0.00     0.009 A 
ATOM     70  C   UNL A   1      37.826  30.985  33.360  1.00  0.00     0.001 A 
ATOM     71  C   UNL A   1      36.811  31.900  31.368  1.00  0.00     0.001 A 
ATOM     72  C   UNL A   1      36.754  31.617  32.732  1.00  0.00     0.000 A 
ENDBRANCH  53  67
BRANCH  54  73
ATOM     73  C   UNL A   1      46.669  27.873  25.576  1.00  0.00    -0.014 A 
ATOM     74  C   UNL A   1      47.839  27.345  26.142  1.00  0.00     0.009 A 
ATOM     75  C   UNL A   1      46.598  28.016  24.180  1.00  0.00     0.009 A 
ATOM     76  C   UNL A   1      48.921  26.988  25.332  1.00  0.00     0.001 A 
ATOM     77  C   UNL A   1      47.669  27.629  23.371  1.00  0.00     0.001 A 
ATOM     78  C   UNL A   1      48.832  27.125  23.947  1.00  0.00     0.000 A 
ENDBRANCH  54  73
BRANCH  66  79
ATOM     79  C   UNL A   1      45.182  33.823  28.893  1.00  0.00    -0.014 A 
ATOM     80  C   UNL A   1      46.110  34.039  29.923  1.00  0.00     0.009 A 
ATOM     81  C   UNL A   1      44.984  34.833  27.937  1.00  0.00     0.009 A 
ATOM     82  C   UNL A   1      46.796  35.252  30.013  1.00  0.00     0.001 A 
ATOM     83  C   UNL A   1      45.695  36.031  28.010  1.00  0.00     0.001 A 
ATOM     84  C   UNL A   1      46.593  36.245  29.054  1.00  0.00     0.000 A 
ENDBRANCH  66  79
ENDBRANCH  40  41
ENDBRANCH  33  35
ENDBRANCH  32  33
ENDBRANCH  31  32
ENDBRANCH  30  31
ENDBRANCH  29  30
ENDBRANCH   1  29
TORSDOF 18
ENDMDL
