MODEL 1
REMARK VINA RESULT:     -11.9      0.000      0.000
REMARK SMILES Cc1cccc(OC2(C(=O)OCCOCCOC(=O)c3ccc(-c4c5nc(c(-c6ccccc6)c6ccc([nH]6)c(-c6ccccc6)c6nc(c(-c7ccccc7)c7ccc4[nH]7)C=C6)C=C5)cc3)CCN(C(=O)c3cnc[nH]c3=O)CC2)c1
REMARK SMILES IDX 14 1 13 2 12 3 11 4 9 5 10 6 8 7 68 8 81 9 69 10 80 11 70 12
REMARK SMILES IDX 71 13 72 14 7 15 6 16 1 17 2 18 3 19 82 20 4 21 5 22 73 23
REMARK SMILES IDX 74 24 78 25 75 26 77 27 79 28 76 29 15 31 16 32 17 33 18 34
REMARK SMILES IDX 19 35 20 36 21 37 67 38 22 39 66 40 23 41 24 42 25 43 60 44
REMARK SMILES IDX 26 45 65 46 59 47 61 48 27 49 64 50 58 51 57 52 28 54 50 55
REMARK SMILES IDX 35 56 49 57 36 58 39 59 48 60 62 61 37 62 38 63 47 65 63 66
REMARK SMILES IDX 40 67 29 68 30 69 34 70 31 71 33 72 32 73 51 74 52 75 56 76
REMARK SMILES IDX 53 77 55 78 54 79 41 80 42 81 46 82 43 83 45 84 44 85
REMARK H PARENT 77 30 61 53 39 64
REMARK Flexibility Score: inf
ROOT
ATOM      1  O   UNL A   1      35.059  29.917  28.011  1.00  0.00    -0.374 OA
ENDROOT
BRANCH   1   2
ATOM      2  C   UNL A   1      34.730  29.027  26.964  1.00  0.00     0.202 C 
BRANCH   2   3
ATOM      3  C   UNL A   1      33.549  29.623  26.257  1.00  0.00     0.261 C 
BRANCH   3   4
ATOM      4  O   UNL A   1      33.465  29.285  24.806  1.00  0.00    -0.460 OA
BRANCH   4   5
ATOM      5  C   UNL A   1      33.580  28.242  23.951  1.00  0.00     0.350 C 
ATOM      6  O   UNL A   1      34.316  28.365  22.969  1.00  0.00    -0.247 OA
BRANCH   5   7
ATOM      7  C   UNL A   1      32.729  26.967  24.124  1.00  0.00     0.209 C 
ATOM      8  C   UNL A   1      32.442  26.343  22.763  1.00  0.00     0.082 C 
ATOM      9  C   UNL A   1      33.534  25.941  24.967  1.00  0.00     0.082 C 
ATOM     10  C   UNL A   1      31.940  24.936  22.688  1.00  0.00     0.124 C 
ATOM     11  C   UNL A   1      32.795  24.595  24.958  1.00  0.00     0.124 C 
ATOM     12  N   UNL A   1      32.720  24.125  23.579  1.00  0.00    -0.338 N 
ATOM     13  C   UNL A   1      33.443  23.059  23.072  1.00  0.00     0.261 C 
ATOM     14  O   UNL A   1      33.974  23.037  21.985  1.00  0.00    -0.269 OA
BRANCH   7  15
ATOM     15  O   UNL A   1      31.582  27.183  24.982  1.00  0.00    -0.475 OA
BRANCH  15  16
ATOM     16  C   UNL A   1      30.395  27.504  24.406  1.00  0.00     0.121 A 
ATOM     17  C   UNL A   1      28.992  30.376  22.411  1.00  0.00     0.044 C 
ATOM     18  C   UNL A   1      29.095  29.024  23.044  1.00  0.00    -0.047 A 
ATOM     19  C   UNL A   1      28.045  28.104  23.035  1.00  0.00     0.003 A 
ATOM     20  C   UNL A   1      30.290  28.671  23.667  1.00  0.00     0.050 A 
ATOM     21  C   UNL A   1      28.179  26.880  23.699  1.00  0.00     0.004 A 
ATOM     22  C   UNL A   1      29.352  26.585  24.401  1.00  0.00     0.046 A 
ENDBRANCH  15  16
ENDBRANCH   7  15
BRANCH  13  23
ATOM     23  C   UNL A   1      33.408  21.890  23.966  1.00  0.00     0.123 A 
ATOM     24  C   UNL A   1      32.292  21.169  24.109  1.00  0.00     0.132 A 
ATOM     25  C   UNL A   1      34.631  21.420  24.640  1.00  0.00     0.263 A 
ATOM     26  N   UNL A   1      32.217  19.991  24.814  1.00  0.00    -0.246 NA
ATOM     27  N   UNL A   1      34.504  20.230  25.288  1.00  0.00    -0.312 N 
ATOM     28  O   UNL A   1      35.697  22.031  24.622  1.00  0.00    -0.269 OA
ATOM     29  C   UNL A   1      33.311  19.572  25.356  1.00  0.00     0.199 A 
ATOM     30  H   UNL A   1      35.294  19.834  25.722  1.00  0.00     0.171 HD
ENDBRANCH  13  23
ENDBRANCH   5   7
ENDBRANCH   4   5
ENDBRANCH   3   4
ENDBRANCH   2   3
ENDBRANCH   1   2
BRANCH   1  31
ATOM     31  C   UNL A   1      35.031  31.290  27.686  1.00  0.00     0.202 C 
BRANCH  31  32
ATOM     32  C   UNL A   1      33.913  32.068  28.383  1.00  0.00     0.261 C 
BRANCH  32  33
ATOM     33  O   UNL A   1      34.294  33.448  28.551  1.00  0.00    -0.460 OA
BRANCH  33  34
ATOM     34  C   UNL A   1      34.356  33.883  29.840  1.00  0.00     0.338 C 
ATOM     35  O   UNL A   1      33.513  34.577  30.388  1.00  0.00    -0.246 OA
BRANCH  34  36
ATOM     36  C   UNL A   1      35.728  33.660  30.385  1.00  0.00     0.060 A 
ATOM     37  C   UNL A   1      36.853  34.024  29.621  1.00  0.00     0.016 A 
ATOM     38  C   UNL A   1      35.871  32.777  31.452  1.00  0.00     0.016 A 
ATOM     39  C   UNL A   1      38.086  33.393  29.837  1.00  0.00     0.010 A 
ATOM     40  C   UNL A   1      37.038  32.051  31.551  1.00  0.00     0.010 A 
ATOM     41  C   UNL A   1      38.155  32.349  30.756  1.00  0.00    -0.014 A 
BRANCH  41  42
ATOM     42  C   UNL A   1      39.309  31.474  30.982  1.00  0.00     0.031 A 
ATOM     43  C   UNL A   1      39.431  30.265  30.154  1.00  0.00     0.074 A 
ATOM     44  C   UNL A   1      40.370  31.869  31.722  1.00  0.00     0.049 A 
ATOM     45  N   UNL A   1      40.222  29.291  30.435  1.00  0.00    -0.248 NA
ATOM     46  C   UNL A   1      38.621  30.011  28.965  1.00  0.00     0.031 C 
ATOM     47  C   UNL A   1      41.773  31.465  31.626  1.00  0.00     0.029 A 
ATOM     48  N   UNL A   1      40.407  32.844  32.710  1.00  0.00    -0.354 N 
ATOM     49  C   UNL A   1      40.329  28.533  29.297  1.00  0.00     0.074 A 
ATOM     50  C   UNL A   1      39.188  28.899  28.497  1.00  0.00     0.031 C 
ATOM     51  C   UNL A   1      42.466  31.984  32.661  1.00  0.00     0.029 A 
ATOM     52  C   UNL A   1      41.511  32.642  33.540  1.00  0.00     0.049 A 
ATOM     53  H   UNL A   1      39.750  33.570  32.811  1.00  0.00     0.167 HD
ATOM     54  C   UNL A   1      41.478  27.833  29.090  1.00  0.00     0.031 A 
ATOM     55  C   UNL A   1      41.328  32.467  34.876  1.00  0.00     0.031 A 
ATOM     56  C   UNL A   1      42.403  27.975  30.234  1.00  0.00     0.049 A 
ATOM     57  C   UNL A   1      41.682  31.040  35.178  1.00  0.00     0.074 A 
ATOM     58  C   UNL A   1      43.619  28.620  30.398  1.00  0.00     0.029 A 
ATOM     59  N   UNL A   1      41.947  27.694  31.527  1.00  0.00    -0.354 N 
ATOM     60  N   UNL A   1      41.662  30.114  34.257  1.00  0.00    -0.248 NA
ATOM     61  C   UNL A   1      42.198  30.557  36.451  1.00  0.00     0.031 C 
ATOM     62  C   UNL A   1      43.856  28.772  31.797  1.00  0.00     0.029 A 
ATOM     63  C   UNL A   1      42.802  28.196  32.492  1.00  0.00     0.049 A 
ATOM     64  H   UNL A   1      41.118  27.201  31.727  1.00  0.00     0.167 HD
ATOM     65  C   UNL A   1      42.279  29.001  34.723  1.00  0.00     0.074 A 
ATOM     66  C   UNL A   1      42.534  29.294  36.126  1.00  0.00     0.031 C 
ATOM     67  C   UNL A   1      42.565  27.941  33.916  1.00  0.00     0.031 A 
BRANCH  54  68
ATOM     68  C   UNL A   1      41.871  27.249  27.744  1.00  0.00    -0.014 A 
ATOM     69  C   UNL A   1      40.988  26.388  27.071  1.00  0.00     0.009 A 
ATOM     70  C   UNL A   1      43.101  27.470  27.091  1.00  0.00     0.009 A 
ATOM     71  C   UNL A   1      41.326  25.767  25.856  1.00  0.00     0.001 A 
ATOM     72  C   UNL A   1      43.455  26.847  25.886  1.00  0.00     0.001 A 
ATOM     73  C   UNL A   1      42.564  25.991  25.266  1.00  0.00     0.000 A 
ENDBRANCH  54  68
BRANCH  55  74
ATOM     74  C   UNL A   1      40.190  33.291  35.402  1.00  0.00    -0.014 A 
ATOM     75  C   UNL A   1      39.040  32.600  35.853  1.00  0.00     0.009 A 
ATOM     76  C   UNL A   1      40.403  34.590  35.892  1.00  0.00     0.009 A 
ATOM     77  C   UNL A   1      38.210  33.137  36.850  1.00  0.00     0.001 A 
ATOM     78  C   UNL A   1      39.576  35.117  36.899  1.00  0.00     0.001 A 
ATOM     79  C   UNL A   1      38.503  34.379  37.402  1.00  0.00     0.000 A 
ENDBRANCH  55  74
BRANCH  67  80
ATOM     80  C   UNL A   1      42.682  26.538  34.431  1.00  0.00    -0.014 A 
ATOM     81  C   UNL A   1      41.694  25.916  35.207  1.00  0.00     0.009 A 
ATOM     82  C   UNL A   1      43.728  25.722  33.952  1.00  0.00     0.009 A 
ATOM     83  C   UNL A   1      41.770  24.559  35.525  1.00  0.00     0.001 A 
ATOM     84  C   UNL A   1      43.772  24.354  34.212  1.00  0.00     0.001 A 
ATOM     85  C   UNL A   1      42.798  23.776  35.013  1.00  0.00     0.000 A 
ENDBRANCH  67  80
ENDBRANCH  41  42
ENDBRANCH  34  36
ENDBRANCH  33  34
ENDBRANCH  32  33
ENDBRANCH  31  32
ENDBRANCH   1  31
TORSDOF 17
ENDMDL
MODEL 2
REMARK VINA RESULT:     -11.6      2.078      3.397
REMARK SMILES Cc1cccc(OC2(C(=O)OCCOCCOC(=O)c3ccc(-c4c5nc(c(-c6ccccc6)c6ccc([nH]6)c(-c6ccccc6)c6nc(c(-c7ccccc7)c7ccc4[nH]7)C=C6)C=C5)cc3)CCN(C(=O)c3cnc[nH]c3=O)CC2)c1
REMARK SMILES IDX 14 1 13 2 12 3 11 4 9 5 10 6 8 7 68 8 81 9 69 10 80 11 70 12
REMARK SMILES IDX 71 13 72 14 7 15 6 16 1 17 2 18 3 19 82 20 4 21 5 22 73 23
REMARK SMILES IDX 74 24 78 25 75 26 77 27 79 28 76 29 15 31 16 32 17 33 18 34
REMARK SMILES IDX 19 35 20 36 21 37 67 38 22 39 66 40 23 41 24 42 25 43 60 44
REMARK SMILES IDX 26 45 65 46 59 47 61 48 27 49 64 50 58 51 57 52 28 54 50 55
REMARK SMILES IDX 35 56 49 57 36 58 39 59 48 60 62 61 37 62 38 63 47 65 63 66
REMARK SMILES IDX 40 67 29 68 30 69 34 70 31 71 33 72 32 73 51 74 52 75 56 76
REMARK SMILES IDX 53 77 55 78 54 79 41 80 42 81 46 82 43 83 45 84 44 85
REMARK H PARENT 77 30 61 53 39 64
REMARK Flexibility Score: inf
ROOT
ATOM      1  O   UNL A   1      32.023  30.415  26.705  1.00  0.00    -0.374 OA
ENDROOT
BRANCH   1   2
ATOM      2  C   UNL A   1      31.533  30.089  25.420  1.00  0.00     0.202 C 
BRANCH   2   3
ATOM      3  C   UNL A   1      32.555  29.189  24.793  1.00  0.00     0.261 C 
BRANCH   3   4
ATOM      4  O   UNL A   1      32.388  27.743  25.125  1.00  0.00    -0.460 OA
BRANCH   4   5
ATOM      5  C   UNL A   1      31.459  26.850  25.539  1.00  0.00     0.350 C 
ATOM      6  O   UNL A   1      30.893  27.049  26.617  1.00  0.00    -0.247 OA
BRANCH   5   7
ATOM      7  C   UNL A   1      31.188  25.552  24.749  1.00  0.00     0.209 C 
ATOM      8  C   UNL A   1      32.270  25.347  23.696  1.00  0.00     0.082 C 
ATOM      9  C   UNL A   1      31.235  24.352  25.733  1.00  0.00     0.082 C 
ATOM     10  C   UNL A   1      32.423  24.009  23.046  1.00  0.00     0.124 C 
ATOM     11  C   UNL A   1      31.188  23.044  24.929  1.00  0.00     0.124 C 
ATOM     12  N   UNL A   1      32.361  22.999  24.063  1.00  0.00    -0.338 N 
ATOM     13  C   UNL A   1      33.442  22.154  24.249  1.00  0.00     0.261 C 
ATOM     14  O   UNL A   1      34.601  22.470  24.105  1.00  0.00    -0.269 OA
BRANCH   7  15
ATOM     15  O   UNL A   1      29.819  25.468  24.283  1.00  0.00    -0.475 OA
BRANCH  15  16
ATOM     16  C   UNL A   1      29.204  26.608  23.874  1.00  0.00     0.121 A 
ATOM     17  C   UNL A   1      30.137  29.685  21.910  1.00  0.00     0.044 C 
ATOM     18  C   UNL A   1      29.291  28.675  22.619  1.00  0.00    -0.047 A 
ATOM     19  C   UNL A   1      27.925  28.856  22.839  1.00  0.00     0.003 A 
ATOM     20  C   UNL A   1      29.894  27.505  23.075  1.00  0.00     0.050 A 
ATOM     21  C   UNL A   1      27.199  27.904  23.564  1.00  0.00     0.004 A 
ATOM     22  C   UNL A   1      27.844  26.785  24.098  1.00  0.00     0.046 A 
ENDBRANCH  15  16
ENDBRANCH   7  15
BRANCH  13  23
ATOM     23  C   UNL A   1      33.022  20.773  24.540  1.00  0.00     0.123 A 
ATOM     24  C   UNL A   1      32.599  19.964  23.565  1.00  0.00     0.132 A 
ATOM     25  C   UNL A   1      33.164  20.212  25.896  1.00  0.00     0.263 A 
ATOM     26  N   UNL A   1      32.322  18.628  23.732  1.00  0.00    -0.246 NA
ATOM     27  N   UNL A   1      32.914  18.878  25.990  1.00  0.00    -0.312 N 
ATOM     28  O   UNL A   1      33.492  20.875  26.877  1.00  0.00    -0.269 OA
ATOM     29  C   UNL A   1      32.499  18.146  24.917  1.00  0.00     0.199 A 
ATOM     30  H   UNL A   1      33.033  18.429  26.858  1.00  0.00     0.171 HD
ENDBRANCH  13  23
ENDBRANCH   5   7
ENDBRANCH   4   5
ENDBRANCH   3   4
ENDBRANCH   2   3
ENDBRANCH   1   2
BRANCH   1  31
ATOM     31  C   UNL A   1      33.415  30.269  26.890  1.00  0.00     0.202 C 
BRANCH  31  32
ATOM     32  C   UNL A   1      34.014  31.262  27.888  1.00  0.00     0.261 C 
BRANCH  32  33
ATOM     33  O   UNL A   1      35.433  31.394  27.670  1.00  0.00    -0.460 OA
BRANCH  33  34
ATOM     34  C   UNL A   1      36.198  31.392  28.797  1.00  0.00     0.338 C 
ATOM     35  O   UNL A   1      36.352  32.347  29.543  1.00  0.00    -0.246 OA
BRANCH  34  36
ATOM     36  C   UNL A   1      37.059  30.173  28.822  1.00  0.00     0.060 A 
ATOM     37  C   UNL A   1      37.058  29.339  29.957  1.00  0.00     0.016 A 
ATOM     38  C   UNL A   1      38.100  30.088  27.901  1.00  0.00     0.016 A 
ATOM     39  C   UNL A   1      38.168  28.529  30.236  1.00  0.00     0.010 A 
ATOM     40  C   UNL A   1      39.246  29.415  28.265  1.00  0.00     0.010 A 
ATOM     41  C   UNL A   1      39.295  28.628  29.425  1.00  0.00    -0.014 A 
BRANCH  41  42
ATOM     42  C   UNL A   1      40.592  27.989  29.667  1.00  0.00     0.031 A 
ATOM     43  C   UNL A   1      40.870  26.715  28.989  1.00  0.00     0.074 A 
ATOM     44  C   UNL A   1      41.610  28.645  30.268  1.00  0.00     0.049 A 
ATOM     45  N   UNL A   1      41.829  25.927  29.325  1.00  0.00    -0.248 NA
ATOM     46  C   UNL A   1      40.050  26.176  27.906  1.00  0.00     0.031 C 
ATOM     47  C   UNL A   1      43.054  28.463  30.114  1.00  0.00     0.029 A 
ATOM     48  N   UNL A   1      41.537  29.738  31.122  1.00  0.00    -0.354 N 
ATOM     49  C   UNL A   1      41.999  25.050  28.285  1.00  0.00     0.074 A 
ATOM     50  C   UNL A   1      40.771  25.117  27.536  1.00  0.00     0.031 C 
ATOM     51  C   UNL A   1      43.705  29.221  31.020  1.00  0.00     0.029 A 
ATOM     52  C   UNL A   1      42.704  29.831  31.882  1.00  0.00     0.049 A 
ATOM     53  H   UNL A   1      40.773  30.356  31.183  1.00  0.00     0.167 HD
ATOM     54  C   UNL A   1      43.238  24.523  28.078  1.00  0.00     0.031 A 
ATOM     55  C   UNL A   1      42.628  29.810  33.240  1.00  0.00     0.031 A 
ATOM     56  C   UNL A   1      44.187  24.964  29.121  1.00  0.00     0.049 A 
ATOM     57  C   UNL A   1      43.235  28.512  33.687  1.00  0.00     0.074 A 
ATOM     58  C   UNL A   1      45.284  25.812  29.108  1.00  0.00     0.029 A 
ATOM     59  N   UNL A   1      43.859  24.791  30.470  1.00  0.00    -0.354 N 
ATOM     60  N   UNL A   1      43.321  27.479  32.893  1.00  0.00    -0.248 NA
ATOM     61  C   UNL A   1      43.895  28.295  34.967  1.00  0.00     0.031 C 
ATOM     62  C   UNL A   1      45.569  26.188  30.455  1.00  0.00     0.029 A 
ATOM     63  C   UNL A   1      44.669  25.549  31.296  1.00  0.00     0.049 A 
ATOM     64  H   UNL A   1      43.138  24.202  30.792  1.00  0.00     0.167 HD
ATOM     65  C   UNL A   1      44.143  26.554  33.443  1.00  0.00     0.074 A 
ATOM     66  C   UNL A   1      44.423  27.070  34.776  1.00  0.00     0.031 C 
ATOM     67  C   UNL A   1      44.558  25.454  32.754  1.00  0.00     0.031 A 
BRANCH  54  68
ATOM     68  C   UNL A   1      43.648  23.833  26.788  1.00  0.00    -0.014 A 
ATOM     69  C   UNL A   1      44.431  24.520  25.846  1.00  0.00     0.009 A 
ATOM     70  C   UNL A   1      43.278  22.525  26.415  1.00  0.00     0.009 A 
ATOM     71  C   UNL A   1      44.784  23.955  24.608  1.00  0.00     0.001 A 
ATOM     72  C   UNL A   1      43.612  21.954  25.178  1.00  0.00     0.001 A 
ATOM     73  C   UNL A   1      44.368  22.672  24.270  1.00  0.00     0.000 A 
ENDBRANCH  54  68
BRANCH  55  74
ATOM     74  C   UNL A   1      41.398  30.503  33.747  1.00  0.00    -0.014 A 
ATOM     75  C   UNL A   1      41.293  31.896  33.516  1.00  0.00     0.009 A 
ATOM     76  C   UNL A   1      40.210  29.791  33.980  1.00  0.00     0.009 A 
ATOM     77  C   UNL A   1      40.044  32.524  33.395  1.00  0.00     0.001 A 
ATOM     78  C   UNL A   1      38.962  30.423  33.846  1.00  0.00     0.001 A 
ATOM     79  C   UNL A   1      38.877  31.777  33.519  1.00  0.00     0.000 A 
ENDBRANCH  55  74
BRANCH  67  80
ATOM     80  C   UNL A   1      44.940  24.170  33.428  1.00  0.00    -0.014 A 
ATOM     81  C   UNL A   1      46.229  23.906  33.911  1.00  0.00     0.009 A 
ATOM     82  C   UNL A   1      43.924  23.260  33.785  1.00  0.00     0.009 A 
ATOM     83  C   UNL A   1      46.499  22.769  34.675  1.00  0.00     0.001 A 
ATOM     84  C   UNL A   1      44.175  22.160  34.602  1.00  0.00     0.001 A 
ATOM     85  C   UNL A   1      45.469  21.908  35.035  1.00  0.00     0.000 A 
ENDBRANCH  67  80
ENDBRANCH  41  42
ENDBRANCH  34  36
ENDBRANCH  33  34
ENDBRANCH  32  33
ENDBRANCH  31  32
ENDBRANCH   1  31
TORSDOF 17
ENDMDL
MODEL 3
REMARK VINA RESULT:     -11.5      3.925      9.739
REMARK SMILES Cc1cccc(OC2(C(=O)OCCOCCOC(=O)c3ccc(-c4c5nc(c(-c6ccccc6)c6ccc([nH]6)c(-c6ccccc6)c6nc(c(-c7ccccc7)c7ccc4[nH]7)C=C6)C=C5)cc3)CCN(C(=O)c3cnc[nH]c3=O)CC2)c1
REMARK SMILES IDX 14 1 13 2 12 3 11 4 9 5 10 6 8 7 68 8 81 9 69 10 80 11 70 12
REMARK SMILES IDX 71 13 72 14 7 15 6 16 1 17 2 18 3 19 82 20 4 21 5 22 73 23
REMARK SMILES IDX 74 24 78 25 75 26 77 27 79 28 76 29 15 31 16 32 17 33 18 34
REMARK SMILES IDX 19 35 20 36 21 37 67 38 22 39 66 40 23 41 24 42 25 43 60 44
REMARK SMILES IDX 26 45 65 46 59 47 61 48 27 49 64 50 58 51 57 52 28 54 50 55
REMARK SMILES IDX 35 56 49 57 36 58 39 59 48 60 62 61 37 62 38 63 47 65 63 66
REMARK SMILES IDX 40 67 29 68 30 69 34 70 31 71 33 72 32 73 51 74 52 75 56 76
REMARK SMILES IDX 53 77 55 78 54 79 41 80 42 81 46 82 43 83 45 84 44 85
REMARK H PARENT 77 30 61 53 39 64
REMARK Flexibility Score: inf
ROOT
ATOM      1  O   UNL A   1      39.083  21.162  26.095  1.00  0.00    -0.374 OA
ENDROOT
BRANCH   1   2
ATOM      2  C   UNL A   1      38.724  22.529  26.113  1.00  0.00     0.202 C 
BRANCH   2   3
ATOM      3  C   UNL A   1      37.415  22.633  25.390  1.00  0.00     0.261 C 
BRANCH   3   4
ATOM      4  O   UNL A   1      36.366  23.402  26.122  1.00  0.00    -0.460 OA
BRANCH   4   5
ATOM      5  C   UNL A   1      35.046  23.379  26.418  1.00  0.00     0.350 C 
ATOM      6  O   UNL A   1      34.698  22.943  27.519  1.00  0.00    -0.247 OA
BRANCH   5   7
ATOM      7  C   UNL A   1      33.983  23.777  25.372  1.00  0.00     0.209 C 
ATOM      8  C   UNL A   1      32.586  23.527  25.928  1.00  0.00     0.082 C 
ATOM      9  C   UNL A   1      34.121  25.295  25.075  1.00  0.00     0.082 C 
ATOM     10  C   UNL A   1      31.402  24.145  25.254  1.00  0.00     0.124 C 
ATOM     11  C   UNL A   1      32.934  25.745  24.210  1.00  0.00     0.124 C 
ATOM     12  N   UNL A   1      31.707  25.516  24.964  1.00  0.00    -0.338 N 
ATOM     13  C   UNL A   1      30.925  26.518  25.513  1.00  0.00     0.261 C 
ATOM     14  O   UNL A   1      30.408  26.472  26.607  1.00  0.00    -0.269 OA
BRANCH   7  15
ATOM     15  O   UNL A   1      34.260  23.217  24.066  1.00  0.00    -0.475 OA
BRANCH  15  16
ATOM     16  C   UNL A   1      33.617  22.079  23.700  1.00  0.00     0.121 A 
ATOM     17  C   UNL A   1      33.381  18.530  24.945  1.00  0.00     0.044 C 
ATOM     18  C   UNL A   1      33.075  19.766  24.157  1.00  0.00    -0.047 A 
ATOM     19  C   UNL A   1      32.155  19.783  23.107  1.00  0.00     0.003 A 
ATOM     20  C   UNL A   1      33.736  20.946  24.488  1.00  0.00     0.050 A 
ATOM     21  C   UNL A   1      31.958  20.953  22.367  1.00  0.00     0.004 A 
ATOM     22  C   UNL A   1      32.703  22.101  22.653  1.00  0.00     0.046 A 
ENDBRANCH  15  16
ENDBRANCH   7  15
BRANCH  13  23
ATOM     23  C   UNL A   1      30.692  27.621  24.567  1.00  0.00     0.123 A 
ATOM     24  C   UNL A   1      29.895  27.459  23.507  1.00  0.00     0.132 A 
ATOM     25  C   UNL A   1      31.241  28.964  24.825  1.00  0.00     0.263 A 
ATOM     26  N   UNL A   1      29.520  28.474  22.657  1.00  0.00    -0.246 NA
ATOM     27  N   UNL A   1      30.804  29.932  23.975  1.00  0.00    -0.312 N 
ATOM     28  O   UNL A   1      32.026  29.216  25.737  1.00  0.00    -0.269 OA
ATOM     29  C   UNL A   1      29.975  29.651  22.930  1.00  0.00     0.199 A 
ATOM     30  H   UNL A   1      31.096  30.862  24.118  1.00  0.00     0.171 HD
ENDBRANCH  13  23
ENDBRANCH   5   7
ENDBRANCH   4   5
ENDBRANCH   3   4
ENDBRANCH   2   3
ENDBRANCH   1   2
BRANCH   1  31
ATOM     31  C   UNL A   1      40.354  20.851  26.626  1.00  0.00     0.202 C 
BRANCH  31  32
ATOM     32  C   UNL A   1      41.508  21.580  25.934  1.00  0.00     0.261 C 
BRANCH  32  33
ATOM     33  O   UNL A   1      42.732  20.834  26.085  1.00  0.00    -0.460 OA
BRANCH  33  34
ATOM     34  C   UNL A   1      43.755  21.221  25.273  1.00  0.00     0.338 C 
ATOM     35  O   UNL A   1      44.275  20.521  24.417  1.00  0.00    -0.246 OA
BRANCH  34  36
ATOM     36  C   UNL A   1      44.351  22.493  25.779  1.00  0.00     0.060 A 
ATOM     37  C   UNL A   1      44.765  22.586  27.121  1.00  0.00     0.016 A 
ATOM     38  C   UNL A   1      44.148  23.652  25.034  1.00  0.00     0.016 A 
ATOM     39  C   UNL A   1      44.835  23.837  27.752  1.00  0.00     0.010 A 
ATOM     40  C   UNL A   1      44.064  24.855  25.701  1.00  0.00     0.010 A 
ATOM     41  C   UNL A   1      44.408  24.965  27.056  1.00  0.00    -0.014 A 
BRANCH  41  42
ATOM     42  C   UNL A   1      44.253  26.313  27.611  1.00  0.00     0.031 A 
ATOM     43  C   UNL A   1      42.889  26.839  27.773  1.00  0.00     0.074 A 
ATOM     44  C   UNL A   1      45.278  26.963  28.206  1.00  0.00     0.049 A 
ATOM     45  N   UNL A   1      42.629  28.081  27.978  1.00  0.00    -0.248 NA
ATOM     46  C   UNL A   1      41.684  26.021  27.653  1.00  0.00     0.031 C 
ATOM     47  C   UNL A   1      45.252  27.970  29.266  1.00  0.00     0.029 A 
ATOM     48  N   UNL A   1      46.640  26.761  28.020  1.00  0.00    -0.354 N 
ATOM     49  C   UNL A   1      41.333  28.142  28.421  1.00  0.00     0.074 A 
ATOM     50  C   UNL A   1      40.742  26.891  28.019  1.00  0.00     0.031 C 
ATOM     51  C   UNL A   1      46.492  28.468  29.450  1.00  0.00     0.029 A 
ATOM     52  C   UNL A   1      47.351  27.891  28.427  1.00  0.00     0.049 A 
ATOM     53  H   UNL A   1      47.045  25.941  27.655  1.00  0.00     0.167 HD
ATOM     54  C   UNL A   1      40.977  29.165  29.246  1.00  0.00     0.031 A 
ATOM     55  C   UNL A   1      48.165  28.530  27.544  1.00  0.00     0.031 A 
ATOM     56  C   UNL A   1      42.100  30.103  29.449  1.00  0.00     0.049 A 
ATOM     57  C   UNL A   1      47.528  29.858  27.251  1.00  0.00     0.074 A 
ATOM     58  C   UNL A   1      42.906  30.398  30.538  1.00  0.00     0.029 A 
ATOM     59  N   UNL A   1      42.754  30.645  28.337  1.00  0.00    -0.354 N 
ATOM     60  N   UNL A   1      46.251  30.066  27.431  1.00  0.00    -0.248 NA
ATOM     61  C   UNL A   1      48.248  31.065  26.872  1.00  0.00     0.031 C 
ATOM     62  C   UNL A   1      44.071  31.069  30.058  1.00  0.00     0.029 A 
ATOM     63  C   UNL A   1      43.968  31.212  28.682  1.00  0.00     0.049 A 
ATOM     64  H   UNL A   1      42.395  30.626  27.420  1.00  0.00     0.167 HD
ATOM     65  C   UNL A   1      45.997  31.395  27.359  1.00  0.00     0.074 A 
ATOM     66  C   UNL A   1      47.261  31.979  26.935  1.00  0.00     0.031 C 
ATOM     67  C   UNL A   1      44.781  31.917  27.687  1.00  0.00     0.031 A 
BRANCH  54  68
ATOM     68  C   UNL A   1      39.705  29.166  30.077  1.00  0.00    -0.014 A 
ATOM     69  C   UNL A   1      39.780  29.001  31.470  1.00  0.00     0.009 A 
ATOM     70  C   UNL A   1      38.399  29.290  29.562  1.00  0.00     0.009 A 
ATOM     71  C   UNL A   1      38.633  28.929  32.280  1.00  0.00     0.001 A 
ATOM     72  C   UNL A   1      37.247  29.205  30.357  1.00  0.00     0.001 A 
ATOM     73  C   UNL A   1      37.364  29.023  31.722  1.00  0.00     0.000 A 
ENDBRANCH  54  68
BRANCH  55  74
ATOM     74  C   UNL A   1      48.836  27.575  26.602  1.00  0.00    -0.014 A 
ATOM     75  C   UNL A   1      48.213  27.347  25.352  1.00  0.00     0.009 A 
ATOM     76  C   UNL A   1      50.210  27.304  26.703  1.00  0.00     0.009 A 
ATOM     77  C   UNL A   1      48.959  26.988  24.218  1.00  0.00     0.001 A 
ATOM     78  C   UNL A   1      50.954  26.957  25.562  1.00  0.00     0.001 A 
ATOM     79  C   UNL A   1      50.338  26.834  24.317  1.00  0.00     0.000 A 
ENDBRANCH  55  74
BRANCH  67  80
ATOM     80  C   UNL A   1      44.263  33.196  27.101  1.00  0.00    -0.014 A 
ATOM     81  C   UNL A   1      44.050  33.385  25.729  1.00  0.00     0.009 A 
ATOM     82  C   UNL A   1      43.767  34.190  27.969  1.00  0.00     0.009 A 
ATOM     83  C   UNL A   1      43.414  34.530  25.245  1.00  0.00     0.001 A 
ATOM     84  C   UNL A   1      43.073  35.301  27.495  1.00  0.00     0.001 A 
ATOM     85  C   UNL A   1      42.910  35.477  26.129  1.00  0.00     0.000 A 
ENDBRANCH  67  80
ENDBRANCH  41  42
ENDBRANCH  34  36
ENDBRANCH  33  34
ENDBRANCH  32  33
ENDBRANCH  31  32
ENDBRANCH   1  31
TORSDOF 17
ENDMDL
