MODEL 1
REMARK VINA RESULT:      -9.4      0.000      0.000
REMARK SMILES C[N@H+]1CCO[C@H](CNc2nnc(SCC(=O)OCCOCCOC(=O)c3ccc(-c4c5nc(c(-c6ccccc6)c6ccc([nH]6)c(-c6ccccc6)c6nc(c(-c7ccccc7)c7ccc4[nH]7)C=C6)C=C5)cc3)s2)C1
REMARK SMILES IDX 18 1 17 2 15 3 16 4 14 5 13 6 12 7 9 8 10 9 74 10 11 11 8 12
REMARK SMILES IDX 7 14 6 15 1 16 2 17 3 18 75 19 4 21 5 22 19 23 20 24 21 25
REMARK SMILES IDX 22 26 23 27 24 28 25 29 26 30 27 31 73 32 28 33 72 34 29 35
REMARK SMILES IDX 30 36 31 37 66 38 32 39 71 40 65 41 67 42 33 43 70 44 64 45
REMARK SMILES IDX 63 46 34 48 56 49 41 50 55 51 42 52 45 53 54 54 68 55 43 56
REMARK SMILES IDX 44 57 53 59 69 60 46 61 35 62 36 63 40 64 37 65 39 66 38 67
REMARK SMILES IDX 57 68 58 69 62 70 59 71 61 72 60 73 47 74 48 75 52 76 49 77
REMARK SMILES IDX 51 78 50 79
REMARK H PARENT 8 13 2 20 67 47 45 58
REMARK Flexibility Score: inf
ROOT
ATOM      1  C   UNL A   1      34.743  31.451  27.798  1.00  0.00     0.261 C 
ENDROOT
BRANCH   1   2
ATOM      2  O   UNL A   1      33.308  31.605  27.813  1.00  0.00    -0.463 OA
BRANCH   2   3
ATOM      3  C   UNL A   1      32.619  30.874  26.894  1.00  0.00     0.316 C 
ATOM      4  O   UNL A   1      31.452  31.097  26.580  1.00  0.00    -0.251 OA
BRANCH   3   5
ATOM      5  C   UNL A   1      33.389  29.748  26.233  1.00  0.00     0.200 C 
BRANCH   5   6
ATOM      6  S   UNL A   1      32.669  29.025  24.754  1.00  0.00    -0.082 SA
BRANCH   6   7
ATOM      7  C   UNL A   1      31.546  27.784  25.276  1.00  0.00     0.176 A 
ATOM      8  C   UNL A   1      30.325  25.778  25.738  1.00  0.00     0.206 A 
ATOM      9  N   UNL A   1      30.702  26.409  26.830  1.00  0.00    -0.119 NA
ATOM     10  S   UNL A   1      30.581  26.734  24.317  1.00  0.00    -0.069 S 
ATOM     11  N   UNL A   1      31.437  27.545  26.565  1.00  0.00    -0.130 NA
BRANCH   8  12
ATOM     12  N   UNL A   1      29.813  24.523  25.769  1.00  0.00    -0.357 N 
ATOM     13  H   UNL A   1      29.131  24.280  25.101  1.00  0.00     0.163 HD
BRANCH  12  14
ATOM     14  C   UNL A   1      30.220  23.511  26.741  1.00  0.00     0.153 C 
BRANCH  14  15
ATOM     15  C   UNL A   1      31.723  23.120  26.567  1.00  0.00     0.192 C 
ATOM     16  C   UNL A   1      34.115  22.286  24.612  1.00  0.00     0.332 C 
ATOM     17  N   UNL A   1      33.253  21.424  25.417  1.00  0.00    -0.333 N 
ATOM     18  C   UNL A   1      33.817  21.187  26.761  1.00  0.00     0.290 C 
ATOM     19  C   UNL A   1      31.881  21.960  25.552  1.00  0.00     0.296 C 
ATOM     20  H   UNL A   1      33.201  20.539  24.913  1.00  0.00     0.348 HD
ATOM     21  C   UNL A   1      33.662  22.380  27.716  1.00  0.00     0.222 C 
ATOM     22  O   UNL A   1      32.283  22.750  27.847  1.00  0.00    -0.365 OA
ENDBRANCH  14  15
ENDBRANCH  12  14
ENDBRANCH   8  12
ENDBRANCH   6   7
ENDBRANCH   5   6
ENDBRANCH   3   5
ENDBRANCH   2   3
ENDBRANCH   1   2
BRANCH   1  23
ATOM     23  C   UNL A   1      35.494  32.736  28.177  1.00  0.00     0.202 C 
BRANCH  23  24
ATOM     24  O   UNL A   1      34.901  33.559  29.183  1.00  0.00    -0.374 OA
BRANCH  24  25
ATOM     25  C   UNL A   1      34.202  34.717  28.743  1.00  0.00     0.202 C 
BRANCH  25  26
ATOM     26  C   UNL A   1      32.994  35.150  29.577  1.00  0.00     0.261 C 
BRANCH  26  27
ATOM     27  O   UNL A   1      33.340  35.971  30.687  1.00  0.00    -0.460 OA
BRANCH  27  28
ATOM     28  C   UNL A   1      32.960  35.455  31.872  1.00  0.00     0.338 C 
ATOM     29  O   UNL A   1      31.833  35.404  32.348  1.00  0.00    -0.246 OA
BRANCH  28  30
ATOM     30  C   UNL A   1      34.104  34.785  32.484  1.00  0.00     0.060 A 
ATOM     31  C   UNL A   1      35.299  35.505  32.556  1.00  0.00     0.016 A 
ATOM     32  C   UNL A   1      34.025  33.451  32.888  1.00  0.00     0.016 A 
ATOM     33  C   UNL A   1      36.454  34.862  32.971  1.00  0.00     0.010 A 
ATOM     34  C   UNL A   1      35.188  32.806  33.304  1.00  0.00     0.010 A 
ATOM     35  C   UNL A   1      36.410  33.500  33.300  1.00  0.00    -0.014 A 
BRANCH  35  36
ATOM     36  C   UNL A   1      37.683  32.781  33.489  1.00  0.00     0.031 A 
ATOM     37  C   UNL A   1      38.458  33.002  34.756  1.00  0.00     0.074 A 
ATOM     38  C   UNL A   1      38.096  31.898  32.566  1.00  0.00     0.049 A 
ATOM     39  N   UNL A   1      39.559  32.427  35.162  1.00  0.00    -0.248 NA
ATOM     40  C   UNL A   1      37.917  34.000  35.694  1.00  0.00     0.031 C 
ATOM     41  C   UNL A   1      37.394  31.590  31.320  1.00  0.00     0.029 A 
ATOM     42  N   UNL A   1      39.199  31.088  32.545  1.00  0.00    -0.354 N 
ATOM     43  C   UNL A   1      39.841  32.991  36.398  1.00  0.00     0.074 A 
ATOM     44  C   UNL A   1      38.818  33.976  36.664  1.00  0.00     0.031 C 
ATOM     45  C   UNL A   1      38.083  30.649  30.655  1.00  0.00     0.029 A 
ATOM     46  C   UNL A   1      39.281  30.309  31.418  1.00  0.00     0.049 A 
ATOM     47  H   UNL A   1      39.869  31.068  33.266  1.00  0.00     0.167 HD
ATOM     48  C   UNL A   1      40.862  32.706  37.241  1.00  0.00     0.031 A 
ATOM     49  C   UNL A   1      40.226  29.425  31.048  1.00  0.00     0.031 A 
ATOM     50  C   UNL A   1      41.887  31.739  36.956  1.00  0.00     0.049 A 
ATOM     51  C   UNL A   1      41.382  29.170  31.973  1.00  0.00     0.074 A 
ATOM     52  C   UNL A   1      42.963  31.362  37.738  1.00  0.00     0.029 A 
ATOM     53  N   UNL A   1      41.963  31.002  35.783  1.00  0.00    -0.354 N 
ATOM     54  N   UNL A   1      41.621  29.683  33.156  1.00  0.00    -0.248 NA
ATOM     55  C   UNL A   1      42.393  28.206  31.517  1.00  0.00     0.031 C 
ATOM     56  C   UNL A   1      43.718  30.431  37.016  1.00  0.00     0.029 A 
ATOM     57  C   UNL A   1      43.083  30.191  35.808  1.00  0.00     0.049 A 
ATOM     58  H   UNL A   1      41.316  31.049  35.043  1.00  0.00     0.167 HD
ATOM     59  C   UNL A   1      42.797  29.091  33.597  1.00  0.00     0.074 A 
ATOM     60  C   UNL A   1      43.213  28.169  32.558  1.00  0.00     0.031 C 
ATOM     61  C   UNL A   1      43.475  29.290  34.754  1.00  0.00     0.031 A 
BRANCH  48  62
ATOM     62  C   UNL A   1      40.929  33.479  38.527  1.00  0.00    -0.014 A 
ATOM     63  C   UNL A   1      40.293  33.017  39.690  1.00  0.00     0.009 A 
ATOM     64  C   UNL A   1      41.645  34.685  38.578  1.00  0.00     0.009 A 
ATOM     65  C   UNL A   1      40.343  33.766  40.869  1.00  0.00     0.001 A 
ATOM     66  C   UNL A   1      41.714  35.419  39.764  1.00  0.00     0.001 A 
ATOM     67  C   UNL A   1      41.055  34.964  40.905  1.00  0.00     0.000 A 
ENDBRANCH  48  62
BRANCH  49  68
ATOM     68  C   UNL A   1      40.111  28.726  29.744  1.00  0.00    -0.014 A 
ATOM     69  C   UNL A   1      40.619  29.303  28.572  1.00  0.00     0.009 A 
ATOM     70  C   UNL A   1      39.501  27.463  29.670  1.00  0.00     0.009 A 
ATOM     71  C   UNL A   1      40.505  28.638  27.350  1.00  0.00     0.001 A 
ATOM     72  C   UNL A   1      39.411  26.789  28.451  1.00  0.00     0.001 A 
ATOM     73  C   UNL A   1      39.906  27.380  27.290  1.00  0.00     0.000 A 
ENDBRANCH  49  68
BRANCH  61  74
ATOM     74  C   UNL A   1      44.719  28.476  34.962  1.00  0.00    -0.014 A 
ATOM     75  C   UNL A   1      44.664  27.208  35.558  1.00  0.00     0.009 A 
ATOM     76  C   UNL A   1      45.954  28.971  34.517  1.00  0.00     0.009 A 
ATOM     77  C   UNL A   1      45.831  26.462  35.733  1.00  0.00     0.001 A 
ATOM     78  C   UNL A   1      47.115  28.212  34.669  1.00  0.00     0.001 A 
ATOM     79  C   UNL A   1      47.054  26.962  35.284  1.00  0.00     0.000 A 
ENDBRANCH  61  74
ENDBRANCH  35  36
ENDBRANCH  28  30
ENDBRANCH  27  28
ENDBRANCH  26  27
ENDBRANCH  25  26
ENDBRANCH  24  25
ENDBRANCH  23  24
ENDBRANCH   1  23
TORSDOF 19
ENDMDL
MODEL 2
REMARK VINA RESULT:      -9.2      2.767      7.840
REMARK SMILES C[N@H+]1CCO[C@H](CNc2nnc(SCC(=O)OCCOCCOC(=O)c3ccc(-c4c5nc(c(-c6ccccc6)c6ccc([nH]6)c(-c6ccccc6)c6nc(c(-c7ccccc7)c7ccc4[nH]7)C=C6)C=C5)cc3)s2)C1
REMARK SMILES IDX 18 1 17 2 15 3 16 4 14 5 13 6 12 7 9 8 10 9 74 10 11 11 8 12
REMARK SMILES IDX 7 14 6 15 1 16 2 17 3 18 75 19 4 21 5 22 19 23 20 24 21 25
REMARK SMILES IDX 22 26 23 27 24 28 25 29 26 30 27 31 73 32 28 33 72 34 29 35
REMARK SMILES IDX 30 36 31 37 66 38 32 39 71 40 65 41 67 42 33 43 70 44 64 45
REMARK SMILES IDX 63 46 34 48 56 49 41 50 55 51 42 52 45 53 54 54 68 55 43 56
REMARK SMILES IDX 44 57 53 59 69 60 46 61 35 62 36 63 40 64 37 65 39 66 38 67
REMARK SMILES IDX 57 68 58 69 62 70 59 71 61 72 60 73 47 74 48 75 52 76 49 77
REMARK SMILES IDX 51 78 50 79
REMARK H PARENT 8 13 2 20 67 47 45 58
REMARK Flexibility Score: inf
ROOT
ATOM      1  C   UNL A   1      33.576  26.033  25.682  1.00  0.00     0.261 C 
ENDROOT
BRANCH   1   2
ATOM      2  O   UNL A   1      33.483  24.647  26.071  1.00  0.00    -0.463 OA
BRANCH   2   3
ATOM      3  C   UNL A   1      34.576  23.877  25.809  1.00  0.00     0.316 C 
ATOM      4  O   UNL A   1      35.187  23.245  26.666  1.00  0.00    -0.251 OA
BRANCH   3   5
ATOM      5  C   UNL A   1      35.006  23.815  24.356  1.00  0.00     0.200 C 
BRANCH   5   6
ATOM      6  S   UNL A   1      33.803  23.193  23.175  1.00  0.00    -0.082 SA
BRANCH   6   7
ATOM      7  C   UNL A   1      32.980  24.581  22.490  1.00  0.00     0.176 A 
ATOM      8  C   UNL A   1      31.837  26.633  22.037  1.00  0.00     0.206 A 
ATOM      9  N   UNL A   1      32.977  26.530  21.387  1.00  0.00    -0.119 NA
ATOM     10  S   UNL A   1      31.384  25.142  22.792  1.00  0.00    -0.069 S 
ATOM     11  N   UNL A   1      33.654  25.365  21.677  1.00  0.00    -0.130 NA
BRANCH   8  12
ATOM     12  N   UNL A   1      31.139  27.795  22.091  1.00  0.00    -0.357 N 
ATOM     13  H   UNL A   1      31.226  28.428  21.341  1.00  0.00     0.163 HD
BRANCH  12  14
ATOM     14  C   UNL A   1      30.264  28.157  23.204  1.00  0.00     0.153 C 
BRANCH  14  15
ATOM     15  C   UNL A   1      29.391  29.408  22.864  1.00  0.00     0.192 C 
ATOM     16  C   UNL A   1      27.880  31.160  20.654  1.00  0.00     0.332 C 
ATOM     17  N   UNL A   1      29.208  31.363  21.226  1.00  0.00    -0.333 N 
ATOM     18  C   UNL A   1      29.160  32.222  22.427  1.00  0.00     0.290 C 
ATOM     19  C   UNL A   1      29.883  30.091  21.563  1.00  0.00     0.296 C 
ATOM     20  H   UNL A   1      29.751  31.830  20.500  1.00  0.00     0.348 HD
ATOM     21  C   UNL A   1      28.636  31.504  23.680  1.00  0.00     0.222 C 
ATOM     22  O   UNL A   1      29.426  30.342  23.967  1.00  0.00    -0.365 OA
ENDBRANCH  14  15
ENDBRANCH  12  14
ENDBRANCH   8  12
ENDBRANCH   6   7
ENDBRANCH   5   6
ENDBRANCH   3   5
ENDBRANCH   2   3
ENDBRANCH   1   2
BRANCH   1  23
ATOM     23  C   UNL A   1      32.346  26.859  26.084  1.00  0.00     0.202 C 
BRANCH  23  24
ATOM     24  O   UNL A   1      32.587  28.164  26.612  1.00  0.00    -0.374 OA
BRANCH  24  25
ATOM     25  C   UNL A   1      32.689  29.231  25.677  1.00  0.00     0.202 C 
BRANCH  25  26
ATOM     26  C   UNL A   1      32.170  30.597  26.132  1.00  0.00     0.261 C 
BRANCH  26  27
ATOM     27  O   UNL A   1      32.573  30.943  27.453  1.00  0.00    -0.460 OA
BRANCH  27  28
ATOM     28  C   UNL A   1      33.445  31.969  27.494  1.00  0.00     0.338 C 
ATOM     29  O   UNL A   1      33.222  33.160  27.317  1.00  0.00    -0.246 OA
BRANCH  28  30
ATOM     30  C   UNL A   1      34.737  31.471  27.957  1.00  0.00     0.060 A 
ATOM     31  C   UNL A   1      34.795  30.138  28.371  1.00  0.00     0.016 A 
ATOM     32  C   UNL A   1      35.838  32.323  28.070  1.00  0.00     0.016 A 
ATOM     33  C   UNL A   1      35.948  29.664  28.975  1.00  0.00     0.010 A 
ATOM     34  C   UNL A   1      36.997  31.844  28.678  1.00  0.00     0.010 A 
ATOM     35  C   UNL A   1      37.034  30.529  29.172  1.00  0.00    -0.014 A 
BRANCH  35  36
ATOM     36  C   UNL A   1      38.141  30.082  30.037  1.00  0.00     0.031 A 
ATOM     37  C   UNL A   1      39.170  29.148  29.469  1.00  0.00     0.074 A 
ATOM     38  C   UNL A   1      38.249  30.561  31.286  1.00  0.00     0.049 A 
ATOM     39  N   UNL A   1      40.260  28.685  30.023  1.00  0.00    -0.248 NA
ATOM     40  C   UNL A   1      38.946  28.679  28.091  1.00  0.00     0.031 C 
ATOM     41  C   UNL A   1      37.318  31.499  31.914  1.00  0.00     0.029 A 
ATOM     42  N   UNL A   1      39.202  30.335  32.243  1.00  0.00    -0.354 N 
ATOM     43  C   UNL A   1      40.849  27.872  29.064  1.00  0.00     0.074 A 
ATOM     44  C   UNL A   1      39.984  27.877  27.907  1.00  0.00     0.031 C 
ATOM     45  C   UNL A   1      37.751  31.774  33.155  1.00  0.00     0.029 A 
ATOM     46  C   UNL A   1      38.973  31.016  33.412  1.00  0.00     0.049 A 
ATOM     47  H   UNL A   1      39.975  29.741  32.106  1.00  0.00     0.167 HD
ATOM     48  C   UNL A   1      42.015  27.187  29.142  1.00  0.00     0.031 A 
ATOM     49  C   UNL A   1      39.673  31.016  34.561  1.00  0.00     0.031 A 
ATOM     50  C   UNL A   1      42.856  27.172  30.307  1.00  0.00     0.049 A 
ATOM     51  C   UNL A   1      40.931  30.200  34.643  1.00  0.00     0.074 A 
ATOM     52  C   UNL A   1      44.062  26.522  30.496  1.00  0.00     0.029 A 
ATOM     53  N   UNL A   1      42.567  27.836  31.490  1.00  0.00    -0.354 N 
ATOM     54  N   UNL A   1      41.498  29.462  33.719  1.00  0.00    -0.248 NA
ATOM     55  C   UNL A   1      41.651  30.225  35.924  1.00  0.00     0.031 C 
ATOM     56  C   UNL A   1      44.478  26.753  31.811  1.00  0.00     0.029 A 
ATOM     57  C   UNL A   1      43.558  27.591  32.423  1.00  0.00     0.049 A 
ATOM     58  H   UNL A   1      41.775  28.400  31.643  1.00  0.00     0.167 HD
ATOM     59  C   UNL A   1      42.653  28.951  34.297  1.00  0.00     0.074 A 
ATOM     60  C   UNL A   1      42.710  29.477  35.647  1.00  0.00     0.031 C 
ATOM     61  C   UNL A   1      43.582  28.122  33.763  1.00  0.00     0.031 A 
BRANCH  48  62
ATOM     62  C   UNL A   1      42.417  26.375  27.944  1.00  0.00    -0.014 A 
ATOM     63  C   UNL A   1      43.121  26.952  26.874  1.00  0.00     0.009 A 
ATOM     64  C   UNL A   1      42.091  25.012  27.885  1.00  0.00     0.009 A 
ATOM     65  C   UNL A   1      43.461  26.186  25.756  1.00  0.00     0.001 A 
ATOM     66  C   UNL A   1      42.453  24.243  26.777  1.00  0.00     0.001 A 
ATOM     67  C   UNL A   1      43.129  24.832  25.710  1.00  0.00     0.000 A 
ENDBRANCH  48  62
BRANCH  49  68
ATOM     68  C   UNL A   1      39.193  31.816  35.716  1.00  0.00    -0.014 A 
ATOM     69  C   UNL A   1      39.654  33.122  35.927  1.00  0.00     0.009 A 
ATOM     70  C   UNL A   1      38.253  31.275  36.609  1.00  0.00     0.009 A 
ATOM     71  C   UNL A   1      39.198  33.866  37.017  1.00  0.00     0.001 A 
ATOM     72  C   UNL A   1      37.779  32.029  37.684  1.00  0.00     0.001 A 
ATOM     73  C   UNL A   1      38.257  33.321  37.892  1.00  0.00     0.000 A 
ENDBRANCH  49  68
BRANCH  61  74
ATOM     74  C   UNL A   1      44.748  27.755  34.634  1.00  0.00    -0.014 A 
ATOM     75  C   UNL A   1      45.902  28.553  34.674  1.00  0.00     0.009 A 
ATOM     76  C   UNL A   1      44.672  26.620  35.454  1.00  0.00     0.009 A 
ATOM     77  C   UNL A   1      46.971  28.202  35.500  1.00  0.00     0.001 A 
ATOM     78  C   UNL A   1      45.732  26.286  36.298  1.00  0.00     0.001 A 
ATOM     79  C   UNL A   1      46.884  27.072  36.313  1.00  0.00     0.000 A 
ENDBRANCH  61  74
ENDBRANCH  35  36
ENDBRANCH  28  30
ENDBRANCH  27  28
ENDBRANCH  26  27
ENDBRANCH  25  26
ENDBRANCH  24  25
ENDBRANCH  23  24
ENDBRANCH   1  23
TORSDOF 19
ENDMDL
MODEL 3
REMARK VINA RESULT:      -9.2      2.251      6.702
REMARK SMILES C[N@H+]1CCO[C@H](CNc2nnc(SCC(=O)OCCOCCOC(=O)c3ccc(-c4c5nc(c(-c6ccccc6)c6ccc([nH]6)c(-c6ccccc6)c6nc(c(-c7ccccc7)c7ccc4[nH]7)C=C6)C=C5)cc3)s2)C1
REMARK SMILES IDX 18 1 17 2 15 3 16 4 14 5 13 6 12 7 9 8 10 9 74 10 11 11 8 12
REMARK SMILES IDX 7 14 6 15 1 16 2 17 3 18 75 19 4 21 5 22 19 23 20 24 21 25
REMARK SMILES IDX 22 26 23 27 24 28 25 29 26 30 27 31 73 32 28 33 72 34 29 35
REMARK SMILES IDX 30 36 31 37 66 38 32 39 71 40 65 41 67 42 33 43 70 44 64 45
REMARK SMILES IDX 63 46 34 48 56 49 41 50 55 51 42 52 45 53 54 54 68 55 43 56
REMARK SMILES IDX 44 57 53 59 69 60 46 61 35 62 36 63 40 64 37 65 39 66 38 67
REMARK SMILES IDX 57 68 58 69 62 70 59 71 61 72 60 73 47 74 48 75 52 76 49 77
REMARK SMILES IDX 51 78 50 79
REMARK H PARENT 8 13 2 20 67 47 45 58
REMARK Flexibility Score: inf
ROOT
ATOM      1  C   UNL A   1      31.804  28.691  27.048  1.00  0.00     0.261 C 
ENDROOT
BRANCH   1   2
ATOM      2  O   UNL A   1      32.598  27.487  27.007  1.00  0.00    -0.463 OA
BRANCH   2   3
ATOM      3  C   UNL A   1      32.771  26.927  25.778  1.00  0.00     0.316 C 
ATOM      4  O   UNL A   1      33.841  26.473  25.378  1.00  0.00    -0.251 OA
BRANCH   3   5
ATOM      5  C   UNL A   1      31.536  26.863  24.901  1.00  0.00     0.200 C 
BRANCH   5   6
ATOM      6  S   UNL A   1      30.161  25.874  25.498  1.00  0.00    -0.082 SA
BRANCH   6   7
ATOM      7  C   UNL A   1      30.807  24.314  25.969  1.00  0.00     0.176 A 
ATOM      8  C   UNL A   1      32.089  22.326  26.334  1.00  0.00     0.206 A 
ATOM      9  N   UNL A   1      31.771  22.941  27.454  1.00  0.00    -0.119 NA
ATOM     10  S   UNL A   1      31.248  22.986  24.971  1.00  0.00    -0.069 S 
ATOM     11  N   UNL A   1      31.065  24.106  27.242  1.00  0.00    -0.130 NA
BRANCH   8  12
ATOM     12  N   UNL A   1      32.985  21.309  26.297  1.00  0.00    -0.357 N 
ATOM     13  H   UNL A   1      33.250  20.890  27.149  1.00  0.00     0.163 HD
BRANCH  12  14
ATOM     14  C   UNL A   1      33.577  20.801  25.062  1.00  0.00     0.153 C 
BRANCH  14  15
ATOM     15  C   UNL A   1      34.969  21.454  24.782  1.00  0.00     0.192 C 
ATOM     16  C   UNL A   1      38.080  21.660  25.504  1.00  0.00     0.332 C 
ATOM     17  N   UNL A   1      36.981  22.511  25.953  1.00  0.00    -0.333 N 
ATOM     18  C   UNL A   1      36.770  23.656  25.045  1.00  0.00     0.290 C 
ATOM     19  C   UNL A   1      35.711  21.768  26.105  1.00  0.00     0.296 C 
ATOM     20  H   UNL A   1      37.260  22.857  26.872  1.00  0.00     0.348 HD
ATOM     21  C   UNL A   1      36.058  23.283  23.735  1.00  0.00     0.222 C 
ATOM     22  O   UNL A   1      34.795  22.659  24.003  1.00  0.00    -0.365 OA
ENDBRANCH  14  15
ENDBRANCH  12  14
ENDBRANCH   8  12
ENDBRANCH   6   7
ENDBRANCH   5   6
ENDBRANCH   3   5
ENDBRANCH   2   3
ENDBRANCH   1   2
BRANCH   1  23
ATOM     23  C   UNL A   1      32.517  29.908  26.441  1.00  0.00     0.202 C 
BRANCH  23  24
ATOM     24  O   UNL A   1      31.876  31.176  26.593  1.00  0.00    -0.374 OA
BRANCH  24  25
ATOM     25  C   UNL A   1      32.702  32.282  26.931  1.00  0.00     0.202 C 
BRANCH  25  26
ATOM     26  C   UNL A   1      32.016  33.474  27.603  1.00  0.00     0.261 C 
BRANCH  26  27
ATOM     27  O   UNL A   1      32.904  34.552  27.882  1.00  0.00    -0.460 OA
BRANCH  27  28
ATOM     28  C   UNL A   1      33.285  34.608  29.174  1.00  0.00     0.338 C 
ATOM     29  O   UNL A   1      32.693  35.117  30.117  1.00  0.00    -0.246 OA
BRANCH  28  30
ATOM     30  C   UNL A   1      34.490  33.800  29.345  1.00  0.00     0.060 A 
ATOM     31  C   UNL A   1      34.469  32.832  30.352  1.00  0.00     0.016 A 
ATOM     32  C   UNL A   1      35.640  34.055  28.596  1.00  0.00     0.016 A 
ATOM     33  C   UNL A   1      35.637  32.156  30.669  1.00  0.00     0.010 A 
ATOM     34  C   UNL A   1      36.814  33.375  28.917  1.00  0.00     0.010 A 
ATOM     35  C   UNL A   1      36.821  32.461  29.983  1.00  0.00    -0.014 A 
BRANCH  35  36
ATOM     36  C   UNL A   1      38.092  31.922  30.503  1.00  0.00     0.031 A 
ATOM     37  C   UNL A   1      38.633  30.651  29.915  1.00  0.00     0.074 A 
ATOM     38  C   UNL A   1      38.774  32.603  31.437  1.00  0.00     0.049 A 
ATOM     39  N   UNL A   1      39.759  30.038  30.168  1.00  0.00    -0.248 NA
ATOM     40  C   UNL A   1      37.796  29.984  28.902  1.00  0.00     0.031 C 
ATOM     41  C   UNL A   1      38.347  33.864  32.043  1.00  0.00     0.029 A 
ATOM     42  N   UNL A   1      39.980  32.333  32.027  1.00  0.00    -0.354 N 
ATOM     43  C   UNL A   1      39.766  28.917  29.348  1.00  0.00     0.074 A 
ATOM     44  C   UNL A   1      38.521  28.914  28.615  1.00  0.00     0.031 C 
ATOM     45  C   UNL A   1      39.283  34.264  32.919  1.00  0.00     0.029 A 
ATOM     46  C   UNL A   1      40.359  33.276  32.948  1.00  0.00     0.049 A 
ATOM     47  H   UNL A   1      40.520  31.539  31.812  1.00  0.00     0.167 HD
ATOM     48  C   UNL A   1      40.732  27.977  29.216  1.00  0.00     0.031 A 
ATOM     49  C   UNL A   1      41.453  33.327  33.729  1.00  0.00     0.031 A 
ATOM     50  C   UNL A   1      41.957  27.979  29.968  1.00  0.00     0.049 A 
ATOM     51  C   UNL A   1      42.482  32.240  33.608  1.00  0.00     0.074 A 
ATOM     52  C   UNL A   1      43.009  27.083  29.910  1.00  0.00     0.029 A 
ATOM     53  N   UNL A   1      42.285  28.926  30.926  1.00  0.00    -0.354 N 
ATOM     54  N   UNL A   1      42.496  31.203  32.805  1.00  0.00    -0.248 NA
ATOM     55  C   UNL A   1      43.651  32.335  34.492  1.00  0.00     0.031 C 
ATOM     56  C   UNL A   1      43.954  27.462  30.870  1.00  0.00     0.029 A 
ATOM     57  C   UNL A   1      43.513  28.623  31.488  1.00  0.00     0.049 A 
ATOM     58  H   UNL A   1      41.728  29.700  31.171  1.00  0.00     0.167 HD
ATOM     59  C   UNL A   1      43.682  30.532  33.070  1.00  0.00     0.074 A 
ATOM     60  C   UNL A   1      44.367  31.291  34.099  1.00  0.00     0.031 C 
ATOM     61  C   UNL A   1      44.164  29.393  32.517  1.00  0.00     0.031 A 
BRANCH  48  62
ATOM     62  C   UNL A   1      40.474  26.858  28.248  1.00  0.00    -0.014 A 
ATOM     63  C   UNL A   1      39.751  25.716  28.627  1.00  0.00     0.009 A 
ATOM     64  C   UNL A   1      40.959  26.949  26.934  1.00  0.00     0.009 A 
ATOM     65  C   UNL A   1      39.547  24.674  27.720  1.00  0.00     0.001 A 
ATOM     66  C   UNL A   1      40.732  25.916  26.021  1.00  0.00     0.001 A 
ATOM     67  C   UNL A   1      40.036  24.776  26.417  1.00  0.00     0.000 A 
ENDBRANCH  48  62
BRANCH  49  68
ATOM     68  C   UNL A   1      41.621  34.446  34.690  1.00  0.00    -0.014 A 
ATOM     69  C   UNL A   1      42.260  35.633  34.305  1.00  0.00     0.009 A 
ATOM     70  C   UNL A   1      41.126  34.335  35.999  1.00  0.00     0.009 A 
ATOM     71  C   UNL A   1      42.415  36.680  35.216  1.00  0.00     0.001 A 
ATOM     72  C   UNL A   1      41.259  35.393  36.900  1.00  0.00     0.001 A 
ATOM     73  C   UNL A   1      41.910  36.562  36.511  1.00  0.00     0.000 A 
ENDBRANCH  49  68
BRANCH  61  74
ATOM     74  C   UNL A   1      45.504  28.916  32.998  1.00  0.00    -0.014 A 
ATOM     75  C   UNL A   1      46.690  29.346  32.383  1.00  0.00     0.009 A 
ATOM     76  C   UNL A   1      45.579  28.059  34.106  1.00  0.00     0.009 A 
ATOM     77  C   UNL A   1      47.926  28.901  32.852  1.00  0.00     0.001 A 
ATOM     78  C   UNL A   1      46.818  27.637  34.589  1.00  0.00     0.001 A 
ATOM     79  C   UNL A   1      47.990  28.051  33.957  1.00  0.00     0.000 A 
ENDBRANCH  61  74
ENDBRANCH  35  36
ENDBRANCH  28  30
ENDBRANCH  27  28
ENDBRANCH  26  27
ENDBRANCH  25  26
ENDBRANCH  24  25
ENDBRANCH  23  24
ENDBRANCH   1  23
TORSDOF 19
ENDMDL
