MODEL 1
REMARK VINA RESULT:     -11.7      0.000      0.000
REMARK SMILES CC1=CC[C@@](C(=O)N/N=C/C2=C([O-])CC(C)(C)CC2=O)(C(=O)OCCOCCOC(=O)c2ccc(-c3c4nc(c(-c5ccccc5)c5ccc([nH]5)c(-c5ccccc5)c5nc(c(-c6ccccc6)c6ccc3[nH]6)C=C5)C=C4)cc2)C[C@@H]1c1ccccc1
REMARK SMILES IDX 25 1 24 2 23 3 21 4 22 5 5 6 1 7 2 8 3 9 81 10 4 11 80 12
REMARK SMILES IDX 82 13 83 14 87 15 84 16 86 17 85 18 6 19 7 20 8 21 9 23
REMARK SMILES IDX 10 24 11 25 12 26 19 27 13 28 14 29 18 30 20 31 15 32 16 33
REMARK SMILES IDX 17 34 26 35 27 36 28 37 29 38 30 39 31 40 32 41 33 42 79 43
REMARK SMILES IDX 34 44 78 45 35 46 36 47 37 48 72 49 38 50 77 51 71 52 73 53
REMARK SMILES IDX 39 54 76 55 70 56 69 57 40 59 62 60 47 61 61 62 48 63 51 64
REMARK SMILES IDX 60 65 74 66 49 67 50 68 59 70 75 71 52 72 41 73 42 74 46 75
REMARK SMILES IDX 43 76 45 77 44 78 63 79 64 80 68 81 65 82 67 83 66 84 53 85
REMARK SMILES IDX 54 86 58 87 55 88 57 89 56 90
REMARK H PARENT 8 22 73 58 51 69
REMARK Flexibility Score: inf
ROOT
ATOM      1  C   UNL A   1      32.179  32.317  27.120  1.00  0.00     0.202 C 
ENDROOT
BRANCH   1   2
ATOM      2  C   UNL A   1      33.166  31.156  27.269  1.00  0.00     0.261 C 
BRANCH   2   3
ATOM      3  O   UNL A   1      33.312  30.364  26.075  1.00  0.00    -0.462 OA
BRANCH   3   4
ATOM      4  C   UNL A   1      33.749  29.100  26.338  1.00  0.00     0.322 C 
ATOM      5  O   UNL A   1      34.476  28.857  27.298  1.00  0.00    -0.251 OA
BRANCH   4   6
ATOM      6  C   UNL A   1      33.129  28.005  25.444  1.00  0.00     0.152 C 
ATOM      7  C   UNL A   1      32.597  25.523  21.818  1.00  0.00     0.040 C 
ATOM      8  C   UNL A   1      32.942  26.426  22.970  1.00  0.00    -0.070 C 
ATOM      9  C   UNL A   1      33.729  25.993  23.975  1.00  0.00    -0.026 C 
ATOM     10  C   UNL A   1      32.500  27.871  22.896  1.00  0.00     0.046 C 
ATOM     11  C   UNL A   1      34.026  26.773  25.239  1.00  0.00     0.056 C 
ATOM     12  C   UNL A   1      33.071  28.716  24.057  1.00  0.00     0.042 C 
BRANCH  10  13
ATOM     13  C   UNL A   1      31.027  28.208  22.726  1.00  0.00    -0.041 A 
ATOM     14  C   UNL A   1      30.717  29.521  22.314  1.00  0.00     0.004 A 
ATOM     15  C   UNL A   1      29.975  27.366  23.095  1.00  0.00     0.004 A 
ATOM     16  C   UNL A   1      29.412  30.004  22.351  1.00  0.00     0.000 A 
ATOM     17  C   UNL A   1      28.664  27.851  23.134  1.00  0.00     0.000 A 
ATOM     18  C   UNL A   1      28.386  29.172  22.780  1.00  0.00     0.000 A 
ENDBRANCH  10  13
BRANCH   6  19
ATOM     19  C   UNL A   1      31.708  27.726  26.016  1.00  0.00     0.257 C 
ATOM     20  O   UNL A   1      30.821  28.589  25.988  1.00  0.00    -0.272 OA
ATOM     21  N   UNL A   1      31.323  26.518  26.551  1.00  0.00    -0.246 N 
ATOM     22  H   UNL A   1      30.422  26.462  26.944  1.00  0.00     0.193 HD
BRANCH  21  23
ATOM     23  N   UNL A   1      32.084  25.400  26.580  1.00  0.00    -0.181 NA
ATOM     24  C   UNL A   1      31.480  24.283  26.328  1.00  0.00     0.144 C 
BRANCH  24  25
ATOM     25  C   UNL A   1      32.193  23.002  26.051  1.00  0.00     0.026 C 
ATOM     26  C   UNL A   1      32.240  22.514  24.795  1.00  0.00    -0.119 C 
ATOM     27  C   UNL A   1      33.048  22.330  27.075  1.00  0.00     0.164 C 
ATOM     28  O   UNL A   1      31.526  23.047  23.736  1.00  0.00    -0.875 OA
ATOM     29  C   UNL A   1      33.156  21.398  24.342  1.00  0.00     0.026 C 
ATOM     30  C   UNL A   1      34.283  21.601  26.581  1.00  0.00     0.087 C 
ATOM     31  O   UNL A   1      32.780  22.376  28.274  1.00  0.00    -0.294 OA
ATOM     32  C   UNL A   1      33.922  20.638  25.447  1.00  0.00    -0.025 C 
ATOM     33  C   UNL A   1      33.075  19.478  26.007  1.00  0.00     0.012 C 
ATOM     34  C   UNL A   1      35.209  20.043  24.843  1.00  0.00     0.012 C 
ENDBRANCH  24  25
ENDBRANCH  21  23
ENDBRANCH   6  19
ENDBRANCH   4   6
ENDBRANCH   3   4
ENDBRANCH   2   3
ENDBRANCH   1   2
BRANCH   1  35
ATOM     35  O   UNL A   1      32.515  33.580  27.688  1.00  0.00    -0.374 OA
BRANCH  35  36
ATOM     36  C   UNL A   1      33.837  33.734  28.192  1.00  0.00     0.202 C 
BRANCH  36  37
ATOM     37  C   UNL A   1      34.034  33.743  29.724  1.00  0.00     0.261 C 
BRANCH  37  38
ATOM     38  O   UNL A   1      34.351  32.459  30.298  1.00  0.00    -0.460 OA
BRANCH  38  39
ATOM     39  C   UNL A   1      35.088  32.514  31.439  1.00  0.00     0.338 C 
ATOM     40  O   UNL A   1      34.685  32.715  32.571  1.00  0.00    -0.246 OA
BRANCH  39  41
ATOM     41  C   UNL A   1      36.484  32.110  31.182  1.00  0.00     0.060 A 
ATOM     42  C   UNL A   1      37.056  32.500  29.964  1.00  0.00     0.016 A 
ATOM     43  C   UNL A   1      37.170  31.248  32.039  1.00  0.00     0.016 A 
ATOM     44  C   UNL A   1      38.306  32.017  29.588  1.00  0.00     0.010 A 
ATOM     45  C   UNL A   1      38.422  30.747  31.650  1.00  0.00     0.010 A 
ATOM     46  C   UNL A   1      38.982  31.105  30.409  1.00  0.00    -0.014 A 
BRANCH  46  47
ATOM     47  C   UNL A   1      40.205  30.447  29.884  1.00  0.00     0.031 A 
ATOM     48  C   UNL A   1      41.531  31.147  30.002  1.00  0.00     0.074 A 
ATOM     49  C   UNL A   1      40.150  29.198  29.386  1.00  0.00     0.049 A 
ATOM     50  N   UNL A   1      42.727  30.719  29.680  1.00  0.00    -0.248 NA
ATOM     51  C   UNL A   1      41.512  32.506  30.566  1.00  0.00     0.031 C 
ATOM     52  C   UNL A   1      38.938  28.389  29.265  1.00  0.00     0.029 A 
ATOM     53  N   UNL A   1      41.148  28.386  28.907  1.00  0.00    -0.354 N 
ATOM     54  C   UNL A   1      43.598  31.754  29.998  1.00  0.00     0.074 A 
ATOM     55  C   UNL A   1      42.793  32.841  30.513  1.00  0.00     0.031 C 
ATOM     56  C   UNL A   1      39.266  27.189  28.754  1.00  0.00     0.029 A 
ATOM     57  C   UNL A   1      40.701  27.157  28.488  1.00  0.00     0.049 A 
ATOM     58  H   UNL A   1      42.092  28.658  28.867  1.00  0.00     0.167 HD
ATOM     59  C   UNL A   1      44.948  31.795  29.879  1.00  0.00     0.031 A 
ATOM     60  C   UNL A   1      41.374  26.124  27.943  1.00  0.00     0.031 A 
ATOM     61  C   UNL A   1      45.753  30.722  29.359  1.00  0.00     0.049 A 
ATOM     62  C   UNL A   1      42.863  26.229  27.746  1.00  0.00     0.074 A 
ATOM     63  C   UNL A   1      47.130  30.665  29.223  1.00  0.00     0.029 A 
ATOM     64  N   UNL A   1      45.255  29.522  28.878  1.00  0.00    -0.354 N 
ATOM     65  N   UNL A   1      43.677  27.199  28.086  1.00  0.00    -0.248 NA
ATOM     66  C   UNL A   1      43.525  25.089  27.096  1.00  0.00     0.031 C 
ATOM     67  C   UNL A   1      47.459  29.455  28.603  1.00  0.00     0.029 A 
ATOM     68  C   UNL A   1      46.293  28.733  28.410  1.00  0.00     0.049 A 
ATOM     69  H   UNL A   1      44.303  29.267  28.870  1.00  0.00     0.167 HD
ATOM     70  C   UNL A   1      44.947  26.775  27.714  1.00  0.00     0.074 A 
ATOM     71  C   UNL A   1      44.798  25.452  27.143  1.00  0.00     0.031 C 
ATOM     72  C   UNL A   1      46.132  27.422  27.835  1.00  0.00     0.031 A 
BRANCH  59  73
ATOM     73  C   UNL A   1      45.642  33.066  30.286  1.00  0.00    -0.014 A 
ATOM     74  C   UNL A   1      45.684  34.182  29.437  1.00  0.00     0.009 A 
ATOM     75  C   UNL A   1      46.223  33.160  31.560  1.00  0.00     0.009 A 
ATOM     76  C   UNL A   1      46.318  35.358  29.846  1.00  0.00     0.001 A 
ATOM     77  C   UNL A   1      46.834  34.344  31.977  1.00  0.00     0.001 A 
ATOM     78  C   UNL A   1      46.887  35.439  31.117  1.00  0.00     0.000 A 
ENDBRANCH  59  73
BRANCH  60  79
ATOM     79  C   UNL A   1      40.647  24.896  27.522  1.00  0.00    -0.014 A 
ATOM     80  C   UNL A   1      40.987  23.643  28.054  1.00  0.00     0.009 A 
ATOM     81  C   UNL A   1      39.633  24.970  26.554  1.00  0.00     0.009 A 
ATOM     82  C   UNL A   1      40.344  22.486  27.605  1.00  0.00     0.001 A 
ATOM     83  C   UNL A   1      38.971  23.817  26.130  1.00  0.00     0.001 A 
ATOM     84  C   UNL A   1      39.335  22.574  26.647  1.00  0.00     0.000 A 
ENDBRANCH  60  79
BRANCH  72  85
ATOM     85  C   UNL A   1      47.361  26.697  27.362  1.00  0.00    -0.014 A 
ATOM     86  C   UNL A   1      48.038  25.790  28.193  1.00  0.00     0.009 A 
ATOM     87  C   UNL A   1      47.837  26.909  26.058  1.00  0.00     0.009 A 
ATOM     88  C   UNL A   1      49.192  25.144  27.742  1.00  0.00     0.001 A 
ATOM     89  C   UNL A   1      48.973  26.239  25.600  1.00  0.00     0.001 A 
ATOM     90  C   UNL A   1      49.656  25.367  26.446  1.00  0.00     0.000 A 
ENDBRANCH  72  85
ENDBRANCH  46  47
ENDBRANCH  39  41
ENDBRANCH  38  39
ENDBRANCH  37  38
ENDBRANCH  36  37
ENDBRANCH  35  36
ENDBRANCH   1  35
TORSDOF 18
ENDMDL
MODEL 2
REMARK VINA RESULT:     -11.6      3.297      9.013
REMARK SMILES CC1=CC[C@@](C(=O)N/N=C/C2=C([O-])CC(C)(C)CC2=O)(C(=O)OCCOCCOC(=O)c2ccc(-c3c4nc(c(-c5ccccc5)c5ccc([nH]5)c(-c5ccccc5)c5nc(c(-c6ccccc6)c6ccc3[nH]6)C=C5)C=C4)cc2)C[C@@H]1c1ccccc1
REMARK SMILES IDX 25 1 24 2 23 3 21 4 22 5 5 6 1 7 2 8 3 9 81 10 4 11 80 12
REMARK SMILES IDX 82 13 83 14 87 15 84 16 86 17 85 18 6 19 7 20 8 21 9 23
REMARK SMILES IDX 10 24 11 25 12 26 19 27 13 28 14 29 18 30 20 31 15 32 16 33
REMARK SMILES IDX 17 34 26 35 27 36 28 37 29 38 30 39 31 40 32 41 33 42 79 43
REMARK SMILES IDX 34 44 78 45 35 46 36 47 37 48 72 49 38 50 77 51 71 52 73 53
REMARK SMILES IDX 39 54 76 55 70 56 69 57 40 59 62 60 47 61 61 62 48 63 51 64
REMARK SMILES IDX 60 65 74 66 49 67 50 68 59 70 75 71 52 72 41 73 42 74 46 75
REMARK SMILES IDX 43 76 45 77 44 78 63 79 64 80 68 81 65 82 67 83 66 84 53 85
REMARK SMILES IDX 54 86 58 87 55 88 57 89 56 90
REMARK H PARENT 8 22 73 58 51 69
REMARK Flexibility Score: inf
ROOT
ATOM      1  C   UNL A   1      39.850  21.364  26.503  1.00  0.00     0.202 C 
ENDROOT
BRANCH   1   2
ATOM      2  C   UNL A   1      38.748  21.806  25.536  1.00  0.00     0.261 C 
BRANCH   2   3
ATOM      3  O   UNL A   1      37.434  21.827  26.128  1.00  0.00    -0.462 OA
BRANCH   3   4
ATOM      4  C   UNL A   1      36.831  23.043  26.014  1.00  0.00     0.322 C 
ATOM      5  O   UNL A   1      37.466  24.090  26.124  1.00  0.00    -0.251 OA
BRANCH   4   6
ATOM      6  C   UNL A   1      35.351  22.990  25.578  1.00  0.00     0.152 C 
ATOM      7  C   UNL A   1      30.987  22.420  26.039  1.00  0.00     0.040 C 
ATOM      8  C   UNL A   1      32.478  22.610  26.075  1.00  0.00    -0.070 C 
ATOM      9  C   UNL A   1      33.014  23.841  26.196  1.00  0.00    -0.026 C 
ATOM     10  C   UNL A   1      33.350  21.374  26.115  1.00  0.00     0.046 C 
ATOM     11  C   UNL A   1      34.494  24.151  26.107  1.00  0.00     0.056 C 
ATOM     12  C   UNL A   1      34.841  21.719  26.325  1.00  0.00     0.042 C 
BRANCH  10  13
ATOM     13  C   UNL A   1      33.240  20.330  25.015  1.00  0.00    -0.041 A 
ATOM     14  C   UNL A   1      32.511  20.693  23.863  1.00  0.00     0.004 A 
ATOM     15  C   UNL A   1      33.672  19.007  25.134  1.00  0.00     0.004 A 
ATOM     16  C   UNL A   1      32.152  19.749  22.905  1.00  0.00     0.000 A 
ATOM     17  C   UNL A   1      33.310  18.057  24.173  1.00  0.00     0.000 A 
ATOM     18  C   UNL A   1      32.537  18.425  23.071  1.00  0.00     0.000 A 
ENDBRANCH  10  13
BRANCH   6  19
ATOM     19  C   UNL A   1      35.356  22.796  24.033  1.00  0.00     0.257 C 
ATOM     20  O   UNL A   1      35.732  21.735  23.518  1.00  0.00    -0.272 OA
ATOM     21  N   UNL A   1      34.921  23.749  23.141  1.00  0.00    -0.246 N 
ATOM     22  H   UNL A   1      35.025  23.554  22.182  1.00  0.00     0.193 HD
BRANCH  21  23
ATOM     23  N   UNL A   1      34.363  24.935  23.478  1.00  0.00    -0.181 NA
ATOM     24  C   UNL A   1      33.639  25.510  22.572  1.00  0.00     0.144 C 
BRANCH  24  25
ATOM     25  C   UNL A   1      32.737  26.667  22.845  1.00  0.00     0.026 C 
ATOM     26  C   UNL A   1      33.069  27.898  22.406  1.00  0.00    -0.119 C 
ATOM     27  C   UNL A   1      31.365  26.491  23.408  1.00  0.00     0.164 C 
ATOM     28  O   UNL A   1      34.291  28.209  21.836  1.00  0.00    -0.875 OA
ATOM     29  C   UNL A   1      32.122  29.078  22.368  1.00  0.00     0.026 C 
ATOM     30  C   UNL A   1      30.290  27.451  22.936  1.00  0.00     0.087 C 
ATOM     31  O   UNL A   1      31.104  25.595  24.208  1.00  0.00    -0.294 OA
ATOM     32  C   UNL A   1      30.762  28.900  23.079  1.00  0.00    -0.025 C 
ATOM     33  C   UNL A   1      30.872  29.261  24.573  1.00  0.00     0.012 C 
ATOM     34  C   UNL A   1      29.733  29.847  22.432  1.00  0.00     0.012 C 
ENDBRANCH  24  25
ENDBRANCH  21  23
ENDBRANCH   6  19
ENDBRANCH   4   6
ENDBRANCH   3   4
ENDBRANCH   2   3
ENDBRANCH   1   2
BRANCH   1  35
ATOM     35  O   UNL A   1      41.057  20.825  25.967  1.00  0.00    -0.374 OA
BRANCH  35  36
ATOM     36  C   UNL A   1      41.634  19.719  26.653  1.00  0.00     0.202 C 
BRANCH  36  37
ATOM     37  C   UNL A   1      42.842  19.010  26.001  1.00  0.00     0.261 C 
BRANCH  37  38
ATOM     38  O   UNL A   1      43.139  19.438  24.657  1.00  0.00    -0.460 OA
BRANCH  38  39
ATOM     39  C   UNL A   1      44.462  19.607  24.395  1.00  0.00     0.338 C 
ATOM     40  O   UNL A   1      45.212  18.824  23.840  1.00  0.00    -0.246 OA
BRANCH  39  41
ATOM     41  C   UNL A   1      44.887  20.985  24.709  1.00  0.00     0.060 A 
ATOM     42  C   UNL A   1      45.382  21.230  25.997  1.00  0.00     0.016 A 
ATOM     43  C   UNL A   1      44.672  22.042  23.824  1.00  0.00     0.016 A 
ATOM     44  C   UNL A   1      45.647  22.532  26.412  1.00  0.00     0.010 A 
ATOM     45  C   UNL A   1      44.921  23.356  24.250  1.00  0.00     0.010 A 
ATOM     46  C   UNL A   1      45.380  23.609  25.556  1.00  0.00    -0.014 A 
BRANCH  46  47
ATOM     47  C   UNL A   1      45.469  24.987  26.100  1.00  0.00     0.031 A 
ATOM     48  C   UNL A   1      46.789  25.710  26.077  1.00  0.00     0.074 A 
ATOM     49  C   UNL A   1      44.365  25.626  26.531  1.00  0.00     0.049 A 
ATOM     50  N   UNL A   1      47.068  26.940  26.429  1.00  0.00    -0.248 NA
ATOM     51  C   UNL A   1      47.948  24.949  25.584  1.00  0.00     0.031 C 
ATOM     52  C   UNL A   1      43.017  25.059  26.557  1.00  0.00     0.029 A 
ATOM     53  N   UNL A   1      44.204  26.902  27.011  1.00  0.00    -0.354 N 
ATOM     54  C   UNL A   1      48.429  27.100  26.204  1.00  0.00     0.074 A 
ATOM     55  C   UNL A   1      48.927  25.834  25.710  1.00  0.00     0.031 C 
ATOM     56  C   UNL A   1      42.164  25.990  27.019  1.00  0.00     0.029 A 
ATOM     57  C   UNL A   1      42.907  27.203  27.347  1.00  0.00     0.049 A 
ATOM     58  H   UNL A   1      44.948  27.540  27.107  1.00  0.00     0.167 HD
ATOM     59  C   UNL A   1      49.197  28.202  26.384  1.00  0.00     0.031 A 
ATOM     60  C   UNL A   1      42.380  28.328  27.868  1.00  0.00     0.031 A 
ATOM     61  C   UNL A   1      48.710  29.461  26.884  1.00  0.00     0.049 A 
ATOM     62  C   UNL A   1      43.273  29.511  28.135  1.00  0.00     0.074 A 
ATOM     63  C   UNL A   1      49.410  30.640  27.078  1.00  0.00     0.029 A 
ATOM     64  N   UNL A   1      47.405  29.703  27.280  1.00  0.00    -0.354 N 
ATOM     65  N   UNL A   1      44.550  29.659  27.882  1.00  0.00    -0.248 NA
ATOM     66  C   UNL A   1      42.643  30.686  28.755  1.00  0.00     0.031 C 
ATOM     67  C   UNL A   1      48.541  31.576  27.648  1.00  0.00     0.029 A 
ATOM     68  C   UNL A   1      47.287  30.999  27.752  1.00  0.00     0.049 A 
ATOM     69  H   UNL A   1      46.670  29.049  27.233  1.00  0.00     0.167 HD
ATOM     70  C   UNL A   1      44.870  30.949  28.288  1.00  0.00     0.074 A 
ATOM     71  C   UNL A   1      43.648  31.549  28.783  1.00  0.00     0.031 C 
ATOM     72  C   UNL A   1      46.068  31.582  28.252  1.00  0.00     0.031 A 
BRANCH  59  73
ATOM     73  C   UNL A   1      50.664  28.085  26.074  1.00  0.00    -0.014 A 
ATOM     74  C   UNL A   1      51.588  27.679  27.048  1.00  0.00     0.009 A 
ATOM     75  C   UNL A   1      51.119  28.341  24.771  1.00  0.00     0.009 A 
ATOM     76  C   UNL A   1      52.944  27.559  26.730  1.00  0.00     0.001 A 
ATOM     77  C   UNL A   1      52.469  28.196  24.449  1.00  0.00     0.001 A 
ATOM     78  C   UNL A   1      53.381  27.812  25.430  1.00  0.00     0.000 A 
ENDBRANCH  59  73
BRANCH  60  79
ATOM     79  C   UNL A   1      40.930  28.395  28.193  1.00  0.00    -0.014 A 
ATOM     80  C   UNL A   1      40.016  28.951  27.285  1.00  0.00     0.009 A 
ATOM     81  C   UNL A   1      40.461  27.934  29.433  1.00  0.00     0.009 A 
ATOM     82  C   UNL A   1      38.665  29.069  27.624  1.00  0.00     0.001 A 
ATOM     83  C   UNL A   1      39.106  28.026  29.757  1.00  0.00     0.001 A 
ATOM     84  C   UNL A   1      38.211  28.604  28.858  1.00  0.00     0.000 A 
ENDBRANCH  60  79
BRANCH  72  85
ATOM     85  C   UNL A   1      46.107  33.004  28.741  1.00  0.00    -0.014 A 
ATOM     86  C   UNL A   1      45.855  34.080  27.876  1.00  0.00     0.009 A 
ATOM     87  C   UNL A   1      46.380  33.269  30.093  1.00  0.00     0.009 A 
ATOM     88  C   UNL A   1      45.921  35.395  28.345  1.00  0.00     0.001 A 
ATOM     89  C   UNL A   1      46.413  34.582  30.565  1.00  0.00     0.001 A 
ATOM     90  C   UNL A   1      46.196  35.643  29.690  1.00  0.00     0.000 A 
ENDBRANCH  72  85
ENDBRANCH  46  47
ENDBRANCH  39  41
ENDBRANCH  38  39
ENDBRANCH  37  38
ENDBRANCH  36  37
ENDBRANCH  35  36
ENDBRANCH   1  35
TORSDOF 18
ENDMDL
MODEL 3
REMARK VINA RESULT:     -11.5      4.015      5.420
REMARK SMILES CC1=CC[C@@](C(=O)N/N=C/C2=C([O-])CC(C)(C)CC2=O)(C(=O)OCCOCCOC(=O)c2ccc(-c3c4nc(c(-c5ccccc5)c5ccc([nH]5)c(-c5ccccc5)c5nc(c(-c6ccccc6)c6ccc3[nH]6)C=C5)C=C4)cc2)C[C@@H]1c1ccccc1
REMARK SMILES IDX 25 1 24 2 23 3 21 4 22 5 5 6 1 7 2 8 3 9 81 10 4 11 80 12
REMARK SMILES IDX 82 13 83 14 87 15 84 16 86 17 85 18 6 19 7 20 8 21 9 23
REMARK SMILES IDX 10 24 11 25 12 26 19 27 13 28 14 29 18 30 20 31 15 32 16 33
REMARK SMILES IDX 17 34 26 35 27 36 28 37 29 38 30 39 31 40 32 41 33 42 79 43
REMARK SMILES IDX 34 44 78 45 35 46 36 47 37 48 72 49 38 50 77 51 71 52 73 53
REMARK SMILES IDX 39 54 76 55 70 56 69 57 40 59 62 60 47 61 61 62 48 63 51 64
REMARK SMILES IDX 60 65 74 66 49 67 50 68 59 70 75 71 52 72 41 73 42 74 46 75
REMARK SMILES IDX 43 76 45 77 44 78 63 79 64 80 68 81 65 82 67 83 66 84 53 85
REMARK SMILES IDX 54 86 58 87 55 88 57 89 56 90
REMARK H PARENT 8 22 73 58 51 69
REMARK Flexibility Score: inf
ROOT
ATOM      1  C   UNL A   1      34.309  32.468  28.014  1.00  0.00     0.202 C 
ENDROOT
BRANCH   1   2
ATOM      2  C   UNL A   1      33.278  31.403  27.629  1.00  0.00     0.261 C 
BRANCH   2   3
ATOM      3  O   UNL A   1      33.613  30.682  26.428  1.00  0.00    -0.462 OA
BRANCH   3   4
ATOM      4  C   UNL A   1      33.900  29.372  26.670  1.00  0.00     0.322 C 
ATOM      5  O   UNL A   1      34.557  29.027  27.650  1.00  0.00    -0.251 OA
BRANCH   4   6
ATOM      6  C   UNL A   1      33.202  28.374  25.721  1.00  0.00     0.152 C 
ATOM      7  C   UNL A   1      32.267  26.371  21.888  1.00  0.00     0.040 C 
ATOM      8  C   UNL A   1      32.735  27.129  23.098  1.00  0.00    -0.070 C 
ATOM      9  C   UNL A   1      33.667  26.609  23.921  1.00  0.00    -0.026 C 
ATOM     10  C   UNL A   1      32.235  28.546  23.284  1.00  0.00     0.046 C 
ATOM     11  C   UNL A   1      34.105  27.230  25.232  1.00  0.00     0.056 C 
ATOM     12  C   UNL A   1      32.930  29.258  24.466  1.00  0.00     0.042 C 
BRANCH  10  13
ATOM     13  C   UNL A   1      30.742  28.822  23.357  1.00  0.00    -0.041 A 
ATOM     14  C   UNL A   1      29.889  27.701  23.432  1.00  0.00     0.004 A 
ATOM     15  C   UNL A   1      30.163  30.083  23.197  1.00  0.00     0.004 A 
ATOM     16  C   UNL A   1      28.513  27.825  23.269  1.00  0.00     0.000 A 
ATOM     17  C   UNL A   1      28.779  30.209  23.031  1.00  0.00     0.000 A 
ATOM     18  C   UNL A   1      27.959  29.079  23.049  1.00  0.00     0.000 A 
ENDBRANCH  10  13
BRANCH   6  19
ATOM     19  C   UNL A   1      31.884  27.944  26.430  1.00  0.00     0.257 C 
ATOM     20  O   UNL A   1      30.992  28.765  26.683  1.00  0.00    -0.272 OA
ATOM     21  N   UNL A   1      31.596  26.648  26.790  1.00  0.00    -0.246 N 
ATOM     22  H   UNL A   1      30.763  26.490  27.291  1.00  0.00     0.193 HD
BRANCH  21  23
ATOM     23  N   UNL A   1      32.367  25.572  26.511  1.00  0.00    -0.181 NA
ATOM     24  C   UNL A   1      31.874  24.414  26.815  1.00  0.00     0.144 C 
BRANCH  24  25
ATOM     25  C   UNL A   1      32.449  23.121  26.342  1.00  0.00     0.026 C 
ATOM     26  C   UNL A   1      32.493  22.844  25.023  1.00  0.00    -0.119 C 
ATOM     27  C   UNL A   1      33.180  22.194  27.257  1.00  0.00     0.164 C 
ATOM     28  O   UNL A   1      31.889  23.624  24.053  1.00  0.00    -0.875 OA
ATOM     29  C   UNL A   1      33.296  21.718  24.410  1.00  0.00     0.026 C 
ATOM     30  C   UNL A   1      34.345  21.416  26.675  1.00  0.00     0.087 C 
ATOM     31  O   UNL A   1      32.869  22.074  28.440  1.00  0.00    -0.294 OA
ATOM     32  C   UNL A   1      33.926  20.702  25.388  1.00  0.00    -0.025 C 
ATOM     33  C   UNL A   1      32.932  19.574  25.725  1.00  0.00     0.012 C 
ATOM     34  C   UNL A   1      35.162  20.068  24.721  1.00  0.00     0.012 C 
ENDBRANCH  24  25
ENDBRANCH  21  23
ENDBRANCH   6  19
ENDBRANCH   4   6
ENDBRANCH   3   4
ENDBRANCH   2   3
ENDBRANCH   1   2
BRANCH   1  35
ATOM     35  O   UNL A   1      34.008  33.838  27.759  1.00  0.00    -0.374 OA
BRANCH  35  36
ATOM     36  C   UNL A   1      34.189  34.753  28.834  1.00  0.00     0.202 C 
BRANCH  36  37
ATOM     37  C   UNL A   1      32.949  35.155  29.663  1.00  0.00     0.261 C 
BRANCH  37  38
ATOM     38  O   UNL A   1      33.230  36.000  30.797  1.00  0.00    -0.460 OA
BRANCH  38  39
ATOM     39  C   UNL A   1      32.946  35.443  32.004  1.00  0.00     0.338 C 
ATOM     40  O   UNL A   1      31.850  35.312  32.520  1.00  0.00    -0.246 OA
BRANCH  39  41
ATOM     41  C   UNL A   1      34.148  34.815  32.588  1.00  0.00     0.060 A 
ATOM     42  C   UNL A   1      35.383  35.428  32.336  1.00  0.00     0.016 A 
ATOM     43  C   UNL A   1      34.092  33.582  33.238  1.00  0.00     0.016 A 
ATOM     44  C   UNL A   1      36.568  34.803  32.717  1.00  0.00     0.010 A 
ATOM     45  C   UNL A   1      35.288  32.945  33.604  1.00  0.00     0.010 A 
ATOM     46  C   UNL A   1      36.532  33.538  33.318  1.00  0.00    -0.014 A 
BRANCH  46  47
ATOM     47  C   UNL A   1      37.810  32.809  33.515  1.00  0.00     0.031 A 
ATOM     48  C   UNL A   1      38.590  33.011  34.786  1.00  0.00     0.074 A 
ATOM     49  C   UNL A   1      38.229  31.906  32.609  1.00  0.00     0.049 A 
ATOM     50  N   UNL A   1      39.685  32.417  35.190  1.00  0.00    -0.248 NA
ATOM     51  C   UNL A   1      38.063  34.008  35.731  1.00  0.00     0.031 C 
ATOM     52  C   UNL A   1      37.539  31.576  31.363  1.00  0.00     0.029 A 
ATOM     53  N   UNL A   1      39.330  31.086  32.613  1.00  0.00    -0.354 N 
ATOM     54  C   UNL A   1      39.979  32.968  36.431  1.00  0.00     0.074 A 
ATOM     55  C   UNL A   1      38.963  33.963  36.703  1.00  0.00     0.031 C 
ATOM     56  C   UNL A   1      38.230  30.614  30.725  1.00  0.00     0.029 A 
ATOM     57  C   UNL A   1      39.420  30.282  31.504  1.00  0.00     0.049 A 
ATOM     58  H   UNL A   1      39.993  31.076  33.341  1.00  0.00     0.167 HD
ATOM     59  C   UNL A   1      40.998  32.670  37.274  1.00  0.00     0.031 A 
ATOM     60  C   UNL A   1      40.360  29.383  31.151  1.00  0.00     0.031 A 
ATOM     61  C   UNL A   1      42.016  31.689  37.006  1.00  0.00     0.049 A 
ATOM     62  C   UNL A   1      41.526  29.131  32.070  1.00  0.00     0.074 A 
ATOM     63  C   UNL A   1      43.074  31.302  37.811  1.00  0.00     0.029 A 
ATOM     64  N   UNL A   1      42.111  30.947  35.839  1.00  0.00    -0.354 N 
ATOM     65  N   UNL A   1      41.770  29.633  33.257  1.00  0.00    -0.248 NA
ATOM     66  C   UNL A   1      42.544  28.180  31.599  1.00  0.00     0.031 C 
ATOM     67  C   UNL A   1      43.844  30.371  37.105  1.00  0.00     0.029 A 
ATOM     68  C   UNL A   1      43.231  30.133  35.887  1.00  0.00     0.049 A 
ATOM     69  H   UNL A   1      41.477  30.993  35.087  1.00  0.00     0.167 HD
ATOM     70  C   UNL A   1      42.953  29.040  33.683  1.00  0.00     0.074 A 
ATOM     71  C   UNL A   1      43.365  28.126  32.638  1.00  0.00     0.031 C 
ATOM     72  C   UNL A   1      43.636  29.234  34.837  1.00  0.00     0.031 A 
BRANCH  59  73
ATOM     73  C   UNL A   1      41.086  33.446  38.559  1.00  0.00    -0.014 A 
ATOM     74  C   UNL A   1      40.447  33.003  39.727  1.00  0.00     0.009 A 
ATOM     75  C   UNL A   1      41.861  34.615  38.610  1.00  0.00     0.009 A 
ATOM     76  C   UNL A   1      40.560  33.732  40.914  1.00  0.00     0.001 A 
ATOM     77  C   UNL A   1      41.993  35.328  39.803  1.00  0.00     0.001 A 
ATOM     78  C   UNL A   1      41.337  34.889  40.952  1.00  0.00     0.000 A 
ENDBRANCH  59  73
BRANCH  60  79
ATOM     79  C   UNL A   1      40.256  28.659  29.857  1.00  0.00    -0.014 A 
ATOM     80  C   UNL A   1      40.774  29.218  28.678  1.00  0.00     0.009 A 
ATOM     81  C   UNL A   1      39.603  27.419  29.790  1.00  0.00     0.009 A 
ATOM     82  C   UNL A   1      40.616  28.561  27.455  1.00  0.00     0.001 A 
ATOM     83  C   UNL A   1      39.472  26.751  28.571  1.00  0.00     0.001 A 
ATOM     84  C   UNL A   1      39.968  27.327  27.402  1.00  0.00     0.000 A 
ENDBRANCH  60  79
BRANCH  72  85
ATOM     85  C   UNL A   1      44.887  28.424  35.038  1.00  0.00    -0.014 A 
ATOM     86  C   UNL A   1      46.154  28.949  34.737  1.00  0.00     0.009 A 
ATOM     87  C   UNL A   1      44.798  27.121  35.554  1.00  0.00     0.009 A 
ATOM     88  C   UNL A   1      47.301  28.171  34.908  1.00  0.00     0.001 A 
ATOM     89  C   UNL A   1      45.949  26.357  35.754  1.00  0.00     0.001 A 
ATOM     90  C   UNL A   1      47.197  26.877  35.419  1.00  0.00     0.000 A 
ENDBRANCH  72  85
ENDBRANCH  46  47
ENDBRANCH  39  41
ENDBRANCH  38  39
ENDBRANCH  37  38
ENDBRANCH  36  37
ENDBRANCH  35  36
ENDBRANCH   1  35
TORSDOF 18
ENDMDL
