MODEL 1
REMARK VINA RESULT:     -11.8      0.000      0.000
REMARK SMILES O=C(OCCOCCOC(=O)c1ccc(-c2c3nc(c(-c4ccccc4)c4ccc([nH]4)c(-c4ccccc4)c4nc(c(-c5ccccc5)c5ccc2[nH]5)C=C4)C=C3)cc1)C1=Cc2cc(S(F)(F)(F)(F)F)cc(Br)c2O[C@@H]1C(F)(F)F
REMARK SMILES IDX 7 1 6 2 5 3 4 4 3 5 2 6 1 7 60 8 61 9 76 10 62 11 75 12
REMARK SMILES IDX 63 13 74 14 64 15 72 16 71 17 73 18 77 19 78 20 79 21 80 22
REMARK SMILES IDX 65 23 66 24 67 25 68 26 69 27 70 28 8 29 9 30 10 31 11 32
REMARK SMILES IDX 12 33 13 34 59 35 14 36 58 37 15 38 16 39 17 40 52 41 18 42
REMARK SMILES IDX 57 43 51 44 53 45 19 46 56 47 50 48 49 49 20 51 42 52 27 53
REMARK SMILES IDX 41 54 28 55 31 56 40 57 54 58 29 59 30 60 39 62 55 63 32 64
REMARK SMILES IDX 21 65 22 66 26 67 23 68 25 69 24 70 43 71 44 72 48 73 45 74
REMARK SMILES IDX 47 75 46 76 33 77 34 78 38 79 35 80 37 81 36 82
REMARK H PARENT 53 50 31 61
REMARK Flexibility Score: inf
ROOT
ATOM      1  C   UNL A   1      33.220  29.219  25.116  1.00  0.00     0.202 C 
ENDROOT
BRANCH   1   2
ATOM      2  O   UNL A   1      33.049  28.219  24.123  1.00  0.00    -0.374 OA
BRANCH   2   3
ATOM      3  C   UNL A   1      33.580  26.990  24.593  1.00  0.00     0.202 C 
BRANCH   3   4
ATOM      4  C   UNL A   1      33.654  25.997  23.445  1.00  0.00     0.261 C 
BRANCH   4   5
ATOM      5  O   UNL A   1      33.890  24.695  23.960  1.00  0.00    -0.460 OA
BRANCH   5   6
ATOM      6  C   UNL A   1      33.031  23.623  23.601  1.00  0.00     0.338 C 
ATOM      7  O   UNL A   1      33.282  22.927  22.567  1.00  0.00    -0.246 OA
BRANCH   6   8
ATOM      8  C   UNL A   1      31.811  23.308  24.450  1.00  0.00     0.087 C 
ATOM      9  C   UNL A   1      31.698  22.093  25.053  1.00  0.00     0.027 C 
ATOM     10  C   UNL A   1      30.716  24.347  24.626  1.00  0.00     0.316 C 
ATOM     11  C   UNL A   1      32.792  21.052  24.878  1.00  0.00     0.020 A 
ATOM     12  O   UNL A   1      34.315  22.844  25.226  1.00  0.00    -0.474 OA
ATOM     13  C   UNL A   1      32.499  19.752  24.505  1.00  0.00     0.036 A 
ATOM     14  C   UNL A   1      34.048  21.468  25.000  1.00  0.00     0.142 A 
ATOM     15  C   UNL A   1      33.608  18.874  24.562  1.00  0.00     0.109 A 
ATOM     16  C   UNL A   1      35.091  20.578  24.909  1.00  0.00     0.062 A 
ATOM     17  C   UNL A   1      34.870  19.264  24.602  1.00  0.00     0.044 A 
ATOM     18  Br  UNL A   1      36.923  21.200  25.224  1.00  0.00    -0.047 Br
BRANCH  10  19
ATOM     19  C   UNL A   1      30.568  24.683  26.101  1.00  0.00     0.430 C 
ATOM     20  F   UNL A   1      31.769  24.905  26.628  1.00  0.00    -0.167 F 
ATOM     21  F   UNL A   1      29.816  25.772  26.234  1.00  0.00    -0.167 F 
ATOM     22  F   UNL A   1      29.988  23.665  26.730  1.00  0.00    -0.167 F 
ENDBRANCH  10  19
BRANCH  15  23
ATOM     23  S   UNL A   1      33.275  17.096  24.582  1.00  0.00     0.310 S 
ATOM     24  F   UNL A   1      31.704  17.314  24.629  1.00  0.00    -0.094 F 
ATOM     25  F   UNL A   1      33.258  17.132  26.157  1.00  0.00    -0.094 F 
ATOM     26  F   UNL A   1      33.000  15.566  24.587  1.00  0.00    -0.094 F 
ATOM     27  F   UNL A   1      33.155  17.105  23.008  1.00  0.00    -0.094 F 
ATOM     28  F   UNL A   1      33.441  18.668  24.564  1.00  0.00    -0.094 F 
ENDBRANCH  15  23
ENDBRANCH   6   8
ENDBRANCH   5   6
ENDBRANCH   4   5
ENDBRANCH   3   4
ENDBRANCH   2   3
ENDBRANCH   1   2
BRANCH   1  29
ATOM     29  C   UNL A   1      33.881  28.610  26.341  1.00  0.00     0.261 C 
BRANCH  29  30
ATOM     30  O   UNL A   1      33.579  29.399  27.483  1.00  0.00    -0.460 OA
BRANCH  30  31
ATOM     31  C   UNL A   1      34.493  30.393  27.922  1.00  0.00     0.338 C 
ATOM     32  O   UNL A   1      34.131  31.609  27.975  1.00  0.00    -0.246 OA
BRANCH  31  33
ATOM     33  C   UNL A   1      35.905  30.000  28.325  1.00  0.00     0.060 A 
ATOM     34  C   UNL A   1      36.183  29.433  29.558  1.00  0.00     0.016 A 
ATOM     35  C   UNL A   1      36.840  30.100  27.387  1.00  0.00     0.016 A 
ATOM     36  C   UNL A   1      37.563  29.261  29.813  1.00  0.00     0.010 A 
ATOM     37  C   UNL A   1      38.148  29.786  27.666  1.00  0.00     0.010 A 
ATOM     38  C   UNL A   1      38.504  29.277  28.884  1.00  0.00    -0.014 A 
BRANCH  38  39
ATOM     39  C   UNL A   1      39.905  28.756  29.156  1.00  0.00     0.031 A 
ATOM     40  C   UNL A   1      40.815  29.676  29.679  1.00  0.00     0.074 A 
ATOM     41  C   UNL A   1      40.245  27.475  28.755  1.00  0.00     0.049 A 
ATOM     42  N   UNL A   1      42.115  29.493  29.912  1.00  0.00    -0.248 NA
ATOM     43  C   UNL A   1      40.464  31.048  30.074  1.00  0.00     0.031 C 
ATOM     44  C   UNL A   1      39.331  26.538  28.234  1.00  0.00     0.029 A 
ATOM     45  N   UNL A   1      41.488  26.882  28.780  1.00  0.00    -0.354 N 
ATOM     46  C   UNL A   1      42.651  30.598  30.435  1.00  0.00     0.074 A 
ATOM     47  C   UNL A   1      41.597  31.616  30.541  1.00  0.00     0.031 C 
ATOM     48  C   UNL A   1      40.016  25.401  27.940  1.00  0.00     0.029 A 
ATOM     49  C   UNL A   1      41.368  25.608  28.271  1.00  0.00     0.049 A 
ATOM     50  H   UNL A   1      42.319  27.298  29.106  1.00  0.00     0.167 HD
ATOM     51  C   UNL A   1      43.975  30.795  30.829  1.00  0.00     0.031 A 
ATOM     52  C   UNL A   1      42.369  24.667  28.097  1.00  0.00     0.031 A 
ATOM     53  C   UNL A   1      44.968  29.838  30.695  1.00  0.00     0.049 A 
ATOM     54  C   UNL A   1      43.706  24.884  28.437  1.00  0.00     0.074 A 
ATOM     55  C   UNL A   1      46.306  30.018  31.095  1.00  0.00     0.029 A 
ATOM     56  N   UNL A   1      44.853  28.572  30.163  1.00  0.00    -0.354 N 
ATOM     57  N   UNL A   1      44.233  25.975  28.997  1.00  0.00    -0.248 NA
ATOM     58  C   UNL A   1      44.782  23.906  28.227  1.00  0.00     0.031 C 
ATOM     59  C   UNL A   1      46.990  28.881  30.800  1.00  0.00     0.029 A 
ATOM     60  C   UNL A   1      46.092  27.972  30.210  1.00  0.00     0.049 A 
ATOM     61  H   UNL A   1      44.028  28.167  29.811  1.00  0.00     0.167 HD
ATOM     62  C   UNL A   1      45.542  25.805  29.191  1.00  0.00     0.074 A 
ATOM     63  C   UNL A   1      45.916  24.474  28.692  1.00  0.00     0.031 C 
ATOM     64  C   UNL A   1      46.440  26.705  29.767  1.00  0.00     0.031 A 
BRANCH  51  65
ATOM     65  C   UNL A   1      44.349  32.136  31.441  1.00  0.00    -0.014 A 
ATOM     66  C   UNL A   1      44.112  32.407  32.778  1.00  0.00     0.009 A 
ATOM     67  C   UNL A   1      44.777  33.080  30.611  1.00  0.00     0.009 A 
ATOM     68  C   UNL A   1      44.078  33.787  33.086  1.00  0.00     0.001 A 
ATOM     69  C   UNL A   1      44.848  34.390  31.021  1.00  0.00     0.001 A 
ATOM     70  C   UNL A   1      44.571  34.739  32.314  1.00  0.00     0.000 A 
ENDBRANCH  51  65
BRANCH  52  71
ATOM     71  C   UNL A   1      41.992  23.320  27.501  1.00  0.00    -0.014 A 
ATOM     72  C   UNL A   1      42.159  22.991  26.166  1.00  0.00     0.009 A 
ATOM     73  C   UNL A   1      41.585  22.419  28.387  1.00  0.00     0.009 A 
ATOM     74  C   UNL A   1      41.588  21.747  25.807  1.00  0.00     0.001 A 
ATOM     75  C   UNL A   1      41.168  21.174  27.978  1.00  0.00     0.001 A 
ATOM     76  C   UNL A   1      41.250  20.802  26.665  1.00  0.00     0.000 A 
ENDBRANCH  52  71
BRANCH  64  77
ATOM     77  C   UNL A   1      47.888  26.269  29.921  1.00  0.00    -0.014 A 
ATOM     78  C   UNL A   1      48.806  26.415  28.893  1.00  0.00     0.009 A 
ATOM     79  C   UNL A   1      48.260  25.842  31.121  1.00  0.00     0.009 A 
ATOM     80  C   UNL A   1      50.057  25.804  29.151  1.00  0.00     0.001 A 
ATOM     81  C   UNL A   1      49.538  25.385  31.337  1.00  0.00     0.001 A 
ATOM     82  C   UNL A   1      50.481  25.443  30.348  1.00  0.00     0.000 A 
ENDBRANCH  64  77
ENDBRANCH  38  39
ENDBRANCH  31  33
ENDBRANCH  30  31
ENDBRANCH  29  30
ENDBRANCH   1  29
TORSDOF 16
ENDMDL
MODEL 2
REMARK VINA RESULT:     -11.7      3.143      8.176
REMARK SMILES O=C(OCCOCCOC(=O)c1ccc(-c2c3nc(c(-c4ccccc4)c4ccc([nH]4)c(-c4ccccc4)c4nc(c(-c5ccccc5)c5ccc2[nH]5)C=C4)C=C3)cc1)C1=Cc2cc(S(F)(F)(F)(F)F)cc(Br)c2O[C@@H]1C(F)(F)F
REMARK SMILES IDX 7 1 6 2 5 3 4 4 3 5 2 6 1 7 60 8 61 9 76 10 62 11 75 12
REMARK SMILES IDX 63 13 74 14 64 15 72 16 71 17 73 18 77 19 78 20 79 21 80 22
REMARK SMILES IDX 65 23 66 24 67 25 68 26 69 27 70 28 8 29 9 30 10 31 11 32
REMARK SMILES IDX 12 33 13 34 59 35 14 36 58 37 15 38 16 39 17 40 52 41 18 42
REMARK SMILES IDX 57 43 51 44 53 45 19 46 56 47 50 48 49 49 20 51 42 52 27 53
REMARK SMILES IDX 41 54 28 55 31 56 40 57 54 58 29 59 30 60 39 62 55 63 32 64
REMARK SMILES IDX 21 65 22 66 26 67 23 68 25 69 24 70 43 71 44 72 48 73 45 74
REMARK SMILES IDX 47 75 46 76 33 77 34 78 38 79 35 80 37 81 36 82
REMARK H PARENT 53 50 31 61
REMARK Flexibility Score: inf
ROOT
ATOM      1  C   UNL A   1      35.788  21.312  25.539  1.00  0.00     0.202 C 
ENDROOT
BRANCH   1   2
ATOM      2  O   UNL A   1      35.167  22.262  26.394  1.00  0.00    -0.374 OA
BRANCH   2   3
ATOM      3  C   UNL A   1      34.268  21.596  27.266  1.00  0.00     0.202 C 
BRANCH   3   4
ATOM      4  C   UNL A   1      33.229  22.582  27.773  1.00  0.00     0.261 C 
BRANCH   4   5
ATOM      5  O   UNL A   1      33.018  23.591  26.796  1.00  0.00    -0.460 OA
BRANCH   5   6
ATOM      6  C   UNL A   1      31.739  23.745  26.199  1.00  0.00     0.338 C 
ATOM      7  O   UNL A   1      30.824  24.379  26.812  1.00  0.00    -0.246 OA
BRANCH   6   8
ATOM      8  C   UNL A   1      31.463  23.149  24.829  1.00  0.00     0.087 C 
ATOM      9  C   UNL A   1      31.159  23.965  23.782  1.00  0.00     0.027 C 
ATOM     10  C   UNL A   1      31.525  21.644  24.625  1.00  0.00     0.316 C 
ATOM     11  C   UNL A   1      31.096  25.470  23.985  1.00  0.00     0.020 A 
ATOM     12  O   UNL A   1      33.094  25.212  25.246  1.00  0.00    -0.474 OA
ATOM     13  C   UNL A   1      30.010  26.212  23.552  1.00  0.00     0.036 A 
ATOM     14  C   UNL A   1      32.079  26.028  24.682  1.00  0.00     0.142 A 
ATOM     15  C   UNL A   1      30.193  27.611  23.658  1.00  0.00     0.109 A 
ATOM     16  C   UNL A   1      32.122  27.390  24.861  1.00  0.00     0.062 A 
ATOM     17  C   UNL A   1      31.112  28.192  24.409  1.00  0.00     0.044 A 
ATOM     18  Br  UNL A   1      33.654  28.195  25.782  1.00  0.00    -0.047 Br
BRANCH  10  19
ATOM     19  C   UNL A   1      32.584  21.317  23.585  1.00  0.00     0.430 C 
ATOM     20  F   UNL A   1      32.020  21.259  22.382  1.00  0.00    -0.167 F 
ATOM     21  F   UNL A   1      33.519  22.262  23.591  1.00  0.00    -0.167 F 
ATOM     22  F   UNL A   1      33.138  20.143  23.872  1.00  0.00    -0.167 F 
ENDBRANCH  10  19
BRANCH  15  23
ATOM     23  S   UNL A   1      29.091  28.679  22.698  1.00  0.00     0.310 S 
ATOM     24  F   UNL A   1      29.303  29.907  23.679  1.00  0.00    -0.094 F 
ATOM     25  F   UNL A   1      27.889  28.240  23.616  1.00  0.00    -0.094 F 
ATOM     26  F   UNL A   1      28.153  29.591  21.858  1.00  0.00    -0.094 F 
ATOM     27  F   UNL A   1      30.331  29.215  21.879  1.00  0.00    -0.094 F 
ATOM     28  F   UNL A   1      30.074  27.845  23.613  1.00  0.00    -0.094 F 
ENDBRANCH  15  23
ENDBRANCH   6   8
ENDBRANCH   5   6
ENDBRANCH   4   5
ENDBRANCH   3   4
ENDBRANCH   2   3
ENDBRANCH   1   2
BRANCH   1  29
ATOM     29  C   UNL A   1      37.036  21.924  24.924  1.00  0.00     0.261 C 
BRANCH  29  30
ATOM     30  O   UNL A   1      37.464  23.023  25.716  1.00  0.00    -0.460 OA
BRANCH  30  31
ATOM     31  C   UNL A   1      38.802  23.079  26.189  1.00  0.00     0.338 C 
ATOM     32  O   UNL A   1      39.562  22.069  26.064  1.00  0.00    -0.246 OA
BRANCH  31  33
ATOM     33  C   UNL A   1      39.322  24.347  26.847  1.00  0.00     0.060 A 
ATOM     34  C   UNL A   1      40.055  25.288  26.143  1.00  0.00     0.016 A 
ATOM     35  C   UNL A   1      38.924  24.574  28.094  1.00  0.00     0.016 A 
ATOM     36  C   UNL A   1      40.571  26.331  26.947  1.00  0.00     0.010 A 
ATOM     37  C   UNL A   1      39.360  25.685  28.775  1.00  0.00     0.010 A 
ATOM     38  C   UNL A   1      40.136  26.627  28.159  1.00  0.00    -0.014 A 
BRANCH  38  39
ATOM     39  C   UNL A   1      40.479  27.946  28.833  1.00  0.00     0.031 A 
ATOM     40  C   UNL A   1      41.702  27.995  29.506  1.00  0.00     0.074 A 
ATOM     41  C   UNL A   1      39.536  28.959  28.867  1.00  0.00     0.049 A 
ATOM     42  N   UNL A   1      42.183  28.994  30.248  1.00  0.00    -0.248 NA
ATOM     43  C   UNL A   1      42.690  26.906  29.499  1.00  0.00     0.031 C 
ATOM     44  C   UNL A   1      38.305  28.921  28.184  1.00  0.00     0.029 A 
ATOM     45  N   UNL A   1      39.604  30.156  29.546  1.00  0.00    -0.354 N 
ATOM     46  C   UNL A   1      43.393  28.680  30.714  1.00  0.00     0.074 A 
ATOM     47  C   UNL A   1      43.734  27.330  30.244  1.00  0.00     0.031 C 
ATOM     48  C   UNL A   1      37.637  30.072  28.455  1.00  0.00     0.029 A 
ATOM     49  C   UNL A   1      38.438  30.849  29.313  1.00  0.00     0.049 A 
ATOM     50  H   UNL A   1      40.357  30.462  30.102  1.00  0.00     0.167 HD
ATOM     51  C   UNL A   1      44.226  29.467  31.511  1.00  0.00     0.031 A 
ATOM     52  C   UNL A   1      38.075  32.090  29.812  1.00  0.00     0.031 A 
ATOM     53  C   UNL A   1      43.880  30.726  31.975  1.00  0.00     0.049 A 
ATOM     54  C   UNL A   1      38.884  32.853  30.658  1.00  0.00     0.074 A 
ATOM     55  C   UNL A   1      44.712  31.536  32.772  1.00  0.00     0.029 A 
ATOM     56  N   UNL A   1      42.704  31.410  31.762  1.00  0.00    -0.354 N 
ATOM     57  N   UNL A   1      40.110  32.556  31.091  1.00  0.00    -0.248 NA
ATOM     58  C   UNL A   1      38.496  34.154  31.218  1.00  0.00     0.031 C 
ATOM     59  C   UNL A   1      44.042  32.688  33.044  1.00  0.00     0.029 A 
ATOM     60  C   UNL A   1      42.782  32.617  32.422  1.00  0.00     0.049 A 
ATOM     61  H   UNL A   1      41.940  31.092  31.230  1.00  0.00     0.167 HD
ATOM     62  C   UNL A   1      40.574  33.538  31.867  1.00  0.00     0.074 A 
ATOM     63  C   UNL A   1      39.539  34.577  31.966  1.00  0.00     0.031 C 
ATOM     64  C   UNL A   1      41.819  33.612  32.492  1.00  0.00     0.031 A 
BRANCH  51  65
ATOM     65  C   UNL A   1      45.589  28.911  31.891  1.00  0.00    -0.014 A 
ATOM     66  C   UNL A   1      45.782  28.235  33.084  1.00  0.00     0.009 A 
ATOM     67  C   UNL A   1      46.611  29.227  31.104  1.00  0.00     0.009 A 
ATOM     68  C   UNL A   1      47.132  28.187  33.505  1.00  0.00     0.001 A 
ATOM     69  C   UNL A   1      47.904  29.027  31.525  1.00  0.00     0.001 A 
ATOM     70  C   UNL A   1      48.169  28.417  32.719  1.00  0.00     0.000 A 
ENDBRANCH  51  65
BRANCH  52  71
ATOM     71  C   UNL A   1      36.719  32.653  29.419  1.00  0.00    -0.014 A 
ATOM     72  C   UNL A   1      36.438  33.197  28.177  1.00  0.00     0.009 A 
ATOM     73  C   UNL A   1      35.766  32.484  30.329  1.00  0.00     0.009 A 
ATOM     74  C   UNL A   1      35.163  33.805  28.092  1.00  0.00     0.001 A 
ATOM     75  C   UNL A   1      34.504  32.988  30.121  1.00  0.00     0.001 A 
ATOM     76  C   UNL A   1      34.173  33.591  28.940  1.00  0.00     0.000 A 
ENDBRANCH  52  71
BRANCH  64  77
ATOM     77  C   UNL A   1      42.140  34.859  33.299  1.00  0.00    -0.014 A 
ATOM     78  C   UNL A   1      41.724  35.005  34.613  1.00  0.00     0.009 A 
ATOM     79  C   UNL A   1      42.931  35.756  32.724  1.00  0.00     0.009 A 
ATOM     80  C   UNL A   1      41.964  36.292  35.150  1.00  0.00     0.001 A 
ATOM     81  C   UNL A   1      43.234  36.934  33.362  1.00  0.00     0.001 A 
ATOM     82  C   UNL A   1      42.806  37.172  34.640  1.00  0.00     0.000 A 
ENDBRANCH  64  77
ENDBRANCH  38  39
ENDBRANCH  31  33
ENDBRANCH  30  31
ENDBRANCH  29  30
ENDBRANCH   1  29
TORSDOF 16
ENDMDL
MODEL 3
REMARK VINA RESULT:     -11.6      3.013      7.731
REMARK SMILES O=C(OCCOCCOC(=O)c1ccc(-c2c3nc(c(-c4ccccc4)c4ccc([nH]4)c(-c4ccccc4)c4nc(c(-c5ccccc5)c5ccc2[nH]5)C=C4)C=C3)cc1)C1=Cc2cc(S(F)(F)(F)(F)F)cc(Br)c2O[C@@H]1C(F)(F)F
REMARK SMILES IDX 7 1 6 2 5 3 4 4 3 5 2 6 1 7 60 8 61 9 76 10 62 11 75 12
REMARK SMILES IDX 63 13 74 14 64 15 72 16 71 17 73 18 77 19 78 20 79 21 80 22
REMARK SMILES IDX 65 23 66 24 67 25 68 26 69 27 70 28 8 29 9 30 10 31 11 32
REMARK SMILES IDX 12 33 13 34 59 35 14 36 58 37 15 38 16 39 17 40 52 41 18 42
REMARK SMILES IDX 57 43 51 44 53 45 19 46 56 47 50 48 49 49 20 51 42 52 27 53
REMARK SMILES IDX 41 54 28 55 31 56 40 57 54 58 29 59 30 60 39 62 55 63 32 64
REMARK SMILES IDX 21 65 22 66 26 67 23 68 25 69 24 70 43 71 44 72 48 73 45 74
REMARK SMILES IDX 47 75 46 76 33 77 34 78 38 79 35 80 37 81 36 82
REMARK H PARENT 53 50 31 61
REMARK Flexibility Score: inf
ROOT
ATOM      1  C   UNL A   1      37.509  18.901  24.983  1.00  0.00     0.202 C 
ENDROOT
BRANCH   1   2
ATOM      2  O   UNL A   1      36.358  19.733  24.998  1.00  0.00    -0.374 OA
BRANCH   2   3
ATOM      3  C   UNL A   1      35.217  18.969  24.638  1.00  0.00     0.202 C 
BRANCH   3   4
ATOM      4  C   UNL A   1      33.975  19.839  24.728  1.00  0.00     0.261 C 
BRANCH   4   5
ATOM      5  O   UNL A   1      34.333  21.127  25.208  1.00  0.00    -0.460 OA
BRANCH   5   6
ATOM      6  C   UNL A   1      34.334  22.239  24.325  1.00  0.00     0.338 C 
ATOM      7  O   UNL A   1      33.507  22.285  23.361  1.00  0.00    -0.246 OA
BRANCH   6   8
ATOM      8  C   UNL A   1      35.324  23.373  24.531  1.00  0.00     0.087 C 
ATOM      9  C   UNL A   1      34.873  24.632  24.782  1.00  0.00     0.027 C 
ATOM     10  C   UNL A   1      36.818  23.103  24.456  1.00  0.00     0.316 C 
ATOM     11  C   UNL A   1      33.379  24.904  24.857  1.00  0.00     0.020 A 
ATOM     12  O   UNL A   1      33.254  22.905  26.138  1.00  0.00    -0.474 OA
ATOM     13  C   UNL A   1      32.797  25.939  24.146  1.00  0.00     0.036 A 
ATOM     14  C   UNL A   1      32.643  24.046  25.554  1.00  0.00     0.142 A 
ATOM     15  C   UNL A   1      31.437  26.162  24.466  1.00  0.00     0.109 A 
ATOM     16  C   UNL A   1      31.294  24.252  25.713  1.00  0.00     0.062 A 
ATOM     17  C   UNL A   1      30.662  25.290  25.087  1.00  0.00     0.044 A 
ATOM     18  Br  UNL A   1      30.259  23.040  26.855  1.00  0.00    -0.047 Br
BRANCH  10  19
ATOM     19  C   UNL A   1      37.467  23.468  25.782  1.00  0.00     0.430 C 
ATOM     20  F   UNL A   1      36.552  23.431  26.747  1.00  0.00    -0.167 F 
ATOM     21  F   UNL A   1      38.435  22.598  26.056  1.00  0.00    -0.167 F 
ATOM     22  F   UNL A   1      37.979  24.692  25.702  1.00  0.00    -0.167 F 
ENDBRANCH  10  19
BRANCH  15  23
ATOM     23  S   UNL A   1      30.710  27.750  23.995  1.00  0.00     0.310 S 
ATOM     24  F   UNL A   1      31.994  28.179  23.169  1.00  0.00    -0.094 F 
ATOM     25  F   UNL A   1      31.381  28.415  25.255  1.00  0.00    -0.094 F 
ATOM     26  F   UNL A   1      30.070  29.107  23.586  1.00  0.00    -0.094 F 
ATOM     27  F   UNL A   1      30.162  27.100  22.664  1.00  0.00    -0.094 F 
ATOM     28  F   UNL A   1      31.446  26.394  24.338  1.00  0.00    -0.094 F 
ENDBRANCH  15  23
ENDBRANCH   6   8
ENDBRANCH   5   6
ENDBRANCH   4   5
ENDBRANCH   3   4
ENDBRANCH   2   3
ENDBRANCH   1   2
BRANCH   1  29
ATOM     29  C   UNL A   1      38.746  19.742  25.248  1.00  0.00     0.261 C 
BRANCH  29  30
ATOM     30  O   UNL A   1      39.795  18.906  25.716  1.00  0.00    -0.460 OA
BRANCH  30  31
ATOM     31  C   UNL A   1      41.110  19.424  25.851  1.00  0.00     0.338 C 
ATOM     32  O   UNL A   1      42.101  18.766  25.407  1.00  0.00    -0.246 OA
BRANCH  31  33
ATOM     33  C   UNL A   1      41.330  20.766  26.530  1.00  0.00     0.060 A 
ATOM     34  C   UNL A   1      41.172  20.930  27.897  1.00  0.00     0.016 A 
ATOM     35  C   UNL A   1      41.814  21.743  25.771  1.00  0.00     0.016 A 
ATOM     36  C   UNL A   1      41.283  22.271  28.330  1.00  0.00     0.010 A 
ATOM     37  C   UNL A   1      42.026  22.995  26.294  1.00  0.00     0.010 A 
ATOM     38  C   UNL A   1      41.833  23.244  27.624  1.00  0.00    -0.014 A 
BRANCH  38  39
ATOM     39  C   UNL A   1      42.231  24.566  28.258  1.00  0.00     0.031 A 
ATOM     40  C   UNL A   1      41.227  25.531  28.355  1.00  0.00     0.074 A 
ATOM     41  C   UNL A   1      43.559  24.798  28.573  1.00  0.00     0.049 A 
ATOM     42  N   UNL A   1      41.345  26.790  28.779  1.00  0.00    -0.248 NA
ATOM     43  C   UNL A   1      39.822  25.297  27.989  1.00  0.00     0.031 C 
ATOM     44  C   UNL A   1      44.577  23.828  28.487  1.00  0.00     0.029 A 
ATOM     45  N   UNL A   1      44.132  25.971  29.013  1.00  0.00    -0.354 N 
ATOM     46  C   UNL A   1      40.160  27.402  28.746  1.00  0.00     0.074 A 
ATOM     47  C   UNL A   1      39.164  26.452  28.232  1.00  0.00     0.031 C 
ATOM     48  C   UNL A   1      45.747  24.410  28.858  1.00  0.00     0.029 A 
ATOM     49  C   UNL A   1      45.481  25.754  29.183  1.00  0.00     0.049 A 
ATOM     50  H   UNL A   1      43.658  26.819  29.176  1.00  0.00     0.167 HD
ATOM     51  C   UNL A   1      39.870  28.713  29.127  1.00  0.00     0.031 A 
ATOM     52  C   UNL A   1      46.441  26.664  29.595  1.00  0.00     0.031 A 
ATOM     53  C   UNL A   1      40.823  29.610  29.581  1.00  0.00     0.049 A 
ATOM     54  C   UNL A   1      46.162  27.993  29.920  1.00  0.00     0.074 A 
ATOM     55  C   UNL A   1      40.546  30.933  29.976  1.00  0.00     0.029 A 
ATOM     56  N   UNL A   1      42.177  29.400  29.728  1.00  0.00    -0.354 N 
ATOM     57  N   UNL A   1      44.970  28.593  29.925  1.00  0.00    -0.248 NA
ATOM     58  C   UNL A   1      47.176  28.975  30.327  1.00  0.00     0.031 C 
ATOM     59  C   UNL A   1      41.718  31.516  30.347  1.00  0.00     0.029 A 
ATOM     60  C   UNL A   1      42.745  30.567  30.190  1.00  0.00     0.049 A 
ATOM     61  H   UNL A   1      42.655  28.561  29.537  1.00  0.00     0.167 HD
ATOM     62  C   UNL A   1      45.096  29.864  30.311  1.00  0.00     0.074 A 
ATOM     63  C   UNL A   1      46.518  30.130  30.568  1.00  0.00     0.031 C 
ATOM     64  C   UNL A   1      44.083  30.812  30.462  1.00  0.00     0.031 A 
BRANCH  51  65
ATOM     65  C   UNL A   1      38.427  29.183  29.039  1.00  0.00    -0.014 A 
ATOM     66  C   UNL A   1      37.939  29.794  27.896  1.00  0.00     0.009 A 
ATOM     67  C   UNL A   1      37.700  29.115  30.148  1.00  0.00     0.009 A 
ATOM     68  C   UNL A   1      36.773  30.566  28.111  1.00  0.00     0.001 A 
ATOM     69  C   UNL A   1      36.503  29.784  30.241  1.00  0.00     0.001 A 
ATOM     70  C   UNL A   1      35.989  30.458  29.169  1.00  0.00     0.000 A 
ENDBRANCH  51  65
BRANCH  52  71
ATOM     71  C   UNL A   1      47.882  26.189  29.699  1.00  0.00    -0.014 A 
ATOM     72  C   UNL A   1      48.779  26.203  28.644  1.00  0.00     0.009 A 
ATOM     73  C   UNL A   1      48.266  25.856  30.926  1.00  0.00     0.009 A 
ATOM     74  C   UNL A   1      50.009  25.564  28.930  1.00  0.00     0.001 A 
ATOM     75  C   UNL A   1      49.529  25.365  31.155  1.00  0.00     0.001 A 
ATOM     76  C   UNL A   1      50.449  25.295  30.145  1.00  0.00     0.000 A 
ENDBRANCH  52  71
BRANCH  64  77
ATOM     77  C   UNL A   1      44.468  32.196  30.956  1.00  0.00    -0.014 A 
ATOM     78  C   UNL A   1      44.544  32.493  32.308  1.00  0.00     0.009 A 
ATOM     79  C   UNL A   1      44.833  33.080  30.036  1.00  0.00     0.009 A 
ATOM     80  C   UNL A   1      44.749  33.866  32.583  1.00  0.00     0.001 A 
ATOM     81  C   UNL A   1      45.151  34.369  30.390  1.00  0.00     0.001 A 
ATOM     82  C   UNL A   1      45.188  34.748  31.704  1.00  0.00     0.000 A 
ENDBRANCH  64  77
ENDBRANCH  38  39
ENDBRANCH  31  33
ENDBRANCH  30  31
ENDBRANCH  29  30
ENDBRANCH   1  29
TORSDOF 16
ENDMDL
