MODEL 1
REMARK VINA RESULT:     -10.4      0.000      0.000
REMARK SMILES Cc1cc(C(=O)N[C@H]2C=C[C@H](C(=O)OCCOCCOC(=O)c3ccc(-c4c5nc(c(-c6ccccc6)c6ccc([nH]6)c(-c6ccccc6)c6nc(c(-c7ccccc7)c7ccc4[nH]7)C=C6)C=C5)cc3)C2)ccc1F
REMARK SMILES IDX 17 1 16 2 15 3 14 4 12 5 13 6 11 7 8 8 9 9 71 10 10 11 7 12
REMARK SMILES IDX 5 13 6 14 4 16 1 17 2 18 3 19 74 20 73 21 75 22 72 23 18 24
REMARK SMILES IDX 19 25 20 26 21 27 22 28 23 29 24 30 70 31 25 32 69 33 26 34
REMARK SMILES IDX 27 35 28 36 63 37 29 38 68 39 62 40 64 41 30 42 67 43 61 44
REMARK SMILES IDX 60 45 31 47 53 48 38 49 52 50 39 51 42 52 51 53 65 54 40 55
REMARK SMILES IDX 41 56 50 58 66 59 43 60 32 61 33 62 37 63 34 64 36 65 35 66
REMARK SMILES IDX 54 67 55 68 59 69 56 70 58 71 57 72 44 73 45 74 49 75 46 76
REMARK SMILES IDX 48 77 47 78
REMARK H PARENT 7 15 64 46 42 57
REMARK Flexibility Score: inf
ROOT
ATOM      1  O   UNL A   1      40.805  20.583  27.624  1.00  0.00    -0.374 OA
ENDROOT
BRANCH   1   2
ATOM      2  C   UNL A   1      40.903  21.992  27.452  1.00  0.00     0.202 C 
BRANCH   2   3
ATOM      3  C   UNL A   1      39.916  22.675  26.501  1.00  0.00     0.261 C 
BRANCH   3   4
ATOM      4  O   UNL A   1      38.587  22.136  26.587  1.00  0.00    -0.463 OA
BRANCH   4   5
ATOM      5  C   UNL A   1      38.004  21.925  25.376  1.00  0.00     0.312 C 
ATOM      6  O   UNL A   1      37.996  20.842  24.799  1.00  0.00    -0.252 OA
BRANCH   5   7
ATOM      7  C   UNL A   1      37.285  23.172  24.851  1.00  0.00     0.124 C 
ATOM      8  C   UNL A   1      35.018  22.465  25.158  1.00  0.00     0.106 C 
ATOM      9  C   UNL A   1      35.308  22.626  23.698  1.00  0.00    -0.006 C 
ATOM     10  C   UNL A   1      36.060  23.422  25.748  1.00  0.00     0.048 C 
ATOM     11  C   UNL A   1      36.601  22.953  23.529  1.00  0.00    -0.014 C 
BRANCH   8  12
ATOM     12  N   UNL A   1      33.666  22.739  25.532  1.00  0.00    -0.346 N 
ATOM     13  C   UNL A   1      32.539  21.965  25.349  1.00  0.00     0.251 C 
ATOM     14  O   UNL A   1      31.460  22.448  25.699  1.00  0.00    -0.269 OA
ATOM     15  H   UNL A   1      33.519  23.601  25.984  1.00  0.00     0.164 HD
BRANCH  13  16
ATOM     16  C   UNL A   1      32.554  20.553  24.826  1.00  0.00     0.040 A 
ATOM     17  C   UNL A   1      32.252  18.453  21.647  1.00  0.00     0.047 C 
ATOM     18  C   UNL A   1      32.401  18.820  23.095  1.00  0.00    -0.015 A 
ATOM     19  C   UNL A   1      32.258  20.156  23.515  1.00  0.00     0.020 A 
ATOM     20  C   UNL A   1      32.764  17.859  24.033  1.00  0.00     0.126 A 
ATOM     21  C   UNL A   1      32.979  18.207  25.360  1.00  0.00     0.040 A 
ATOM     22  F   UNL A   1      32.906  16.579  23.662  1.00  0.00    -0.207 F 
ATOM     23  C   UNL A   1      32.885  19.547  25.751  1.00  0.00     0.017 A 
ENDBRANCH  13  16
ENDBRANCH   8  12
ENDBRANCH   5   7
ENDBRANCH   4   5
ENDBRANCH   3   4
ENDBRANCH   2   3
ENDBRANCH   1   2
BRANCH   1  24
ATOM     24  C   UNL A   1      40.982  19.733  26.492  1.00  0.00     0.202 C 
BRANCH  24  25
ATOM     25  C   UNL A   1      42.381  19.184  26.179  1.00  0.00     0.261 C 
BRANCH  25  26
ATOM     26  O   UNL A   1      42.827  19.485  24.844  1.00  0.00    -0.460 OA
BRANCH  26  27
ATOM     27  C   UNL A   1      44.171  19.593  24.705  1.00  0.00     0.338 C 
ATOM     28  O   UNL A   1      44.945  18.741  24.288  1.00  0.00    -0.246 OA
BRANCH  27  29
ATOM     29  C   UNL A   1      44.596  20.981  24.941  1.00  0.00     0.060 A 
ATOM     30  C   UNL A   1      45.289  21.261  26.126  1.00  0.00     0.016 A 
ATOM     31  C   UNL A   1      44.227  22.007  24.072  1.00  0.00     0.016 A 
ATOM     32  C   UNL A   1      45.586  22.579  26.466  1.00  0.00     0.010 A 
ATOM     33  C   UNL A   1      44.514  23.331  24.421  1.00  0.00     0.010 A 
ATOM     34  C   UNL A   1      45.163  23.623  25.635  1.00  0.00    -0.014 A 
BRANCH  34  35
ATOM     35  C   UNL A   1      45.266  25.022  26.111  1.00  0.00     0.031 A 
ATOM     36  C   UNL A   1      46.594  25.722  26.036  1.00  0.00     0.074 A 
ATOM     37  C   UNL A   1      44.184  25.671  26.575  1.00  0.00     0.049 A 
ATOM     38  N   UNL A   1      46.915  26.934  26.411  1.00  0.00    -0.248 NA
ATOM     39  C   UNL A   1      47.710  24.951  25.463  1.00  0.00     0.031 C 
ATOM     40  C   UNL A   1      42.832  25.119  26.647  1.00  0.00     0.029 A 
ATOM     41  N   UNL A   1      44.058  26.941  27.076  1.00  0.00    -0.354 N 
ATOM     42  C   UNL A   1      48.270  27.067  26.132  1.00  0.00     0.074 A 
ATOM     43  C   UNL A   1      48.715  25.806  25.581  1.00  0.00     0.031 C 
ATOM     44  C   UNL A   1      42.009  26.050  27.160  1.00  0.00     0.029 A 
ATOM     45  C   UNL A   1      42.785  27.246  27.485  1.00  0.00     0.049 A 
ATOM     46  H   UNL A   1      44.810  27.574  27.135  1.00  0.00     0.167 HD
ATOM     47  C   UNL A   1      49.071  28.143  26.319  1.00  0.00     0.031 A 
ATOM     48  C   UNL A   1      42.303  28.359  28.071  1.00  0.00     0.031 A 
ATOM     49  C   UNL A   1      48.629  29.394  26.876  1.00  0.00     0.049 A 
ATOM     50  C   UNL A   1      43.233  29.509  28.346  1.00  0.00     0.074 A 
ATOM     51  C   UNL A   1      49.357  30.553  27.078  1.00  0.00     0.029 A 
ATOM     52  N   UNL A   1      47.344  29.643  27.331  1.00  0.00    -0.354 N 
ATOM     53  N   UNL A   1      44.505  29.635  28.050  1.00  0.00    -0.248 NA
ATOM     54  C   UNL A   1      42.658  30.674  29.034  1.00  0.00     0.031 C 
ATOM     55  C   UNL A   1      48.528  31.484  27.713  1.00  0.00     0.029 A 
ATOM     56  C   UNL A   1      47.267  30.925  27.848  1.00  0.00     0.049 A 
ATOM     57  H   UNL A   1      46.597  29.003  27.293  1.00  0.00     0.167 HD
ATOM     58  C   UNL A   1      44.872  30.903  28.487  1.00  0.00     0.074 A 
ATOM     59  C   UNL A   1      43.687  31.509  29.058  1.00  0.00     0.031 C 
ATOM     60  C   UNL A   1      46.081  31.512  28.416  1.00  0.00     0.031 A 
BRANCH  47  61
ATOM     61  C   UNL A   1      50.523  27.993  25.957  1.00  0.00    -0.014 A 
ATOM     62  C   UNL A   1      51.472  27.554  26.894  1.00  0.00     0.009 A 
ATOM     63  C   UNL A   1      50.942  28.277  24.648  1.00  0.00     0.009 A 
ATOM     64  C   UNL A   1      52.817  27.441  26.537  1.00  0.00     0.001 A 
ATOM     65  C   UNL A   1      52.283  28.137  24.286  1.00  0.00     0.001 A 
ATOM     66  C   UNL A   1      53.221  27.730  25.233  1.00  0.00     0.000 A 
ENDBRANCH  47  61
BRANCH  48  67
ATOM     67  C   UNL A   1      40.868  28.443  28.448  1.00  0.00    -0.014 A 
ATOM     68  C   UNL A   1      40.427  27.960  29.689  1.00  0.00     0.009 A 
ATOM     69  C   UNL A   1      39.928  28.991  27.561  1.00  0.00     0.009 A 
ATOM     70  C   UNL A   1      39.072  28.002  30.024  1.00  0.00     0.001 A 
ATOM     71  C   UNL A   1      38.578  29.059  27.910  1.00  0.00     0.001 A 
ATOM     72  C   UNL A   1      38.150  28.556  29.137  1.00  0.00     0.000 A 
ENDBRANCH  48  67
BRANCH  60  73
ATOM     73  C   UNL A   1      46.174  32.921  28.933  1.00  0.00    -0.014 A 
ATOM     74  C   UNL A   1      45.898  34.022  28.108  1.00  0.00     0.009 A 
ATOM     75  C   UNL A   1      46.503  33.146  30.279  1.00  0.00     0.009 A 
ATOM     76  C   UNL A   1      45.983  35.321  28.613  1.00  0.00     0.001 A 
ATOM     77  C   UNL A   1      46.559  34.443  30.788  1.00  0.00     0.001 A 
ATOM     78  C   UNL A   1      46.308  35.530  29.953  1.00  0.00     0.000 A 
ENDBRANCH  60  73
ENDBRANCH  34  35
ENDBRANCH  27  29
ENDBRANCH  26  27
ENDBRANCH  25  26
ENDBRANCH  24  25
ENDBRANCH   1  24
TORSDOF 16
ENDMDL
MODEL 2
REMARK VINA RESULT:     -10.2      3.797      6.074
REMARK SMILES Cc1cc(C(=O)N[C@H]2C=C[C@H](C(=O)OCCOCCOC(=O)c3ccc(-c4c5nc(c(-c6ccccc6)c6ccc([nH]6)c(-c6ccccc6)c6nc(c(-c7ccccc7)c7ccc4[nH]7)C=C6)C=C5)cc3)C2)ccc1F
REMARK SMILES IDX 17 1 16 2 15 3 14 4 12 5 13 6 11 7 8 8 9 9 71 10 10 11 7 12
REMARK SMILES IDX 5 13 6 14 4 16 1 17 2 18 3 19 74 20 73 21 75 22 72 23 18 24
REMARK SMILES IDX 19 25 20 26 21 27 22 28 23 29 24 30 70 31 25 32 69 33 26 34
REMARK SMILES IDX 27 35 28 36 63 37 29 38 68 39 62 40 64 41 30 42 67 43 61 44
REMARK SMILES IDX 60 45 31 47 53 48 38 49 52 50 39 51 42 52 51 53 65 54 40 55
REMARK SMILES IDX 41 56 50 58 66 59 43 60 32 61 33 62 37 63 34 64 36 65 35 66
REMARK SMILES IDX 54 67 55 68 59 69 56 70 58 71 57 72 44 73 45 74 49 75 46 76
REMARK SMILES IDX 48 77 47 78
REMARK H PARENT 7 15 64 46 42 57
REMARK Flexibility Score: inf
ROOT
ATOM      1  O   UNL A   1      35.261  23.233  22.855  1.00  0.00    -0.374 OA
ENDROOT
BRANCH   1   2
ATOM      2  C   UNL A   1      34.423  24.283  23.321  1.00  0.00     0.202 C 
BRANCH   2   3
ATOM      3  C   UNL A   1      33.425  24.902  22.337  1.00  0.00     0.261 C 
BRANCH   3   4
ATOM      4  O   UNL A   1      33.108  26.269  22.643  1.00  0.00    -0.463 OA
BRANCH   4   5
ATOM      5  C   UNL A   1      31.859  26.641  22.251  1.00  0.00     0.312 C 
ATOM      6  O   UNL A   1      31.342  26.296  21.193  1.00  0.00    -0.252 OA
BRANCH   5   7
ATOM      7  C   UNL A   1      31.137  27.471  23.317  1.00  0.00     0.124 C 
ATOM      8  C   UNL A   1      30.181  25.694  24.605  1.00  0.00     0.106 C 
ATOM      9  C   UNL A   1      29.094  26.495  23.958  1.00  0.00    -0.006 C 
ATOM     10  C   UNL A   1      31.294  26.746  24.666  1.00  0.00     0.048 C 
ATOM     11  C   UNL A   1      29.639  27.445  23.179  1.00  0.00    -0.014 C 
BRANCH   8  12
ATOM     12  N   UNL A   1      29.828  25.116  25.863  1.00  0.00    -0.346 N 
ATOM     13  C   UNL A   1      30.192  23.896  26.393  1.00  0.00     0.251 C 
ATOM     14  O   UNL A   1      29.701  23.583  27.480  1.00  0.00    -0.269 OA
ATOM     15  H   UNL A   1      29.242  25.666  26.432  1.00  0.00     0.164 HD
BRANCH  13  16
ATOM     16  C   UNL A   1      31.200  22.967  25.770  1.00  0.00     0.040 A 
ATOM     17  C   UNL A   1      32.147  21.198  22.516  1.00  0.00     0.047 C 
ATOM     18  C   UNL A   1      32.171  21.632  23.953  1.00  0.00    -0.015 A 
ATOM     19  C   UNL A   1      31.125  22.408  24.486  1.00  0.00     0.020 A 
ATOM     20  C   UNL A   1      33.268  21.344  24.759  1.00  0.00     0.126 A 
ATOM     21  C   UNL A   1      33.331  21.809  26.067  1.00  0.00     0.040 A 
ATOM     22  F   UNL A   1      34.278  20.605  24.279  1.00  0.00    -0.207 F 
ATOM     23  C   UNL A   1      32.309  22.624  26.564  1.00  0.00     0.017 A 
ENDBRANCH  13  16
ENDBRANCH   8  12
ENDBRANCH   5   7
ENDBRANCH   4   5
ENDBRANCH   3   4
ENDBRANCH   2   3
ENDBRANCH   1   2
BRANCH   1  24
ATOM     24  C   UNL A   1      36.617  23.180  23.296  1.00  0.00     0.202 C 
BRANCH  24  25
ATOM     25  C   UNL A   1      36.926  22.671  24.711  1.00  0.00     0.261 C 
BRANCH  25  26
ATOM     26  O   UNL A   1      37.591  23.646  25.536  1.00  0.00    -0.460 OA
BRANCH  26  27
ATOM     27  C   UNL A   1      38.749  23.221  26.096  1.00  0.00     0.338 C 
ATOM     28  O   UNL A   1      39.286  22.130  25.955  1.00  0.00    -0.246 OA
BRANCH  27  29
ATOM     29  C   UNL A   1      39.426  24.337  26.774  1.00  0.00     0.060 A 
ATOM     30  C   UNL A   1      39.195  24.507  28.146  1.00  0.00     0.016 A 
ATOM     31  C   UNL A   1      40.182  25.265  26.059  1.00  0.00     0.016 A 
ATOM     32  C   UNL A   1      39.693  25.628  28.804  1.00  0.00     0.010 A 
ATOM     33  C   UNL A   1      40.671  26.398  26.718  1.00  0.00     0.010 A 
ATOM     34  C   UNL A   1      40.398  26.600  28.084  1.00  0.00    -0.014 A 
BRANCH  34  35
ATOM     35  C   UNL A   1      40.716  27.897  28.727  1.00  0.00     0.031 A 
ATOM     36  C   UNL A   1      42.109  28.135  29.237  1.00  0.00     0.074 A 
ATOM     37  C   UNL A   1      39.784  28.860  28.828  1.00  0.00     0.049 A 
ATOM     38  N   UNL A   1      42.602  29.184  29.845  1.00  0.00    -0.248 NA
ATOM     39  C   UNL A   1      43.078  27.044  29.034  1.00  0.00     0.031 C 
ATOM     40  C   UNL A   1      38.415  28.770  28.324  1.00  0.00     0.029 A 
ATOM     41  N   UNL A   1      39.855  30.108  29.393  1.00  0.00    -0.354 N 
ATOM     42  C   UNL A   1      43.931  28.875  30.109  1.00  0.00     0.074 A 
ATOM     43  C   UNL A   1      44.161  27.534  29.619  1.00  0.00     0.031 C 
ATOM     44  C   UNL A   1      37.773  29.919  28.600  1.00  0.00     0.029 A 
ATOM     45  C   UNL A   1      38.676  30.806  29.331  1.00  0.00     0.049 A 
ATOM     46  H   UNL A   1      40.675  30.467  29.802  1.00  0.00     0.167 HD
ATOM     47  C   UNL A   1      44.875  29.640  30.708  1.00  0.00     0.031 A 
ATOM     48  C   UNL A   1      38.358  32.019  29.823  1.00  0.00     0.031 A 
ATOM     49  C   UNL A   1      44.643  30.970  31.205  1.00  0.00     0.049 A 
ATOM     50  C   UNL A   1      39.401  32.814  30.559  1.00  0.00     0.074 A 
ATOM     51  C   UNL A   1      45.542  31.837  31.800  1.00  0.00     0.029 A 
ATOM     52  N   UNL A   1      43.419  31.620  31.174  1.00  0.00    -0.354 N 
ATOM     53  N   UNL A   1      40.663  32.525  30.776  1.00  0.00    -0.248 NA
ATOM     54  C   UNL A   1      38.977  34.106  31.116  1.00  0.00     0.031 C 
ATOM     55  C   UNL A   1      44.848  32.988  32.185  1.00  0.00     0.029 A 
ATOM     56  C   UNL A   1      43.530  32.863  31.773  1.00  0.00     0.049 A 
ATOM     57  H   UNL A   1      42.594  31.252  30.784  1.00  0.00     0.167 HD
ATOM     58  C   UNL A   1      41.188  33.612  31.466  1.00  0.00     0.074 A 
ATOM     59  C   UNL A   1      40.111  34.568  31.621  1.00  0.00     0.031 C 
ATOM     60  C   UNL A   1      42.449  33.802  31.923  1.00  0.00     0.031 A 
BRANCH  47  61
ATOM     61  C   UNL A   1      46.237  29.031  30.899  1.00  0.00    -0.014 A 
ATOM     62  C   UNL A   1      46.559  28.298  32.052  1.00  0.00     0.009 A 
ATOM     63  C   UNL A   1      47.206  29.178  29.895  1.00  0.00     0.009 A 
ATOM     64  C   UNL A   1      47.837  27.760  32.212  1.00  0.00     0.001 A 
ATOM     65  C   UNL A   1      48.475  28.615  30.045  1.00  0.00     0.001 A 
ATOM     66  C   UNL A   1      48.793  27.916  31.208  1.00  0.00     0.000 A 
ENDBRANCH  47  61
BRANCH  48  67
ATOM     67  C   UNL A   1      36.985  32.559  29.644  1.00  0.00    -0.014 A 
ATOM     68  C   UNL A   1      35.985  32.294  30.592  1.00  0.00     0.009 A 
ATOM     69  C   UNL A   1      36.663  33.329  28.515  1.00  0.00     0.009 A 
ATOM     70  C   UNL A   1      34.686  32.769  30.402  1.00  0.00     0.001 A 
ATOM     71  C   UNL A   1      35.370  33.827  28.342  1.00  0.00     0.001 A 
ATOM     72  C   UNL A   1      34.381  33.539  29.280  1.00  0.00     0.000 A 
ENDBRANCH  48  67
BRANCH  60  73
ATOM     73  C   UNL A   1      42.746  35.111  32.601  1.00  0.00    -0.014 A 
ATOM     74  C   UNL A   1      43.392  36.156  31.922  1.00  0.00     0.009 A 
ATOM     75  C   UNL A   1      42.334  35.315  33.927  1.00  0.00     0.009 A 
ATOM     76  C   UNL A   1      43.650  37.366  32.571  1.00  0.00     0.001 A 
ATOM     77  C   UNL A   1      42.566  36.534  34.563  1.00  0.00     0.001 A 
ATOM     78  C   UNL A   1      43.232  37.556  33.887  1.00  0.00     0.000 A 
ENDBRANCH  60  73
ENDBRANCH  34  35
ENDBRANCH  27  29
ENDBRANCH  26  27
ENDBRANCH  25  26
ENDBRANCH  24  25
ENDBRANCH   1  24
TORSDOF 16
ENDMDL
MODEL 3
REMARK VINA RESULT:     -10.2      3.150      4.516
REMARK SMILES Cc1cc(C(=O)N[C@H]2C=C[C@H](C(=O)OCCOCCOC(=O)c3ccc(-c4c5nc(c(-c6ccccc6)c6ccc([nH]6)c(-c6ccccc6)c6nc(c(-c7ccccc7)c7ccc4[nH]7)C=C6)C=C5)cc3)C2)ccc1F
REMARK SMILES IDX 17 1 16 2 15 3 14 4 12 5 13 6 11 7 8 8 9 9 71 10 10 11 7 12
REMARK SMILES IDX 5 13 6 14 4 16 1 17 2 18 3 19 74 20 73 21 75 22 72 23 18 24
REMARK SMILES IDX 19 25 20 26 21 27 22 28 23 29 24 30 70 31 25 32 69 33 26 34
REMARK SMILES IDX 27 35 28 36 63 37 29 38 68 39 62 40 64 41 30 42 67 43 61 44
REMARK SMILES IDX 60 45 31 47 53 48 38 49 52 50 39 51 42 52 51 53 65 54 40 55
REMARK SMILES IDX 41 56 50 58 66 59 43 60 32 61 33 62 37 63 34 64 36 65 35 66
REMARK SMILES IDX 54 67 55 68 59 69 56 70 58 71 57 72 44 73 45 74 49 75 46 76
REMARK SMILES IDX 48 77 47 78
REMARK H PARENT 7 15 64 46 42 57
REMARK Flexibility Score: inf
ROOT
ATOM      1  O   UNL A   1      37.550  21.874  25.166  1.00  0.00    -0.374 OA
ENDROOT
BRANCH   1   2
ATOM      2  C   UNL A   1      36.739  20.822  24.657  1.00  0.00     0.202 C 
BRANCH   2   3
ATOM      3  C   UNL A   1      35.299  20.707  25.168  1.00  0.00     0.261 C 
BRANCH   3   4
ATOM      4  O   UNL A   1      34.617  21.970  25.214  1.00  0.00    -0.463 OA
BRANCH   4   5
ATOM      5  C   UNL A   1      34.036  22.320  24.035  1.00  0.00     0.312 C 
ATOM      6  O   UNL A   1      34.591  22.991  23.170  1.00  0.00    -0.252 OA
BRANCH   5   7
ATOM      7  C   UNL A   1      32.639  21.712  23.871  1.00  0.00     0.124 C 
ATOM      8  C   UNL A   1      31.319  23.665  24.291  1.00  0.00     0.106 C 
ATOM      9  C   UNL A   1      31.090  22.654  25.371  1.00  0.00    -0.006 C 
ATOM     10  C   UNL A   1      31.757  22.745  23.146  1.00  0.00     0.048 C 
ATOM     11  C   UNL A   1      31.887  21.591  25.169  1.00  0.00    -0.014 C 
BRANCH   8  12
ATOM     12  N   UNL A   1      30.192  24.495  24.001  1.00  0.00    -0.346 N 
ATOM     13  C   UNL A   1      30.053  25.858  24.154  1.00  0.00     0.251 C 
ATOM     14  O   UNL A   1      28.950  26.345  23.898  1.00  0.00    -0.269 OA
ATOM     15  H   UNL A   1      29.405  24.027  23.640  1.00  0.00     0.164 HD
BRANCH  13  16
ATOM     16  C   UNL A   1      31.174  26.788  24.538  1.00  0.00     0.040 A 
ATOM     17  C   UNL A   1      34.029  28.903  23.127  1.00  0.00     0.047 C 
ATOM     18  C   UNL A   1      33.104  28.242  24.108  1.00  0.00    -0.015 A 
ATOM     19  C   UNL A   1      32.157  27.294  23.676  1.00  0.00     0.020 A 
ATOM     20  C   UNL A   1      33.112  28.617  25.448  1.00  0.00     0.126 A 
ATOM     21  C   UNL A   1      32.207  28.066  26.346  1.00  0.00     0.040 A 
ATOM     22  F   UNL A   1      34.003  29.516  25.888  1.00  0.00    -0.207 F 
ATOM     23  C   UNL A   1      31.237  27.166  25.890  1.00  0.00     0.017 A 
ENDBRANCH  13  16
ENDBRANCH   8  12
ENDBRANCH   5   7
ENDBRANCH   4   5
ENDBRANCH   3   4
ENDBRANCH   2   3
ENDBRANCH   1   2
BRANCH   1  24
ATOM     24  C   UNL A   1      38.781  21.550  25.810  1.00  0.00     0.202 C 
BRANCH  24  25
ATOM     25  C   UNL A   1      39.420  20.176  25.559  1.00  0.00     0.261 C 
BRANCH  25  26
ATOM     26  O   UNL A   1      40.408  19.818  26.542  1.00  0.00    -0.460 OA
BRANCH  26  27
ATOM     27  C   UNL A   1      41.693  19.939  26.126  1.00  0.00     0.338 C 
ATOM     28  O   UNL A   1      42.300  19.195  25.368  1.00  0.00    -0.246 OA
BRANCH  27  29
ATOM     29  C   UNL A   1      42.247  21.232  26.556  1.00  0.00     0.060 A 
ATOM     30  C   UNL A   1      42.259  21.516  27.928  1.00  0.00     0.016 A 
ATOM     31  C   UNL A   1      42.644  22.192  25.626  1.00  0.00     0.016 A 
ATOM     32  C   UNL A   1      42.638  22.779  28.377  1.00  0.00     0.010 A 
ATOM     33  C   UNL A   1      43.011  23.465  26.077  1.00  0.00     0.010 A 
ATOM     34  C   UNL A   1      42.975  23.772  27.450  1.00  0.00    -0.014 A 
BRANCH  34  35
ATOM     35  C   UNL A   1      43.143  25.171  27.908  1.00  0.00     0.031 A 
ATOM     36  C   UNL A   1      44.526  25.687  28.187  1.00  0.00     0.074 A 
ATOM     37  C   UNL A   1      42.078  25.981  28.044  1.00  0.00     0.049 A 
ATOM     38  N   UNL A   1      44.902  26.866  28.611  1.00  0.00    -0.248 NA
ATOM     39  C   UNL A   1      45.635  24.745  27.958  1.00  0.00     0.031 C 
ATOM     40  C   UNL A   1      40.693  25.616  27.752  1.00  0.00     0.029 A 
ATOM     41  N   UNL A   1      42.003  27.284  28.466  1.00  0.00    -0.354 N 
ATOM     42  C   UNL A   1      46.287  26.805  28.713  1.00  0.00     0.074 A 
ATOM     43  C   UNL A   1      46.682  25.467  28.331  1.00  0.00     0.031 C 
ATOM     44  C   UNL A   1      39.902  26.674  28.001  1.00  0.00     0.029 A 
ATOM     45  C   UNL A   1      40.723  27.775  28.503  1.00  0.00     0.049 A 
ATOM     46  H   UNL A   1      42.792  27.815  28.716  1.00  0.00     0.167 HD
ATOM     47  C   UNL A   1      47.152  27.776  29.091  1.00  0.00     0.031 A 
ATOM     48  C   UNL A   1      40.263  28.974  28.912  1.00  0.00     0.031 A 
ATOM     49  C   UNL A   1      46.758  29.103  29.481  1.00  0.00     0.049 A 
ATOM     50  C   UNL A   1      41.238  30.007  29.409  1.00  0.00     0.074 A 
ATOM     51  C   UNL A   1      47.561  30.168  29.852  1.00  0.00     0.029 A 
ATOM     52  N   UNL A   1      45.446  29.544  29.560  1.00  0.00    -0.354 N 
ATOM     53  N   UNL A   1      42.547  29.949  29.472  1.00  0.00    -0.248 NA
ATOM     54  C   UNL A   1      40.669  31.275  29.889  1.00  0.00     0.031 C 
ATOM     55  C   UNL A   1      46.732  31.234  30.216  1.00  0.00     0.029 A 
ATOM     56  C   UNL A   1      45.414  30.853  30.011  1.00  0.00     0.049 A 
ATOM     57  H   UNL A   1      44.654  29.006  29.331  1.00  0.00     0.167 HD
ATOM     58  C   UNL A   1      42.958  31.180  29.967  1.00  0.00     0.074 A 
ATOM     59  C   UNL A   1      41.761  31.968  30.178  1.00  0.00     0.031 C 
ATOM     60  C   UNL A   1      44.215  31.621  30.219  1.00  0.00     0.031 A 
BRANCH  47  61
ATOM     61  C   UNL A   1      48.611  27.417  29.145  1.00  0.00    -0.014 A 
ATOM     62  C   UNL A   1      49.187  26.852  30.295  1.00  0.00     0.009 A 
ATOM     63  C   UNL A   1      49.418  27.631  28.017  1.00  0.00     0.009 A 
ATOM     64  C   UNL A   1      50.549  26.546  30.325  1.00  0.00     0.001 A 
ATOM     65  C   UNL A   1      50.773  27.297  28.040  1.00  0.00     0.001 A 
ATOM     66  C   UNL A   1      51.341  26.766  29.197  1.00  0.00     0.000 A 
ENDBRANCH  47  61
BRANCH  48  67
ATOM     67  C   UNL A   1      38.807  29.265  28.878  1.00  0.00    -0.014 A 
ATOM     68  C   UNL A   1      38.018  29.093  30.025  1.00  0.00     0.009 A 
ATOM     69  C   UNL A   1      38.194  29.702  27.693  1.00  0.00     0.009 A 
ATOM     70  C   UNL A   1      36.642  29.329  29.981  1.00  0.00     0.001 A 
ATOM     71  C   UNL A   1      36.823  29.965  27.658  1.00  0.00     0.001 A 
ATOM     72  C   UNL A   1      36.047  29.769  28.799  1.00  0.00     0.000 A 
ENDBRANCH  48  67
BRANCH  60  73
ATOM     73  C   UNL A   1      44.363  33.034  30.713  1.00  0.00    -0.014 A 
ATOM     74  C   UNL A   1      44.345  33.334  32.084  1.00  0.00     0.009 A 
ATOM     75  C   UNL A   1      44.565  34.074  29.792  1.00  0.00     0.009 A 
ATOM     76  C   UNL A   1      44.492  34.653  32.519  1.00  0.00     0.001 A 
ATOM     77  C   UNL A   1      44.741  35.386  30.231  1.00  0.00     0.001 A 
ATOM     78  C   UNL A   1      44.695  35.676  31.593  1.00  0.00     0.000 A 
ENDBRANCH  60  73
ENDBRANCH  34  35
ENDBRANCH  27  29
ENDBRANCH  26  27
ENDBRANCH  25  26
ENDBRANCH  24  25
ENDBRANCH   1  24
TORSDOF 16
ENDMDL
