MODEL 1
REMARK VINA RESULT:     -10.3      0.000      0.000
REMARK SMILES Cc1ccc(Br)cc1S(=O)(=O)N[C@H]1C=C[C@H](C(=O)OCCOCCOC(=O)c2ccc(-c3c4nc(c(-c5ccccc5)c5ccc([nH]5)c(-c5ccccc5)c5nc(c(-c6ccccc6)c6ccc3[nH]6)C=C5)C=C4)cc2)C1
REMARK SMILES IDX 21 1 20 2 19 3 17 4 18 5 16 6 13 7 14 8 76 9 15 10 12 11
REMARK SMILES IDX 9 13 10 14 11 15 8 16 1 17 2 18 3 19 4 20 7 21 5 22 6 23
REMARK SMILES IDX 22 24 23 25 24 26 25 27 26 28 27 29 28 30 29 31 75 32 30 33
REMARK SMILES IDX 74 34 31 35 32 36 33 37 68 38 34 39 73 40 67 41 69 42 35 43
REMARK SMILES IDX 72 44 66 45 65 46 36 48 58 49 43 50 57 51 44 52 47 53 56 54
REMARK SMILES IDX 70 55 45 56 46 57 55 59 71 60 48 61 37 62 38 63 42 64 39 65
REMARK SMILES IDX 41 66 40 67 59 68 60 69 64 70 61 71 63 72 62 73 49 74 50 75
REMARK SMILES IDX 54 76 51 77 53 78 52 79
REMARK H PARENT 12 12 69 47 47 58
REMARK Flexibility Score: inf
ROOT
ATOM      1  C   UNL A   1      33.990  33.055  28.072  1.00  0.00     0.202 C 
ENDROOT
BRANCH   1   2
ATOM      2  C   UNL A   1      34.340  31.605  28.421  1.00  0.00     0.261 C 
BRANCH   2   3
ATOM      3  O   UNL A   1      34.951  30.976  27.275  1.00  0.00    -0.463 OA
BRANCH   3   4
ATOM      4  C   UNL A   1      35.148  29.634  27.342  1.00  0.00     0.312 C 
ATOM      5  O   UNL A   1      35.971  29.084  28.064  1.00  0.00    -0.252 OA
BRANCH   4   6
ATOM      6  C   UNL A   1      34.144  28.857  26.501  1.00  0.00     0.123 C 
ATOM      7  C   UNL A   1      31.921  28.874  25.485  1.00  0.00     0.093 C 
ATOM      8  C   UNL A   1      31.900  28.245  26.849  1.00  0.00    -0.011 C 
ATOM      9  C   UNL A   1      33.237  29.653  25.551  1.00  0.00     0.043 C 
ATOM     10  C   UNL A   1      33.125  28.189  27.387  1.00  0.00    -0.015 C 
BRANCH   7  11
ATOM     11  N   UNL A   1      31.919  27.740  24.569  1.00  0.00    -0.204 NA
ATOM     12  H   UNL A   1      32.867  27.364  24.585  1.00  0.00     0.142 HD
BRANCH  11  13
ATOM     13  S   UNL A   1      31.506  27.880  22.958  1.00  0.00     0.241 S 
ATOM     14  O   UNL A   1      31.413  26.532  22.435  1.00  0.00    -0.207 OA
ATOM     15  O   UNL A   1      32.398  28.861  22.390  1.00  0.00    -0.207 OA
BRANCH  13  16
ATOM     16  C   UNL A   1      29.877  28.604  22.969  1.00  0.00     0.086 A 
ATOM     17  C   UNL A   1      28.682  26.520  23.938  1.00  0.00     0.046 C 
ATOM     18  C   UNL A   1      28.715  27.895  23.333  1.00  0.00    -0.031 A 
ATOM     19  C   UNL A   1      27.470  28.530  23.150  1.00  0.00     0.006 A 
ATOM     20  C   UNL A   1      27.385  29.840  22.676  1.00  0.00     0.016 A 
ATOM     21  C   UNL A   1      29.790  29.935  22.523  1.00  0.00     0.037 A 
ATOM     22  C   UNL A   1      28.548  30.545  22.388  1.00  0.00     0.019 A 
ATOM     23  Br  UNL A   1      28.440  32.338  21.801  1.00  0.00    -0.051 Br
ENDBRANCH  13  16
ENDBRANCH  11  13
ENDBRANCH   7  11
ENDBRANCH   4   6
ENDBRANCH   3   4
ENDBRANCH   2   3
ENDBRANCH   1   2
BRANCH   1  24
ATOM     24  O   UNL A   1      34.666  34.047  28.849  1.00  0.00    -0.374 OA
BRANCH  24  25
ATOM     25  C   UNL A   1      34.298  35.406  28.624  1.00  0.00     0.202 C 
BRANCH  25  26
ATOM     26  C   UNL A   1      33.042  35.875  29.364  1.00  0.00     0.261 C 
BRANCH  26  27
ATOM     27  O   UNL A   1      32.748  35.030  30.489  1.00  0.00    -0.460 OA
BRANCH  27  28
ATOM     28  C   UNL A   1      32.885  35.641  31.690  1.00  0.00     0.338 C 
ATOM     29  O   UNL A   1      32.186  36.527  32.155  1.00  0.00    -0.246 OA
BRANCH  28  30
ATOM     30  C   UNL A   1      33.944  34.988  32.482  1.00  0.00     0.060 A 
ATOM     31  C   UNL A   1      35.189  35.626  32.520  1.00  0.00     0.016 A 
ATOM     32  C   UNL A   1      33.764  33.740  33.085  1.00  0.00     0.016 A 
ATOM     33  C   UNL A   1      36.279  34.988  33.100  1.00  0.00     0.010 A 
ATOM     34  C   UNL A   1      34.865  33.096  33.663  1.00  0.00     0.010 A 
ATOM     35  C   UNL A   1      36.135  33.698  33.629  1.00  0.00    -0.014 A 
BRANCH  35  36
ATOM     36  C   UNL A   1      37.358  32.936  33.974  1.00  0.00     0.031 A 
ATOM     37  C   UNL A   1      37.901  31.943  32.982  1.00  0.00     0.074 A 
ATOM     38  C   UNL A   1      38.029  33.189  35.111  1.00  0.00     0.049 A 
ATOM     39  N   UNL A   1      39.004  31.242  33.032  1.00  0.00    -0.248 NA
ATOM     40  C   UNL A   1      37.097  31.719  31.769  1.00  0.00     0.031 C 
ATOM     41  C   UNL A   1      37.630  34.153  36.134  1.00  0.00     0.029 A 
ATOM     42  N   UNL A   1      39.202  32.658  35.584  1.00  0.00    -0.354 N 
ATOM     43  C   UNL A   1      39.030  30.498  31.858  1.00  0.00     0.074 A 
ATOM     44  C   UNL A   1      37.817  30.808  31.132  1.00  0.00     0.031 C 
ATOM     45  C   UNL A   1      38.550  34.152  37.114  1.00  0.00     0.029 A 
ATOM     46  C   UNL A   1      39.591  33.178  36.793  1.00  0.00     0.049 A 
ATOM     47  H   UNL A   1      39.716  31.970  35.102  1.00  0.00     0.167 HD
ATOM     48  C   UNL A   1      39.981  29.642  31.415  1.00  0.00     0.031 A 
ATOM     49  C   UNL A   1      40.665  32.897  37.555  1.00  0.00     0.031 A 
ATOM     50  C   UNL A   1      41.180  29.317  32.138  1.00  0.00     0.049 A 
ATOM     51  C   UNL A   1      41.676  31.891  37.073  1.00  0.00     0.074 A 
ATOM     52  C   UNL A   1      42.208  28.467  31.767  1.00  0.00     0.029 A 
ATOM     53  N   UNL A   1      41.509  29.825  33.385  1.00  0.00    -0.354 N 
ATOM     54  N   UNL A   1      41.703  31.222  35.946  1.00  0.00    -0.248 NA
ATOM     55  C   UNL A   1      42.809  31.614  37.967  1.00  0.00     0.031 C 
ATOM     56  C   UNL A   1      43.138  28.426  32.812  1.00  0.00     0.029 A 
ATOM     57  C   UNL A   1      42.711  29.287  33.810  1.00  0.00     0.049 A 
ATOM     58  H   UNL A   1      40.968  30.471  33.892  1.00  0.00     0.167 HD
ATOM     59  C   UNL A   1      42.866  30.463  35.986  1.00  0.00     0.074 A 
ATOM     60  C   UNL A   1      43.523  30.765  37.241  1.00  0.00     0.031 C 
ATOM     61  C   UNL A   1      43.348  29.594  35.064  1.00  0.00     0.031 A 
BRANCH  48  62
ATOM     62  C   UNL A   1      39.741  28.974  30.093  1.00  0.00    -0.014 A 
ATOM     63  C   UNL A   1      39.214  27.675  30.021  1.00  0.00     0.009 A 
ATOM     64  C   UNL A   1      40.028  29.661  28.903  1.00  0.00     0.009 A 
ATOM     65  C   UNL A   1      39.005  27.066  28.782  1.00  0.00     0.001 A 
ATOM     66  C   UNL A   1      39.798  29.057  27.666  1.00  0.00     0.001 A 
ATOM     67  C   UNL A   1      39.294  27.758  27.606  1.00  0.00     0.000 A 
ENDBRANCH  48  62
BRANCH  49  68
ATOM     68  C   UNL A   1      40.843  33.576  38.864  1.00  0.00    -0.014 A 
ATOM     69  C   UNL A   1      40.383  32.983  40.048  1.00  0.00     0.009 A 
ATOM     70  C   UNL A   1      41.462  34.834  38.928  1.00  0.00     0.009 A 
ATOM     71  C   UNL A   1      40.519  33.646  41.270  1.00  0.00     0.001 A 
ATOM     72  C   UNL A   1      41.618  35.485  40.153  1.00  0.00     0.001 A 
ATOM     73  C   UNL A   1      41.140  34.894  41.322  1.00  0.00     0.000 A 
ENDBRANCH  49  68
BRANCH  61  74
ATOM     74  C   UNL A   1      44.659  28.928  35.369  1.00  0.00    -0.014 A 
ATOM     75  C   UNL A   1      44.710  27.695  36.034  1.00  0.00     0.009 A 
ATOM     76  C   UNL A   1      45.858  29.528  34.952  1.00  0.00     0.009 A 
ATOM     77  C   UNL A   1      45.938  27.090  36.307  1.00  0.00     0.001 A 
ATOM     78  C   UNL A   1      47.083  28.909  35.204  1.00  0.00     0.001 A 
ATOM     79  C   UNL A   1      47.123  27.696  35.889  1.00  0.00     0.000 A 
ENDBRANCH  61  74
ENDBRANCH  35  36
ENDBRANCH  28  30
ENDBRANCH  27  28
ENDBRANCH  26  27
ENDBRANCH  25  26
ENDBRANCH  24  25
ENDBRANCH   1  24
TORSDOF 17
ENDMDL
MODEL 2
REMARK VINA RESULT:     -10.2      3.702      8.350
REMARK SMILES Cc1ccc(Br)cc1S(=O)(=O)N[C@H]1C=C[C@H](C(=O)OCCOCCOC(=O)c2ccc(-c3c4nc(c(-c5ccccc5)c5ccc([nH]5)c(-c5ccccc5)c5nc(c(-c6ccccc6)c6ccc3[nH]6)C=C5)C=C4)cc2)C1
REMARK SMILES IDX 21 1 20 2 19 3 17 4 18 5 16 6 13 7 14 8 76 9 15 10 12 11
REMARK SMILES IDX 9 13 10 14 11 15 8 16 1 17 2 18 3 19 4 20 7 21 5 22 6 23
REMARK SMILES IDX 22 24 23 25 24 26 25 27 26 28 27 29 28 30 29 31 75 32 30 33
REMARK SMILES IDX 74 34 31 35 32 36 33 37 68 38 34 39 73 40 67 41 69 42 35 43
REMARK SMILES IDX 72 44 66 45 65 46 36 48 58 49 43 50 57 51 44 52 47 53 56 54
REMARK SMILES IDX 70 55 45 56 46 57 55 59 71 60 48 61 37 62 38 63 42 64 39 65
REMARK SMILES IDX 41 66 40 67 59 68 60 69 64 70 61 71 63 72 62 73 49 74 50 75
REMARK SMILES IDX 54 76 51 77 53 78 52 79
REMARK H PARENT 12 12 69 47 47 58
REMARK Flexibility Score: inf
ROOT
ATOM      1  C   UNL A   1      39.152  22.158  26.136  1.00  0.00     0.202 C 
ENDROOT
BRANCH   1   2
ATOM      2  C   UNL A   1      38.288  21.144  25.380  1.00  0.00     0.261 C 
BRANCH   2   3
ATOM      3  O   UNL A   1      37.216  21.840  24.711  1.00  0.00    -0.463 OA
BRANCH   3   4
ATOM      4  C   UNL A   1      35.972  21.307  24.823  1.00  0.00     0.312 C 
ATOM      5  O   UNL A   1      35.735  20.118  24.998  1.00  0.00    -0.252 OA
BRANCH   4   6
ATOM      6  C   UNL A   1      34.883  22.371  24.827  1.00  0.00     0.123 C 
ATOM      7  C   UNL A   1      34.136  24.498  23.884  1.00  0.00     0.093 C 
ATOM      8  C   UNL A   1      34.923  24.700  25.147  1.00  0.00    -0.011 C 
ATOM      9  C   UNL A   1      34.570  23.081  23.501  1.00  0.00     0.043 C 
ATOM     10  C   UNL A   1      35.290  23.534  25.694  1.00  0.00    -0.015 C 
BRANCH   7  11
ATOM     11  N   UNL A   1      32.747  24.628  24.304  1.00  0.00    -0.204 NA
ATOM     12  H   UNL A   1      32.371  23.679  24.332  1.00  0.00     0.142 HD
BRANCH  11  13
ATOM     13  S   UNL A   1      31.630  25.541  23.464  1.00  0.00     0.241 S 
ATOM     14  O   UNL A   1      30.332  24.949  23.721  1.00  0.00    -0.207 OA
ATOM     15  O   UNL A   1      32.149  25.694  22.127  1.00  0.00    -0.207 OA
BRANCH  13  16
ATOM     16  C   UNL A   1      31.689  27.148  24.232  1.00  0.00     0.086 A 
ATOM     17  C   UNL A   1      29.531  28.041  23.108  1.00  0.00     0.046 C 
ATOM     18  C   UNL A   1      30.777  28.181  23.939  1.00  0.00    -0.031 A 
ATOM     19  C   UNL A   1      31.021  29.454  24.491  1.00  0.00     0.006 A 
ATOM     20  C   UNL A   1      32.100  29.679  25.347  1.00  0.00     0.016 A 
ATOM     21  C   UNL A   1      32.756  27.370  25.120  1.00  0.00     0.037 A 
ATOM     22  C   UNL A   1      32.949  28.629  25.677  1.00  0.00     0.019 A 
ATOM     23  Br  UNL A   1      34.376  28.916  26.882  1.00  0.00    -0.051 Br
ENDBRANCH  13  16
ENDBRANCH  11  13
ENDBRANCH   7  11
ENDBRANCH   4   6
ENDBRANCH   3   4
ENDBRANCH   2   3
ENDBRANCH   1   2
BRANCH   1  24
ATOM     24  O   UNL A   1      40.091  21.591  27.054  1.00  0.00    -0.374 OA
BRANCH  24  25
ATOM     25  C   UNL A   1      41.191  20.876  26.494  1.00  0.00     0.202 C 
BRANCH  25  26
ATOM     26  C   UNL A   1      42.312  21.745  25.920  1.00  0.00     0.261 C 
BRANCH  26  27
ATOM     27  O   UNL A   1      42.614  22.854  26.784  1.00  0.00    -0.460 OA
BRANCH  27  28
ATOM     28  C   UNL A   1      42.711  24.043  26.144  1.00  0.00     0.338 C 
ATOM     29  O   UNL A   1      43.100  24.242  25.004  1.00  0.00    -0.246 OA
BRANCH  28  30
ATOM     30  C   UNL A   1      42.129  25.119  26.967  1.00  0.00     0.060 A 
ATOM     31  C   UNL A   1      42.794  26.350  26.959  1.00  0.00     0.016 A 
ATOM     32  C   UNL A   1      41.029  24.908  27.802  1.00  0.00     0.016 A 
ATOM     33  C   UNL A   1      42.407  27.355  27.839  1.00  0.00     0.010 A 
ATOM     34  C   UNL A   1      40.644  25.919  28.693  1.00  0.00     0.010 A 
ATOM     35  C   UNL A   1      41.363  27.126  28.746  1.00  0.00    -0.014 A 
BRANCH  35  36
ATOM     36  C   UNL A   1      41.164  28.093  29.851  1.00  0.00     0.031 A 
ATOM     37  C   UNL A   1      40.047  29.097  29.747  1.00  0.00     0.074 A 
ATOM     38  C   UNL A   1      41.904  28.021  30.971  1.00  0.00     0.049 A 
ATOM     39  N   UNL A   1      39.632  29.967  30.632  1.00  0.00    -0.248 NA
ATOM     40  C   UNL A   1      39.295  29.115  28.482  1.00  0.00     0.031 C 
ATOM     41  C   UNL A   1      42.988  27.070  31.211  1.00  0.00     0.029 A 
ATOM     42  N   UNL A   1      41.839  28.760  32.124  1.00  0.00    -0.354 N 
ATOM     43  C   UNL A   1      38.568  30.631  30.033  1.00  0.00     0.074 A 
ATOM     44  C   UNL A   1      38.423  30.088  28.700  1.00  0.00     0.031 C 
ATOM     45  C   UNL A   1      43.483  27.278  32.443  1.00  0.00     0.029 A 
ATOM     46  C   UNL A   1      42.761  28.384  33.069  1.00  0.00     0.049 A 
ATOM     47  H   UNL A   1      41.193  29.490  32.263  1.00  0.00     0.167 HD
ATOM     48  C   UNL A   1      37.773  31.599  30.548  1.00  0.00     0.031 A 
ATOM     49  C   UNL A   1      42.997  28.879  34.299  1.00  0.00     0.031 A 
ATOM     50  C   UNL A   1      37.920  32.154  31.866  1.00  0.00     0.049 A 
ATOM     51  C   UNL A   1      42.143  30.001  34.825  1.00  0.00     0.074 A 
ATOM     52  C   UNL A   1      37.158  33.133  32.480  1.00  0.00     0.029 A 
ATOM     53  N   UNL A   1      38.902  31.784  32.770  1.00  0.00    -0.354 N 
ATOM     54  N   UNL A   1      41.120  30.595  34.261  1.00  0.00    -0.248 NA
ATOM     55  C   UNL A   1      42.472  30.510  36.164  1.00  0.00     0.031 C 
ATOM     56  C   UNL A   1      37.707  33.386  33.742  1.00  0.00     0.029 A 
ATOM     57  C   UNL A   1      38.782  32.531  33.929  1.00  0.00     0.049 A 
ATOM     58  H   UNL A   1      39.584  31.092  32.612  1.00  0.00     0.167 HD
ATOM     59  C   UNL A   1      40.670  31.531  35.184  1.00  0.00     0.074 A 
ATOM     60  C   UNL A   1      41.522  31.415  36.349  1.00  0.00     0.031 C 
ATOM     61  C   UNL A   1      39.641  32.407  35.077  1.00  0.00     0.031 A 
BRANCH  48  62
ATOM     62  C   UNL A   1      36.687  32.137  29.663  1.00  0.00    -0.014 A 
ATOM     63  C   UNL A   1      35.395  31.587  29.684  1.00  0.00     0.009 A 
ATOM     64  C   UNL A   1      36.953  33.222  28.813  1.00  0.00     0.009 A 
ATOM     65  C   UNL A   1      34.399  32.094  28.847  1.00  0.00     0.001 A 
ATOM     66  C   UNL A   1      35.949  33.740  27.994  1.00  0.00     0.001 A 
ATOM     67  C   UNL A   1      34.675  33.172  28.006  1.00  0.00     0.000 A 
ENDBRANCH  48  62
BRANCH  49  68
ATOM     68  C   UNL A   1      44.097  28.319  35.125  1.00  0.00    -0.014 A 
ATOM     69  C   UNL A   1      45.396  28.840  35.039  1.00  0.00     0.009 A 
ATOM     70  C   UNL A   1      43.851  27.243  35.993  1.00  0.00     0.009 A 
ATOM     71  C   UNL A   1      46.432  28.282  35.790  1.00  0.00     0.001 A 
ATOM     72  C   UNL A   1      44.884  26.702  36.760  1.00  0.00     0.001 A 
ATOM     73  C   UNL A   1      46.175  27.216  36.652  1.00  0.00     0.000 A 
ENDBRANCH  49  68
BRANCH  61  74
ATOM     74  C   UNL A   1      39.368  33.291  36.260  1.00  0.00    -0.014 A 
ATOM     75  C   UNL A   1      38.443  32.918  37.246  1.00  0.00     0.009 A 
ATOM     76  C   UNL A   1      40.074  34.495  36.407  1.00  0.00     0.009 A 
ATOM     77  C   UNL A   1      38.204  33.751  38.341  1.00  0.00     0.001 A 
ATOM     78  C   UNL A   1      39.851  35.314  37.515  1.00  0.00     0.001 A 
ATOM     79  C   UNL A   1      38.910  34.946  38.475  1.00  0.00     0.000 A 
ENDBRANCH  61  74
ENDBRANCH  35  36
ENDBRANCH  28  30
ENDBRANCH  27  28
ENDBRANCH  26  27
ENDBRANCH  25  26
ENDBRANCH  24  25
ENDBRANCH   1  24
TORSDOF 17
ENDMDL
MODEL 3
REMARK VINA RESULT:     -10.1      6.857     11.350
REMARK SMILES Cc1ccc(Br)cc1S(=O)(=O)N[C@H]1C=C[C@H](C(=O)OCCOCCOC(=O)c2ccc(-c3c4nc(c(-c5ccccc5)c5ccc([nH]5)c(-c5ccccc5)c5nc(c(-c6ccccc6)c6ccc3[nH]6)C=C5)C=C4)cc2)C1
REMARK SMILES IDX 21 1 20 2 19 3 17 4 18 5 16 6 13 7 14 8 76 9 15 10 12 11
REMARK SMILES IDX 9 13 10 14 11 15 8 16 1 17 2 18 3 19 4 20 7 21 5 22 6 23
REMARK SMILES IDX 22 24 23 25 24 26 25 27 26 28 27 29 28 30 29 31 75 32 30 33
REMARK SMILES IDX 74 34 31 35 32 36 33 37 68 38 34 39 73 40 67 41 69 42 35 43
REMARK SMILES IDX 72 44 66 45 65 46 36 48 58 49 43 50 57 51 44 52 47 53 56 54
REMARK SMILES IDX 70 55 45 56 46 57 55 59 71 60 48 61 37 62 38 63 42 64 39 65
REMARK SMILES IDX 41 66 40 67 59 68 60 69 64 70 61 71 63 72 62 73 49 74 50 75
REMARK SMILES IDX 54 76 51 77 53 78 52 79
REMARK H PARENT 12 12 69 47 47 58
REMARK Flexibility Score: inf
ROOT
ATOM      1  C   UNL A   1      40.838  20.680  26.974  1.00  0.00     0.202 C 
ENDROOT
BRANCH   1   2
ATOM      2  C   UNL A   1      40.526  21.917  26.125  1.00  0.00     0.261 C 
BRANCH   2   3
ATOM      3  O   UNL A   1      39.118  21.934  25.812  1.00  0.00    -0.463 OA
BRANCH   3   4
ATOM      4  C   UNL A   1      38.402  22.997  26.259  1.00  0.00     0.312 C 
ATOM      5  O   UNL A   1      38.873  23.954  26.862  1.00  0.00    -0.252 OA
BRANCH   4   6
ATOM      6  C   UNL A   1      36.944  22.939  25.823  1.00  0.00     0.123 C 
ATOM      7  C   UNL A   1      35.296  21.785  24.436  1.00  0.00     0.093 C 
ATOM      8  C   UNL A   1      35.902  22.955  23.715  1.00  0.00    -0.011 C 
ATOM      9  C   UNL A   1      36.337  21.558  25.536  1.00  0.00     0.043 C 
ATOM     10  C   UNL A   1      36.767  23.620  24.491  1.00  0.00    -0.015 C 
BRANCH   7  11
ATOM     11  N   UNL A   1      34.005  22.277  24.897  1.00  0.00    -0.204 NA
ATOM     12  H   UNL A   1      34.209  22.961  25.627  1.00  0.00     0.142 HD
BRANCH  11  13
ATOM     13  S   UNL A   1      32.825  21.276  25.521  1.00  0.00     0.241 S 
ATOM     14  O   UNL A   1      31.559  21.953  25.325  1.00  0.00    -0.207 OA
ATOM     15  O   UNL A   1      33.281  20.871  26.828  1.00  0.00    -0.207 OA
BRANCH  13  16
ATOM     16  C   UNL A   1      32.866  19.826  24.485  1.00  0.00     0.086 A 
ATOM     17  C   UNL A   1      32.003  21.017  22.352  1.00  0.00     0.046 C 
ATOM     18  C   UNL A   1      32.407  19.811  23.154  1.00  0.00    -0.031 A 
ATOM     19  C   UNL A   1      32.346  18.569  22.490  1.00  0.00     0.006 A 
ATOM     20  C   UNL A   1      32.777  17.393  23.108  1.00  0.00     0.016 A 
ATOM     21  C   UNL A   1      33.331  18.646  25.093  1.00  0.00     0.037 A 
ATOM     22  C   UNL A   1      33.291  17.442  24.398  1.00  0.00     0.019 A 
ATOM     23  Br  UNL A   1      33.930  15.863  25.216  1.00  0.00    -0.051 Br
ENDBRANCH  13  16
ENDBRANCH  11  13
ENDBRANCH   7  11
ENDBRANCH   4   6
ENDBRANCH   3   4
ENDBRANCH   2   3
ENDBRANCH   1   2
BRANCH   1  24
ATOM     24  O   UNL A   1      41.202  19.511  26.234  1.00  0.00    -0.374 OA
BRANCH  24  25
ATOM     25  C   UNL A   1      42.533  19.028  26.402  1.00  0.00     0.202 C 
BRANCH  25  26
ATOM     26  C   UNL A   1      43.459  19.228  25.200  1.00  0.00     0.261 C 
BRANCH  26  27
ATOM     27  O   UNL A   1      44.490  20.190  25.485  1.00  0.00    -0.460 OA
BRANCH  27  28
ATOM     28  C   UNL A   1      44.447  21.293  24.701  1.00  0.00     0.338 C 
ATOM     29  O   UNL A   1      44.596  21.349  23.491  1.00  0.00    -0.246 OA
BRANCH  28  30
ATOM     30  C   UNL A   1      44.037  22.470  25.491  1.00  0.00     0.060 A 
ATOM     31  C   UNL A   1      43.712  23.628  24.777  1.00  0.00     0.016 A 
ATOM     32  C   UNL A   1      44.067  22.478  26.888  1.00  0.00     0.016 A 
ATOM     33  C   UNL A   1      43.484  24.821  25.453  1.00  0.00     0.010 A 
ATOM     34  C   UNL A   1      43.844  23.682  27.568  1.00  0.00     0.010 A 
ATOM     35  C   UNL A   1      43.600  24.866  26.849  1.00  0.00    -0.014 A 
BRANCH  35  36
ATOM     36  C   UNL A   1      43.637  26.191  27.511  1.00  0.00     0.031 A 
ATOM     37  C   UNL A   1      44.966  26.869  27.708  1.00  0.00     0.074 A 
ATOM     38  C   UNL A   1      42.500  26.825  27.850  1.00  0.00     0.049 A 
ATOM     39  N   UNL A   1      45.225  28.064  28.172  1.00  0.00    -0.248 NA
ATOM     40  C   UNL A   1      46.160  26.099  27.321  1.00  0.00     0.031 C 
ATOM     41  C   UNL A   1      41.150  26.293  27.675  1.00  0.00     0.029 A 
ATOM     42  N   UNL A   1      42.308  28.066  28.399  1.00  0.00    -0.354 N 
ATOM     43  C   UNL A   1      46.608  28.193  28.129  1.00  0.00     0.074 A 
ATOM     44  C   UNL A   1      47.136  26.943  27.625  1.00  0.00     0.031 C 
ATOM     45  C   UNL A   1      40.265  27.209  28.103  1.00  0.00     0.029 A 
ATOM     46  C   UNL A   1      40.987  28.381  28.593  1.00  0.00     0.049 A 
ATOM     47  H   UNL A   1      43.048  28.674  28.632  1.00  0.00     0.167 HD
ATOM     48  C   UNL A   1      47.374  29.257  28.466  1.00  0.00     0.031 A 
ATOM     49  C   UNL A   1      40.424  29.490  29.111  1.00  0.00     0.031 A 
ATOM     50  C   UNL A   1      46.859  30.496  28.981  1.00  0.00     0.049 A 
ATOM     51  C   UNL A   1      41.301  30.636  29.542  1.00  0.00     0.074 A 
ATOM     52  C   UNL A   1      47.555  31.637  29.344  1.00  0.00     0.029 A 
ATOM     53  N   UNL A   1      45.517  30.754  29.215  1.00  0.00    -0.354 N 
ATOM     54  N   UNL A   1      42.604  30.755  29.462  1.00  0.00    -0.248 NA
ATOM     55  C   UNL A   1      40.623  31.804  30.122  1.00  0.00     0.031 C 
ATOM     56  C   UNL A   1      46.637  32.569  29.839  1.00  0.00     0.029 A 
ATOM     57  C   UNL A   1      45.366  32.026  29.740  1.00  0.00     0.049 A 
ATOM     58  H   UNL A   1      44.782  30.126  29.034  1.00  0.00     0.167 HD
ATOM     59  C   UNL A   1      42.899  32.018  29.961  1.00  0.00     0.074 A 
ATOM     60  C   UNL A   1      41.638  32.631  30.326  1.00  0.00     0.031 C 
ATOM     61  C   UNL A   1      44.106  32.618  30.102  1.00  0.00     0.031 A 
BRANCH  48  62
ATOM     62  C   UNL A   1      48.859  29.111  28.311  1.00  0.00    -0.014 A 
ATOM     63  C   UNL A   1      49.502  29.463  27.114  1.00  0.00     0.009 A 
ATOM     64  C   UNL A   1      49.628  28.633  29.383  1.00  0.00     0.009 A 
ATOM     65  C   UNL A   1      50.885  29.312  26.984  1.00  0.00     0.001 A 
ATOM     66  C   UNL A   1      51.013  28.504  29.257  1.00  0.00     0.001 A 
ATOM     67  C   UNL A   1      51.638  28.836  28.057  1.00  0.00     0.000 A 
ENDBRANCH  48  62
BRANCH  49  68
ATOM     68  C   UNL A   1      38.949  29.574  29.257  1.00  0.00    -0.014 A 
ATOM     69  C   UNL A   1      38.327  29.238  30.468  1.00  0.00     0.009 A 
ATOM     70  C   UNL A   1      38.154  29.975  28.172  1.00  0.00     0.009 A 
ATOM     71  C   UNL A   1      36.937  29.283  30.584  1.00  0.00     0.001 A 
ATOM     72  C   UNL A   1      36.766  30.041  28.297  1.00  0.00     0.001 A 
ATOM     73  C   UNL A   1      36.157  29.687  29.501  1.00  0.00     0.000 A 
ENDBRANCH  49  68
BRANCH  61  74
ATOM     74  C   UNL A   1      44.116  34.016  30.652  1.00  0.00    -0.014 A 
ATOM     75  C   UNL A   1      44.260  34.254  32.027  1.00  0.00     0.009 A 
ATOM     76  C   UNL A   1      44.018  35.109  29.777  1.00  0.00     0.009 A 
ATOM     77  C   UNL A   1      44.271  35.560  32.519  1.00  0.00     0.001 A 
ATOM     78  C   UNL A   1      44.054  36.414  30.269  1.00  0.00     0.001 A 
ATOM     79  C   UNL A   1      44.171  36.638  31.640  1.00  0.00     0.000 A 
ENDBRANCH  61  74
ENDBRANCH  35  36
ENDBRANCH  28  30
ENDBRANCH  27  28
ENDBRANCH  26  27
ENDBRANCH  25  26
ENDBRANCH  24  25
ENDBRANCH   1  24
TORSDOF 17
ENDMDL
