MODEL 1
REMARK VINA RESULT:      -9.1      0.000      0.000
REMARK SMILES CC(=O)Nc1cccc(-c2ccc(F)c(C(=O)OCCOCCOC(=O)c3ccc(-c4c5nc(c(-c6ccccc6)c6ccc([nH]6)c(-c6ccccc6)c6nc(c(-c7ccccc7)c7ccc4[nH]7)C=C6)C=C5)cc3)c2)c1
REMARK SMILES IDX 21 1 20 2 19 3 18 4 16 5 17 6 15 7 10 8 11 9 75 10 12 11
REMARK SMILES IDX 13 12 14 13 9 14 5 15 6 16 76 17 7 18 8 19 4 20 1 21 2 22
REMARK SMILES IDX 3 23 22 25 23 26 24 27 25 28 26 29 27 30 28 31 74 32 29 33
REMARK SMILES IDX 73 34 30 35 31 36 32 37 67 38 33 39 72 40 66 41 68 42 34 43
REMARK SMILES IDX 71 44 65 45 64 46 35 48 57 49 42 50 56 51 43 52 46 53 55 54
REMARK SMILES IDX 69 55 44 56 45 57 54 59 70 60 47 61 36 62 37 63 41 64 38 65
REMARK SMILES IDX 40 66 39 67 58 68 59 69 63 70 60 71 62 72 61 73 48 74 49 75
REMARK SMILES IDX 53 76 50 77 52 78 51 79
REMARK H PARENT 4 24 68 47 46 58
REMARK Flexibility Score: inf
ROOT
ATOM      1  O   UNL A   1      46.426  20.716  25.139  1.00  0.00    -0.374 OA
ENDROOT
BRANCH   1   2
ATOM      2  C   UNL A   1      45.801  21.917  24.687  1.00  0.00     0.202 C 
BRANCH   2   3
ATOM      3  C   UNL A   1      46.713  23.066  24.248  1.00  0.00     0.261 C 
BRANCH   3   4
ATOM      4  O   UNL A   1      46.653  24.160  25.177  1.00  0.00    -0.460 OA
BRANCH   4   5
ATOM      5  C   UNL A   1      46.961  25.377  24.660  1.00  0.00     0.341 C 
ATOM      6  O   UNL A   1      47.845  25.628  23.861  1.00  0.00    -0.246 OA
BRANCH   5   7
ATOM      7  C   UNL A   1      45.965  26.362  25.126  1.00  0.00     0.096 A 
ATOM      8  C   UNL A   1      45.385  28.547  26.057  1.00  0.00    -0.017 A 
ATOM      9  C   UNL A   1      44.029  28.188  25.973  1.00  0.00     0.012 A 
ATOM     10  C   UNL A   1      46.350  27.603  25.651  1.00  0.00     0.027 A 
ATOM     11  C   UNL A   1      43.647  26.936  25.486  1.00  0.00     0.041 A 
ATOM     12  C   UNL A   1      44.614  26.034  25.059  1.00  0.00     0.137 A 
ATOM     13  F   UNL A   1      44.214  24.829  24.628  1.00  0.00    -0.206 F 
BRANCH   8  14
ATOM     14  C   UNL A   1      45.795  29.896  26.489  1.00  0.00    -0.016 A 
ATOM     15  C   UNL A   1      45.172  32.226  26.925  1.00  0.00     0.041 A 
ATOM     16  C   UNL A   1      46.497  32.514  27.251  1.00  0.00     0.026 A 
ATOM     17  C   UNL A   1      44.844  30.932  26.524  1.00  0.00     0.034 A 
ATOM     18  C   UNL A   1      47.457  31.499  27.251  1.00  0.00     0.003 A 
ATOM     19  C   UNL A   1      47.106  30.197  26.881  1.00  0.00     0.009 A 
BRANCH  15  20
ATOM     20  N   UNL A   1      44.237  33.272  26.954  1.00  0.00    -0.326 N 
ATOM     21  C   UNL A   1      44.158  33.855  24.531  1.00  0.00     0.114 C 
ATOM     22  C   UNL A   1      43.855  34.151  25.978  1.00  0.00     0.221 C 
ATOM     23  O   UNL A   1      43.199  35.147  26.291  1.00  0.00    -0.275 OA
ATOM     24  H   UNL A   1      43.781  33.393  27.818  1.00  0.00     0.169 HD
ENDBRANCH  15  20
ENDBRANCH   8  14
ENDBRANCH   5   7
ENDBRANCH   4   5
ENDBRANCH   3   4
ENDBRANCH   2   3
ENDBRANCH   1   2
BRANCH   1  25
ATOM     25  C   UNL A   1      45.950  19.474  24.622  1.00  0.00     0.202 C 
BRANCH  25  26
ATOM     26  C   UNL A   1      44.434  19.236  24.610  1.00  0.00     0.261 C 
BRANCH  26  27
ATOM     27  O   UNL A   1      43.821  19.432  25.894  1.00  0.00    -0.460 OA
BRANCH  27  28
ATOM     28  C   UNL A   1      42.493  19.693  25.833  1.00  0.00     0.338 C 
ATOM     29  O   UNL A   1      41.608  18.944  25.452  1.00  0.00    -0.246 OA
BRANCH  28  30
ATOM     30  C   UNL A   1      42.192  20.997  26.451  1.00  0.00     0.060 A 
ATOM     31  C   UNL A   1      42.254  22.125  25.623  1.00  0.00     0.016 A 
ATOM     32  C   UNL A   1      41.985  21.132  27.825  1.00  0.00     0.016 A 
ATOM     33  C   UNL A   1      42.200  23.399  26.178  1.00  0.00     0.010 A 
ATOM     34  C   UNL A   1      41.932  22.415  28.382  1.00  0.00     0.010 A 
ATOM     35  C   UNL A   1      42.100  23.550  27.568  1.00  0.00    -0.014 A 
BRANCH  35  36
ATOM     36  C   UNL A   1      42.382  24.881  28.160  1.00  0.00     0.031 A 
ATOM     37  C   UNL A   1      43.810  25.240  28.489  1.00  0.00     0.074 A 
ATOM     38  C   UNL A   1      41.405  25.791  28.320  1.00  0.00     0.049 A 
ATOM     39  N   UNL A   1      44.296  26.354  28.978  1.00  0.00    -0.248 NA
ATOM     40  C   UNL A   1      44.827  24.207  28.228  1.00  0.00     0.031 C 
ATOM     41  C   UNL A   1      39.995  25.589  27.987  1.00  0.00     0.029 A 
ATOM     42  N   UNL A   1      41.459  27.079  28.791  1.00  0.00    -0.354 N 
ATOM     43  C   UNL A   1      45.669  26.155  29.077  1.00  0.00     0.074 A 
ATOM     44  C   UNL A   1      45.934  24.801  28.647  1.00  0.00     0.031 C 
ATOM     45  C   UNL A   1      39.318  26.720  28.255  1.00  0.00     0.029 A 
ATOM     46  C   UNL A   1      40.240  27.711  28.806  1.00  0.00     0.049 A 
ATOM     47  H   UNL A   1      42.293  27.508  29.090  1.00  0.00     0.167 HD
ATOM     48  C   UNL A   1      46.628  27.026  29.472  1.00  0.00     0.031 A 
ATOM     49  C   UNL A   1      39.909  28.947  29.225  1.00  0.00     0.031 A 
ATOM     50  C   UNL A   1      46.369  28.372  29.909  1.00  0.00     0.049 A 
ATOM     51  C   UNL A   1      40.985  29.861  29.749  1.00  0.00     0.074 A 
ATOM     52  C   UNL A   1      47.272  29.327  30.344  1.00  0.00     0.029 A 
ATOM     53  N   UNL A   1      45.113  28.954  29.966  1.00  0.00    -0.354 N 
ATOM     54  N   UNL A   1      42.279  29.663  29.828  1.00  0.00    -0.248 NA
ATOM     55  C   UNL A   1      40.551  31.182  30.227  1.00  0.00     0.031 C 
ATOM     56  C   UNL A   1      46.555  30.471  30.711  1.00  0.00     0.029 A 
ATOM     57  C   UNL A   1      45.214  30.250  30.442  1.00  0.00     0.049 A 
ATOM     58  H   UNL A   1      44.273  28.511  29.706  1.00  0.00     0.167 HD
ATOM     59  C   UNL A   1      42.815  30.847  30.323  1.00  0.00     0.074 A 
ATOM     60  C   UNL A   1      41.708  31.763  30.503  1.00  0.00     0.031 C 
ATOM     61  C   UNL A   1      44.105  31.152  30.606  1.00  0.00     0.031 A 
BRANCH  48  62
ATOM     62  C   UNL A   1      48.052  26.542  29.460  1.00  0.00    -0.014 A 
ATOM     63  C   UNL A   1      48.877  26.743  28.342  1.00  0.00     0.009 A 
ATOM     64  C   UNL A   1      48.588  25.915  30.595  1.00  0.00     0.009 A 
ATOM     65  C   UNL A   1      50.202  26.301  28.351  1.00  0.00     0.001 A 
ATOM     66  C   UNL A   1      49.922  25.502  30.613  1.00  0.00     0.001 A 
ATOM     67  C   UNL A   1      50.725  25.688  29.489  1.00  0.00     0.000 A 
ENDBRANCH  48  62
BRANCH  49  68
ATOM     68  C   UNL A   1      38.493  29.407  29.189  1.00  0.00    -0.014 A 
ATOM     69  C   UNL A   1      37.660  29.256  30.309  1.00  0.00     0.009 A 
ATOM     70  C   UNL A   1      37.948  29.931  28.007  1.00  0.00     0.009 A 
ATOM     71  C   UNL A   1      36.301  29.573  30.230  1.00  0.00     0.001 A 
ATOM     72  C   UNL A   1      36.597  30.282  27.942  1.00  0.00     0.001 A 
ATOM     73  C   UNL A   1      35.772  30.085  29.046  1.00  0.00     0.000 A 
ENDBRANCH  49  68
BRANCH  61  74
ATOM     74  C   UNL A   1      44.391  32.552  31.080  1.00  0.00    -0.014 A 
ATOM     75  C   UNL A   1      44.400  32.880  32.445  1.00  0.00     0.009 A 
ATOM     76  C   UNL A   1      44.661  33.559  30.139  1.00  0.00     0.009 A 
ATOM     77  C   UNL A   1      44.616  34.198  32.854  1.00  0.00     0.001 A 
ATOM     78  C   UNL A   1      44.914  34.867  30.552  1.00  0.00     0.001 A 
ATOM     79  C   UNL A   1      44.874  35.190  31.908  1.00  0.00     0.000 A 
ENDBRANCH  61  74
ENDBRANCH  35  36
ENDBRANCH  28  30
ENDBRANCH  27  28
ENDBRANCH  26  27
ENDBRANCH  25  26
ENDBRANCH   1  25
TORSDOF 16
ENDMDL
MODEL 2
REMARK VINA RESULT:      -8.3      4.964      8.824
REMARK SMILES CC(=O)Nc1cccc(-c2ccc(F)c(C(=O)OCCOCCOC(=O)c3ccc(-c4c5nc(c(-c6ccccc6)c6ccc([nH]6)c(-c6ccccc6)c6nc(c(-c7ccccc7)c7ccc4[nH]7)C=C6)C=C5)cc3)c2)c1
REMARK SMILES IDX 21 1 20 2 19 3 18 4 16 5 17 6 15 7 10 8 11 9 75 10 12 11
REMARK SMILES IDX 13 12 14 13 9 14 5 15 6 16 76 17 7 18 8 19 4 20 1 21 2 22
REMARK SMILES IDX 3 23 22 25 23 26 24 27 25 28 26 29 27 30 28 31 74 32 29 33
REMARK SMILES IDX 73 34 30 35 31 36 32 37 67 38 33 39 72 40 66 41 68 42 34 43
REMARK SMILES IDX 71 44 65 45 64 46 35 48 57 49 42 50 56 51 43 52 46 53 55 54
REMARK SMILES IDX 69 55 44 56 45 57 54 59 70 60 47 61 36 62 37 63 41 64 38 65
REMARK SMILES IDX 40 66 39 67 58 68 59 69 63 70 60 71 62 72 61 73 48 74 49 75
REMARK SMILES IDX 53 76 50 77 52 78 51 79
REMARK H PARENT 4 24 68 47 46 58
REMARK Flexibility Score: inf
ROOT
ATOM      1  O   UNL A   1      37.082  21.841  23.890  1.00  0.00    -0.374 OA
ENDROOT
BRANCH   1   2
ATOM      2  C   UNL A   1      36.882  23.237  24.110  1.00  0.00     0.202 C 
BRANCH   2   3
ATOM      3  C   UNL A   1      37.007  23.751  25.548  1.00  0.00     0.261 C 
BRANCH   3   4
ATOM      4  O   UNL A   1      35.771  23.599  26.262  1.00  0.00    -0.460 OA
BRANCH   4   5
ATOM      5  C   UNL A   1      34.714  24.274  25.742  1.00  0.00     0.341 C 
ATOM      6  O   UNL A   1      34.698  25.437  25.379  1.00  0.00    -0.246 OA
BRANCH   5   7
ATOM      7  C   UNL A   1      33.588  23.337  25.564  1.00  0.00     0.096 A 
ATOM      8  C   UNL A   1      32.657  21.244  24.710  1.00  0.00    -0.017 A 
ATOM      9  C   UNL A   1      31.422  21.597  25.280  1.00  0.00     0.012 A 
ATOM     10  C   UNL A   1      33.732  22.146  24.840  1.00  0.00     0.027 A 
ATOM     11  C   UNL A   1      31.268  22.802  25.969  1.00  0.00     0.041 A 
ATOM     12  C   UNL A   1      32.351  23.661  26.113  1.00  0.00     0.137 A 
ATOM     13  F   UNL A   1      32.160  24.824  26.752  1.00  0.00    -0.206 F 
BRANCH   8  14
ATOM     14  C   UNL A   1      32.854  19.937  24.056  1.00  0.00    -0.016 A 
ATOM     15  C   UNL A   1      34.082  17.819  23.954  1.00  0.00     0.041 A 
ATOM     16  C   UNL A   1      33.335  17.444  22.838  1.00  0.00     0.026 A 
ATOM     17  C   UNL A   1      33.852  19.067  24.531  1.00  0.00     0.034 A 
ATOM     18  C   UNL A   1      32.319  18.277  22.362  1.00  0.00     0.003 A 
ATOM     19  C   UNL A   1      32.075  19.511  22.972  1.00  0.00     0.009 A 
BRANCH  15  20
ATOM     20  N   UNL A   1      35.082  16.945  24.409  1.00  0.00    -0.326 N 
ATOM     21  C   UNL A   1      33.679  15.230  25.550  1.00  0.00     0.114 C 
ATOM     22  C   UNL A   1      35.010  15.874  25.256  1.00  0.00     0.221 C 
ATOM     23  O   UNL A   1      36.052  15.400  25.714  1.00  0.00    -0.275 OA
ATOM     24  H   UNL A   1      35.984  17.135  24.062  1.00  0.00     0.169 HD
ENDBRANCH  15  20
ENDBRANCH   8  14
ENDBRANCH   5   7
ENDBRANCH   4   5
ENDBRANCH   3   4
ENDBRANCH   2   3
ENDBRANCH   1   2
BRANCH   1  25
ATOM     25  C   UNL A   1      37.279  21.001  25.025  1.00  0.00     0.202 C 
BRANCH  25  26
ATOM     26  C   UNL A   1      38.532  20.117  25.056  1.00  0.00     0.261 C 
BRANCH  26  27
ATOM     27  O   UNL A   1      39.236  20.178  26.306  1.00  0.00    -0.460 OA
BRANCH  27  28
ATOM     28  C   UNL A   1      40.556  19.888  26.207  1.00  0.00     0.338 C 
ATOM     29  O   UNL A   1      41.060  18.894  25.712  1.00  0.00    -0.246 OA
BRANCH  28  30
ATOM     30  C   UNL A   1      41.372  21.033  26.648  1.00  0.00     0.060 A 
ATOM     31  C   UNL A   1      41.446  21.270  28.027  1.00  0.00     0.016 A 
ATOM     32  C   UNL A   1      41.942  21.927  25.740  1.00  0.00     0.016 A 
ATOM     33  C   UNL A   1      42.010  22.450  28.500  1.00  0.00     0.010 A 
ATOM     34  C   UNL A   1      42.508  23.114  26.218  1.00  0.00     0.010 A 
ATOM     35  C   UNL A   1      42.489  23.407  27.594  1.00  0.00    -0.014 A 
BRANCH  35  36
ATOM     36  C   UNL A   1      42.770  24.777  28.089  1.00  0.00     0.031 A 
ATOM     37  C   UNL A   1      44.205  25.192  28.301  1.00  0.00     0.074 A 
ATOM     38  C   UNL A   1      41.778  25.669  28.262  1.00  0.00     0.049 A 
ATOM     39  N   UNL A   1      44.687  26.345  28.691  1.00  0.00    -0.248 NA
ATOM     40  C   UNL A   1      45.233  24.172  28.031  1.00  0.00     0.031 C 
ATOM     41  C   UNL A   1      40.356  25.411  28.036  1.00  0.00     0.029 A 
ATOM     42  N   UNL A   1      41.824  26.983  28.654  1.00  0.00    -0.354 N 
ATOM     43  C   UNL A   1      46.069  26.189  28.709  1.00  0.00     0.074 A 
ATOM     44  C   UNL A   1      46.346  24.819  28.340  1.00  0.00     0.031 C 
ATOM     45  C   UNL A   1      39.664  26.537  28.285  1.00  0.00     0.029 A 
ATOM     46  C   UNL A   1      40.590  27.583  28.715  1.00  0.00     0.049 A 
ATOM     47  H   UNL A   1      42.662  27.451  28.871  1.00  0.00     0.167 HD
ATOM     48  C   UNL A   1      47.025  27.106  28.988  1.00  0.00     0.031 A 
ATOM     49  C   UNL A   1      40.250  28.832  29.084  1.00  0.00     0.031 A 
ATOM     50  C   UNL A   1      46.756  28.469  29.364  1.00  0.00     0.049 A 
ATOM     51  C   UNL A   1      41.330  29.804  29.481  1.00  0.00     0.074 A 
ATOM     52  C   UNL A   1      47.656  29.471  29.681  1.00  0.00     0.029 A 
ATOM     53  N   UNL A   1      45.489  29.019  29.471  1.00  0.00    -0.354 N 
ATOM     54  N   UNL A   1      42.632  29.645  29.483  1.00  0.00    -0.248 NA
ATOM     55  C   UNL A   1      40.889  31.139  29.911  1.00  0.00     0.031 C 
ATOM     56  C   UNL A   1      46.930  30.616  30.029  1.00  0.00     0.029 A 
ATOM     57  C   UNL A   1      45.582  30.344  29.864  1.00  0.00     0.049 A 
ATOM     58  H   UNL A   1      44.647  28.540  29.294  1.00  0.00     0.167 HD
ATOM     59  C   UNL A   1      43.163  30.870  29.873  1.00  0.00     0.074 A 
ATOM     60  C   UNL A   1      42.044  31.766  30.074  1.00  0.00     0.031 C 
ATOM     61  C   UNL A   1      44.460  31.225  30.051  1.00  0.00     0.031 A 
BRANCH  48  62
ATOM     62  C   UNL A   1      48.460  26.660  28.907  1.00  0.00    -0.014 A 
ATOM     63  C   UNL A   1      49.095  26.057  30.005  1.00  0.00     0.009 A 
ATOM     64  C   UNL A   1      49.172  26.805  27.707  1.00  0.00     0.009 A 
ATOM     65  C   UNL A   1      50.422  25.634  29.910  1.00  0.00     0.001 A 
ATOM     66  C   UNL A   1      50.490  26.353  27.606  1.00  0.00     0.001 A 
ATOM     67  C   UNL A   1      51.116  25.776  28.709  1.00  0.00     0.000 A 
ENDBRANCH  48  62
BRANCH  49  68
ATOM     68  C   UNL A   1      38.821  29.253  29.116  1.00  0.00    -0.014 A 
ATOM     69  C   UNL A   1      38.047  29.074  30.274  1.00  0.00     0.009 A 
ATOM     70  C   UNL A   1      38.206  29.764  27.964  1.00  0.00     0.009 A 
ATOM     71  C   UNL A   1      36.678  29.353  30.260  1.00  0.00     0.001 A 
ATOM     72  C   UNL A   1      36.845  30.076  27.964  1.00  0.00     0.001 A 
ATOM     73  C   UNL A   1      36.078  29.853  29.105  1.00  0.00     0.000 A 
ENDBRANCH  49  68
BRANCH  61  74
ATOM     74  C   UNL A   1      44.734  32.657  30.424  1.00  0.00    -0.014 A 
ATOM     75  C   UNL A   1      44.807  33.069  31.764  1.00  0.00     0.009 A 
ATOM     76  C   UNL A   1      44.925  33.611  29.410  1.00  0.00     0.009 A 
ATOM     77  C   UNL A   1      45.010  34.414  32.080  1.00  0.00     0.001 A 
ATOM     78  C   UNL A   1      45.166  34.948  29.730  1.00  0.00     0.001 A 
ATOM     79  C   UNL A   1      45.191  35.352  31.063  1.00  0.00     0.000 A 
ENDBRANCH  61  74
ENDBRANCH  35  36
ENDBRANCH  28  30
ENDBRANCH  27  28
ENDBRANCH  26  27
ENDBRANCH  25  26
ENDBRANCH   1  25
TORSDOF 16
ENDMDL
MODEL 3
REMARK VINA RESULT:      -8.2      5.722     10.329
REMARK SMILES CC(=O)Nc1cccc(-c2ccc(F)c(C(=O)OCCOCCOC(=O)c3ccc(-c4c5nc(c(-c6ccccc6)c6ccc([nH]6)c(-c6ccccc6)c6nc(c(-c7ccccc7)c7ccc4[nH]7)C=C6)C=C5)cc3)c2)c1
REMARK SMILES IDX 21 1 20 2 19 3 18 4 16 5 17 6 15 7 10 8 11 9 75 10 12 11
REMARK SMILES IDX 13 12 14 13 9 14 5 15 6 16 76 17 7 18 8 19 4 20 1 21 2 22
REMARK SMILES IDX 3 23 22 25 23 26 24 27 25 28 26 29 27 30 28 31 74 32 29 33
REMARK SMILES IDX 73 34 30 35 31 36 32 37 67 38 33 39 72 40 66 41 68 42 34 43
REMARK SMILES IDX 71 44 65 45 64 46 35 48 57 49 42 50 56 51 43 52 46 53 55 54
REMARK SMILES IDX 69 55 44 56 45 57 54 59 70 60 47 61 36 62 37 63 41 64 38 65
REMARK SMILES IDX 40 66 39 67 58 68 59 69 63 70 60 71 62 72 61 73 48 74 49 75
REMARK SMILES IDX 53 76 50 77 52 78 51 79
REMARK H PARENT 4 24 68 47 46 58
REMARK Flexibility Score: inf
ROOT
ATOM      1  O   UNL A   1      34.284  21.112  25.140  1.00  0.00    -0.374 OA
ENDROOT
BRANCH   1   2
ATOM      2  C   UNL A   1      33.962  22.243  24.332  1.00  0.00     0.202 C 
BRANCH   2   3
ATOM      3  C   UNL A   1      32.609  22.920  24.570  1.00  0.00     0.261 C 
BRANCH   3   4
ATOM      4  O   UNL A   1      31.987  23.288  23.329  1.00  0.00    -0.460 OA
BRANCH   4   5
ATOM      5  C   UNL A   1      32.722  24.104  22.531  1.00  0.00     0.341 C 
ATOM      6  O   UNL A   1      33.394  23.774  21.570  1.00  0.00    -0.246 OA
BRANCH   5   7
ATOM      7  C   UNL A   1      32.490  25.505  22.934  1.00  0.00     0.096 A 
ATOM      8  C   UNL A   1      31.050  27.472  23.113  1.00  0.00    -0.017 A 
ATOM      9  C   UNL A   1      32.107  28.151  23.742  1.00  0.00     0.012 A 
ATOM     10  C   UNL A   1      31.269  26.146  22.688  1.00  0.00     0.027 A 
ATOM     11  C   UNL A   1      33.338  27.524  23.954  1.00  0.00     0.041 A 
ATOM     12  C   UNL A   1      33.520  26.204  23.556  1.00  0.00     0.137 A 
ATOM     13  F   UNL A   1      34.723  25.644  23.746  1.00  0.00    -0.206 F 
BRANCH   8  14
ATOM     14  C   UNL A   1      29.722  28.096  22.962  1.00  0.00    -0.016 A 
ATOM     15  C   UNL A   1      28.368  29.923  22.047  1.00  0.00     0.041 A 
ATOM     16  C   UNL A   1      27.237  29.385  22.661  1.00  0.00     0.026 A 
ATOM     17  C   UNL A   1      29.597  29.289  22.226  1.00  0.00     0.034 A 
ATOM     18  C   UNL A   1      27.328  28.187  23.374  1.00  0.00     0.003 A 
ATOM     19  C   UNL A   1      28.560  27.543  23.516  1.00  0.00     0.009 A 
BRANCH  15  20
ATOM     20  N   UNL A   1      28.229  31.119  21.327  1.00  0.00    -0.326 N 
ATOM     21  C   UNL A   1      28.689  32.774  23.134  1.00  0.00     0.114 C 
ATOM     22  C   UNL A   1      28.190  32.417  21.756  1.00  0.00     0.221 C 
ATOM     23  O   UNL A   1      27.812  33.296  20.978  1.00  0.00    -0.275 OA
ATOM     24  H   UNL A   1      28.145  31.005  20.353  1.00  0.00     0.169 HD
ENDBRANCH  15  20
ENDBRANCH   8  14
ENDBRANCH   5   7
ENDBRANCH   4   5
ENDBRANCH   3   4
ENDBRANCH   2   3
ENDBRANCH   1   2
BRANCH   1  25
ATOM     25  C   UNL A   1      35.561  21.080  25.774  1.00  0.00     0.202 C 
BRANCH  25  26
ATOM     26  C   UNL A   1      36.786  20.768  24.905  1.00  0.00     0.261 C 
BRANCH  26  27
ATOM     27  O   UNL A   1      37.817  21.764  25.003  1.00  0.00    -0.460 OA
BRANCH  27  28
ATOM     28  C   UNL A   1      38.827  21.427  25.839  1.00  0.00     0.338 C 
ATOM     29  O   UNL A   1      39.367  20.338  25.947  1.00  0.00    -0.246 OA
BRANCH  28  30
ATOM     30  C   UNL A   1      39.340  22.619  26.539  1.00  0.00     0.060 A 
ATOM     31  C   UNL A   1      38.753  23.849  26.217  1.00  0.00     0.016 A 
ATOM     32  C   UNL A   1      40.447  22.558  27.386  1.00  0.00     0.016 A 
ATOM     33  C   UNL A   1      39.328  25.033  26.668  1.00  0.00     0.010 A 
ATOM     34  C   UNL A   1      41.025  23.750  27.838  1.00  0.00     0.010 A 
ATOM     35  C   UNL A   1      40.502  24.992  27.431  1.00  0.00    -0.014 A 
BRANCH  35  36
ATOM     36  C   UNL A   1      41.277  26.244  27.612  1.00  0.00     0.031 A 
ATOM     37  C   UNL A   1      40.718  27.318  28.513  1.00  0.00     0.074 A 
ATOM     38  C   UNL A   1      42.495  26.393  27.062  1.00  0.00     0.049 A 
ATOM     39  N   UNL A   1      41.235  28.474  28.847  1.00  0.00    -0.248 NA
ATOM     40  C   UNL A   1      39.405  27.050  29.123  1.00  0.00     0.031 C 
ATOM     41  C   UNL A   1      43.171  25.407  26.219  1.00  0.00     0.029 A 
ATOM     42  N   UNL A   1      43.387  27.431  27.147  1.00  0.00    -0.354 N 
ATOM     43  C   UNL A   1      40.314  29.065  29.705  1.00  0.00     0.074 A 
ATOM     44  C   UNL A   1      39.186  28.165  29.802  1.00  0.00     0.031 C 
ATOM     45  C   UNL A   1      44.379  25.886  25.873  1.00  0.00     0.029 A 
ATOM     46  C   UNL A   1      44.547  27.221  26.443  1.00  0.00     0.049 A 
ATOM     47  H   UNL A   1      43.212  28.250  27.665  1.00  0.00     0.167 HD
ATOM     48  C   UNL A   1      40.403  30.240  30.370  1.00  0.00     0.031 A 
ATOM     49  C   UNL A   1      45.617  28.020  26.274  1.00  0.00     0.031 A 
ATOM     50  C   UNL A   1      41.519  31.144  30.271  1.00  0.00     0.049 A 
ATOM     51  C   UNL A   1      45.647  29.366  26.951  1.00  0.00     0.074 A 
ATOM     52  C   UNL A   1      41.696  32.368  30.893  1.00  0.00     0.029 A 
ATOM     53  N   UNL A   1      42.647  30.919  29.500  1.00  0.00    -0.354 N 
ATOM     54  N   UNL A   1      44.773  29.906  27.767  1.00  0.00    -0.248 NA
ATOM     55  C   UNL A   1      46.826  30.205  26.694  1.00  0.00     0.031 C 
ATOM     56  C   UNL A   1      42.912  32.906  30.459  1.00  0.00     0.029 A 
ATOM     57  C   UNL A   1      43.520  31.988  29.619  1.00  0.00     0.049 A 
ATOM     58  H   UNL A   1      42.806  30.119  28.949  1.00  0.00     0.167 HD
ATOM     59  C   UNL A   1      45.318  31.126  28.151  1.00  0.00     0.074 A 
ATOM     60  C   UNL A   1      46.605  31.234  27.498  1.00  0.00     0.031 C 
ATOM     61  C   UNL A   1      44.801  32.076  28.970  1.00  0.00     0.031 A 
BRANCH  48  62
ATOM     62  C   UNL A   1      39.252  30.624  31.260  1.00  0.00    -0.014 A 
ATOM     63  C   UNL A   1      38.155  31.342  30.757  1.00  0.00     0.009 A 
ATOM     64  C   UNL A   1      39.244  30.227  32.606  1.00  0.00     0.009 A 
ATOM     65  C   UNL A   1      37.086  31.678  31.591  1.00  0.00     0.001 A 
ATOM     66  C   UNL A   1      38.160  30.538  33.430  1.00  0.00     0.001 A 
ATOM     67  C   UNL A   1      37.087  31.270  32.925  1.00  0.00     0.000 A 
ENDBRANCH  48  62
BRANCH  49  68
ATOM     68  C   UNL A   1      46.757  27.593  25.416  1.00  0.00    -0.014 A 
ATOM     69  C   UNL A   1      47.868  26.940  25.972  1.00  0.00     0.009 A 
ATOM     70  C   UNL A   1      46.771  27.905  24.048  1.00  0.00     0.009 A 
ATOM     71  C   UNL A   1      48.988  26.654  25.186  1.00  0.00     0.001 A 
ATOM     72  C   UNL A   1      47.877  27.586  23.258  1.00  0.00     0.001 A 
ATOM     73  C   UNL A   1      48.991  26.978  23.831  1.00  0.00     0.000 A 
ENDBRANCH  49  68
BRANCH  61  74
ATOM     74  C   UNL A   1      45.659  33.281  29.249  1.00  0.00    -0.014 A 
ATOM     75  C   UNL A   1      46.575  33.303  30.313  1.00  0.00     0.009 A 
ATOM     76  C   UNL A   1      45.548  34.414  28.426  1.00  0.00     0.009 A 
ATOM     77  C   UNL A   1      47.320  34.454  30.580  1.00  0.00     0.001 A 
ATOM     78  C   UNL A   1      46.321  35.549  28.673  1.00  0.00     0.001 A 
ATOM     79  C   UNL A   1      47.194  35.575  29.760  1.00  0.00     0.000 A 
ENDBRANCH  61  74
ENDBRANCH  35  36
ENDBRANCH  28  30
ENDBRANCH  27  28
ENDBRANCH  26  27
ENDBRANCH  25  26
ENDBRANCH   1  25
TORSDOF 16
ENDMDL
