MODEL 1
REMARK VINA RESULT:     -10.0      0.000      0.000
REMARK SMILES O=C(C[C@H]1CC[C@@H](C(=O)OCCOCCOC(=O)c2ccc(-c3c4nc(c(-c5ccccc5)c5ccc([nH]5)c(-c5ccccc5)c5nc(c(-c6ccccc6)c6ccc3[nH]6)C=C5)C=C4)cc2)C1)c1ccc(Cl)cc1
REMARK SMILES IDX 12 1 11 2 10 3 8 4 9 5 7 6 4 7 5 8 67 9 6 10 3 11 2 12 1 13
REMARK SMILES IDX 68 14 69 15 74 16 70 17 73 18 71 19 72 20 13 21 14 22 15 23
REMARK SMILES IDX 16 24 17 25 18 26 19 27 20 28 66 29 21 30 65 31 22 32 23 33
REMARK SMILES IDX 24 34 59 35 25 36 64 37 58 38 60 39 26 40 63 41 57 42 56 43
REMARK SMILES IDX 27 45 49 46 34 47 48 48 35 49 38 50 47 51 61 52 36 53 37 54
REMARK SMILES IDX 46 56 62 57 39 58 28 59 29 60 33 61 30 62 32 63 31 64 50 65
REMARK SMILES IDX 51 66 55 67 52 68 54 69 53 70 40 71 41 72 45 73 42 74 44 75
REMARK SMILES IDX 43 76
REMARK H PARENT 60 44 38 55
REMARK Flexibility Score: inf
ROOT
ATOM      1  C   UNL A   1      37.753  23.572  26.068  1.00  0.00     0.202 C 
ENDROOT
BRANCH   1   2
ATOM      2  C   UNL A   1      36.689  23.689  24.971  1.00  0.00     0.261 C 
BRANCH   2   3
ATOM      3  O   UNL A   1      35.470  24.251  25.476  1.00  0.00    -0.463 OA
BRANCH   3   4
ATOM      4  C   UNL A   1      34.445  24.346  24.581  1.00  0.00     0.309 C 
ATOM      5  O   UNL A   1      34.563  24.344  23.365  1.00  0.00    -0.252 OA
BRANCH   4   6
ATOM      6  C   UNL A   1      33.107  24.326  25.311  1.00  0.00     0.099 C 
ATOM      7  C   UNL A   1      32.167  22.144  24.861  1.00  0.00    -0.003 C 
ATOM      8  C   UNL A   1      32.618  22.153  26.335  1.00  0.00     0.005 C 
ATOM      9  C   UNL A   1      31.998  23.628  24.539  1.00  0.00     0.019 C 
ATOM     10  C   UNL A   1      33.167  23.552  26.627  1.00  0.00     0.015 C 
BRANCH   7  11
ATOM     11  C   UNL A   1      33.155  21.353  23.987  1.00  0.00     0.084 C 
BRANCH  11  12
ATOM     12  C   UNL A   1      34.137  20.358  24.595  1.00  0.00     0.163 C 
ATOM     13  O   UNL A   1      35.200  20.777  25.062  1.00  0.00    -0.294 OA
BRANCH  12  14
ATOM     14  C   UNL A   1      33.860  18.891  24.710  1.00  0.00     0.018 A 
ATOM     15  C   UNL A   1      34.746  17.888  24.309  1.00  0.00     0.013 A 
ATOM     16  C   UNL A   1      32.636  18.514  25.286  1.00  0.00     0.013 A 
ATOM     17  C   UNL A   1      34.455  16.539  24.555  1.00  0.00     0.021 A 
ATOM     18  C   UNL A   1      32.332  17.168  25.495  1.00  0.00     0.021 A 
ATOM     19  C   UNL A   1      33.250  16.185  25.153  1.00  0.00     0.041 A 
ATOM     20  Cl  UNL A   1      32.890  14.535  25.469  1.00  0.00    -0.084 Cl
ENDBRANCH  12  14
ENDBRANCH  11  12
ENDBRANCH   7  11
ENDBRANCH   4   6
ENDBRANCH   3   4
ENDBRANCH   2   3
ENDBRANCH   1   2
BRANCH   1  21
ATOM     21  O   UNL A   1      38.505  22.361  26.120  1.00  0.00    -0.374 OA
BRANCH  21  22
ATOM     22  C   UNL A   1      38.217  21.357  25.148  1.00  0.00     0.202 C 
BRANCH  22  23
ATOM     23  C   UNL A   1      38.928  20.007  25.297  1.00  0.00     0.261 C 
BRANCH  23  24
ATOM     24  O   UNL A   1      39.710  19.915  26.501  1.00  0.00    -0.460 OA
BRANCH  24  25
ATOM     25  C   UNL A   1      41.040  19.791  26.296  1.00  0.00     0.338 C 
ATOM     26  O   UNL A   1      41.627  18.856  25.760  1.00  0.00    -0.246 OA
BRANCH  25  27
ATOM     27  C   UNL A   1      41.745  21.021  26.687  1.00  0.00     0.060 A 
ATOM     28  C   UNL A   1      41.738  21.371  28.045  1.00  0.00     0.016 A 
ATOM     29  C   UNL A   1      42.283  21.885  25.733  1.00  0.00     0.016 A 
ATOM     30  C   UNL A   1      42.213  22.617  28.448  1.00  0.00     0.010 A 
ATOM     31  C   UNL A   1      42.754  23.138  26.139  1.00  0.00     0.010 A 
ATOM     32  C   UNL A   1      42.681  23.525  27.492  1.00  0.00    -0.014 A 
BRANCH  32  33
ATOM     33  C   UNL A   1      42.952  24.934  27.866  1.00  0.00     0.031 A 
ATOM     34  C   UNL A   1      44.353  25.337  28.230  1.00  0.00     0.074 A 
ATOM     35  C   UNL A   1      41.965  25.846  27.897  1.00  0.00     0.049 A 
ATOM     36  N   UNL A   1      44.790  26.481  28.687  1.00  0.00    -0.248 NA
ATOM     37  C   UNL A   1      45.400  24.321  28.034  1.00  0.00     0.031 C 
ATOM     38  C   UNL A   1      40.591  25.615  27.467  1.00  0.00     0.029 A 
ATOM     39  N   UNL A   1      41.964  27.142  28.348  1.00  0.00    -0.354 N 
ATOM     40  C   UNL A   1      46.165  26.331  28.818  1.00  0.00     0.074 A 
ATOM     41  C   UNL A   1      46.483  24.973  28.434  1.00  0.00     0.031 C 
ATOM     42  C   UNL A   1      39.851  26.697  27.766  1.00  0.00     0.029 A 
ATOM     43  C   UNL A   1      40.709  27.696  28.397  1.00  0.00     0.049 A 
ATOM     44  H   UNL A   1      42.781  27.625  28.610  1.00  0.00     0.167 HD
ATOM     45  C   UNL A   1      47.081  27.249  29.207  1.00  0.00     0.031 A 
ATOM     46  C   UNL A   1      40.294  28.866  28.919  1.00  0.00     0.031 A 
ATOM     47  C   UNL A   1      46.760  28.592  29.608  1.00  0.00     0.049 A 
ATOM     48  C   UNL A   1      41.307  29.816  29.491  1.00  0.00     0.074 A 
ATOM     49  C   UNL A   1      47.620  29.605  29.995  1.00  0.00     0.029 A 
ATOM     50  N   UNL A   1      45.475  29.103  29.688  1.00  0.00    -0.354 N 
ATOM     51  N   UNL A   1      42.607  29.679  29.577  1.00  0.00    -0.248 NA
ATOM     52  C   UNL A   1      40.800  31.094  30.011  1.00  0.00     0.031 C 
ATOM     53  C   UNL A   1      46.849  30.713  30.362  1.00  0.00     0.029 A 
ATOM     54  C   UNL A   1      45.514  30.407  30.152  1.00  0.00     0.049 A 
ATOM     55  H   UNL A   1      44.655  28.612  29.450  1.00  0.00     0.167 HD
ATOM     56  C   UNL A   1      43.079  30.870  30.113  1.00  0.00     0.074 A 
ATOM     57  C   UNL A   1      41.925  31.714  30.343  1.00  0.00     0.031 C 
ATOM     58  C   UNL A   1      44.358  31.237  30.370  1.00  0.00     0.031 A 
BRANCH  45  59
ATOM     59  C   UNL A   1      48.518  26.816  29.235  1.00  0.00    -0.014 A 
ATOM     60  C   UNL A   1      49.356  27.011  28.125  1.00  0.00     0.009 A 
ATOM     61  C   UNL A   1      49.048  26.235  30.396  1.00  0.00     0.009 A 
ATOM     62  C   UNL A   1      50.690  26.603  28.168  1.00  0.00     0.001 A 
ATOM     63  C   UNL A   1      50.389  25.850  30.445  1.00  0.00     0.001 A 
ATOM     64  C   UNL A   1      51.206  26.027  29.329  1.00  0.00     0.000 A 
ENDBRANCH  45  59
BRANCH  46  65
ATOM     65  C   UNL A   1      38.847  29.195  28.935  1.00  0.00    -0.014 A 
ATOM     66  C   UNL A   1      38.218  29.721  27.798  1.00  0.00     0.009 A 
ATOM     67  C   UNL A   1      38.089  28.989  30.100  1.00  0.00     0.009 A 
ATOM     68  C   UNL A   1      36.862  30.056  27.833  1.00  0.00     0.001 A 
ATOM     69  C   UNL A   1      36.729  29.304  30.125  1.00  0.00     0.001 A 
ATOM     70  C   UNL A   1      36.119  29.845  28.995  1.00  0.00     0.000 A 
ENDBRANCH  46  65
BRANCH  58  71
ATOM     71  C   UNL A   1      44.587  32.630  30.881  1.00  0.00    -0.014 A 
ATOM     72  C   UNL A   1      44.652  32.902  32.256  1.00  0.00     0.009 A 
ATOM     73  C   UNL A   1      44.798  33.674  29.967  1.00  0.00     0.009 A 
ATOM     74  C   UNL A   1      44.904  34.201  32.703  1.00  0.00     0.001 A 
ATOM     75  C   UNL A   1      45.074  34.965  30.418  1.00  0.00     0.001 A 
ATOM     76  C   UNL A   1      45.120  35.228  31.785  1.00  0.00     0.000 A 
ENDBRANCH  58  71
ENDBRANCH  32  33
ENDBRANCH  25  27
ENDBRANCH  24  25
ENDBRANCH  23  24
ENDBRANCH  22  23
ENDBRANCH  21  22
ENDBRANCH   1  21
TORSDOF 17
ENDMDL
MODEL 2
REMARK VINA RESULT:     -10.0      2.994      7.606
REMARK SMILES O=C(C[C@H]1CC[C@@H](C(=O)OCCOCCOC(=O)c2ccc(-c3c4nc(c(-c5ccccc5)c5ccc([nH]5)c(-c5ccccc5)c5nc(c(-c6ccccc6)c6ccc3[nH]6)C=C5)C=C4)cc2)C1)c1ccc(Cl)cc1
REMARK SMILES IDX 12 1 11 2 10 3 8 4 9 5 7 6 4 7 5 8 67 9 6 10 3 11 2 12 1 13
REMARK SMILES IDX 68 14 69 15 74 16 70 17 73 18 71 19 72 20 13 21 14 22 15 23
REMARK SMILES IDX 16 24 17 25 18 26 19 27 20 28 66 29 21 30 65 31 22 32 23 33
REMARK SMILES IDX 24 34 59 35 25 36 64 37 58 38 60 39 26 40 63 41 57 42 56 43
REMARK SMILES IDX 27 45 49 46 34 47 48 48 35 49 38 50 47 51 61 52 36 53 37 54
REMARK SMILES IDX 46 56 62 57 39 58 28 59 29 60 33 61 30 62 32 63 31 64 50 65
REMARK SMILES IDX 51 66 55 67 52 68 54 69 53 70 40 71 41 72 45 73 42 74 44 75
REMARK SMILES IDX 43 76
REMARK H PARENT 60 44 38 55
REMARK Flexibility Score: inf
ROOT
ATOM      1  C   UNL A   1      31.309  29.460  24.550  1.00  0.00     0.202 C 
ENDROOT
BRANCH   1   2
ATOM      2  C   UNL A   1      30.518  29.076  23.296  1.00  0.00     0.261 C 
BRANCH   2   3
ATOM      3  O   UNL A   1      29.738  27.890  23.506  1.00  0.00    -0.463 OA
BRANCH   3   4
ATOM      4  C   UNL A   1      30.296  26.727  23.066  1.00  0.00     0.309 C 
ATOM      5  O   UNL A   1      31.151  26.634  22.198  1.00  0.00    -0.252 OA
BRANCH   4   6
ATOM      6  C   UNL A   1      29.795  25.554  23.900  1.00  0.00     0.099 C 
ATOM      7  C   UNL A   1      31.773  24.598  24.911  1.00  0.00    -0.003 C 
ATOM      8  C   UNL A   1      30.992  25.323  26.026  1.00  0.00     0.005 C 
ATOM      9  C   UNL A   1      30.702  24.335  23.853  1.00  0.00     0.019 C 
ATOM     10  C   UNL A   1      29.718  25.883  25.390  1.00  0.00     0.015 C 
BRANCH   7  11
ATOM     11  C   UNL A   1      32.996  25.420  24.471  1.00  0.00     0.084 C 
BRANCH  11  12
ATOM     12  C   UNL A   1      34.093  24.816  23.603  1.00  0.00     0.163 C 
ATOM     13  O   UNL A   1      34.094  25.055  22.391  1.00  0.00    -0.294 OA
BRANCH  12  14
ATOM     14  C   UNL A   1      35.213  23.987  24.148  1.00  0.00     0.018 A 
ATOM     15  C   UNL A   1      35.785  22.899  23.481  1.00  0.00     0.013 A 
ATOM     16  C   UNL A   1      35.732  24.355  25.400  1.00  0.00     0.013 A 
ATOM     17  C   UNL A   1      36.905  22.246  24.014  1.00  0.00     0.021 A 
ATOM     18  C   UNL A   1      36.824  23.677  25.945  1.00  0.00     0.021 A 
ATOM     19  C   UNL A   1      37.424  22.641  25.242  1.00  0.00     0.041 A 
ATOM     20  Cl  UNL A   1      38.804  21.854  25.895  1.00  0.00    -0.084 Cl
ENDBRANCH  12  14
ENDBRANCH  11  12
ENDBRANCH   7  11
ENDBRANCH   4   6
ENDBRANCH   3   4
ENDBRANCH   2   3
ENDBRANCH   1   2
BRANCH   1  21
ATOM     21  O   UNL A   1      32.478  28.696  24.843  1.00  0.00    -0.374 OA
BRANCH  21  22
ATOM     22  C   UNL A   1      33.482  29.300  25.657  1.00  0.00     0.202 C 
BRANCH  22  23
ATOM     23  C   UNL A   1      33.023  30.336  26.690  1.00  0.00     0.261 C 
BRANCH  23  24
ATOM     24  O   UNL A   1      33.683  30.193  27.959  1.00  0.00    -0.460 OA
BRANCH  24  25
ATOM     25  C   UNL A   1      34.769  30.983  28.117  1.00  0.00     0.338 C 
ATOM     26  O   UNL A   1      34.791  32.204  28.230  1.00  0.00    -0.246 OA
BRANCH  25  27
ATOM     27  C   UNL A   1      35.985  30.171  28.280  1.00  0.00     0.060 A 
ATOM     28  C   UNL A   1      36.261  29.663  29.557  1.00  0.00     0.016 A 
ATOM     29  C   UNL A   1      36.905  30.026  27.242  1.00  0.00     0.016 A 
ATOM     30  C   UNL A   1      37.490  29.060  29.819  1.00  0.00     0.010 A 
ATOM     31  C   UNL A   1      38.141  29.426  27.508  1.00  0.00     0.010 A 
ATOM     32  C   UNL A   1      38.454  28.980  28.808  1.00  0.00    -0.014 A 
BRANCH  32  33
ATOM     33  C   UNL A   1      39.844  28.576  29.128  1.00  0.00     0.031 A 
ATOM     34  C   UNL A   1      40.782  29.587  29.722  1.00  0.00     0.074 A 
ATOM     35  C   UNL A   1      40.277  27.327  28.882  1.00  0.00     0.049 A 
ATOM     36  N   UNL A   1      42.059  29.479  29.978  1.00  0.00    -0.248 NA
ATOM     37  C   UNL A   1      40.196  30.886  30.095  1.00  0.00     0.031 C 
ATOM     38  C   UNL A   1      39.446  26.225  28.411  1.00  0.00     0.029 A 
ATOM     39  N   UNL A   1      41.537  26.790  28.960  1.00  0.00    -0.354 N 
ATOM     40  C   UNL A   1      42.429  30.686  30.557  1.00  0.00     0.074 A 
ATOM     41  C   UNL A   1      41.253  31.527  30.575  1.00  0.00     0.031 C 
ATOM     42  C   UNL A   1      40.233  25.168  28.143  1.00  0.00     0.029 A 
ATOM     43  C   UNL A   1      41.618  25.522  28.439  1.00  0.00     0.049 A 
ATOM     44  H   UNL A   1      42.305  27.266  29.351  1.00  0.00     0.167 HD
ATOM     45  C   UNL A   1      43.638  31.052  31.046  1.00  0.00     0.031 A 
ATOM     46  C   UNL A   1      42.692  24.747  28.200  1.00  0.00     0.031 A 
ATOM     47  C   UNL A   1      44.811  30.222  31.008  1.00  0.00     0.049 A 
ATOM     48  C   UNL A   1      44.054  25.231  28.607  1.00  0.00     0.074 A 
ATOM     49  C   UNL A   1      46.076  30.494  31.499  1.00  0.00     0.029 A 
ATOM     50  N   UNL A   1      44.865  28.963  30.432  1.00  0.00    -0.354 N 
ATOM     51  N   UNL A   1      44.387  26.358  29.186  1.00  0.00    -0.248 NA
ATOM     52  C   UNL A   1      45.184  24.324  28.356  1.00  0.00     0.031 C 
ATOM     53  C   UNL A   1      46.910  29.419  31.171  1.00  0.00     0.029 A 
ATOM     54  C   UNL A   1      46.151  28.458  30.524  1.00  0.00     0.049 A 
ATOM     55  H   UNL A   1      44.103  28.497  30.019  1.00  0.00     0.167 HD
ATOM     56  C   UNL A   1      45.754  26.277  29.414  1.00  0.00     0.074 A 
ATOM     57  C   UNL A   1      46.191  24.995  28.901  1.00  0.00     0.031 C 
ATOM     58  C   UNL A   1      46.569  27.178  30.015  1.00  0.00     0.031 A 
BRANCH  45  59
ATOM     59  C   UNL A   1      43.749  32.424  31.644  1.00  0.00    -0.014 A 
ATOM     60  C   UNL A   1      43.531  32.638  33.014  1.00  0.00     0.009 A 
ATOM     61  C   UNL A   1      44.107  33.512  30.833  1.00  0.00     0.009 A 
ATOM     62  C   UNL A   1      43.640  33.921  33.554  1.00  0.00     0.001 A 
ATOM     63  C   UNL A   1      44.239  34.789  31.380  1.00  0.00     0.001 A 
ATOM     64  C   UNL A   1      43.997  34.993  32.738  1.00  0.00     0.000 A 
ENDBRANCH  45  59
BRANCH  46  65
ATOM     65  C   UNL A   1      42.520  23.435  27.527  1.00  0.00    -0.014 A 
ATOM     66  C   UNL A   1      42.260  22.276  28.272  1.00  0.00     0.009 A 
ATOM     67  C   UNL A   1      42.623  23.338  26.129  1.00  0.00     0.009 A 
ATOM     68  C   UNL A   1      42.130  21.040  27.631  1.00  0.00     0.001 A 
ATOM     69  C   UNL A   1      42.471  22.106  25.491  1.00  0.00     0.001 A 
ATOM     70  C   UNL A   1      42.233  20.958  26.243  1.00  0.00     0.000 A 
ENDBRANCH  46  65
BRANCH  58  71
ATOM     71  C   UNL A   1      48.008  26.790  30.201  1.00  0.00    -0.014 A 
ATOM     72  C   UNL A   1      48.981  27.111  29.242  1.00  0.00     0.009 A 
ATOM     73  C   UNL A   1      48.401  26.144  31.383  1.00  0.00     0.009 A 
ATOM     74  C   UNL A   1      50.318  26.772  29.458  1.00  0.00     0.001 A 
ATOM     75  C   UNL A   1      49.742  25.830  31.606  1.00  0.00     0.001 A 
ATOM     76  C   UNL A   1      50.698  26.138  30.640  1.00  0.00     0.000 A 
ENDBRANCH  58  71
ENDBRANCH  32  33
ENDBRANCH  25  27
ENDBRANCH  24  25
ENDBRANCH  23  24
ENDBRANCH  22  23
ENDBRANCH  21  22
ENDBRANCH   1  21
TORSDOF 17
ENDMDL
MODEL 3
REMARK VINA RESULT:     -10.0      1.110      6.117
REMARK SMILES O=C(C[C@H]1CC[C@@H](C(=O)OCCOCCOC(=O)c2ccc(-c3c4nc(c(-c5ccccc5)c5ccc([nH]5)c(-c5ccccc5)c5nc(c(-c6ccccc6)c6ccc3[nH]6)C=C5)C=C4)cc2)C1)c1ccc(Cl)cc1
REMARK SMILES IDX 12 1 11 2 10 3 8 4 9 5 7 6 4 7 5 8 67 9 6 10 3 11 2 12 1 13
REMARK SMILES IDX 68 14 69 15 74 16 70 17 73 18 71 19 72 20 13 21 14 22 15 23
REMARK SMILES IDX 16 24 17 25 18 26 19 27 20 28 66 29 21 30 65 31 22 32 23 33
REMARK SMILES IDX 24 34 59 35 25 36 64 37 58 38 60 39 26 40 63 41 57 42 56 43
REMARK SMILES IDX 27 45 49 46 34 47 48 48 35 49 38 50 47 51 61 52 36 53 37 54
REMARK SMILES IDX 46 56 62 57 39 58 28 59 29 60 33 61 30 62 32 63 31 64 50 65
REMARK SMILES IDX 51 66 55 67 52 68 54 69 53 70 40 71 41 72 45 73 42 74 44 75
REMARK SMILES IDX 43 76
REMARK H PARENT 60 44 38 55
REMARK Flexibility Score: inf
ROOT
ATOM      1  C   UNL A   1      35.321  21.589  26.054  1.00  0.00     0.202 C 
ENDROOT
BRANCH   1   2
ATOM      2  C   UNL A   1      35.844  23.025  26.174  1.00  0.00     0.261 C 
BRANCH   2   3
ATOM      3  O   UNL A   1      35.329  23.863  25.130  1.00  0.00    -0.463 OA
BRANCH   3   4
ATOM      4  C   UNL A   1      34.084  24.377  25.341  1.00  0.00     0.309 C 
ATOM      5  O   UNL A   1      33.507  24.418  26.417  1.00  0.00    -0.252 OA
BRANCH   4   6
ATOM      6  C   UNL A   1      33.554  25.015  24.063  1.00  0.00     0.099 C 
ATOM      7  C   UNL A   1      32.527  23.210  22.825  1.00  0.00    -0.003 C 
ATOM      8  C   UNL A   1      31.390  24.097  23.370  1.00  0.00     0.005 C 
ATOM      9  C   UNL A   1      33.732  24.150  22.825  1.00  0.00     0.019 C 
ATOM     10  C   UNL A   1      32.048  25.264  24.111  1.00  0.00     0.015 C 
BRANCH   7  11
ATOM     11  C   UNL A   1      32.656  21.915  23.645  1.00  0.00     0.084 C 
BRANCH  11  12
ATOM     12  C   UNL A   1      32.324  20.554  23.045  1.00  0.00     0.163 C 
ATOM     13  O   UNL A   1      31.845  20.504  21.908  1.00  0.00    -0.294 OA
BRANCH  12  14
ATOM     14  C   UNL A   1      32.598  19.257  23.739  1.00  0.00     0.018 A 
ATOM     15  C   UNL A   1      32.515  19.070  25.122  1.00  0.00     0.013 A 
ATOM     16  C   UNL A   1      32.934  18.157  22.933  1.00  0.00     0.013 A 
ATOM     17  C   UNL A   1      32.679  17.796  25.680  1.00  0.00     0.021 A 
ATOM     18  C   UNL A   1      33.134  16.896  23.497  1.00  0.00     0.021 A 
ATOM     19  C   UNL A   1      32.983  16.711  24.864  1.00  0.00     0.041 A 
ATOM     20  Cl  UNL A   1      33.174  15.143  25.539  1.00  0.00    -0.084 Cl
ENDBRANCH  12  14
ENDBRANCH  11  12
ENDBRANCH   7  11
ENDBRANCH   4   6
ENDBRANCH   3   4
ENDBRANCH   2   3
ENDBRANCH   1   2
BRANCH   1  21
ATOM     21  O   UNL A   1      35.779  20.820  24.943  1.00  0.00    -0.374 OA
BRANCH  21  22
ATOM     22  C   UNL A   1      37.116  21.033  24.492  1.00  0.00     0.202 C 
BRANCH  22  23
ATOM     23  C   UNL A   1      38.183  20.035  24.957  1.00  0.00     0.261 C 
BRANCH  23  24
ATOM     24  O   UNL A   1      38.941  20.509  26.084  1.00  0.00    -0.460 OA
BRANCH  24  25
ATOM     25  C   UNL A   1      40.234  20.115  26.095  1.00  0.00     0.338 C 
ATOM     26  O   UNL A   1      40.695  19.063  25.665  1.00  0.00    -0.246 OA
BRANCH  25  27
ATOM     27  C   UNL A   1      41.104  21.195  26.586  1.00  0.00     0.060 A 
ATOM     28  C   UNL A   1      41.173  21.395  27.971  1.00  0.00     0.016 A 
ATOM     29  C   UNL A   1      41.732  22.078  25.708  1.00  0.00     0.016 A 
ATOM     30  C   UNL A   1      41.818  22.519  28.484  1.00  0.00     0.010 A 
ATOM     31  C   UNL A   1      42.373  23.209  26.224  1.00  0.00     0.010 A 
ATOM     32  C   UNL A   1      42.381  23.456  27.611  1.00  0.00    -0.014 A 
BRANCH  32  33
ATOM     33  C   UNL A   1      42.845  24.769  28.119  1.00  0.00     0.031 A 
ATOM     34  C   UNL A   1      41.839  25.857  28.360  1.00  0.00     0.074 A 
ATOM     35  C   UNL A   1      44.149  25.002  28.351  1.00  0.00     0.049 A 
ATOM     36  N   UNL A   1      42.036  27.104  28.698  1.00  0.00    -0.248 NA
ATOM     37  C   UNL A   1      40.421  25.483  28.222  1.00  0.00     0.031 C 
ATOM     38  C   UNL A   1      45.211  24.006  28.261  1.00  0.00     0.029 A 
ATOM     39  N   UNL A   1      44.802  26.164  28.673  1.00  0.00    -0.354 N 
ATOM     40  C   UNL A   1      40.771  27.662  28.830  1.00  0.00     0.074 A 
ATOM     41  C   UNL A   1      39.814  26.630  28.493  1.00  0.00     0.031 C 
ATOM     42  C   UNL A   1      46.398  24.617  28.421  1.00  0.00     0.029 A 
ATOM     43  C   UNL A   1      46.170  26.043  28.638  1.00  0.00     0.049 A 
ATOM     44  H   UNL A   1      44.337  27.000  28.906  1.00  0.00     0.167 HD
ATOM     45  C   UNL A   1      40.437  28.916  29.214  1.00  0.00     0.031 A 
ATOM     46  C   UNL A   1      47.129  26.982  28.739  1.00  0.00     0.031 A 
ATOM     47  C   UNL A   1      41.389  29.947  29.527  1.00  0.00     0.049 A 
ATOM     48  C   UNL A   1      46.738  28.406  29.013  1.00  0.00     0.074 A 
ATOM     49  C   UNL A   1      41.150  31.243  29.950  1.00  0.00     0.029 A 
ATOM     50  N   UNL A   1      42.764  29.801  29.437  1.00  0.00    -0.354 N 
ATOM     51  N   UNL A   1      45.541  28.915  29.171  1.00  0.00    -0.248 NA
ATOM     52  C   UNL A   1      47.830  29.380  29.152  1.00  0.00     0.031 C 
ATOM     53  C   UNL A   1      42.381  31.898  30.063  1.00  0.00     0.029 A 
ATOM     54  C   UNL A   1      43.387  30.994  29.762  1.00  0.00     0.049 A 
ATOM     55  H   UNL A   1      43.229  28.972  29.180  1.00  0.00     0.167 HD
ATOM     56  C   UNL A   1      45.736  30.255  29.478  1.00  0.00     0.074 A 
ATOM     57  C   UNL A   1      47.166  30.484  29.472  1.00  0.00     0.031 C 
ATOM     58  C   UNL A   1      44.811  31.205  29.759  1.00  0.00     0.031 A 
BRANCH  45  59
ATOM     59  C   UNL A   1      38.974  29.244  29.293  1.00  0.00    -0.014 A 
ATOM     60  C   UNL A   1      38.277  29.723  28.172  1.00  0.00     0.009 A 
ATOM     61  C   UNL A   1      38.278  29.041  30.494  1.00  0.00     0.009 A 
ATOM     62  C   UNL A   1      36.916  30.023  28.264  1.00  0.00     0.001 A 
ATOM     63  C   UNL A   1      36.912  29.319  30.575  1.00  0.00     0.001 A 
ATOM     64  C   UNL A   1      36.235  29.817  29.463  1.00  0.00     0.000 A 
ENDBRANCH  45  59
BRANCH  46  65
ATOM     65  C   UNL A   1      48.554  26.604  28.567  1.00  0.00    -0.014 A 
ATOM     66  C   UNL A   1      49.330  26.210  29.666  1.00  0.00     0.009 A 
ATOM     67  C   UNL A   1      49.146  26.643  27.293  1.00  0.00     0.009 A 
ATOM     68  C   UNL A   1      50.678  25.885  29.498  1.00  0.00     0.001 A 
ATOM     69  C   UNL A   1      50.488  26.297  27.125  1.00  0.00     0.001 A 
ATOM     70  C   UNL A   1      51.254  25.926  28.228  1.00  0.00     0.000 A 
ENDBRANCH  46  65
BRANCH  58  71
ATOM     71  C   UNL A   1      45.314  32.568  30.137  1.00  0.00    -0.014 A 
ATOM     72  C   UNL A   1      45.448  33.588  29.184  1.00  0.00     0.009 A 
ATOM     73  C   UNL A   1      45.604  32.848  31.482  1.00  0.00     0.009 A 
ATOM     74  C   UNL A   1      45.882  34.858  29.569  1.00  0.00     0.001 A 
ATOM     75  C   UNL A   1      46.014  34.124  31.867  1.00  0.00     0.001 A 
ATOM     76  C   UNL A   1      46.159  35.126  30.910  1.00  0.00     0.000 A 
ENDBRANCH  58  71
ENDBRANCH  32  33
ENDBRANCH  25  27
ENDBRANCH  24  25
ENDBRANCH  23  24
ENDBRANCH  22  23
ENDBRANCH  21  22
ENDBRANCH   1  21
TORSDOF 17
ENDMDL
