MODEL 1
REMARK VINA RESULT:      -9.2      0.000      0.000
REMARK SMILES CCc1cc(C(=O)N2CCO[C@@H](CC(=O)OCCOCCOC(=O)c3ccc(-c4c5nc(c(-c6ccccc6)c6ccc([nH]6)c(-c6ccccc6)c6nc(c(-c7ccccc7)c7ccc4[nH]7)C=C6)C=C5)cc3)C2)sc1C
REMARK SMILES IDX 18 1 17 2 16 3 14 4 15 5 13 6 12 7 8 8 9 9 73 10 10 11 11 12
REMARK SMILES IDX 6 13 7 14 5 15 3 16 4 17 75 18 74 19 76 20 2 21 1 22 19 23
REMARK SMILES IDX 20 24 21 25 22 26 23 27 24 28 25 29 26 30 72 31 27 32 71 33
REMARK SMILES IDX 28 34 29 35 30 36 65 37 31 38 70 39 64 40 66 41 32 42 69 43
REMARK SMILES IDX 63 44 62 45 33 47 55 48 40 49 54 50 41 51 44 52 53 53 67 54
REMARK SMILES IDX 42 55 43 56 52 58 68 59 45 60 34 61 35 62 39 63 36 64 38 65
REMARK SMILES IDX 37 66 56 67 57 68 61 69 58 70 60 71 59 72 46 73 47 74 51 75
REMARK SMILES IDX 48 76 50 77 49 78
REMARK H PARENT 66 46 44 57
REMARK Flexibility Score: inf
ROOT
ATOM      1  C   UNL A   1      39.363  22.785  26.515  1.00  0.00     0.202 C 
ENDROOT
BRANCH   1   2
ATOM      2  C   UNL A   1      38.225  23.698  26.054  1.00  0.00     0.261 C 
BRANCH   2   3
ATOM      3  O   UNL A   1      36.940  23.060  26.213  1.00  0.00    -0.463 OA
BRANCH   3   4
ATOM      4  C   UNL A   1      36.415  22.480  25.103  1.00  0.00     0.308 C 
ATOM      5  O   UNL A   1      36.588  22.871  23.957  1.00  0.00    -0.252 OA
BRANCH   4   6
ATOM      6  C   UNL A   1      35.521  21.317  25.446  1.00  0.00     0.156 C 
BRANCH   6   7
ATOM      7  C   UNL A   1      34.021  21.600  25.431  1.00  0.00     0.148 C 
ATOM      8  N   UNL A   1      32.229  23.286  25.595  1.00  0.00    -0.333 N 
ATOM      9  C   UNL A   1      31.777  22.954  24.248  1.00  0.00     0.148 C 
ATOM     10  C   UNL A   1      33.655  23.050  25.832  1.00  0.00     0.152 C 
ATOM     11  C   UNL A   1      32.168  21.520  23.912  1.00  0.00     0.182 C 
ATOM     12  O   UNL A   1      33.581  21.332  24.073  1.00  0.00    -0.374 OA
BRANCH   8  13
ATOM     13  C   UNL A   1      31.517  24.151  26.420  1.00  0.00     0.264 C 
ATOM     14  O   UNL A   1      30.731  23.695  27.250  1.00  0.00    -0.268 OA
BRANCH  13  15
ATOM     15  C   UNL A   1      31.669  25.581  26.145  1.00  0.00     0.093 A 
ATOM     16  C   UNL A   1      32.559  27.766  25.957  1.00  0.00    -0.034 A 
ATOM     17  C   UNL A   1      32.698  26.438  26.485  1.00  0.00     0.029 A 
ATOM     18  C   UNL A   1      31.462  27.828  25.111  1.00  0.00     0.005 A 
ATOM     19  S   UNL A   1      30.521  26.396  25.174  1.00  0.00    -0.135 S 
ATOM     20  C   UNL A   1      31.029  28.925  24.192  1.00  0.00     0.056 C 
BRANCH  16  21
ATOM     21  C   UNL A   1      33.532  28.885  26.227  1.00  0.00     0.033 C 
ATOM     22  C   UNL A   1      32.989  29.950  27.174  1.00  0.00     0.009 C 
ENDBRANCH  16  21
ENDBRANCH  13  15
ENDBRANCH   8  13
ENDBRANCH   6   7
ENDBRANCH   4   6
ENDBRANCH   3   4
ENDBRANCH   2   3
ENDBRANCH   1   2
BRANCH   1  23
ATOM     23  O   UNL A   1      39.531  21.587  25.757  1.00  0.00    -0.374 OA
BRANCH  23  24
ATOM     24  C   UNL A   1      39.892  20.416  26.485  1.00  0.00     0.202 C 
BRANCH  24  25
ATOM     25  C   UNL A   1      40.867  19.470  25.773  1.00  0.00     0.261 C 
BRANCH  25  26
ATOM     26  O   UNL A   1      42.171  19.491  26.377  1.00  0.00    -0.460 OA
BRANCH  26  27
ATOM     27  C   UNL A   1      43.085  20.272  25.751  1.00  0.00     0.338 C 
ATOM     28  O   UNL A   1      43.794  19.966  24.801  1.00  0.00    -0.246 OA
BRANCH  27  29
ATOM     29  C   UNL A   1      43.004  21.652  26.267  1.00  0.00     0.060 A 
ATOM     30  C   UNL A   1      43.004  22.712  25.355  1.00  0.00     0.016 A 
ATOM     31  C   UNL A   1      42.953  21.909  27.634  1.00  0.00     0.016 A 
ATOM     32  C   UNL A   1      42.979  24.029  25.817  1.00  0.00     0.010 A 
ATOM     33  C   UNL A   1      42.907  23.226  28.099  1.00  0.00     0.010 A 
ATOM     34  C   UNL A   1      42.955  24.297  27.194  1.00  0.00    -0.014 A 
BRANCH  34  35
ATOM     35  C   UNL A   1      43.095  25.687  27.692  1.00  0.00     0.031 A 
ATOM     36  C   UNL A   1      44.471  26.270  27.865  1.00  0.00     0.074 A 
ATOM     37  C   UNL A   1      42.010  26.428  27.979  1.00  0.00     0.049 A 
ATOM     38  N   UNL A   1      44.820  27.464  28.274  1.00  0.00    -0.248 NA
ATOM     39  C   UNL A   1      45.607  25.392  27.537  1.00  0.00     0.031 C 
ATOM     40  C   UNL A   1      40.623  25.983  27.855  1.00  0.00     0.029 A 
ATOM     41  N   UNL A   1      41.911  27.717  28.443  1.00  0.00    -0.354 N 
ATOM     42  C   UNL A   1      46.208  27.478  28.258  1.00  0.00     0.074 A 
ATOM     43  C   UNL A   1      46.641  26.165  27.834  1.00  0.00     0.031 C 
ATOM     44  C   UNL A   1      39.809  26.986  28.226  1.00  0.00     0.029 A 
ATOM     45  C   UNL A   1      40.618  28.131  28.643  1.00  0.00     0.049 A 
ATOM     46  H   UNL A   1      42.693  28.289  28.615  1.00  0.00     0.167 HD
ATOM     47  C   UNL A   1      47.051  28.496  28.556  1.00  0.00     0.031 A 
ATOM     48  C   UNL A   1      40.139  29.295  29.121  1.00  0.00     0.031 A 
ATOM     49  C   UNL A   1      46.627  29.800  28.990  1.00  0.00     0.049 A 
ATOM     50  C   UNL A   1      41.099  30.389  29.508  1.00  0.00     0.074 A 
ATOM     51  C   UNL A   1      47.407  30.908  29.274  1.00  0.00     0.029 A 
ATOM     52  N   UNL A   1      45.311  30.166  29.216  1.00  0.00    -0.354 N 
ATOM     53  N   UNL A   1      42.407  30.410  29.427  1.00  0.00    -0.248 NA
ATOM     54  C   UNL A   1      40.511  31.624  30.050  1.00  0.00     0.031 C 
ATOM     55  C   UNL A   1      46.564  31.929  29.727  1.00  0.00     0.029 A 
ATOM     56  C   UNL A   1      45.257  31.472  29.671  1.00  0.00     0.049 A 
ATOM     57  H   UNL A   1      44.530  29.583  29.074  1.00  0.00     0.167 HD
ATOM     58  C   UNL A   1      42.797  31.661  29.887  1.00  0.00     0.074 A 
ATOM     59  C   UNL A   1      41.586  32.379  30.228  1.00  0.00     0.031 C 
ATOM     60  C   UNL A   1      44.046  32.170  30.018  1.00  0.00     0.031 A 
BRANCH  47  61
ATOM     61  C   UNL A   1      48.525  28.227  28.442  1.00  0.00    -0.014 A 
ATOM     62  C   UNL A   1      49.260  27.724  29.527  1.00  0.00     0.009 A 
ATOM     63  C   UNL A   1      49.181  28.448  27.221  1.00  0.00     0.009 A 
ATOM     64  C   UNL A   1      50.629  27.480  29.402  1.00  0.00     0.001 A 
ATOM     65  C   UNL A   1      50.545  28.178  27.091  1.00  0.00     0.001 A 
ATOM     66  C   UNL A   1      51.269  27.703  28.184  1.00  0.00     0.000 A 
ENDBRANCH  47  61
BRANCH  48  67
ATOM     67  C   UNL A   1      38.675  29.490  29.276  1.00  0.00    -0.014 A 
ATOM     68  C   UNL A   1      38.038  29.199  30.491  1.00  0.00     0.009 A 
ATOM     69  C   UNL A   1      37.902  29.953  28.198  1.00  0.00     0.009 A 
ATOM     70  C   UNL A   1      36.654  29.346  30.619  1.00  0.00     0.001 A 
ATOM     71  C   UNL A   1      36.523  30.124  28.337  1.00  0.00     0.001 A 
ATOM     72  C   UNL A   1      35.900  29.812  29.542  1.00  0.00     0.000 A 
ENDBRANCH  48  67
BRANCH  60  73
ATOM     73  C   UNL A   1      44.167  33.575  30.538  1.00  0.00    -0.014 A 
ATOM     74  C   UNL A   1      44.110  34.677  29.670  1.00  0.00     0.009 A 
ATOM     75  C   UNL A   1      44.297  33.800  31.917  1.00  0.00     0.009 A 
ATOM     76  C   UNL A   1      44.212  35.976  30.172  1.00  0.00     0.001 A 
ATOM     77  C   UNL A   1      44.372  35.100  32.419  1.00  0.00     0.001 A 
ATOM     78  C   UNL A   1      44.339  36.186  31.545  1.00  0.00     0.000 A 
ENDBRANCH  60  73
ENDBRANCH  34  35
ENDBRANCH  27  29
ENDBRANCH  26  27
ENDBRANCH  25  26
ENDBRANCH  24  25
ENDBRANCH  23  24
ENDBRANCH   1  23
TORSDOF 18
ENDMDL
MODEL 2
REMARK VINA RESULT:      -9.1      0.398      5.891
REMARK SMILES CCc1cc(C(=O)N2CCO[C@@H](CC(=O)OCCOCCOC(=O)c3ccc(-c4c5nc(c(-c6ccccc6)c6ccc([nH]6)c(-c6ccccc6)c6nc(c(-c7ccccc7)c7ccc4[nH]7)C=C6)C=C5)cc3)C2)sc1C
REMARK SMILES IDX 18 1 17 2 16 3 14 4 15 5 13 6 12 7 8 8 9 9 73 10 10 11 11 12
REMARK SMILES IDX 6 13 7 14 5 15 3 16 4 17 75 18 74 19 76 20 2 21 1 22 19 23
REMARK SMILES IDX 20 24 21 25 22 26 23 27 24 28 25 29 26 30 72 31 27 32 71 33
REMARK SMILES IDX 28 34 29 35 30 36 65 37 31 38 70 39 64 40 66 41 32 42 69 43
REMARK SMILES IDX 63 44 62 45 33 47 55 48 40 49 54 50 41 51 44 52 53 53 67 54
REMARK SMILES IDX 42 55 43 56 52 58 68 59 45 60 34 61 35 62 39 63 36 64 38 65
REMARK SMILES IDX 37 66 56 67 57 68 61 69 58 70 60 71 59 72 46 73 47 74 51 75
REMARK SMILES IDX 48 76 50 77 49 78
REMARK H PARENT 66 46 44 57
REMARK Flexibility Score: inf
ROOT
ATOM      1  C   UNL A   1      39.369  23.145  26.518  1.00  0.00     0.202 C 
ENDROOT
BRANCH   1   2
ATOM      2  C   UNL A   1      38.102  23.969  26.282  1.00  0.00     0.261 C 
BRANCH   2   3
ATOM      3  O   UNL A   1      36.922  23.138  26.299  1.00  0.00    -0.463 OA
BRANCH   3   4
ATOM      4  C   UNL A   1      36.391  22.822  25.091  1.00  0.00     0.308 C 
ATOM      5  O   UNL A   1      36.521  23.486  24.071  1.00  0.00    -0.252 OA
BRANCH   4   6
ATOM      6  C   UNL A   1      35.551  21.574  25.154  1.00  0.00     0.156 C 
BRANCH   6   7
ATOM      7  C   UNL A   1      34.040  21.788  25.231  1.00  0.00     0.148 C 
ATOM      8  N   UNL A   1      32.186  23.393  25.481  1.00  0.00    -0.333 N 
ATOM      9  C   UNL A   1      31.666  23.014  24.171  1.00  0.00     0.148 C 
ATOM     10  C   UNL A   1      33.633  23.227  25.630  1.00  0.00     0.152 C 
ATOM     11  C   UNL A   1      32.101  21.594  23.835  1.00  0.00     0.182 C 
ATOM     12  O   UNL A   1      33.529  21.473  23.908  1.00  0.00    -0.374 OA
BRANCH   8  13
ATOM     13  C   UNL A   1      31.488  24.241  26.336  1.00  0.00     0.264 C 
ATOM     14  O   UNL A   1      30.781  23.766  27.224  1.00  0.00    -0.268 OA
BRANCH  13  15
ATOM     15  C   UNL A   1      31.551  25.670  26.025  1.00  0.00     0.093 A 
ATOM     16  C   UNL A   1      32.297  27.905  25.800  1.00  0.00    -0.034 A 
ATOM     17  C   UNL A   1      32.510  26.604  26.369  1.00  0.00     0.029 A 
ATOM     18  C   UNL A   1      31.224  27.870  24.922  1.00  0.00     0.005 A 
ATOM     19  S   UNL A   1      30.380  26.379  24.999  1.00  0.00    -0.135 S 
ATOM     20  C   UNL A   1      30.745  28.911  23.960  1.00  0.00     0.056 C 
BRANCH  16  21
ATOM     21  C   UNL A   1      33.184  29.094  26.065  1.00  0.00     0.033 C 
ATOM     22  C   UNL A   1      32.714  29.957  27.231  1.00  0.00     0.009 C 
ENDBRANCH  16  21
ENDBRANCH  13  15
ENDBRANCH   8  13
ENDBRANCH   6   7
ENDBRANCH   4   6
ENDBRANCH   3   4
ENDBRANCH   2   3
ENDBRANCH   1   2
BRANCH   1  23
ATOM     23  O   UNL A   1      39.465  21.941  25.758  1.00  0.00    -0.374 OA
BRANCH  23  24
ATOM     24  C   UNL A   1      39.565  20.726  26.496  1.00  0.00     0.202 C 
BRANCH  24  25
ATOM     25  C   UNL A   1      40.437  19.636  25.860  1.00  0.00     0.261 C 
BRANCH  25  26
ATOM     26  O   UNL A   1      41.703  19.504  26.530  1.00  0.00    -0.460 OA
BRANCH  26  27
ATOM     27  C   UNL A   1      42.737  20.158  25.944  1.00  0.00     0.338 C 
ATOM     28  O   UNL A   1      43.447  19.753  25.034  1.00  0.00    -0.246 OA
BRANCH  27  29
ATOM     29  C   UNL A   1      42.801  21.544  26.445  1.00  0.00     0.060 A 
ATOM     30  C   UNL A   1      42.953  22.585  25.524  1.00  0.00     0.016 A 
ATOM     31  C   UNL A   1      42.740  21.823  27.807  1.00  0.00     0.016 A 
ATOM     32  C   UNL A   1      43.069  23.902  25.973  1.00  0.00     0.010 A 
ATOM     33  C   UNL A   1      42.835  23.142  28.259  1.00  0.00     0.010 A 
ATOM     34  C   UNL A   1      43.035  24.188  27.347  1.00  0.00    -0.014 A 
BRANCH  34  35
ATOM     35  C   UNL A   1      43.323  25.558  27.836  1.00  0.00     0.031 A 
ATOM     36  C   UNL A   1      42.178  26.485  28.142  1.00  0.00     0.074 A 
ATOM     37  C   UNL A   1      44.590  25.973  28.016  1.00  0.00     0.049 A 
ATOM     38  N   UNL A   1      42.205  27.716  28.589  1.00  0.00    -0.248 NA
ATOM     39  C   UNL A   1      40.823  25.959  27.910  1.00  0.00     0.031 C 
ATOM     40  C   UNL A   1      45.787  25.175  27.758  1.00  0.00     0.029 A 
ATOM     41  N   UNL A   1      45.077  27.180  28.455  1.00  0.00    -0.354 N 
ATOM     42  C   UNL A   1      40.877  28.111  28.687  1.00  0.00     0.074 A 
ATOM     43  C   UNL A   1      40.069  27.005  28.219  1.00  0.00     0.031 C 
ATOM     44  C   UNL A   1      46.873  25.911  28.052  1.00  0.00     0.029 A 
ATOM     45  C   UNL A   1      46.447  27.240  28.487  1.00  0.00     0.049 A 
ATOM     46  H   UNL A   1      44.497  27.929  28.722  1.00  0.00     0.167 HD
ATOM     47  C   UNL A   1      40.370  29.283  29.137  1.00  0.00     0.031 A 
ATOM     48  C   UNL A   1      47.267  28.256  28.817  1.00  0.00     0.031 A 
ATOM     49  C   UNL A   1      41.167  30.390  29.591  1.00  0.00     0.049 A 
ATOM     50  C   UNL A   1      46.681  29.572  29.253  1.00  0.00     0.074 A 
ATOM     51  C   UNL A   1      40.743  31.604  30.106  1.00  0.00     0.029 A 
ATOM     52  N   UNL A   1      42.552  30.425  29.572  1.00  0.00    -0.354 N 
ATOM     53  N   UNL A   1      45.423  29.909  29.401  1.00  0.00    -0.248 NA
ATOM     54  C   UNL A   1      47.633  30.648  29.570  1.00  0.00     0.031 C 
ATOM     55  C   UNL A   1      41.872  32.394  30.345  1.00  0.00     0.029 A 
ATOM     56  C   UNL A   1      42.998  31.652  30.031  1.00  0.00     0.049 A 
ATOM     57  H   UNL A   1      43.131  29.687  29.275  1.00  0.00     0.167 HD
ATOM     58  C   UNL A   1      45.431  31.225  29.846  1.00  0.00     0.074 A 
ATOM     59  C   UNL A   1      46.820  31.619  29.964  1.00  0.00     0.031 C 
ATOM     60  C   UNL A   1      44.383  32.036  30.132  1.00  0.00     0.031 A 
BRANCH  47  61
ATOM     61  C   UNL A   1      38.875  29.433  29.139  1.00  0.00    -0.014 A 
ATOM     62  C   UNL A   1      38.119  29.174  30.293  1.00  0.00     0.009 A 
ATOM     63  C   UNL A   1      38.217  29.872  27.980  1.00  0.00     0.009 A 
ATOM     64  C   UNL A   1      36.730  29.319  30.276  1.00  0.00     0.001 A 
ATOM     65  C   UNL A   1      36.831  30.043  27.974  1.00  0.00     0.001 A 
ATOM     66  C   UNL A   1      36.088  29.758  29.119  1.00  0.00     0.000 A 
ENDBRANCH  47  61
BRANCH  48  67
ATOM     67  C   UNL A   1      48.741  28.079  28.738  1.00  0.00    -0.014 A 
ATOM     68  C   UNL A   1      49.431  28.349  27.548  1.00  0.00     0.009 A 
ATOM     69  C   UNL A   1      49.461  27.619  29.852  1.00  0.00     0.009 A 
ATOM     70  C   UNL A   1      50.811  28.142  27.467  1.00  0.00     0.001 A 
ATOM     71  C   UNL A   1      50.844  27.438  29.777  1.00  0.00     0.001 A 
ATOM     72  C   UNL A   1      51.516  27.691  28.583  1.00  0.00     0.000 A 
ENDBRANCH  48  67
BRANCH  60  73
ATOM     73  C   UNL A   1      44.697  33.424  30.612  1.00  0.00    -0.014 A 
ATOM     74  C   UNL A   1      44.900  33.692  31.975  1.00  0.00     0.009 A 
ATOM     75  C   UNL A   1      44.831  34.470  29.685  1.00  0.00     0.009 A 
ATOM     76  C   UNL A   1      45.202  34.987  32.402  1.00  0.00     0.001 A 
ATOM     77  C   UNL A   1      45.160  35.758  30.112  1.00  0.00     0.001 A 
ATOM     78  C   UNL A   1      45.336  36.016  31.470  1.00  0.00     0.000 A 
ENDBRANCH  60  73
ENDBRANCH  34  35
ENDBRANCH  27  29
ENDBRANCH  26  27
ENDBRANCH  25  26
ENDBRANCH  24  25
ENDBRANCH  23  24
ENDBRANCH   1  23
TORSDOF 18
ENDMDL
MODEL 3
REMARK VINA RESULT:      -9.1      3.652      9.109
REMARK SMILES CCc1cc(C(=O)N2CCO[C@@H](CC(=O)OCCOCCOC(=O)c3ccc(-c4c5nc(c(-c6ccccc6)c6ccc([nH]6)c(-c6ccccc6)c6nc(c(-c7ccccc7)c7ccc4[nH]7)C=C6)C=C5)cc3)C2)sc1C
REMARK SMILES IDX 18 1 17 2 16 3 14 4 15 5 13 6 12 7 8 8 9 9 73 10 10 11 11 12
REMARK SMILES IDX 6 13 7 14 5 15 3 16 4 17 75 18 74 19 76 20 2 21 1 22 19 23
REMARK SMILES IDX 20 24 21 25 22 26 23 27 24 28 25 29 26 30 72 31 27 32 71 33
REMARK SMILES IDX 28 34 29 35 30 36 65 37 31 38 70 39 64 40 66 41 32 42 69 43
REMARK SMILES IDX 63 44 62 45 33 47 55 48 40 49 54 50 41 51 44 52 53 53 67 54
REMARK SMILES IDX 42 55 43 56 52 58 68 59 45 60 34 61 35 62 39 63 36 64 38 65
REMARK SMILES IDX 37 66 56 67 57 68 61 69 58 70 60 71 59 72 46 73 47 74 51 75
REMARK SMILES IDX 48 76 50 77 49 78
REMARK H PARENT 66 46 44 57
REMARK Flexibility Score: inf
ROOT
ATOM      1  C   UNL A   1      32.403  29.725  25.817  1.00  0.00     0.202 C 
ENDROOT
BRANCH   1   2
ATOM      2  C   UNL A   1      31.658  28.953  24.727  1.00  0.00     0.261 C 
BRANCH   2   3
ATOM      3  O   UNL A   1      31.140  27.702  25.228  1.00  0.00    -0.463 OA
BRANCH   3   4
ATOM      4  C   UNL A   1      31.827  27.133  26.251  1.00  0.00     0.308 C 
ATOM      5  O   UNL A   1      31.397  26.978  27.386  1.00  0.00    -0.252 OA
BRANCH   4   6
ATOM      6  C   UNL A   1      33.232  26.767  25.851  1.00  0.00     0.156 C 
BRANCH   6   7
ATOM      7  C   UNL A   1      33.393  25.436  25.118  1.00  0.00     0.148 C 
ATOM      8  N   UNL A   1      32.435  23.222  24.611  1.00  0.00    -0.333 N 
ATOM      9  C   UNL A   1      32.407  23.547  23.189  1.00  0.00     0.148 C 
ATOM     10  C   UNL A   1      32.328  24.380  25.500  1.00  0.00     0.152 C 
ATOM     11  C   UNL A   1      33.473  24.590  22.877  1.00  0.00     0.182 C 
ATOM     12  O   UNL A   1      33.300  25.750  23.703  1.00  0.00    -0.374 OA
BRANCH   8  13
ATOM     13  C   UNL A   1      32.135  21.948  25.083  1.00  0.00     0.264 C 
ATOM     14  O   UNL A   1      31.034  21.726  25.586  1.00  0.00    -0.268 OA
BRANCH  13  15
ATOM     15  C   UNL A   1      33.228  20.974  25.058  1.00  0.00     0.093 A 
ATOM     16  C   UNL A   1      34.494  19.003  24.720  1.00  0.00    -0.034 A 
ATOM     17  C   UNL A   1      33.202  19.631  24.734  1.00  0.00     0.029 A 
ATOM     18  C   UNL A   1      35.486  19.951  24.917  1.00  0.00     0.005 A 
ATOM     19  S   UNL A   1      34.836  21.479  25.348  1.00  0.00    -0.135 S 
ATOM     20  C   UNL A   1      36.970  19.817  24.797  1.00  0.00     0.056 C 
BRANCH  16  21
ATOM     21  C   UNL A   1      34.714  17.539  24.436  1.00  0.00     0.033 C 
ATOM     22  C   UNL A   1      34.014  17.051  23.173  1.00  0.00     0.009 C 
ENDBRANCH  16  21
ENDBRANCH  13  15
ENDBRANCH   8  13
ENDBRANCH   6   7
ENDBRANCH   4   6
ENDBRANCH   3   4
ENDBRANCH   2   3
ENDBRANCH   1   2
BRANCH   1  23
ATOM     23  O   UNL A   1      31.749  30.904  26.286  1.00  0.00    -0.374 OA
BRANCH  23  24
ATOM     24  C   UNL A   1      32.538  31.808  27.055  1.00  0.00     0.202 C 
BRANCH  24  25
ATOM     25  C   UNL A   1      31.854  33.129  27.430  1.00  0.00     0.261 C 
BRANCH  25  26
ATOM     26  O   UNL A   1      32.803  34.197  27.590  1.00  0.00    -0.460 OA
BRANCH  26  27
ATOM     27  C   UNL A   1      33.175  34.453  28.869  1.00  0.00     0.338 C 
ATOM     28  O   UNL A   1      32.523  35.035  29.726  1.00  0.00    -0.246 OA
BRANCH  27  29
ATOM     29  C   UNL A   1      34.448  33.771  29.168  1.00  0.00     0.060 A 
ATOM     30  C   UNL A   1      34.530  32.973  30.314  1.00  0.00     0.016 A 
ATOM     31  C   UNL A   1      35.561  33.929  28.348  1.00  0.00     0.016 A 
ATOM     32  C   UNL A   1      35.738  32.357  30.649  1.00  0.00     0.010 A 
ATOM     33  C   UNL A   1      36.765  33.298  28.670  1.00  0.00     0.010 A 
ATOM     34  C   UNL A   1      36.872  32.534  29.842  1.00  0.00    -0.014 A 
BRANCH  34  35
ATOM     35  C   UNL A   1      38.193  32.021  30.279  1.00  0.00     0.031 A 
ATOM     36  C   UNL A   1      38.695  30.716  29.724  1.00  0.00     0.074 A 
ATOM     37  C   UNL A   1      38.944  32.712  31.156  1.00  0.00     0.049 A 
ATOM     38  N   UNL A   1      39.823  30.094  29.962  1.00  0.00    -0.248 NA
ATOM     39  C   UNL A   1      37.811  30.017  28.778  1.00  0.00     0.031 C 
ATOM     40  C   UNL A   1      38.574  33.988  31.767  1.00  0.00     0.029 A 
ATOM     41  N   UNL A   1      40.178  32.429  31.686  1.00  0.00    -0.354 N 
ATOM     42  C   UNL A   1      39.780  28.932  29.201  1.00  0.00     0.074 A 
ATOM     43  C   UNL A   1      38.502  28.916  28.522  1.00  0.00     0.031 C 
ATOM     44  C   UNL A   1      39.565  34.381  32.586  1.00  0.00     0.029 A 
ATOM     45  C   UNL A   1      40.622  33.372  32.579  1.00  0.00     0.049 A 
ATOM     46  H   UNL A   1      40.695  31.625  31.449  1.00  0.00     0.167 HD
ATOM     47  C   UNL A   1      40.722  27.969  29.068  1.00  0.00     0.031 A 
ATOM     48  C   UNL A   1      41.748  33.411  33.318  1.00  0.00     0.031 A 
ATOM     49  C   UNL A   1      41.989  27.973  29.749  1.00  0.00     0.049 A 
ATOM     50  C   UNL A   1      42.752  32.296  33.201  1.00  0.00     0.074 A 
ATOM     51  C   UNL A   1      43.026  27.062  29.644  1.00  0.00     0.029 A 
ATOM     52  N   UNL A   1      42.384  28.927  30.673  1.00  0.00    -0.354 N 
ATOM     53  N   UNL A   1      42.726  31.237  32.430  1.00  0.00    -0.248 NA
ATOM     54  C   UNL A   1      43.945  32.387  34.057  1.00  0.00     0.031 C 
ATOM     55  C   UNL A   1      44.027  27.436  30.548  1.00  0.00     0.029 A 
ATOM     56  C   UNL A   1      43.634  28.608  31.173  1.00  0.00     0.049 A 
ATOM     57  H   UNL A   1      41.854  29.714  30.934  1.00  0.00     0.167 HD
ATOM     58  C   UNL A   1      43.903  30.546  32.692  1.00  0.00     0.074 A 
ATOM     59  C   UNL A   1      44.630  31.317  33.679  1.00  0.00     0.031 C 
ATOM     60  C   UNL A   1      44.342  29.378  32.164  1.00  0.00     0.031 A 
BRANCH  47  61
ATOM     61  C   UNL A   1      40.406  26.815  28.160  1.00  0.00    -0.014 A 
ATOM     62  C   UNL A   1      40.862  26.786  26.833  1.00  0.00     0.009 A 
ATOM     63  C   UNL A   1      39.668  25.726  28.649  1.00  0.00     0.009 A 
ATOM     64  C   UNL A   1      40.558  25.704  26.004  1.00  0.00     0.001 A 
ATOM     65  C   UNL A   1      39.388  24.633  27.826  1.00  0.00     0.001 A 
ATOM     66  C   UNL A   1      39.826  24.627  26.502  1.00  0.00     0.000 A 
ENDBRANCH  47  61
BRANCH  48  67
ATOM     67  C   UNL A   1      41.987  34.544  34.249  1.00  0.00    -0.014 A 
ATOM     68  C   UNL A   1      42.661  35.696  33.818  1.00  0.00     0.009 A 
ATOM     69  C   UNL A   1      41.556  34.468  35.584  1.00  0.00     0.009 A 
ATOM     70  C   UNL A   1      42.918  36.741  34.710  1.00  0.00     0.001 A 
ATOM     71  C   UNL A   1      41.791  35.525  36.466  1.00  0.00     0.001 A 
ATOM     72  C   UNL A   1      42.479  36.656  36.031  1.00  0.00     0.000 A 
ENDBRANCH  48  67
BRANCH  60  73
ATOM     73  C   UNL A   1      45.676  28.868  32.632  1.00  0.00    -0.014 A 
ATOM     74  C   UNL A   1      45.775  27.986  33.719  1.00  0.00     0.009 A 
ATOM     75  C   UNL A   1      46.844  29.243  31.950  1.00  0.00     0.009 A 
ATOM     76  C   UNL A   1      47.022  27.514  34.133  1.00  0.00     0.001 A 
ATOM     77  C   UNL A   1      48.087  28.749  32.349  1.00  0.00     0.001 A 
ATOM     78  C   UNL A   1      48.176  27.892  33.445  1.00  0.00     0.000 A 
ENDBRANCH  60  73
ENDBRANCH  34  35
ENDBRANCH  27  29
ENDBRANCH  26  27
ENDBRANCH  25  26
ENDBRANCH  24  25
ENDBRANCH  23  24
ENDBRANCH   1  23
TORSDOF 18
ENDMDL
