MODEL 1
REMARK VINA RESULT:      -9.6      0.000      0.000
REMARK SMILES O=C(CC1(NS(=O)(=O)C[C@H]2CCCO2)CCC1)OCCOCCOC(=O)c1ccc(-c2c3nc(c(-c4ccccc4)c4ccc([nH]4)c(-c4ccccc4)c4nc(c(-c5ccccc5)c5ccc2[nH]5)C=C4)C=C3)cc1
REMARK SMILES IDX 19 1 18 2 2 3 1 4 3 5 4 6 15 7 17 8 16 9 5 10 6 12 7 13 8 14
REMARK SMILES IDX 9 15 10 16 11 17 14 18 12 19 13 20 20 21 21 22 22 23 23 24
REMARK SMILES IDX 24 25 25 26 26 27 27 28 28 29 74 30 29 31 73 32 30 33 31 34
REMARK SMILES IDX 32 35 67 36 33 37 72 38 66 39 68 40 34 41 71 42 65 43 64 44
REMARK SMILES IDX 35 46 57 47 42 48 56 49 43 50 46 51 55 52 69 53 44 54 45 55
REMARK SMILES IDX 54 57 70 58 47 59 36 60 37 61 41 62 38 63 40 64 39 65 58 66
REMARK SMILES IDX 59 67 63 68 60 69 62 70 61 71 48 72 49 73 53 74 50 75 52 76
REMARK SMILES IDX 51 77
REMARK H PARENT 5 11 68 45 46 56
REMARK Flexibility Score: inf
ROOT
ATOM      1  C   UNL A   1      36.454  21.451  25.758  1.00  0.00     0.261 C 
ENDROOT
BRANCH   1   2
ATOM      2  O   UNL A   1      36.141  22.829  25.994  1.00  0.00    -0.463 OA
BRANCH   2   3
ATOM      3  C   UNL A   1      34.884  23.279  26.217  1.00  0.00     0.307 C 
ATOM      4  O   UNL A   1      34.245  22.860  27.182  1.00  0.00    -0.252 OA
BRANCH   3   5
ATOM      5  C   UNL A   1      34.324  24.347  25.330  1.00  0.00     0.146 C 
BRANCH   5   6
ATOM      6  C   UNL A   1      33.501  23.870  24.116  1.00  0.00     0.043 C 
ATOM      7  C   UNL A   1      32.088  24.535  24.025  1.00  0.00     0.024 C 
ATOM      8  C   UNL A   1      33.886  24.699  22.842  1.00  0.00     0.024 C 
ATOM      9  C   UNL A   1      32.465  25.242  22.730  1.00  0.00     0.004 C 
BRANCH   6  10
ATOM     10  N   UNL A   1      33.656  22.365  23.941  1.00  0.00    -0.208 NA
ATOM     11  H   UNL A   1      34.356  22.108  24.636  1.00  0.00     0.141 HD
BRANCH  10  12
ATOM     12  S   UNL A   1      32.526  21.129  24.029  1.00  0.00     0.214 S 
ATOM     13  O   UNL A   1      31.746  21.309  25.237  1.00  0.00    -0.212 OA
ATOM     14  O   UNL A   1      31.878  21.104  22.738  1.00  0.00    -0.212 OA
BRANCH  12  15
ATOM     15  C   UNL A   1      33.422  19.597  24.254  1.00  0.00     0.185 C 
BRANCH  15  16
ATOM     16  C   UNL A   1      32.694  18.309  23.920  1.00  0.00     0.134 C 
ATOM     17  C   UNL A   1      33.660  17.277  23.331  1.00  0.00     0.035 C 
ATOM     18  O   UNL A   1      32.154  17.715  25.109  1.00  0.00    -0.377 OA
ATOM     19  C   UNL A   1      34.119  16.520  24.552  1.00  0.00     0.031 C 
ATOM     20  C   UNL A   1      32.866  16.505  25.398  1.00  0.00     0.160 C 
ENDBRANCH  15  16
ENDBRANCH  12  15
ENDBRANCH  10  12
ENDBRANCH   6  10
ENDBRANCH   5   6
ENDBRANCH   3   5
ENDBRANCH   2   3
ENDBRANCH   1   2
BRANCH   1  21
ATOM     21  C   UNL A   1      37.639  21.221  24.821  1.00  0.00     0.202 C 
BRANCH  21  22
ATOM     22  O   UNL A   1      38.791  20.611  25.375  1.00  0.00    -0.374 OA
BRANCH  22  23
ATOM     23  C   UNL A   1      39.660  21.398  26.196  1.00  0.00     0.202 C 
BRANCH  23  24
ATOM     24  C   UNL A   1      41.175  21.285  26.003  1.00  0.00     0.261 C 
BRANCH  24  25
ATOM     25  O   UNL A   1      41.935  22.275  26.733  1.00  0.00    -0.460 OA
BRANCH  25  26
ATOM     26  C   UNL A   1      42.322  23.350  26.008  1.00  0.00     0.338 C 
ATOM     27  O   UNL A   1      43.033  23.356  25.016  1.00  0.00    -0.246 OA
BRANCH  26  28
ATOM     28  C   UNL A   1      41.768  24.600  26.555  1.00  0.00     0.060 A 
ATOM     29  C   UNL A   1      42.465  25.798  26.348  1.00  0.00     0.016 A 
ATOM     30  C   UNL A   1      40.718  24.536  27.470  1.00  0.00     0.016 A 
ATOM     31  C   UNL A   1      42.154  26.925  27.113  1.00  0.00     0.010 A 
ATOM     32  C   UNL A   1      40.413  25.663  28.238  1.00  0.00     0.010 A 
ATOM     33  C   UNL A   1      41.163  26.845  28.100  1.00  0.00    -0.014 A 
BRANCH  33  34
ATOM     34  C   UNL A   1      40.999  27.914  29.115  1.00  0.00     0.031 A 
ATOM     35  C   UNL A   1      41.831  27.867  30.367  1.00  0.00     0.074 A 
ATOM     36  C   UNL A   1      40.070  28.873  28.965  1.00  0.00     0.049 A 
ATOM     37  N   UNL A   1      41.723  28.571  31.466  1.00  0.00    -0.248 NA
ATOM     38  C   UNL A   1      42.924  26.881  30.386  1.00  0.00     0.031 C 
ATOM     39  C   UNL A   1      39.227  29.059  27.787  1.00  0.00     0.029 A 
ATOM     40  N   UNL A   1      39.659  29.850  29.839  1.00  0.00    -0.354 N 
ATOM     41  C   UNL A   1      42.711  28.094  32.317  1.00  0.00     0.074 A 
ATOM     42  C   UNL A   1      43.401  27.034  31.613  1.00  0.00     0.031 C 
ATOM     43  C   UNL A   1      38.367  30.064  28.026  1.00  0.00     0.029 A 
ATOM     44  C   UNL A   1      38.575  30.559  29.386  1.00  0.00     0.049 A 
ATOM     45  H   UNL A   1      40.098  30.023  30.702  1.00  0.00     0.167 HD
ATOM     46  C   UNL A   1      43.012  28.494  33.576  1.00  0.00     0.031 A 
ATOM     47  C   UNL A   1      37.806  31.470  30.012  1.00  0.00     0.031 A 
ATOM     48  C   UNL A   1      42.321  29.541  34.282  1.00  0.00     0.049 A 
ATOM     49  C   UNL A   1      38.114  31.861  31.432  1.00  0.00     0.074 A 
ATOM     50  C   UNL A   1      42.574  30.043  35.547  1.00  0.00     0.029 A 
ATOM     51  N   UNL A   1      41.233  30.240  33.784  1.00  0.00    -0.354 N 
ATOM     52  N   UNL A   1      39.062  31.420  32.223  1.00  0.00    -0.248 NA
ATOM     53  C   UNL A   1      37.246  32.878  32.043  1.00  0.00     0.031 C 
ATOM     54  C   UNL A   1      41.603  31.007  35.836  1.00  0.00     0.029 A 
ATOM     55  C   UNL A   1      40.781  31.146  34.728  1.00  0.00     0.049 A 
ATOM     56  H   UNL A   1      40.837  30.110  32.891  1.00  0.00     0.167 HD
ATOM     57  C   UNL A   1      38.921  32.123  33.414  1.00  0.00     0.074 A 
ATOM     58  C   UNL A   1      37.799  33.022  33.241  1.00  0.00     0.031 C 
ATOM     59  C   UNL A   1      39.663  32.034  34.546  1.00  0.00     0.031 A 
BRANCH  46  60
ATOM     60  C   UNL A   1      44.107  27.752  34.291  1.00  0.00    -0.014 A 
ATOM     61  C   UNL A   1      45.423  28.239  34.326  1.00  0.00     0.009 A 
ATOM     62  C   UNL A   1      43.811  26.547  34.948  1.00  0.00     0.009 A 
ATOM     63  C   UNL A   1      46.429  27.509  34.966  1.00  0.00     0.001 A 
ATOM     64  C   UNL A   1      44.812  25.835  35.610  1.00  0.00     0.001 A 
ATOM     65  C   UNL A   1      46.122  26.310  35.608  1.00  0.00     0.000 A 
ENDBRANCH  46  60
BRANCH  47  66
ATOM     66  C   UNL A   1      36.639  32.048  29.300  1.00  0.00    -0.014 A 
ATOM     67  C   UNL A   1      35.410  31.374  29.276  1.00  0.00     0.009 A 
ATOM     68  C   UNL A   1      36.745  33.297  28.667  1.00  0.00     0.009 A 
ATOM     69  C   UNL A   1      34.311  31.936  28.623  1.00  0.00     0.001 A 
ATOM     70  C   UNL A   1      35.638  33.867  28.036  1.00  0.00     0.001 A 
ATOM     71  C   UNL A   1      34.423  33.184  28.011  1.00  0.00     0.000 A 
ENDBRANCH  47  66
BRANCH  59  72
ATOM     72  C   UNL A   1      39.315  32.958  35.679  1.00  0.00    -0.014 A 
ATOM     73  C   UNL A   1      38.335  32.619  36.625  1.00  0.00     0.009 A 
ATOM     74  C   UNL A   1      40.028  34.158  35.838  1.00  0.00     0.009 A 
ATOM     75  C   UNL A   1      38.063  33.474  37.695  1.00  0.00     0.001 A 
ATOM     76  C   UNL A   1      39.772  34.998  36.923  1.00  0.00     0.001 A 
ATOM     77  C   UNL A   1      38.786  34.659  37.847  1.00  0.00     0.000 A 
ENDBRANCH  59  72
ENDBRANCH  33  34
ENDBRANCH  26  28
ENDBRANCH  25  26
ENDBRANCH  24  25
ENDBRANCH  23  24
ENDBRANCH  22  23
ENDBRANCH  21  22
ENDBRANCH   1  21
TORSDOF 19
ENDMDL
MODEL 2
REMARK VINA RESULT:      -9.5      4.001      8.781
REMARK SMILES O=C(CC1(NS(=O)(=O)C[C@H]2CCCO2)CCC1)OCCOCCOC(=O)c1ccc(-c2c3nc(c(-c4ccccc4)c4ccc([nH]4)c(-c4ccccc4)c4nc(c(-c5ccccc5)c5ccc2[nH]5)C=C4)C=C3)cc1
REMARK SMILES IDX 19 1 18 2 2 3 1 4 3 5 4 6 15 7 17 8 16 9 5 10 6 12 7 13 8 14
REMARK SMILES IDX 9 15 10 16 11 17 14 18 12 19 13 20 20 21 21 22 22 23 23 24
REMARK SMILES IDX 24 25 25 26 26 27 27 28 28 29 74 30 29 31 73 32 30 33 31 34
REMARK SMILES IDX 32 35 67 36 33 37 72 38 66 39 68 40 34 41 71 42 65 43 64 44
REMARK SMILES IDX 35 46 57 47 42 48 56 49 43 50 46 51 55 52 69 53 44 54 45 55
REMARK SMILES IDX 54 57 70 58 47 59 36 60 37 61 41 62 38 63 40 64 39 65 58 66
REMARK SMILES IDX 59 67 63 68 60 69 62 70 61 71 48 72 49 73 53 74 50 75 52 76
REMARK SMILES IDX 51 77
REMARK H PARENT 5 11 68 45 46 56
REMARK Flexibility Score: inf
ROOT
ATOM      1  C   UNL A   1      31.711  27.442  23.670  1.00  0.00     0.261 C 
ENDROOT
BRANCH   1   2
ATOM      2  O   UNL A   1      30.749  26.466  23.255  1.00  0.00    -0.463 OA
BRANCH   2   3
ATOM      3  C   UNL A   1      30.489  25.334  23.950  1.00  0.00     0.307 C 
ATOM      4  O   UNL A   1      29.943  25.402  25.051  1.00  0.00    -0.252 OA
BRANCH   3   5
ATOM      5  C   UNL A   1      30.798  24.008  23.327  1.00  0.00     0.146 C 
BRANCH   5   6
ATOM      6  C   UNL A   1      32.111  23.331  23.767  1.00  0.00     0.043 C 
ATOM      7  C   UNL A   1      31.890  21.971  24.508  1.00  0.00     0.024 C 
ATOM      8  C   UNL A   1      32.712  22.496  22.583  1.00  0.00     0.024 C 
ATOM      9  C   UNL A   1      32.575  21.206  23.385  1.00  0.00     0.004 C 
BRANCH   6  10
ATOM     10  N   UNL A   1      33.068  24.370  24.334  1.00  0.00    -0.208 NA
ATOM     11  H   UNL A   1      32.622  25.261  24.115  1.00  0.00     0.141 HD
BRANCH  10  12
ATOM     12  S   UNL A   1      33.656  24.586  25.890  1.00  0.00     0.214 S 
ATOM     13  O   UNL A   1      34.249  25.905  25.976  1.00  0.00    -0.212 OA
ATOM     14  O   UNL A   1      32.570  24.214  26.769  1.00  0.00    -0.212 OA
BRANCH  12  15
ATOM     15  C   UNL A   1      35.004  23.432  26.120  1.00  0.00     0.185 C 
BRANCH  15  16
ATOM     16  C   UNL A   1      35.923  23.190  24.938  1.00  0.00     0.134 C 
ATOM     17  C   UNL A   1      37.338  23.688  25.240  1.00  0.00     0.035 C 
ATOM     18  O   UNL A   1      36.042  21.784  24.676  1.00  0.00    -0.377 OA
ATOM     19  C   UNL A   1      38.004  22.461  25.812  1.00  0.00     0.031 C 
ATOM     20  C   UNL A   1      37.372  21.355  24.998  1.00  0.00     0.160 C 
ENDBRANCH  15  16
ENDBRANCH  12  15
ENDBRANCH  10  12
ENDBRANCH   6  10
ENDBRANCH   5   6
ENDBRANCH   3   5
ENDBRANCH   2   3
ENDBRANCH   1   2
BRANCH   1  21
ATOM     21  C   UNL A   1      31.132  28.599  24.482  1.00  0.00     0.202 C 
BRANCH  21  22
ATOM     22  O   UNL A   1      31.730  28.870  25.738  1.00  0.00    -0.374 OA
BRANCH  22  23
ATOM     23  C   UNL A   1      32.515  30.058  25.884  1.00  0.00     0.202 C 
BRANCH  23  24
ATOM     24  C   UNL A   1      32.992  30.470  27.280  1.00  0.00     0.261 C 
BRANCH  24  25
ATOM     25  O   UNL A   1      34.247  31.187  27.283  1.00  0.00    -0.460 OA
BRANCH  25  26
ATOM     26  C   UNL A   1      34.886  31.221  28.476  1.00  0.00     0.338 C 
ATOM     27  O   UNL A   1      34.642  31.948  29.425  1.00  0.00    -0.246 OA
BRANCH  26  28
ATOM     28  C   UNL A   1      35.972  30.229  28.537  1.00  0.00     0.060 A 
ATOM     29  C   UNL A   1      36.314  29.672  29.777  1.00  0.00     0.016 A 
ATOM     30  C   UNL A   1      36.799  30.055  27.426  1.00  0.00     0.016 A 
ATOM     31  C   UNL A   1      37.526  28.994  29.925  1.00  0.00     0.010 A 
ATOM     32  C   UNL A   1      38.013  29.382  27.579  1.00  0.00     0.010 A 
ATOM     33  C   UNL A   1      38.406  28.894  28.839  1.00  0.00    -0.014 A 
BRANCH  33  34
ATOM     34  C   UNL A   1      39.807  28.442  29.021  1.00  0.00     0.031 A 
ATOM     35  C   UNL A   1      40.856  29.449  29.405  1.00  0.00     0.074 A 
ATOM     36  C   UNL A   1      40.160  27.169  28.777  1.00  0.00     0.049 A 
ATOM     37  N   UNL A   1      42.159  29.326  29.428  1.00  0.00    -0.248 NA
ATOM     38  C   UNL A   1      40.368  30.780  29.801  1.00  0.00     0.031 C 
ATOM     39  C   UNL A   1      39.240  26.085  28.439  1.00  0.00     0.029 A 
ATOM     40  N   UNL A   1      41.403  26.588  28.739  1.00  0.00    -0.354 N 
ATOM     41  C   UNL A   1      42.649  30.568  29.811  1.00  0.00     0.074 A 
ATOM     42  C   UNL A   1      41.504  31.434  29.999  1.00  0.00     0.031 C 
ATOM     43  C   UNL A   1      39.955  24.976  28.187  1.00  0.00     0.029 A 
ATOM     44  C   UNL A   1      41.379  25.286  28.306  1.00  0.00     0.049 A 
ATOM     45  H   UNL A   1      42.228  27.058  28.997  1.00  0.00     0.167 HD
ATOM     46  C   UNL A   1      43.935  30.958  29.981  1.00  0.00     0.031 A 
ATOM     47  C   UNL A   1      42.390  24.452  27.994  1.00  0.00     0.031 A 
ATOM     48  C   UNL A   1      45.075  30.102  29.785  1.00  0.00     0.049 A 
ATOM     49  C   UNL A   1      43.814  24.918  28.130  1.00  0.00     0.074 A 
ATOM     50  C   UNL A   1      46.416  30.394  29.967  1.00  0.00     0.029 A 
ATOM     51  N   UNL A   1      45.006  28.787  29.353  1.00  0.00    -0.354 N 
ATOM     52  N   UNL A   1      44.268  26.087  28.511  1.00  0.00    -0.248 NA
ATOM     53  C   UNL A   1      44.865  23.946  27.793  1.00  0.00     0.031 C 
ATOM     54  C   UNL A   1      47.161  29.272  29.590  1.00  0.00     0.029 A 
ATOM     55  C   UNL A   1      46.281  28.263  29.230  1.00  0.00     0.049 A 
ATOM     56  H   UNL A   1      44.173  28.297  29.161  1.00  0.00     0.167 HD
ATOM     57  C   UNL A   1      45.653  25.984  28.485  1.00  0.00     0.074 A 
ATOM     58  C   UNL A   1      45.966  24.638  28.055  1.00  0.00     0.031 C 
ATOM     59  C   UNL A   1      46.582  26.922  28.799  1.00  0.00     0.031 A 
BRANCH  46  60
ATOM     60  C   UNL A   1      44.175  32.397  30.348  1.00  0.00    -0.014 A 
ATOM     61  C   UNL A   1      44.327  32.799  31.683  1.00  0.00     0.009 A 
ATOM     62  C   UNL A   1      44.259  33.364  29.333  1.00  0.00     0.009 A 
ATOM     63  C   UNL A   1      44.512  34.148  31.998  1.00  0.00     0.001 A 
ATOM     64  C   UNL A   1      44.472  34.706  29.648  1.00  0.00     0.001 A 
ATOM     65  C   UNL A   1      44.586  35.099  30.980  1.00  0.00     0.000 A 
ENDBRANCH  46  60
BRANCH  47  66
ATOM     66  C   UNL A   1      42.079  23.094  27.484  1.00  0.00    -0.014 A 
ATOM     67  C   UNL A   1      41.641  22.085  28.353  1.00  0.00     0.009 A 
ATOM     68  C   UNL A   1      42.189  22.811  26.112  1.00  0.00     0.009 A 
ATOM     69  C   UNL A   1      41.328  20.817  27.861  1.00  0.00     0.001 A 
ATOM     70  C   UNL A   1      41.853  21.549  25.620  1.00  0.00     0.001 A 
ATOM     71  C   UNL A   1      41.427  20.551  26.496  1.00  0.00     0.000 A 
ENDBRANCH  47  66
BRANCH  59  72
ATOM     72  C   UNL A   1      48.027  26.520  28.728  1.00  0.00    -0.014 A 
ATOM     73  C   UNL A   1      48.647  25.832  29.783  1.00  0.00     0.009 A 
ATOM     74  C   UNL A   1      48.761  26.774  27.558  1.00  0.00     0.009 A 
ATOM     75  C   UNL A   1      49.980  25.426  29.674  1.00  0.00     0.001 A 
ATOM     76  C   UNL A   1      50.084  26.345  27.442  1.00  0.00     0.001 A 
ATOM     77  C   UNL A   1      50.695  25.677  28.501  1.00  0.00     0.000 A 
ENDBRANCH  59  72
ENDBRANCH  33  34
ENDBRANCH  26  28
ENDBRANCH  25  26
ENDBRANCH  24  25
ENDBRANCH  23  24
ENDBRANCH  22  23
ENDBRANCH  21  22
ENDBRANCH   1  21
TORSDOF 19
ENDMDL
MODEL 3
REMARK VINA RESULT:      -9.2      7.003     10.330
REMARK SMILES O=C(CC1(NS(=O)(=O)C[C@H]2CCCO2)CCC1)OCCOCCOC(=O)c1ccc(-c2c3nc(c(-c4ccccc4)c4ccc([nH]4)c(-c4ccccc4)c4nc(c(-c5ccccc5)c5ccc2[nH]5)C=C4)C=C3)cc1
REMARK SMILES IDX 19 1 18 2 2 3 1 4 3 5 4 6 15 7 17 8 16 9 5 10 6 12 7 13 8 14
REMARK SMILES IDX 9 15 10 16 11 17 14 18 12 19 13 20 20 21 21 22 22 23 23 24
REMARK SMILES IDX 24 25 25 26 26 27 27 28 28 29 74 30 29 31 73 32 30 33 31 34
REMARK SMILES IDX 32 35 67 36 33 37 72 38 66 39 68 40 34 41 71 42 65 43 64 44
REMARK SMILES IDX 35 46 57 47 42 48 56 49 43 50 46 51 55 52 69 53 44 54 45 55
REMARK SMILES IDX 54 57 70 58 47 59 36 60 37 61 41 62 38 63 40 64 39 65 58 66
REMARK SMILES IDX 59 67 63 68 60 69 62 70 61 71 48 72 49 73 53 74 50 75 52 76
REMARK SMILES IDX 51 77
REMARK H PARENT 5 11 68 45 46 56
REMARK Flexibility Score: inf
ROOT
ATOM      1  C   UNL A   1      36.241  21.431  25.764  1.00  0.00     0.261 C 
ENDROOT
BRANCH   1   2
ATOM      2  O   UNL A   1      35.763  22.732  26.124  1.00  0.00    -0.463 OA
BRANCH   2   3
ATOM      3  C   UNL A   1      34.477  22.985  26.463  1.00  0.00     0.307 C 
ATOM      4  O   UNL A   1      33.977  22.419  27.434  1.00  0.00    -0.252 OA
BRANCH   3   5
ATOM      5  C   UNL A   1      33.711  24.017  25.696  1.00  0.00     0.146 C 
BRANCH   5   6
ATOM      6  C   UNL A   1      33.320  23.650  24.251  1.00  0.00     0.043 C 
ATOM      7  C   UNL A   1      32.019  24.366  23.760  1.00  0.00     0.024 C 
ATOM      8  C   UNL A   1      34.103  24.550  23.234  1.00  0.00     0.024 C 
ATOM      9  C   UNL A   1      32.799  25.145  22.711  1.00  0.00     0.004 C 
BRANCH   6  10
ATOM     10  N   UNL A   1      33.510  22.157  24.024  1.00  0.00    -0.208 NA
ATOM     11  H   UNL A   1      34.223  21.893  24.704  1.00  0.00     0.141 HD
BRANCH  10  12
ATOM     12  S   UNL A   1      32.411  20.891  24.081  1.00  0.00     0.214 S 
ATOM     13  O   UNL A   1      31.471  21.150  25.154  1.00  0.00    -0.212 OA
ATOM     14  O   UNL A   1      31.942  20.723  22.724  1.00  0.00    -0.212 OA
BRANCH  12  15
ATOM     15  C   UNL A   1      33.308  19.421  24.567  1.00  0.00     0.185 C 
BRANCH  15  16
ATOM     16  C   UNL A   1      32.633  18.083  24.330  1.00  0.00     0.134 C 
ATOM     17  C   UNL A   1      33.405  17.262  23.294  1.00  0.00     0.035 C 
ATOM     18  O   UNL A   1      32.632  17.303  25.535  1.00  0.00    -0.377 OA
ATOM     19  C   UNL A   1      34.354  16.459  24.148  1.00  0.00     0.031 C 
ATOM     20  C   UNL A   1      33.511  16.183  25.373  1.00  0.00     0.160 C 
ENDBRANCH  15  16
ENDBRANCH  12  15
ENDBRANCH  10  12
ENDBRANCH   6  10
ENDBRANCH   5   6
ENDBRANCH   3   5
ENDBRANCH   2   3
ENDBRANCH   1   2
BRANCH   1  21
ATOM     21  C   UNL A   1      37.481  21.435  24.871  1.00  0.00     0.202 C 
BRANCH  21  22
ATOM     22  O   UNL A   1      38.698  21.001  25.452  1.00  0.00    -0.374 OA
BRANCH  22  23
ATOM     23  C   UNL A   1      39.435  21.915  26.270  1.00  0.00     0.202 C 
BRANCH  23  24
ATOM     24  C   UNL A   1      40.966  21.873  26.245  1.00  0.00     0.261 C 
BRANCH  24  25
ATOM     25  O   UNL A   1      41.587  23.177  26.192  1.00  0.00    -0.460 OA
BRANCH  25  26
ATOM     26  C   UNL A   1      42.904  23.197  26.505  1.00  0.00     0.338 C 
ATOM     27  O   UNL A   1      43.631  22.238  26.707  1.00  0.00    -0.246 OA
BRANCH  26  28
ATOM     28  C   UNL A   1      43.422  24.573  26.579  1.00  0.00     0.060 A 
ATOM     29  C   UNL A   1      43.786  25.226  25.393  1.00  0.00     0.016 A 
ATOM     30  C   UNL A   1      43.778  25.102  27.820  1.00  0.00     0.016 A 
ATOM     31  C   UNL A   1      44.571  26.380  25.446  1.00  0.00     0.010 A 
ATOM     32  C   UNL A   1      44.568  26.252  27.870  1.00  0.00     0.010 A 
ATOM     33  C   UNL A   1      45.012  26.867  26.685  1.00  0.00    -0.014 A 
BRANCH  33  34
ATOM     34  C   UNL A   1      46.067  27.905  26.773  1.00  0.00     0.031 A 
ATOM     35  C   UNL A   1      45.665  29.353  26.823  1.00  0.00     0.074 A 
ATOM     36  C   UNL A   1      47.369  27.573  26.733  1.00  0.00     0.049 A 
ATOM     37  N   UNL A   1      46.405  30.427  26.706  1.00  0.00    -0.248 NA
ATOM     38  C   UNL A   1      44.232  29.625  27.017  1.00  0.00     0.031 C 
ATOM     39  C   UNL A   1      47.895  26.211  26.726  1.00  0.00     0.029 A 
ATOM     40  N   UNL A   1      48.482  28.373  26.651  1.00  0.00    -0.354 N 
ATOM     41  C   UNL A   1      45.526  31.500  26.781  1.00  0.00     0.074 A 
ATOM     42  C   UNL A   1      44.197  30.948  26.943  1.00  0.00     0.031 C 
ATOM     43  C   UNL A   1      49.233  26.266  26.602  1.00  0.00     0.029 A 
ATOM     44  C   UNL A   1      49.645  27.664  26.480  1.00  0.00     0.049 A 
ATOM     45  H   UNL A   1      48.449  29.354  26.709  1.00  0.00     0.167 HD
ATOM     46  C   UNL A   1      45.796  32.826  26.711  1.00  0.00     0.031 A 
ATOM     47  C   UNL A   1      50.893  28.090  26.208  1.00  0.00     0.031 A 
ATOM     48  C   UNL A   1      47.115  33.377  26.540  1.00  0.00     0.049 A 
ATOM     49  C   UNL A   1      51.169  29.563  26.073  1.00  0.00     0.074 A 
ATOM     50  C   UNL A   1      47.496  34.707  26.493  1.00  0.00     0.029 A 
ATOM     51  N   UNL A   1      48.267  32.624  26.378  1.00  0.00    -0.354 N 
ATOM     52  N   UNL A   1      50.337  30.571  26.165  1.00  0.00    -0.248 NA
ATOM     53  C   UNL A   1      52.560  29.954  25.798  1.00  0.00     0.031 C 
ATOM     54  C   UNL A   1      48.872  34.757  26.247  1.00  0.00     0.029 A 
ATOM     55  C   UNL A   1      49.356  33.459  26.199  1.00  0.00     0.049 A 
ATOM     56  H   UNL A   1      48.306  31.640  26.389  1.00  0.00     0.167 HD
ATOM     57  C   UNL A   1      51.104  31.716  25.986  1.00  0.00     0.074 A 
ATOM     58  C   UNL A   1      52.470  31.278  25.783  1.00  0.00     0.031 C 
ATOM     59  C   UNL A   1      50.710  33.014  25.996  1.00  0.00     0.031 A 
BRANCH  46  60
ATOM     60  C   UNL A   1      44.628  33.771  26.764  1.00  0.00    -0.014 A 
ATOM     61  C   UNL A   1      43.948  34.165  25.601  1.00  0.00     0.009 A 
ATOM     62  C   UNL A   1      44.195  34.266  28.005  1.00  0.00     0.009 A 
ATOM     63  C   UNL A   1      42.889  35.073  25.676  1.00  0.00     0.001 A 
ATOM     64  C   UNL A   1      43.119  35.151  28.079  1.00  0.00     0.001 A 
ATOM     65  C   UNL A   1      42.475  35.563  26.915  1.00  0.00     0.000 A 
ENDBRANCH  46  60
BRANCH  47  66
ATOM     66  C   UNL A   1      51.974  27.092  26.009  1.00  0.00    -0.014 A 
ATOM     67  C   UNL A   1      52.752  26.654  27.089  1.00  0.00     0.009 A 
ATOM     68  C   UNL A   1      52.208  26.549  24.735  1.00  0.00     0.009 A 
ATOM     69  C   UNL A   1      53.750  25.697  26.897  1.00  0.00     0.001 A 
ATOM     70  C   UNL A   1      53.191  25.575  24.551  1.00  0.00     0.001 A 
ATOM     71  C   UNL A   1      53.965  25.154  25.631  1.00  0.00     0.000 A 
ENDBRANCH  47  66
BRANCH  59  72
ATOM     72  C   UNL A   1      51.771  34.063  25.823  1.00  0.00    -0.014 A 
ATOM     73  C   UNL A   1      52.470  34.585  26.922  1.00  0.00     0.009 A 
ATOM     74  C   UNL A   1      52.124  34.485  24.530  1.00  0.00     0.009 A 
ATOM     75  C   UNL A   1      53.485  35.525  26.730  1.00  0.00     0.001 A 
ATOM     76  C   UNL A   1      53.156  35.405  24.340  1.00  0.00     0.001 A 
ATOM     77  C   UNL A   1      53.832  35.930  25.440  1.00  0.00     0.000 A 
ENDBRANCH  59  72
ENDBRANCH  33  34
ENDBRANCH  26  28
ENDBRANCH  25  26
ENDBRANCH  24  25
ENDBRANCH  23  24
ENDBRANCH  22  23
ENDBRANCH  21  22
ENDBRANCH   1  21
TORSDOF 19
ENDMDL
