MODEL 1
REMARK VINA RESULT:     -11.2      0.000      0.000
REMARK SMILES O=C(OCCOCCOC(=O)[C@@H]1[C@H](C(=O)Nc2ccccc2OC(F)F)[C@@H]2C=C[C@H]1C2)c1ccc(-c2c3nc(c(-c4ccccc4)c4ccc([nH]4)c(-c4ccccc4)c4nc(c(-c5ccccc5)c5ccc2[nH]5)C=C4)C=C3)cc1
REMARK SMILES IDX 7 1 6 2 5 3 4 4 3 5 2 6 1 7 32 8 33 9 79 10 34 11 78 12
REMARK SMILES IDX 35 13 36 14 37 15 72 16 38 17 77 18 71 19 73 20 39 21 76 22
REMARK SMILES IDX 70 23 69 24 40 26 62 27 47 28 61 29 48 30 51 31 60 32 74 33
REMARK SMILES IDX 49 34 50 35 59 37 75 38 52 39 41 40 42 41 46 42 43 43 45 44
REMARK SMILES IDX 44 45 63 46 64 47 68 48 65 49 67 50 66 51 53 52 54 53 58 54
REMARK SMILES IDX 55 55 57 56 56 57 8 58 9 59 10 60 11 61 12 62 13 63 30 64
REMARK SMILES IDX 27 65 29 66 31 67 28 68 14 69 15 70 16 71 17 73 18 74 22 75
REMARK SMILES IDX 19 76 21 77 20 78 23 79 24 80 25 81 26 82
REMARK H PARENT 73 25 51 36 16 72
REMARK Flexibility Score: inf
ROOT
ATOM      1  C   UNL A   1      31.370  27.201  26.011  1.00  0.00     0.202 C 
ENDROOT
BRANCH   1   2
ATOM      2  O   UNL A   1      31.526  28.397  25.240  1.00  0.00    -0.374 OA
BRANCH   2   3
ATOM      3  C   UNL A   1      31.819  29.634  25.900  1.00  0.00     0.202 C 
BRANCH   3   4
ATOM      4  C   UNL A   1      33.268  30.051  26.138  1.00  0.00     0.261 C 
BRANCH   4   5
ATOM      5  O   UNL A   1      33.759  29.813  27.472  1.00  0.00    -0.460 OA
BRANCH   5   6
ATOM      6  C   UNL A   1      34.577  30.700  28.106  1.00  0.00     0.338 C 
ATOM      7  O   UNL A   1      34.262  31.843  28.349  1.00  0.00    -0.246 OA
BRANCH   6   8
ATOM      8  C   UNL A   1      35.930  30.194  28.403  1.00  0.00     0.060 A 
ATOM      9  C   UNL A   1      36.872  30.236  27.390  1.00  0.00     0.016 A 
ATOM     10  C   UNL A   1      36.247  29.621  29.632  1.00  0.00     0.016 A 
ATOM     11  C   UNL A   1      38.017  29.465  27.506  1.00  0.00     0.010 A 
ATOM     12  C   UNL A   1      37.523  29.067  29.818  1.00  0.00     0.010 A 
ATOM     13  C   UNL A   1      38.429  28.972  28.746  1.00  0.00    -0.014 A 
BRANCH  13  14
ATOM     14  C   UNL A   1      39.825  28.468  28.909  1.00  0.00     0.031 A 
ATOM     15  C   UNL A   1      40.950  29.408  29.251  1.00  0.00     0.074 A 
ATOM     16  C   UNL A   1      40.097  27.158  28.699  1.00  0.00     0.049 A 
ATOM     17  N   UNL A   1      42.230  29.268  29.022  1.00  0.00    -0.248 NA
ATOM     18  C   UNL A   1      40.595  30.677  29.906  1.00  0.00     0.031 C 
ATOM     19  C   UNL A   1      39.113  26.101  28.425  1.00  0.00     0.029 A 
ATOM     20  N   UNL A   1      41.293  26.479  28.673  1.00  0.00    -0.354 N 
ATOM     21  C   UNL A   1      42.817  30.469  29.402  1.00  0.00     0.074 A 
ATOM     22  C   UNL A   1      41.762  31.310  29.926  1.00  0.00     0.031 C 
ATOM     23  C   UNL A   1      39.722  24.917  28.347  1.00  0.00     0.029 A 
ATOM     24  C   UNL A   1      41.151  25.152  28.335  1.00  0.00     0.049 A 
ATOM     25  H   UNL A   1      42.160  26.898  28.876  1.00  0.00     0.167 HD
ATOM     26  C   UNL A   1      44.116  30.835  29.274  1.00  0.00     0.031 A 
ATOM     27  C   UNL A   1      42.040  24.236  27.911  1.00  0.00     0.031 A 
ATOM     28  C   UNL A   1      45.146  29.947  28.799  1.00  0.00     0.049 A 
ATOM     29  C   UNL A   1      43.452  24.678  27.715  1.00  0.00     0.074 A 
ATOM     30  C   UNL A   1      46.497  30.197  28.629  1.00  0.00     0.029 A 
ATOM     31  N   UNL A   1      44.934  28.625  28.436  1.00  0.00    -0.354 N 
ATOM     32  N   UNL A   1      43.986  25.848  27.963  1.00  0.00    -0.248 NA
ATOM     33  C   UNL A   1      44.370  23.695  27.134  1.00  0.00     0.031 C 
ATOM     34  C   UNL A   1      47.092  29.036  28.121  1.00  0.00     0.029 A 
ATOM     35  C   UNL A   1      46.122  28.052  28.017  1.00  0.00     0.049 A 
ATOM     36  H   UNL A   1      44.065  28.162  28.470  1.00  0.00     0.167 HD
ATOM     37  C   UNL A   1      45.305  25.749  27.556  1.00  0.00     0.074 A 
ATOM     38  C   UNL A   1      45.496  24.392  27.080  1.00  0.00     0.031 C 
ATOM     39  C   UNL A   1      46.270  26.699  27.553  1.00  0.00     0.031 A 
BRANCH  26  40
ATOM     40  C   UNL A   1      44.483  32.264  29.562  1.00  0.00    -0.014 A 
ATOM     41  C   UNL A   1      44.952  32.681  30.815  1.00  0.00     0.009 A 
ATOM     42  C   UNL A   1      44.400  33.208  28.524  1.00  0.00     0.009 A 
ATOM     43  C   UNL A   1      45.304  34.019  31.028  1.00  0.00     0.001 A 
ATOM     44  C   UNL A   1      44.771  34.537  28.732  1.00  0.00     0.001 A 
ATOM     45  C   UNL A   1      45.216  34.945  29.987  1.00  0.00     0.000 A 
ENDBRANCH  26  40
BRANCH  27  46
ATOM     46  C   UNL A   1      41.573  22.889  27.481  1.00  0.00    -0.014 A 
ATOM     47  C   UNL A   1      40.629  22.752  26.456  1.00  0.00     0.009 A 
ATOM     48  C   UNL A   1      42.104  21.727  28.072  1.00  0.00     0.009 A 
ATOM     49  C   UNL A   1      40.223  21.482  26.037  1.00  0.00     0.001 A 
ATOM     50  C   UNL A   1      41.729  20.461  27.623  1.00  0.00     0.001 A 
ATOM     51  C   UNL A   1      40.781  20.339  26.611  1.00  0.00     0.000 A 
ENDBRANCH  27  46
BRANCH  39  52
ATOM     52  C   UNL A   1      47.610  26.277  27.042  1.00  0.00    -0.014 A 
ATOM     53  C   UNL A   1      48.530  25.635  27.885  1.00  0.00     0.009 A 
ATOM     54  C   UNL A   1      47.947  26.511  25.701  1.00  0.00     0.009 A 
ATOM     55  C   UNL A   1      49.779  25.256  27.395  1.00  0.00     0.001 A 
ATOM     56  C   UNL A   1      49.188  26.110  25.210  1.00  0.00     0.001 A 
ATOM     57  C   UNL A   1      50.105  25.489  26.059  1.00  0.00     0.000 A 
ENDBRANCH  39  52
ENDBRANCH  13  14
ENDBRANCH   6   8
ENDBRANCH   5   6
ENDBRANCH   4   5
ENDBRANCH   3   4
ENDBRANCH   2   3
ENDBRANCH   1   2
BRANCH   1  58
ATOM     58  C   UNL A   1      31.304  25.918  25.124  1.00  0.00     0.261 C 
BRANCH  58  59
ATOM     59  O   UNL A   1      32.586  25.564  24.498  1.00  0.00    -0.463 OA
BRANCH  59  60
ATOM     60  C   UNL A   1      33.503  24.902  25.286  1.00  0.00     0.310 C 
ATOM     61  O   UNL A   1      33.861  25.331  26.379  1.00  0.00    -0.252 OA
BRANCH  60  62
ATOM     62  C   UNL A   1      34.161  23.679  24.586  1.00  0.00     0.119 C 
ATOM     63  C   UNL A   1      34.394  22.133  24.957  1.00  0.00     0.100 C 
ATOM     64  C   UNL A   1      35.620  24.092  24.189  1.00  0.00     0.027 C 
ATOM     65  C   UNL A   1      35.916  21.941  24.687  1.00  0.00     0.025 C 
ATOM     66  C   UNL A   1      36.497  24.026  25.420  1.00  0.00    -0.027 C 
ATOM     67  C   UNL A   1      36.121  22.836  23.473  1.00  0.00     0.017 C 
ATOM     68  C   UNL A   1      36.679  22.733  25.715  1.00  0.00    -0.027 C 
BRANCH  63  69
ATOM     69  C   UNL A   1      34.101  21.065  26.048  1.00  0.00     0.229 C 
ATOM     70  O   UNL A   1      34.278  21.391  27.233  1.00  0.00    -0.274 OA
ATOM     71  N   UNL A   1      33.553  19.842  25.859  1.00  0.00    -0.323 N 
ATOM     72  H   UNL A   1      33.049  19.479  26.622  1.00  0.00     0.170 HD
BRANCH  71  73
ATOM     73  C   UNL A   1      33.604  19.034  24.737  1.00  0.00     0.084 A 
ATOM     74  C   UNL A   1      34.549  17.999  24.704  1.00  0.00     0.030 A 
ATOM     75  C   UNL A   1      32.744  19.221  23.678  1.00  0.00     0.149 A 
ATOM     76  C   UNL A   1      34.466  17.000  23.731  1.00  0.00     0.002 A 
ATOM     77  C   UNL A   1      32.641  18.187  22.731  1.00  0.00     0.049 A 
ATOM     78  C   UNL A   1      33.465  17.063  22.774  1.00  0.00     0.004 A 
BRANCH  75  79
ATOM     79  O   UNL A   1      31.970  20.312  23.456  1.00  0.00    -0.433 OA
BRANCH  79  80
ATOM     80  C   UNL A   1      32.122  21.350  22.487  1.00  0.00     0.542 C 
ATOM     81  F   UNL A   1      31.655  20.961  21.282  1.00  0.00    -0.167 F 
ATOM     82  F   UNL A   1      31.349  22.404  22.875  1.00  0.00    -0.167 F 
ENDBRANCH  79  80
ENDBRANCH  75  79
ENDBRANCH  71  73
ENDBRANCH  63  69
ENDBRANCH  60  62
ENDBRANCH  59  60
ENDBRANCH  58  59
ENDBRANCH   1  58
TORSDOF 18
ENDMDL
MODEL 2
REMARK VINA RESULT:     -10.9      3.929      8.949
REMARK SMILES O=C(OCCOCCOC(=O)[C@@H]1[C@H](C(=O)Nc2ccccc2OC(F)F)[C@@H]2C=C[C@H]1C2)c1ccc(-c2c3nc(c(-c4ccccc4)c4ccc([nH]4)c(-c4ccccc4)c4nc(c(-c5ccccc5)c5ccc2[nH]5)C=C4)C=C3)cc1
REMARK SMILES IDX 7 1 6 2 5 3 4 4 3 5 2 6 1 7 32 8 33 9 79 10 34 11 78 12
REMARK SMILES IDX 35 13 36 14 37 15 72 16 38 17 77 18 71 19 73 20 39 21 76 22
REMARK SMILES IDX 70 23 69 24 40 26 62 27 47 28 61 29 48 30 51 31 60 32 74 33
REMARK SMILES IDX 49 34 50 35 59 37 75 38 52 39 41 40 42 41 46 42 43 43 45 44
REMARK SMILES IDX 44 45 63 46 64 47 68 48 65 49 67 50 66 51 53 52 54 53 58 54
REMARK SMILES IDX 55 55 57 56 56 57 8 58 9 59 10 60 11 61 12 62 13 63 30 64
REMARK SMILES IDX 27 65 29 66 31 67 28 68 14 69 15 70 16 71 17 73 18 74 22 75
REMARK SMILES IDX 19 76 21 77 20 78 23 79 24 80 25 81 26 82
REMARK H PARENT 73 25 51 36 16 72
REMARK Flexibility Score: inf
ROOT
ATOM      1  C   UNL A   1      35.182  20.709  25.006  1.00  0.00     0.202 C 
ENDROOT
BRANCH   1   2
ATOM      2  O   UNL A   1      35.426  21.898  24.247  1.00  0.00    -0.374 OA
BRANCH   2   3
ATOM      3  C   UNL A   1      36.770  22.356  24.058  1.00  0.00     0.202 C 
BRANCH   3   4
ATOM      4  C   UNL A   1      37.377  23.371  25.022  1.00  0.00     0.261 C 
BRANCH   4   5
ATOM      5  O   UNL A   1      38.110  22.802  26.126  1.00  0.00    -0.460 OA
BRANCH   5   6
ATOM      6  C   UNL A   1      39.436  23.052  26.313  1.00  0.00     0.338 C 
ATOM      7  O   UNL A   1      40.310  22.260  26.040  1.00  0.00    -0.246 OA
BRANCH   6   8
ATOM      8  C   UNL A   1      39.740  24.340  26.965  1.00  0.00     0.060 A 
ATOM      9  C   UNL A   1      39.310  24.520  28.269  1.00  0.00     0.016 A 
ATOM     10  C   UNL A   1      40.370  25.378  26.284  1.00  0.00     0.016 A 
ATOM     11  C   UNL A   1      39.256  25.804  28.785  1.00  0.00     0.010 A 
ATOM     12  C   UNL A   1      40.539  26.613  26.929  1.00  0.00     0.010 A 
ATOM     13  C   UNL A   1      39.971  26.848  28.194  1.00  0.00    -0.014 A 
BRANCH  13  14
ATOM     14  C   UNL A   1      40.192  28.112  28.957  1.00  0.00     0.031 A 
ATOM     15  C   UNL A   1      41.351  28.248  29.908  1.00  0.00     0.074 A 
ATOM     16  C   UNL A   1      39.313  29.135  28.834  1.00  0.00     0.049 A 
ATOM     17  N   UNL A   1      41.474  29.044  30.939  1.00  0.00    -0.248 NA
ATOM     18  C   UNL A   1      42.506  27.360  29.697  1.00  0.00     0.031 C 
ATOM     19  C   UNL A   1      38.173  29.191  27.908  1.00  0.00     0.029 A 
ATOM     20  N   UNL A   1      39.228  30.335  29.500  1.00  0.00    -0.354 N 
ATOM     21  C   UNL A   1      42.663  28.680  31.560  1.00  0.00     0.074 A 
ATOM     22  C   UNL A   1      43.253  27.627  30.763  1.00  0.00     0.031 C 
ATOM     23  C   UNL A   1      37.567  30.377  27.999  1.00  0.00     0.029 A 
ATOM     24  C   UNL A   1      38.123  31.074  29.140  1.00  0.00     0.049 A 
ATOM     25  H   UNL A   1      39.889  30.636  30.165  1.00  0.00     0.167 HD
ATOM     26  C   UNL A   1      43.176  29.165  32.717  1.00  0.00     0.031 A 
ATOM     27  C   UNL A   1      37.512  32.115  29.731  1.00  0.00     0.031 A 
ATOM     28  C   UNL A   1      42.585  30.254  33.452  1.00  0.00     0.049 A 
ATOM     29  C   UNL A   1      38.055  32.590  31.037  1.00  0.00     0.074 A 
ATOM     30  C   UNL A   1      43.012  30.837  34.632  1.00  0.00     0.029 A 
ATOM     31  N   UNL A   1      41.444  30.937  33.056  1.00  0.00    -0.354 N 
ATOM     32  N   UNL A   1      39.113  32.169  31.686  1.00  0.00    -0.248 NA
ATOM     33  C   UNL A   1      37.295  33.641  31.719  1.00  0.00     0.031 C 
ATOM     34  C   UNL A   1      42.102  31.845  34.972  1.00  0.00     0.029 A 
ATOM     35  C   UNL A   1      41.135  31.918  33.981  1.00  0.00     0.049 A 
ATOM     36  H   UNL A   1      40.929  30.751  32.238  1.00  0.00     0.167 HD
ATOM     37  C   UNL A   1      39.141  32.898  32.863  1.00  0.00     0.074 A 
ATOM     38  C   UNL A   1      38.015  33.811  32.818  1.00  0.00     0.031 C 
ATOM     39  C   UNL A   1      40.008  32.807  33.900  1.00  0.00     0.031 A 
BRANCH  26  40
ATOM     40  C   UNL A   1      44.374  28.473  33.307  1.00  0.00    -0.014 A 
ATOM     41  C   UNL A   1      45.685  28.899  33.059  1.00  0.00     0.009 A 
ATOM     42  C   UNL A   1      44.169  27.388  34.179  1.00  0.00     0.009 A 
ATOM     43  C   UNL A   1      46.767  28.237  33.651  1.00  0.00     0.001 A 
ATOM     44  C   UNL A   1      45.248  26.743  34.785  1.00  0.00     0.001 A 
ATOM     45  C   UNL A   1      46.548  27.162  34.515  1.00  0.00     0.000 A 
ENDBRANCH  26  40
BRANCH  27  46
ATOM     46  C   UNL A   1      36.231  32.637  29.178  1.00  0.00    -0.014 A 
ATOM     47  C   UNL A   1      36.191  33.859  28.494  1.00  0.00     0.009 A 
ATOM     48  C   UNL A   1      35.045  31.890  29.299  1.00  0.00     0.009 A 
ATOM     49  C   UNL A   1      34.991  34.323  27.950  1.00  0.00     0.001 A 
ATOM     50  C   UNL A   1      33.857  32.336  28.717  1.00  0.00     0.001 A 
ATOM     51  C   UNL A   1      33.829  33.557  28.050  1.00  0.00     0.000 A 
ENDBRANCH  27  46
BRANCH  39  52
ATOM     52  C   UNL A   1      39.768  33.741  35.043  1.00  0.00    -0.014 A 
ATOM     53  C   UNL A   1      39.022  33.333  36.158  1.00  0.00     0.009 A 
ATOM     54  C   UNL A   1      40.307  35.035  35.006  1.00  0.00     0.009 A 
ATOM     55  C   UNL A   1      38.799  34.219  37.212  1.00  0.00     0.001 A 
ATOM     56  C   UNL A   1      40.102  35.909  36.072  1.00  0.00     0.001 A 
ATOM     57  C   UNL A   1      39.343  35.503  37.169  1.00  0.00     0.000 A 
ENDBRANCH  39  52
ENDBRANCH  13  14
ENDBRANCH   6   8
ENDBRANCH   5   6
ENDBRANCH   4   5
ENDBRANCH   3   4
ENDBRANCH   2   3
ENDBRANCH   1   2
BRANCH   1  58
ATOM     58  C   UNL A   1      33.827  20.028  24.636  1.00  0.00     0.261 C 
BRANCH  58  59
ATOM     59  O   UNL A   1      32.647  20.854  24.929  1.00  0.00    -0.463 OA
BRANCH  59  60
ATOM     60  C   UNL A   1      32.127  21.592  23.887  1.00  0.00     0.310 C 
ATOM     61  O   UNL A   1      32.186  21.214  22.721  1.00  0.00    -0.252 OA
BRANCH  60  62
ATOM     62  C   UNL A   1      31.632  23.005  24.307  1.00  0.00     0.119 C 
ATOM     63  C   UNL A   1      32.137  24.513  24.078  1.00  0.00     0.100 C 
ATOM     64  C   UNL A   1      31.468  23.001  25.867  1.00  0.00     0.027 C 
ATOM     65  C   UNL A   1      32.147  25.095  25.523  1.00  0.00     0.025 C 
ATOM     66  C   UNL A   1      32.834  23.147  26.501  1.00  0.00    -0.027 C 
ATOM     67  C   UNL A   1      30.931  24.410  26.131  1.00  0.00     0.017 C 
ATOM     68  C   UNL A   1      33.239  24.406  26.298  1.00  0.00    -0.027 C 
BRANCH  63  69
ATOM     69  C   UNL A   1      33.227  25.357  23.360  1.00  0.00     0.229 C 
ATOM     70  O   UNL A   1      34.349  24.845  23.218  1.00  0.00    -0.274 OA
ATOM     71  N   UNL A   1      33.058  26.556  22.756  1.00  0.00    -0.323 N 
ATOM     72  H   UNL A   1      33.673  26.749  22.013  1.00  0.00     0.170 HD
BRANCH  71  73
ATOM     73  C   UNL A   1      32.134  27.546  23.041  1.00  0.00     0.084 A 
ATOM     74  C   UNL A   1      30.972  27.619  22.260  1.00  0.00     0.030 A 
ATOM     75  C   UNL A   1      32.331  28.435  24.074  1.00  0.00     0.149 A 
ATOM     76  C   UNL A   1      29.898  28.412  22.668  1.00  0.00     0.002 A 
ATOM     77  C   UNL A   1      31.227  29.194  24.501  1.00  0.00     0.049 A 
ATOM     78  C   UNL A   1      30.005  29.158  23.831  1.00  0.00     0.004 A 
BRANCH  75  79
ATOM     79  O   UNL A   1      33.495  28.650  24.737  1.00  0.00    -0.433 OA
BRANCH  79  80
ATOM     80  C   UNL A   1      33.756  28.629  26.141  1.00  0.00     0.542 C 
ATOM     81  F   UNL A   1      34.367  27.481  26.504  1.00  0.00    -0.167 F 
ATOM     82  F   UNL A   1      34.634  29.633  26.420  1.00  0.00    -0.167 F 
ENDBRANCH  79  80
ENDBRANCH  75  79
ENDBRANCH  71  73
ENDBRANCH  63  69
ENDBRANCH  60  62
ENDBRANCH  59  60
ENDBRANCH  58  59
ENDBRANCH   1  58
TORSDOF 18
ENDMDL
MODEL 3
REMARK VINA RESULT:     -10.8      3.796      7.770
REMARK SMILES O=C(OCCOCCOC(=O)[C@@H]1[C@H](C(=O)Nc2ccccc2OC(F)F)[C@@H]2C=C[C@H]1C2)c1ccc(-c2c3nc(c(-c4ccccc4)c4ccc([nH]4)c(-c4ccccc4)c4nc(c(-c5ccccc5)c5ccc2[nH]5)C=C4)C=C3)cc1
REMARK SMILES IDX 7 1 6 2 5 3 4 4 3 5 2 6 1 7 32 8 33 9 79 10 34 11 78 12
REMARK SMILES IDX 35 13 36 14 37 15 72 16 38 17 77 18 71 19 73 20 39 21 76 22
REMARK SMILES IDX 70 23 69 24 40 26 62 27 47 28 61 29 48 30 51 31 60 32 74 33
REMARK SMILES IDX 49 34 50 35 59 37 75 38 52 39 41 40 42 41 46 42 43 43 45 44
REMARK SMILES IDX 44 45 63 46 64 47 68 48 65 49 67 50 66 51 53 52 54 53 58 54
REMARK SMILES IDX 55 55 57 56 56 57 8 58 9 59 10 60 11 61 12 62 13 63 30 64
REMARK SMILES IDX 27 65 29 66 31 67 28 68 14 69 15 70 16 71 17 73 18 74 22 75
REMARK SMILES IDX 19 76 21 77 20 78 23 79 24 80 25 81 26 82
REMARK H PARENT 73 25 51 36 16 72
REMARK Flexibility Score: inf
ROOT
ATOM      1  C   UNL A   1      33.823  29.261  26.859  1.00  0.00     0.202 C 
ENDROOT
BRANCH   1   2
ATOM      2  O   UNL A   1      33.246  30.463  27.379  1.00  0.00    -0.374 OA
BRANCH   2   3
ATOM      3  C   UNL A   1      32.111  31.046  26.727  1.00  0.00     0.202 C 
BRANCH   3   4
ATOM      4  C   UNL A   1      31.638  32.444  27.116  1.00  0.00     0.261 C 
BRANCH   4   5
ATOM      5  O   UNL A   1      32.687  33.421  27.272  1.00  0.00    -0.460 OA
BRANCH   5   6
ATOM      6  C   UNL A   1      33.094  33.848  28.501  1.00  0.00     0.338 C 
ATOM      7  O   UNL A   1      32.449  34.603  29.192  1.00  0.00    -0.246 OA
BRANCH   6   8
ATOM      8  C   UNL A   1      34.439  33.394  28.901  1.00  0.00     0.060 A 
ATOM      9  C   UNL A   1      35.524  33.892  28.201  1.00  0.00     0.016 A 
ATOM     10  C   UNL A   1      34.626  32.441  29.899  1.00  0.00     0.016 A 
ATOM     11  C   UNL A   1      36.742  33.240  28.301  1.00  0.00     0.010 A 
ATOM     12  C   UNL A   1      35.922  31.975  30.164  1.00  0.00     0.010 A 
ATOM     13  C   UNL A   1      37.006  32.365  29.356  1.00  0.00    -0.014 A 
BRANCH  13  14
ATOM     14  C   UNL A   1      38.415  31.965  29.645  1.00  0.00     0.031 A 
ATOM     15  C   UNL A   1      38.980  30.679  29.106  1.00  0.00     0.074 A 
ATOM     16  C   UNL A   1      39.184  32.742  30.445  1.00  0.00     0.049 A 
ATOM     17  N   UNL A   1      39.974  29.965  29.568  1.00  0.00    -0.248 NA
ATOM     18  C   UNL A   1      38.331  30.102  27.917  1.00  0.00     0.031 C 
ATOM     19  C   UNL A   1      38.813  34.053  30.997  1.00  0.00     0.029 A 
ATOM     20  N   UNL A   1      40.449  32.543  30.949  1.00  0.00    -0.354 N 
ATOM     21  C   UNL A   1      40.001  28.808  28.798  1.00  0.00     0.074 A 
ATOM     22  C   UNL A   1      38.957  28.936  27.804  1.00  0.00     0.031 C 
ATOM     23  C   UNL A   1      39.837  34.571  31.676  1.00  0.00     0.029 A 
ATOM     24  C   UNL A   1      40.850  33.544  31.805  1.00  0.00     0.049 A 
ATOM     25  H   UNL A   1      41.008  31.767  30.720  1.00  0.00     0.167 HD
ATOM     26  C   UNL A   1      40.804  27.728  28.952  1.00  0.00     0.031 A 
ATOM     27  C   UNL A   1      41.837  33.598  32.717  1.00  0.00     0.031 A 
ATOM     28  C   UNL A   1      41.870  27.664  29.919  1.00  0.00     0.049 A 
ATOM     29  C   UNL A   1      42.667  32.375  32.916  1.00  0.00     0.074 A 
ATOM     30  C   UNL A   1      42.755  26.629  30.169  1.00  0.00     0.029 A 
ATOM     31  N   UNL A   1      42.204  28.695  30.785  1.00  0.00    -0.354 N 
ATOM     32  N   UNL A   1      42.618  31.236  32.268  1.00  0.00    -0.248 NA
ATOM     33  C   UNL A   1      43.650  32.420  34.002  1.00  0.00     0.031 C 
ATOM     34  C   UNL A   1      43.595  27.021  31.217  1.00  0.00     0.029 A 
ATOM     35  C   UNL A   1      43.263  28.314  31.589  1.00  0.00     0.049 A 
ATOM     36  H   UNL A   1      41.753  29.570  30.823  1.00  0.00     0.167 HD
ATOM     37  C   UNL A   1      43.557  30.421  32.876  1.00  0.00     0.074 A 
ATOM     38  C   UNL A   1      44.184  31.210  33.919  1.00  0.00     0.031 C 
ATOM     39  C   UNL A   1      43.860  29.128  32.613  1.00  0.00     0.031 A 
BRANCH  26  40
ATOM     40  C   UNL A   1      40.512  26.503  28.130  1.00  0.00    -0.014 A 
ATOM     41  C   UNL A   1      39.571  25.542  28.522  1.00  0.00     0.009 A 
ATOM     42  C   UNL A   1      41.172  26.339  26.899  1.00  0.00     0.009 A 
ATOM     43  C   UNL A   1      39.316  24.430  27.710  1.00  0.00     0.001 A 
ATOM     44  C   UNL A   1      40.902  25.241  26.081  1.00  0.00     0.001 A 
ATOM     45  C   UNL A   1      39.979  24.282  26.491  1.00  0.00     0.000 A 
ENDBRANCH  26  40
BRANCH  27  46
ATOM     46  C   UNL A   1      41.956  34.781  33.614  1.00  0.00    -0.014 A 
ATOM     47  C   UNL A   1      42.788  35.856  33.276  1.00  0.00     0.009 A 
ATOM     48  C   UNL A   1      41.202  34.857  34.800  1.00  0.00     0.009 A 
ATOM     49  C   UNL A   1      42.866  36.976  34.108  1.00  0.00     0.001 A 
ATOM     50  C   UNL A   1      41.249  35.994  35.606  1.00  0.00     0.001 A 
ATOM     51  C   UNL A   1      42.089  37.050  35.264  1.00  0.00     0.000 A 
ENDBRANCH  27  46
BRANCH  39  52
ATOM     52  C   UNL A   1      44.933  28.517  33.457  1.00  0.00    -0.014 A 
ATOM     53  C   UNL A   1      44.613  27.832  34.638  1.00  0.00     0.009 A 
ATOM     54  C   UNL A   1      46.273  28.618  33.056  1.00  0.00     0.009 A 
ATOM     55  C   UNL A   1      45.626  27.276  35.419  1.00  0.00     0.001 A 
ATOM     56  C   UNL A   1      47.280  28.041  33.828  1.00  0.00     0.001 A 
ATOM     57  C   UNL A   1      46.956  27.377  35.011  1.00  0.00     0.000 A 
ENDBRANCH  39  52
ENDBRANCH  13  14
ENDBRANCH   6   8
ENDBRANCH   5   6
ENDBRANCH   4   5
ENDBRANCH   3   4
ENDBRANCH   2   3
ENDBRANCH   1   2
BRANCH   1  58
ATOM     58  C   UNL A   1      32.897  28.019  27.050  1.00  0.00     0.261 C 
BRANCH  58  59
ATOM     59  O   UNL A   1      33.215  26.899  26.153  1.00  0.00    -0.463 OA
BRANCH  59  60
ATOM     60  C   UNL A   1      32.522  25.723  26.354  1.00  0.00     0.310 C 
ATOM     61  O   UNL A   1      31.445  25.687  26.942  1.00  0.00    -0.252 OA
BRANCH  60  62
ATOM     62  C   UNL A   1      33.311  24.453  25.929  1.00  0.00     0.119 C 
ATOM     63  C   UNL A   1      33.629  23.711  24.540  1.00  0.00     0.100 C 
ATOM     64  C   UNL A   1      32.751  23.250  26.764  1.00  0.00     0.027 C 
ATOM     65  C   UNL A   1      33.221  22.237  24.837  1.00  0.00     0.025 C 
ATOM     66  C   UNL A   1      31.441  22.801  26.155  1.00  0.00    -0.027 C 
ATOM     67  C   UNL A   1      33.640  22.096  26.293  1.00  0.00     0.017 C 
ATOM     68  C   UNL A   1      31.725  22.188  24.999  1.00  0.00    -0.027 C 
BRANCH  63  69
ATOM     69  C   UNL A   1      33.423  23.820  23.002  1.00  0.00     0.229 C 
ATOM     70  O   UNL A   1      34.266  23.278  22.270  1.00  0.00    -0.274 OA
ATOM     71  N   UNL A   1      32.350  24.341  22.363  1.00  0.00    -0.323 N 
ATOM     72  H   UNL A   1      32.163  23.969  21.471  1.00  0.00     0.170 HD
BRANCH  71  73
ATOM     73  C   UNL A   1      31.480  25.328  22.794  1.00  0.00     0.084 A 
ATOM     74  C   UNL A   1      30.213  24.944  23.255  1.00  0.00     0.030 A 
ATOM     75  C   UNL A   1      31.842  26.656  22.792  1.00  0.00     0.149 A 
ATOM     76  C   UNL A   1      29.408  25.853  23.944  1.00  0.00     0.002 A 
ATOM     77  C   UNL A   1      31.046  27.551  23.526  1.00  0.00     0.049 A 
ATOM     78  C   UNL A   1      29.857  27.150  24.134  1.00  0.00     0.004 A 
BRANCH  75  79
ATOM     79  O   UNL A   1      32.909  27.195  22.150  1.00  0.00    -0.433 OA
BRANCH  79  80
ATOM     80  C   UNL A   1      33.720  28.312  22.519  1.00  0.00     0.542 C 
ATOM     81  F   UNL A   1      34.356  28.084  23.687  1.00  0.00    -0.167 F 
ATOM     82  F   UNL A   1      34.693  28.455  21.575  1.00  0.00    -0.167 F 
ENDBRANCH  79  80
ENDBRANCH  75  79
ENDBRANCH  71  73
ENDBRANCH  63  69
ENDBRANCH  60  62
ENDBRANCH  59  60
ENDBRANCH  58  59
ENDBRANCH   1  58
TORSDOF 18
ENDMDL
