MODEL 1
REMARK VINA RESULT:      -9.4      0.000      0.000
REMARK SMILES CC[C@@H](C)SCc1cc(F)cc(/C=C/C(=O)OCCOCCOC(=O)c2ccc(-c3c4nc(c(-c5ccccc5)c5ccc([nH]5)c(-c5ccccc5)c5nc(c(-c6ccccc6)c6ccc3[nH]6)C=C5)C=C4)cc2)c1
REMARK SMILES IDX 18 1 17 2 15 3 16 4 14 5 13 6 12 7 7 8 8 9 74 10 9 11 10 12
REMARK SMILES IDX 11 13 6 14 5 15 3 16 4 17 2 18 1 19 19 20 20 21 21 22 22 23
REMARK SMILES IDX 23 24 24 25 25 26 26 27 27 28 73 29 28 30 72 31 29 32 30 33
REMARK SMILES IDX 31 34 66 35 32 36 71 37 65 38 67 39 33 40 70 41 64 42 63 43
REMARK SMILES IDX 34 45 56 46 41 47 55 48 42 49 45 50 54 51 68 52 43 53 44 54
REMARK SMILES IDX 53 56 69 57 46 58 35 59 36 60 40 61 37 62 39 63 38 64 57 65
REMARK SMILES IDX 58 66 62 67 59 68 61 69 60 70 47 71 48 72 52 73 49 74 51 75
REMARK SMILES IDX 50 76
REMARK H PARENT 67 44 45 55
REMARK Flexibility Score: inf
ROOT
ATOM      1  C   UNL A   1      40.073  22.367  26.867  1.00  0.00     0.261 C 
ENDROOT
BRANCH   1   2
ATOM      2  O   UNL A   1      38.923  22.068  26.058  1.00  0.00    -0.460 OA
BRANCH   2   3
ATOM      3  C   UNL A   1      37.960  23.016  26.087  1.00  0.00     0.330 C 
ATOM      4  O   UNL A   1      38.099  24.185  26.414  1.00  0.00    -0.247 OA
BRANCH   3   5
ATOM      5  C   UNL A   1      36.651  22.525  25.617  1.00  0.00     0.094 C 
ATOM      6  C   UNL A   1      36.313  21.300  25.178  1.00  0.00     0.016 C 
BRANCH   6   7
ATOM      7  C   UNL A   1      34.929  21.012  24.749  1.00  0.00    -0.022 A 
ATOM      8  C   UNL A   1      32.870  21.696  23.604  1.00  0.00    -0.035 A 
ATOM      9  C   UNL A   1      32.421  20.373  23.669  1.00  0.00     0.043 A 
ATOM     10  C   UNL A   1      34.139  22.005  24.140  1.00  0.00     0.013 A 
ATOM     11  C   UNL A   1      33.148  19.423  24.363  1.00  0.00     0.124 A 
ATOM     12  F   UNL A   1      32.658  18.184  24.494  1.00  0.00    -0.207 F 
ATOM     13  C   UNL A   1      34.375  19.736  24.923  1.00  0.00     0.047 A 
BRANCH   8  14
ATOM     14  C   UNL A   1      32.006  22.750  22.960  1.00  0.00     0.105 C 
BRANCH  14  15
ATOM     15  S   UNL A   1      31.166  23.868  24.132  1.00  0.00    -0.154 SA
BRANCH  15  16
ATOM     16  C   UNL A   1      31.536  23.176  25.811  1.00  0.00     0.043 C 
ATOM     17  C   UNL A   1      30.258  22.736  26.524  1.00  0.00     0.019 C 
BRANCH  16  18
ATOM     18  C   UNL A   1      32.501  24.031  26.649  1.00  0.00     0.011 C 
ATOM     19  C   UNL A   1      32.934  25.326  25.970  1.00  0.00     0.005 C 
ENDBRANCH  16  18
ENDBRANCH  15  16
ENDBRANCH  14  15
ENDBRANCH   8  14
ENDBRANCH   6   7
ENDBRANCH   3   5
ENDBRANCH   2   3
ENDBRANCH   1   2
BRANCH   1  20
ATOM     20  C   UNL A   1      41.365  21.919  26.185  1.00  0.00     0.202 C 
BRANCH  20  21
ATOM     21  O   UNL A   1      42.120  20.922  26.870  1.00  0.00    -0.374 OA
BRANCH  21  22
ATOM     22  C   UNL A   1      41.860  19.559  26.525  1.00  0.00     0.202 C 
BRANCH  22  23
ATOM     23  C   UNL A   1      42.964  18.845  25.733  1.00  0.00     0.261 C 
BRANCH  23  24
ATOM     24  O   UNL A   1      43.342  19.581  24.555  1.00  0.00    -0.460 OA
BRANCH  24  25
ATOM     25  C   UNL A   1      44.675  19.746  24.386  1.00  0.00     0.338 C 
ATOM     26  O   UNL A   1      45.464  18.952  23.889  1.00  0.00    -0.246 OA
BRANCH  25  27
ATOM     27  C   UNL A   1      45.058  21.129  24.723  1.00  0.00     0.060 A 
ATOM     28  C   UNL A   1      45.507  21.377  26.028  1.00  0.00     0.016 A 
ATOM     29  C   UNL A   1      44.922  22.176  23.810  1.00  0.00     0.016 A 
ATOM     30  C   UNL A   1      45.768  22.682  26.441  1.00  0.00     0.010 A 
ATOM     31  C   UNL A   1      45.178  23.486  24.228  1.00  0.00     0.010 A 
ATOM     32  C   UNL A   1      45.565  23.748  25.556  1.00  0.00    -0.014 A 
BRANCH  32  33
ATOM     33  C   UNL A   1      45.612  25.140  26.064  1.00  0.00     0.031 A 
ATOM     34  C   UNL A   1      46.919  25.883  26.033  1.00  0.00     0.074 A 
ATOM     35  C   UNL A   1      44.502  25.746  26.519  1.00  0.00     0.049 A 
ATOM     36  N   UNL A   1      47.193  27.096  26.442  1.00  0.00    -0.248 NA
ATOM     37  C   UNL A   1      48.070  25.164  25.465  1.00  0.00     0.031 C 
ATOM     38  C   UNL A   1      43.167  25.152  26.561  1.00  0.00     0.029 A 
ATOM     39  N   UNL A   1      44.327  27.005  27.037  1.00  0.00    -0.354 N 
ATOM     40  C   UNL A   1      48.546  27.281  26.189  1.00  0.00     0.074 A 
ATOM     41  C   UNL A   1      49.044  26.049  25.618  1.00  0.00     0.031 C 
ATOM     42  C   UNL A   1      42.310  26.045  27.084  1.00  0.00     0.029 A 
ATOM     43  C   UNL A   1      43.040  27.260  27.440  1.00  0.00     0.049 A 
ATOM     44  H   UNL A   1      45.056  27.663  27.113  1.00  0.00     0.167 HD
ATOM     45  C   UNL A   1      49.308  28.380  26.408  1.00  0.00     0.031 A 
ATOM     46  C   UNL A   1      42.515  28.343  28.044  1.00  0.00     0.031 A 
ATOM     47  C   UNL A   1      48.819  29.603  26.984  1.00  0.00     0.049 A 
ATOM     48  C   UNL A   1      43.397  29.526  28.344  1.00  0.00     0.074 A 
ATOM     49  C   UNL A   1      49.509  30.777  27.231  1.00  0.00     0.029 A 
ATOM     50  N   UNL A   1      47.516  29.807  27.413  1.00  0.00    -0.354 N 
ATOM     51  N   UNL A   1      44.670  29.697  28.076  1.00  0.00    -0.248 NA
ATOM     52  C   UNL A   1      42.767  30.667  29.022  1.00  0.00     0.031 C 
ATOM     53  C   UNL A   1      48.637  31.674  27.857  1.00  0.00     0.029 A 
ATOM     54  C   UNL A   1      47.389  31.078  27.946  1.00  0.00     0.049 A 
ATOM     55  H   UNL A   1      46.790  29.145  27.347  1.00  0.00     0.167 HD
ATOM     56  C   UNL A   1      44.982  30.975  28.525  1.00  0.00     0.074 A 
ATOM     57  C   UNL A   1      43.765  31.538  29.071  1.00  0.00     0.031 C 
ATOM     58  C   UNL A   1      46.171  31.625  28.483  1.00  0.00     0.031 A 
BRANCH  45  59
ATOM     59  C   UNL A   1      50.764  28.295  26.049  1.00  0.00    -0.014 A 
ATOM     60  C   UNL A   1      51.230  28.694  24.785  1.00  0.00     0.009 A 
ATOM     61  C   UNL A   1      51.689  27.838  27.000  1.00  0.00     0.009 A 
ATOM     62  C   UNL A   1      52.588  28.608  24.474  1.00  0.00     0.001 A 
ATOM     63  C   UNL A   1      53.050  27.778  26.695  1.00  0.00     0.001 A 
ATOM     64  C   UNL A   1      53.497  28.156  25.430  1.00  0.00     0.000 A 
ENDBRANCH  45  59
BRANCH  46  65
ATOM     65  C   UNL A   1      41.079  28.359  28.428  1.00  0.00    -0.014 A 
ATOM     66  C   UNL A   1      40.649  27.762  29.623  1.00  0.00     0.009 A 
ATOM     67  C   UNL A   1      40.126  28.953  27.585  1.00  0.00     0.009 A 
ATOM     68  C   UNL A   1      39.292  27.739  29.954  1.00  0.00     0.001 A 
ATOM     69  C   UNL A   1      38.773  28.954  27.932  1.00  0.00     0.001 A 
ATOM     70  C   UNL A   1      38.357  28.338  29.111  1.00  0.00     0.000 A 
ENDBRANCH  46  65
BRANCH  58  71
ATOM     71  C   UNL A   1      46.205  33.035  29.005  1.00  0.00    -0.014 A 
ATOM     72  C   UNL A   1      45.884  34.127  28.184  1.00  0.00     0.009 A 
ATOM     73  C   UNL A   1      46.520  33.267  30.353  1.00  0.00     0.009 A 
ATOM     74  C   UNL A   1      45.910  35.426  28.696  1.00  0.00     0.001 A 
ATOM     75  C   UNL A   1      46.517  34.564  30.869  1.00  0.00     0.001 A 
ATOM     76  C   UNL A   1      46.222  35.642  30.038  1.00  0.00     0.000 A 
ENDBRANCH  58  71
ENDBRANCH  32  33
ENDBRANCH  25  27
ENDBRANCH  24  25
ENDBRANCH  23  24
ENDBRANCH  22  23
ENDBRANCH  21  22
ENDBRANCH  20  21
ENDBRANCH   1  20
TORSDOF 19
ENDMDL
MODEL 2
REMARK VINA RESULT:      -9.2      7.266     12.287
REMARK SMILES CC[C@@H](C)SCc1cc(F)cc(/C=C/C(=O)OCCOCCOC(=O)c2ccc(-c3c4nc(c(-c5ccccc5)c5ccc([nH]5)c(-c5ccccc5)c5nc(c(-c6ccccc6)c6ccc3[nH]6)C=C5)C=C4)cc2)c1
REMARK SMILES IDX 18 1 17 2 15 3 16 4 14 5 13 6 12 7 7 8 8 9 74 10 9 11 10 12
REMARK SMILES IDX 11 13 6 14 5 15 3 16 4 17 2 18 1 19 19 20 20 21 21 22 22 23
REMARK SMILES IDX 23 24 24 25 25 26 26 27 27 28 73 29 28 30 72 31 29 32 30 33
REMARK SMILES IDX 31 34 66 35 32 36 71 37 65 38 67 39 33 40 70 41 64 42 63 43
REMARK SMILES IDX 34 45 56 46 41 47 55 48 42 49 45 50 54 51 68 52 43 53 44 54
REMARK SMILES IDX 53 56 69 57 46 58 35 59 36 60 40 61 37 62 39 63 38 64 57 65
REMARK SMILES IDX 58 66 62 67 59 68 61 69 60 70 47 71 48 72 52 73 49 74 51 75
REMARK SMILES IDX 50 76
REMARK H PARENT 67 44 45 55
REMARK Flexibility Score: inf
ROOT
ATOM      1  C   UNL A   1      34.550  32.953  28.092  1.00  0.00     0.261 C 
ENDROOT
BRANCH   1   2
ATOM      2  O   UNL A   1      34.726  31.655  28.682  1.00  0.00    -0.460 OA
BRANCH   2   3
ATOM      3  C   UNL A   1      35.244  30.729  27.846  1.00  0.00     0.330 C 
ATOM      4  O   UNL A   1      36.424  30.578  27.565  1.00  0.00    -0.247 OA
BRANCH   3   5
ATOM      5  C   UNL A   1      34.226  29.815  27.294  1.00  0.00     0.094 C 
ATOM      6  C   UNL A   1      34.368  28.842  26.377  1.00  0.00     0.016 C 
BRANCH   6   7
ATOM      7  C   UNL A   1      33.206  28.031  25.957  1.00  0.00    -0.022 A 
ATOM      8  C   UNL A   1      31.218  27.729  24.553  1.00  0.00    -0.035 A 
ATOM      9  C   UNL A   1      31.179  26.385  24.935  1.00  0.00     0.043 A 
ATOM     10  C   UNL A   1      32.249  28.547  25.064  1.00  0.00     0.013 A 
ATOM     11  C   UNL A   1      32.053  25.907  25.895  1.00  0.00     0.124 A 
ATOM     12  F   UNL A   1      31.942  24.641  26.316  1.00  0.00    -0.207 F 
ATOM     13  C   UNL A   1      33.041  26.720  26.426  1.00  0.00     0.047 A 
BRANCH   8  14
ATOM     14  C   UNL A   1      30.176  28.269  23.606  1.00  0.00     0.105 C 
BRANCH  14  15
ATOM     15  S   UNL A   1      29.936  30.076  23.687  1.00  0.00    -0.154 SA
BRANCH  15  16
ATOM     16  C   UNL A   1      28.397  30.404  22.708  1.00  0.00     0.043 C 
ATOM     17  C   UNL A   1      27.369  29.289  22.899  1.00  0.00     0.019 C 
BRANCH  16  18
ATOM     18  C   UNL A   1      28.651  30.828  21.251  1.00  0.00     0.011 C 
ATOM     19  C   UNL A   1      28.043  32.177  20.881  1.00  0.00     0.005 C 
ENDBRANCH  16  18
ENDBRANCH  15  16
ENDBRANCH  14  15
ENDBRANCH   8  14
ENDBRANCH   6   7
ENDBRANCH   3   5
ENDBRANCH   2   3
ENDBRANCH   1   2
BRANCH   1  20
ATOM     20  C   UNL A   1      33.076  33.239  27.804  1.00  0.00     0.202 C 
BRANCH  20  21
ATOM     21  O   UNL A   1      32.567  34.469  28.316  1.00  0.00    -0.374 OA
BRANCH  21  22
ATOM     22  C   UNL A   1      33.412  35.203  29.204  1.00  0.00     0.202 C 
BRANCH  22  23
ATOM     23  C   UNL A   1      32.789  36.449  29.847  1.00  0.00     0.261 C 
BRANCH  23  24
ATOM     24  O   UNL A   1      33.247  36.642  31.199  1.00  0.00    -0.460 OA
BRANCH  24  25
ATOM     25  C   UNL A   1      32.839  35.700  32.081  1.00  0.00     0.338 C 
ATOM     26  O   UNL A   1      31.691  35.339  32.305  1.00  0.00    -0.246 OA
BRANCH  25  27
ATOM     27  C   UNL A   1      34.008  34.997  32.644  1.00  0.00     0.060 A 
ATOM     28  C   UNL A   1      35.262  35.608  32.500  1.00  0.00     0.016 A 
ATOM     29  C   UNL A   1      33.896  33.739  33.239  1.00  0.00     0.016 A 
ATOM     30  C   UNL A   1      36.415  34.939  32.903  1.00  0.00     0.010 A 
ATOM     31  C   UNL A   1      35.056  33.065  33.635  1.00  0.00     0.010 A 
ATOM     32  C   UNL A   1      36.322  33.646  33.434  1.00  0.00    -0.014 A 
BRANCH  32  33
ATOM     33  C   UNL A   1      37.555  32.848  33.637  1.00  0.00     0.031 A 
ATOM     34  C   UNL A   1      38.360  33.056  34.890  1.00  0.00     0.074 A 
ATOM     35  C   UNL A   1      37.939  31.930  32.734  1.00  0.00     0.049 A 
ATOM     36  N   UNL A   1      39.477  32.484  35.264  1.00  0.00    -0.248 NA
ATOM     37  C   UNL A   1      37.836  34.040  35.852  1.00  0.00     0.031 C 
ATOM     38  C   UNL A   1      37.225  31.601  31.502  1.00  0.00     0.029 A 
ATOM     39  N   UNL A   1      39.035  31.103  32.719  1.00  0.00    -0.354 N 
ATOM     40  C   UNL A   1      39.792  33.044  36.495  1.00  0.00     0.074 A 
ATOM     41  C   UNL A   1      38.767  34.019  36.794  1.00  0.00     0.031 C 
ATOM     42  C   UNL A   1      37.905  30.646  30.846  1.00  0.00     0.029 A 
ATOM     43  C   UNL A   1      39.116  30.318  31.596  1.00  0.00     0.049 A 
ATOM     44  H   UNL A   1      39.700  31.076  33.445  1.00  0.00     0.167 HD
ATOM     45  C   UNL A   1      40.840  32.767  37.309  1.00  0.00     0.031 A 
ATOM     46  C   UNL A   1      40.068  29.448  31.209  1.00  0.00     0.031 A 
ATOM     47  C   UNL A   1      41.867  31.806  37.010  1.00  0.00     0.049 A 
ATOM     48  C   UNL A   1      41.261  29.211  32.096  1.00  0.00     0.074 A 
ATOM     49  C   UNL A   1      42.959  31.445  37.779  1.00  0.00     0.029 A 
ATOM     50  N   UNL A   1      41.931  31.059  35.845  1.00  0.00    -0.354 N 
ATOM     51  N   UNL A   1      41.534  29.728  33.271  1.00  0.00    -0.248 NA
ATOM     52  C   UNL A   1      42.273  28.263  31.607  1.00  0.00     0.031 C 
ATOM     53  C   UNL A   1      43.714  30.516  37.055  1.00  0.00     0.029 A 
ATOM     54  C   UNL A   1      43.059  30.257  35.862  1.00  0.00     0.049 A 
ATOM     55  H   UNL A   1      41.272  31.093  35.115  1.00  0.00     0.167 HD
ATOM     56  C   UNL A   1      42.731  29.145  33.672  1.00  0.00     0.074 A 
ATOM     57  C   UNL A   1      43.125  28.229  32.623  1.00  0.00     0.031 C 
ATOM     58  C   UNL A   1      43.437  29.348  34.811  1.00  0.00     0.031 A 
BRANCH  45  59
ATOM     59  C   UNL A   1      40.943  33.544  38.591  1.00  0.00    -0.014 A 
ATOM     60  C   UNL A   1      41.730  34.704  38.681  1.00  0.00     0.009 A 
ATOM     61  C   UNL A   1      40.215  33.127  39.716  1.00  0.00     0.009 A 
ATOM     62  C   UNL A   1      41.809  35.411  39.883  1.00  0.00     0.001 A 
ATOM     63  C   UNL A   1      40.276  33.852  40.908  1.00  0.00     0.001 A 
ATOM     64  C   UNL A   1      41.079  34.989  40.992  1.00  0.00     0.000 A 
ENDBRANCH  45  59
BRANCH  46  65
ATOM     65  C   UNL A   1      39.947  28.742  29.906  1.00  0.00    -0.014 A 
ATOM     66  C   UNL A   1      39.323  27.487  29.826  1.00  0.00     0.009 A 
ATOM     67  C   UNL A   1      40.478  29.312  28.739  1.00  0.00     0.009 A 
ATOM     68  C   UNL A   1      39.255  26.808  28.607  1.00  0.00     0.001 A 
ATOM     69  C   UNL A   1      40.384  28.644  27.516  1.00  0.00     0.001 A 
ATOM     70  C   UNL A   1      39.781  27.388  27.454  1.00  0.00     0.000 A 
ENDBRANCH  46  65
BRANCH  58  71
ATOM     71  C   UNL A   1      44.687  28.535  35.002  1.00  0.00    -0.014 A 
ATOM     72  C   UNL A   1      45.940  29.012  34.589  1.00  0.00     0.009 A 
ATOM     73  C   UNL A   1      44.611  27.290  35.649  1.00  0.00     0.009 A 
ATOM     74  C   UNL A   1      47.089  28.243  34.790  1.00  0.00     0.001 A 
ATOM     75  C   UNL A   1      45.765  26.537  35.874  1.00  0.00     0.001 A 
ATOM     76  C   UNL A   1      47.000  27.010  35.436  1.00  0.00     0.000 A 
ENDBRANCH  58  71
ENDBRANCH  32  33
ENDBRANCH  25  27
ENDBRANCH  24  25
ENDBRANCH  23  24
ENDBRANCH  22  23
ENDBRANCH  21  22
ENDBRANCH  20  21
ENDBRANCH   1  20
TORSDOF 19
ENDMDL
MODEL 3
REMARK VINA RESULT:      -9.1      4.718      7.105
REMARK SMILES CC[C@@H](C)SCc1cc(F)cc(/C=C/C(=O)OCCOCCOC(=O)c2ccc(-c3c4nc(c(-c5ccccc5)c5ccc([nH]5)c(-c5ccccc5)c5nc(c(-c6ccccc6)c6ccc3[nH]6)C=C5)C=C4)cc2)c1
REMARK SMILES IDX 18 1 17 2 15 3 16 4 14 5 13 6 12 7 7 8 8 9 74 10 9 11 10 12
REMARK SMILES IDX 11 13 6 14 5 15 3 16 4 17 2 18 1 19 19 20 20 21 21 22 22 23
REMARK SMILES IDX 23 24 24 25 25 26 26 27 27 28 73 29 28 30 72 31 29 32 30 33
REMARK SMILES IDX 31 34 66 35 32 36 71 37 65 38 67 39 33 40 70 41 64 42 63 43
REMARK SMILES IDX 34 45 56 46 41 47 55 48 42 49 45 50 54 51 68 52 43 53 44 54
REMARK SMILES IDX 53 56 69 57 46 58 35 59 36 60 40 61 37 62 39 63 38 64 57 65
REMARK SMILES IDX 58 66 62 67 59 68 61 69 60 70 47 71 48 72 52 73 49 74 51 75
REMARK SMILES IDX 50 76
REMARK H PARENT 67 44 45 55
REMARK Flexibility Score: inf
ROOT
ATOM      1  C   UNL A   1      40.870  22.364  26.303  1.00  0.00     0.261 C 
ENDROOT
BRANCH   1   2
ATOM      2  O   UNL A   1      39.481  22.310  26.669  1.00  0.00    -0.460 OA
BRANCH   2   3
ATOM      3  C   UNL A   1      38.795  23.447  26.422  1.00  0.00     0.330 C 
ATOM      4  O   UNL A   1      39.150  24.585  26.693  1.00  0.00    -0.247 OA
BRANCH   3   5
ATOM      5  C   UNL A   1      37.526  23.214  25.709  1.00  0.00     0.094 C 
ATOM      6  C   UNL A   1      36.946  22.050  25.369  1.00  0.00     0.016 C 
BRANCH   6   7
ATOM      7  C   UNL A   1      35.656  22.036  24.648  1.00  0.00    -0.022 A 
ATOM      8  C   UNL A   1      33.488  20.986  24.185  1.00  0.00    -0.035 A 
ATOM      9  C   UNL A   1      33.090  22.151  23.522  1.00  0.00     0.043 A 
ATOM     10  C   UNL A   1      34.778  20.942  24.758  1.00  0.00     0.013 A 
ATOM     11  C   UNL A   1      33.991  23.182  23.320  1.00  0.00     0.124 A 
ATOM     12  F   UNL A   1      33.621  24.250  22.604  1.00  0.00    -0.207 F 
ATOM     13  C   UNL A   1      35.270  23.122  23.849  1.00  0.00     0.047 A 
BRANCH   8  14
ATOM     14  C   UNL A   1      32.540  19.818  24.282  1.00  0.00     0.105 C 
BRANCH  14  15
ATOM     15  S   UNL A   1      33.034  18.532  25.478  1.00  0.00    -0.154 SA
BRANCH  15  16
ATOM     16  C   UNL A   1      33.840  17.209  24.460  1.00  0.00     0.043 C 
ATOM     17  C   UNL A   1      33.526  17.383  22.974  1.00  0.00     0.019 C 
BRANCH  16  18
ATOM     18  C   UNL A   1      33.657  15.785  25.012  1.00  0.00     0.011 C 
ATOM     19  C   UNL A   1      32.416  15.610  25.882  1.00  0.00     0.005 C 
ENDBRANCH  16  18
ENDBRANCH  15  16
ENDBRANCH  14  15
ENDBRANCH   8  14
ENDBRANCH   6   7
ENDBRANCH   3   5
ENDBRANCH   2   3
ENDBRANCH   1   2
BRANCH   1  20
ATOM     20  C   UNL A   1      41.526  20.987  26.401  1.00  0.00     0.202 C 
BRANCH  20  21
ATOM     21  O   UNL A   1      42.688  20.791  25.598  1.00  0.00    -0.374 OA
BRANCH  21  22
ATOM     22  C   UNL A   1      43.260  21.949  24.987  1.00  0.00     0.202 C 
BRANCH  22  23
ATOM     23  C   UNL A   1      44.774  22.125  25.166  1.00  0.00     0.261 C 
BRANCH  23  24
ATOM     24  O   UNL A   1      45.085  23.121  26.160  1.00  0.00    -0.460 OA
BRANCH  24  25
ATOM     25  C   UNL A   1      45.063  24.399  25.716  1.00  0.00     0.338 C 
ATOM     26  O   UNL A   1      45.549  24.834  24.679  1.00  0.00    -0.246 OA
BRANCH  25  27
ATOM     27  C   UNL A   1      44.192  25.217  26.580  1.00  0.00     0.060 A 
ATOM     28  C   UNL A   1      44.419  26.601  26.604  1.00  0.00     0.016 A 
ATOM     29  C   UNL A   1      43.219  24.644  27.400  1.00  0.00     0.016 A 
ATOM     30  C   UNL A   1      43.710  27.410  27.489  1.00  0.00     0.010 A 
ATOM     31  C   UNL A   1      42.513  25.457  28.294  1.00  0.00     0.010 A 
ATOM     32  C   UNL A   1      42.783  26.837  28.368  1.00  0.00    -0.014 A 
BRANCH  32  33
ATOM     33  C   UNL A   1      42.210  27.656  29.463  1.00  0.00     0.031 A 
ATOM     34  C   UNL A   1      42.896  27.666  30.801  1.00  0.00     0.074 A 
ATOM     35  C   UNL A   1      41.112  28.404  29.264  1.00  0.00     0.049 A 
ATOM     36  N   UNL A   1      42.562  28.292  31.901  1.00  0.00    -0.248 NA
ATOM     37  C   UNL A   1      44.125  26.864  30.915  1.00  0.00     0.031 C 
ATOM     38  C   UNL A   1      40.379  28.516  28.004  1.00  0.00     0.029 A 
ATOM     39  N   UNL A   1      40.420  29.215  30.129  1.00  0.00    -0.354 N 
ATOM     40  C   UNL A   1      43.530  27.953  32.837  1.00  0.00     0.074 A 
ATOM     41  C   UNL A   1      44.450  27.046  32.187  1.00  0.00     0.031 C 
ATOM     42  C   UNL A   1      39.334  29.343  28.180  1.00  0.00     0.029 A 
ATOM     43  C   UNL A   1      39.308  29.794  29.570  1.00  0.00     0.049 A 
ATOM     44  H   UNL A   1      40.694  29.365  31.063  1.00  0.00     0.167 HD
ATOM     45  C   UNL A   1      43.648  28.364  34.122  1.00  0.00     0.031 A 
ATOM     46  C   UNL A   1      38.367  30.583  30.122  1.00  0.00     0.031 A 
ATOM     47  C   UNL A   1      42.731  29.258  34.775  1.00  0.00     0.049 A 
ATOM     48  C   UNL A   1      38.479  30.968  31.573  1.00  0.00     0.074 A 
ATOM     49  C   UNL A   1      42.775  29.745  36.070  1.00  0.00     0.029 A 
ATOM     50  N   UNL A   1      41.597  29.793  34.184  1.00  0.00    -0.354 N 
ATOM     51  N   UNL A   1      39.415  30.661  32.440  1.00  0.00    -0.248 NA
ATOM     52  C   UNL A   1      37.409  31.815  32.119  1.00  0.00     0.031 C 
ATOM     53  C   UNL A   1      41.639  30.534  36.279  1.00  0.00     0.029 A 
ATOM     54  C   UNL A   1      40.919  30.584  35.095  1.00  0.00     0.049 A 
ATOM     55  H   UNL A   1      41.317  29.634  33.254  1.00  0.00     0.167 HD
ATOM     56  C   UNL A   1      39.062  31.302  33.622  1.00  0.00     0.074 A 
ATOM     57  C   UNL A   1      37.834  32.023  33.358  1.00  0.00     0.031 C 
ATOM     58  C   UNL A   1      39.700  31.298  34.817  1.00  0.00     0.031 A 
BRANCH  45  59
ATOM     59  C   UNL A   1      44.801  27.820  34.919  1.00  0.00    -0.014 A 
ATOM     60  C   UNL A   1      46.033  28.491  34.974  1.00  0.00     0.009 A 
ATOM     61  C   UNL A   1      44.640  26.634  35.651  1.00  0.00     0.009 A 
ATOM     62  C   UNL A   1      47.089  27.968  35.722  1.00  0.00     0.001 A 
ATOM     63  C   UNL A   1      45.690  26.128  36.420  1.00  0.00     0.001 A 
ATOM     64  C   UNL A   1      46.915  26.791  36.448  1.00  0.00     0.000 A 
ENDBRANCH  45  59
BRANCH  46  65
ATOM     65  C   UNL A   1      37.217  31.054  29.306  1.00  0.00    -0.014 A 
ATOM     66  C   UNL A   1      36.174  30.179  28.964  1.00  0.00     0.009 A 
ATOM     67  C   UNL A   1      37.170  32.379  28.845  1.00  0.00     0.009 A 
ATOM     68  C   UNL A   1      35.121  30.615  28.157  1.00  0.00     0.001 A 
ATOM     69  C   UNL A   1      36.101  32.820  28.062  1.00  0.00     0.001 A 
ATOM     70  C   UNL A   1      35.083  31.935  27.710  1.00  0.00     0.000 A 
ENDBRANCH  46  65
BRANCH  58  71
ATOM     71  C   UNL A   1      39.107  32.130  35.920  1.00  0.00    -0.014 A 
ATOM     72  C   UNL A   1      39.362  33.507  36.016  1.00  0.00     0.009 A 
ATOM     73  C   UNL A   1      38.242  31.532  36.850  1.00  0.00     0.009 A 
ATOM     74  C   UNL A   1      38.789  34.261  37.042  1.00  0.00     0.001 A 
ATOM     75  C   UNL A   1      37.647  32.293  37.857  1.00  0.00     0.001 A 
ATOM     76  C   UNL A   1      37.929  33.654  37.957  1.00  0.00     0.000 A 
ENDBRANCH  58  71
ENDBRANCH  32  33
ENDBRANCH  25  27
ENDBRANCH  24  25
ENDBRANCH  23  24
ENDBRANCH  22  23
ENDBRANCH  21  22
ENDBRANCH  20  21
ENDBRANCH   1  20
TORSDOF 19
ENDMDL
