MODEL 1
REMARK VINA RESULT:     -12.4      0.000      0.000
REMARK SMILES Cc1c(C(=O)OCCOCCOC(=O)c2ccc(-c3c4nc(c(-c5ccccc5)c5ccc([nH]5)c(-c5ccccc5)c5nc(c(-c6ccccc6)c6ccc3[nH]6)C=C5)C=C4)cc2)cccc1-n1c(C)cc(/C=C2/C(=O)NC(=S)N=C2O)c1C
REMARK SMILES IDX 8 1 7 2 6 3 4 4 5 5 3 6 1 7 2 8 66 9 63 10 65 11 64 12 67 13
REMARK SMILES IDX 68 14 82 15 69 16 70 17 71 18 83 19 72 20 73 21 74 22 80 23
REMARK SMILES IDX 75 24 76 25 79 26 77 27 78 29 81 30 9 32 10 33 11 34 12 35
REMARK SMILES IDX 13 36 14 37 15 38 16 39 62 40 17 41 61 42 18 43 19 44 20 45
REMARK SMILES IDX 55 46 21 47 60 48 54 49 56 50 22 51 59 52 53 53 52 54 23 56
REMARK SMILES IDX 45 57 30 58 44 59 31 60 34 61 43 62 57 63 32 64 33 65 42 67
REMARK SMILES IDX 58 68 35 69 24 70 25 71 29 72 26 73 28 74 27 75 46 76 47 77
REMARK SMILES IDX 51 78 48 79 50 80 49 81 36 82 37 83 41 84 38 85 40 86 39 87
REMARK H PARENT 76 28 81 31 56 55 34 66
REMARK Flexibility Score: inf
ROOT
ATOM      1  C   UNL A   1      40.802  19.982  26.570  1.00  0.00     0.202 C 
ENDROOT
BRANCH   1   2
ATOM      2  C   UNL A   1      40.342  21.324  26.112  1.00  0.00     0.261 C 
BRANCH   2   3
ATOM      3  O   UNL A   1      38.924  21.384  25.926  1.00  0.00    -0.460 OA
BRANCH   3   4
ATOM      4  C   UNL A   1      38.213  22.502  25.674  1.00  0.00     0.338 C 
ATOM      5  O   UNL A   1      38.602  23.639  25.612  1.00  0.00    -0.246 OA
BRANCH   4   6
ATOM      6  C   UNL A   1      36.809  22.036  25.438  1.00  0.00     0.065 A 
ATOM      7  C   UNL A   1      35.725  24.227  26.303  1.00  0.00     0.047 C 
ATOM      8  C   UNL A   1      35.667  22.840  25.682  1.00  0.00    -0.012 A 
ATOM      9  C   UNL A   1      34.417  22.259  25.435  1.00  0.00     0.049 A 
ATOM     10  C   UNL A   1      36.660  20.689  25.048  1.00  0.00     0.016 A 
ATOM     11  C   UNL A   1      34.261  20.912  25.088  1.00  0.00     0.027 A 
ATOM     12  C   UNL A   1      35.391  20.125  24.899  1.00  0.00     0.003 A 
BRANCH   9  13
ATOM     13  N   UNL A   1      33.263  23.010  25.718  1.00  0.00    -0.318 N 
ATOM     14  C   UNL A   1      32.577  23.004  26.923  1.00  0.00     0.020 A 
ATOM     15  C   UNL A   1      32.405  23.468  24.722  1.00  0.00     0.027 A 
ATOM     16  C   UNL A   1      33.006  22.230  28.126  1.00  0.00     0.065 C 
ATOM     17  C   UNL A   1      31.467  23.804  26.741  1.00  0.00     0.031 A 
ATOM     18  C   UNL A   1      31.409  24.178  25.368  1.00  0.00    -0.003 A 
ATOM     19  C   UNL A   1      32.627  23.098  23.286  1.00  0.00     0.065 C 
BRANCH  18  20
ATOM     20  C   UNL A   1      30.363  24.972  24.816  1.00  0.00     0.029 C 
ATOM     21  C   UNL A   1      30.330  26.266  24.446  1.00  0.00     0.102 C 
ATOM     22  C   UNL A   1      29.053  26.731  23.850  1.00  0.00     0.262 C 
ATOM     23  C   UNL A   1      31.370  27.296  24.471  1.00  0.00     0.226 C 
ATOM     24  O   UNL A   1      27.988  26.133  23.942  1.00  0.00    -0.269 OA
ATOM     25  N   UNL A   1      29.167  27.898  23.143  1.00  0.00    -0.297 N 
ATOM     26  N   UNL A   1      31.380  28.391  23.803  1.00  0.00    -0.184 NA
ATOM     27  C   UNL A   1      30.291  28.677  23.025  1.00  0.00     0.203 C 
ATOM     28  H   UNL A   1      28.360  28.210  22.672  1.00  0.00     0.172 HD
ATOM     29  S   UNL A   1      30.228  29.981  21.976  1.00  0.00    -0.038 S 
BRANCH  23  30
ATOM     30  O   UNL A   1      32.380  27.119  25.322  1.00  0.00    -0.493 OA
ATOM     31  H   UNL A   1      32.209  26.856  26.205  1.00  0.00     0.295 HD
ENDBRANCH  23  30
ENDBRANCH  18  20
ENDBRANCH   9  13
ENDBRANCH   4   6
ENDBRANCH   3   4
ENDBRANCH   2   3
ENDBRANCH   1   2
BRANCH   1  32
ATOM     32  O   UNL A   1      41.560  19.465  25.495  1.00  0.00    -0.374 OA
BRANCH  32  33
ATOM     33  C   UNL A   1      42.669  18.679  25.862  1.00  0.00     0.202 C 
BRANCH  33  34
ATOM     34  C   UNL A   1      43.859  18.898  24.920  1.00  0.00     0.261 C 
BRANCH  34  35
ATOM     35  O   UNL A   1      44.926  19.559  25.642  1.00  0.00    -0.460 OA
BRANCH  35  36
ATOM     36  C   UNL A   1      45.457  20.680  25.073  1.00  0.00     0.338 C 
ATOM     37  O   UNL A   1      46.603  20.790  24.667  1.00  0.00    -0.246 OA
BRANCH  36  38
ATOM     38  C   UNL A   1      44.545  21.849  25.293  1.00  0.00     0.060 A 
ATOM     39  C   UNL A   1      44.461  22.880  24.332  1.00  0.00     0.016 A 
ATOM     40  C   UNL A   1      44.087  22.079  26.586  1.00  0.00     0.016 A 
ATOM     41  C   UNL A   1      44.074  24.182  24.712  1.00  0.00     0.010 A 
ATOM     42  C   UNL A   1      43.829  23.379  26.974  1.00  0.00     0.010 A 
ATOM     43  C   UNL A   1      43.842  24.449  26.061  1.00  0.00    -0.014 A 
BRANCH  43  44
ATOM     44  C   UNL A   1      43.749  25.774  26.693  1.00  0.00     0.031 A 
ATOM     45  C   UNL A   1      42.438  26.451  26.712  1.00  0.00     0.074 A 
ATOM     46  C   UNL A   1      44.711  26.251  27.524  1.00  0.00     0.049 A 
ATOM     47  N   UNL A   1      42.286  27.703  26.979  1.00  0.00    -0.248 NA
ATOM     48  C   UNL A   1      41.178  25.777  26.407  1.00  0.00     0.031 C 
ATOM     49  C   UNL A   1      44.545  27.143  28.676  1.00  0.00     0.029 A 
ATOM     50  N   UNL A   1      46.083  26.012  27.518  1.00  0.00    -0.354 N 
ATOM     51  C   UNL A   1      40.958  27.879  27.275  1.00  0.00     0.074 A 
ATOM     52  C   UNL A   1      40.291  26.701  26.774  1.00  0.00     0.031 C 
ATOM     53  C   UNL A   1      45.749  27.548  29.115  1.00  0.00     0.029 A 
ATOM     54  C   UNL A   1      46.740  27.062  28.174  1.00  0.00     0.049 A 
ATOM     55  H   UNL A   1      46.522  25.228  27.117  1.00  0.00     0.167 HD
ATOM     56  C   UNL A   1      40.581  28.902  28.087  1.00  0.00     0.031 A 
ATOM     57  C   UNL A   1      47.744  27.747  27.568  1.00  0.00     0.031 A 
ATOM     58  C   UNL A   1      41.736  29.659  28.595  1.00  0.00     0.049 A 
ATOM     59  C   UNL A   1      47.322  29.177  27.388  1.00  0.00     0.074 A 
ATOM     60  C   UNL A   1      42.334  29.758  29.842  1.00  0.00     0.029 A 
ATOM     61  N   UNL A   1      42.654  30.205  27.701  1.00  0.00    -0.354 N 
ATOM     62  N   UNL A   1      46.103  29.572  27.627  1.00  0.00    -0.248 NA
ATOM     63  C   UNL A   1      48.168  30.266  26.934  1.00  0.00     0.031 C 
ATOM     64  C   UNL A   1      43.590  30.415  29.689  1.00  0.00     0.029 A 
ATOM     65  C   UNL A   1      43.752  30.740  28.352  1.00  0.00     0.049 A 
ATOM     66  H   UNL A   1      42.537  30.210  26.723  1.00  0.00     0.167 HD
ATOM     67  C   UNL A   1      45.968  30.901  27.397  1.00  0.00     0.074 A 
ATOM     68  C   UNL A   1      47.290  31.289  26.922  1.00  0.00     0.031 C 
ATOM     69  C   UNL A   1      44.760  31.507  27.608  1.00  0.00     0.031 A 
BRANCH  56  70
ATOM     70  C   UNL A   1      39.176  29.012  28.642  1.00  0.00    -0.014 A 
ATOM     71  C   UNL A   1      38.154  29.586  27.871  1.00  0.00     0.009 A 
ATOM     72  C   UNL A   1      38.796  28.566  29.924  1.00  0.00     0.009 A 
ATOM     73  C   UNL A   1      36.862  29.786  28.378  1.00  0.00     0.001 A 
ATOM     74  C   UNL A   1      37.523  28.808  30.459  1.00  0.00     0.001 A 
ATOM     75  C   UNL A   1      36.554  29.425  29.683  1.00  0.00     0.000 A 
ENDBRANCH  56  70
BRANCH  57  76
ATOM     76  C   UNL A   1      48.542  26.873  26.650  1.00  0.00    -0.014 A 
ATOM     77  C   UNL A   1      48.491  27.175  25.268  1.00  0.00     0.009 A 
ATOM     78  C   UNL A   1      49.678  26.202  27.133  1.00  0.00     0.009 A 
ATOM     79  C   UNL A   1      49.600  26.956  24.438  1.00  0.00     0.001 A 
ATOM     80  C   UNL A   1      50.790  25.999  26.300  1.00  0.00     0.001 A 
ATOM     81  C   UNL A   1      50.765  26.410  24.967  1.00  0.00     0.000 A 
ENDBRANCH  57  76
BRANCH  69  82
ATOM     82  C   UNL A   1      44.376  32.881  27.121  1.00  0.00    -0.014 A 
ATOM     83  C   UNL A   1      44.244  33.247  25.781  1.00  0.00     0.009 A 
ATOM     84  C   UNL A   1      44.088  33.886  28.073  1.00  0.00     0.009 A 
ATOM     85  C   UNL A   1      43.739  34.502  25.415  1.00  0.00     0.001 A 
ATOM     86  C   UNL A   1      43.593  35.139  27.719  1.00  0.00     0.001 A 
ATOM     87  C   UNL A   1      43.394  35.438  26.383  1.00  0.00     0.000 A 
ENDBRANCH  69  82
ENDBRANCH  43  44
ENDBRANCH  36  38
ENDBRANCH  35  36
ENDBRANCH  34  35
ENDBRANCH  33  34
ENDBRANCH  32  33
ENDBRANCH   1  32
TORSDOF 17
ENDMDL
MODEL 2
REMARK VINA RESULT:     -11.6      1.657      2.816
REMARK SMILES Cc1c(C(=O)OCCOCCOC(=O)c2ccc(-c3c4nc(c(-c5ccccc5)c5ccc([nH]5)c(-c5ccccc5)c5nc(c(-c6ccccc6)c6ccc3[nH]6)C=C5)C=C4)cc2)cccc1-n1c(C)cc(/C=C2/C(=O)NC(=S)N=C2O)c1C
REMARK SMILES IDX 8 1 7 2 6 3 4 4 5 5 3 6 1 7 2 8 66 9 63 10 65 11 64 12 67 13
REMARK SMILES IDX 68 14 82 15 69 16 70 17 71 18 83 19 72 20 73 21 74 22 80 23
REMARK SMILES IDX 75 24 76 25 79 26 77 27 78 29 81 30 9 32 10 33 11 34 12 35
REMARK SMILES IDX 13 36 14 37 15 38 16 39 62 40 17 41 61 42 18 43 19 44 20 45
REMARK SMILES IDX 55 46 21 47 60 48 54 49 56 50 22 51 59 52 53 53 52 54 23 56
REMARK SMILES IDX 45 57 30 58 44 59 31 60 34 61 43 62 57 63 32 64 33 65 42 67
REMARK SMILES IDX 58 68 35 69 24 70 25 71 29 72 26 73 28 74 27 75 46 76 47 77
REMARK SMILES IDX 51 78 48 79 50 80 49 81 36 82 37 83 41 84 38 85 40 86 39 87
REMARK H PARENT 76 28 81 31 56 55 34 66
REMARK Flexibility Score: inf
ROOT
ATOM      1  C   UNL A   1      37.585  21.846  25.397  1.00  0.00     0.202 C 
ENDROOT
BRANCH   1   2
ATOM      2  C   UNL A   1      36.737  22.789  24.612  1.00  0.00     0.261 C 
BRANCH   2   3
ATOM      3  O   UNL A   1      35.971  23.663  25.447  1.00  0.00    -0.460 OA
BRANCH   3   4
ATOM      4  C   UNL A   1      34.966  23.286  26.264  1.00  0.00     0.338 C 
ATOM      5  O   UNL A   1      34.993  23.114  27.454  1.00  0.00    -0.246 OA
BRANCH   4   6
ATOM      6  C   UNL A   1      33.763  23.158  25.381  1.00  0.00     0.065 A 
ATOM      7  C   UNL A   1      33.600  25.701  24.901  1.00  0.00     0.047 C 
ATOM      8  C   UNL A   1      33.160  24.256  24.717  1.00  0.00    -0.012 A 
ATOM      9  C   UNL A   1      32.026  23.986  23.941  1.00  0.00     0.049 A 
ATOM     10  C   UNL A   1      33.174  21.878  25.314  1.00  0.00     0.016 A 
ATOM     11  C   UNL A   1      31.415  22.728  23.904  1.00  0.00     0.027 A 
ATOM     12  C   UNL A   1      31.992  21.672  24.600  1.00  0.00     0.003 A 
BRANCH   9  13
ATOM     13  N   UNL A   1      31.373  25.061  23.313  1.00  0.00    -0.318 N 
ATOM     14  C   UNL A   1      31.864  25.778  22.232  1.00  0.00     0.020 A 
ATOM     15  C   UNL A   1      30.417  25.836  23.961  1.00  0.00     0.027 A 
ATOM     16  C   UNL A   1      33.150  25.468  21.537  1.00  0.00     0.065 C 
ATOM     17  C   UNL A   1      30.957  26.791  21.995  1.00  0.00     0.031 A 
ATOM     18  C   UNL A   1      29.984  26.769  23.036  1.00  0.00    -0.003 A 
ATOM     19  C   UNL A   1      30.099  25.614  25.409  1.00  0.00     0.065 C 
BRANCH  18  20
ATOM     20  C   UNL A   1      28.918  27.708  23.130  1.00  0.00     0.029 C 
ATOM     21  C   UNL A   1      28.916  29.026  23.408  1.00  0.00     0.102 C 
ATOM     22  C   UNL A   1      27.590  29.690  23.361  1.00  0.00     0.262 C 
ATOM     23  C   UNL A   1      30.018  29.946  23.691  1.00  0.00     0.226 C 
ATOM     24  O   UNL A   1      26.518  29.098  23.381  1.00  0.00    -0.269 OA
ATOM     25  N   UNL A   1      27.659  31.053  23.258  1.00  0.00    -0.297 N 
ATOM     26  N   UNL A   1      29.987  31.226  23.610  1.00  0.00    -0.184 NA
ATOM     27  C   UNL A   1      28.797  31.819  23.285  1.00  0.00     0.203 C 
ATOM     28  H   UNL A   1      26.805  31.532  23.155  1.00  0.00     0.172 HD
ATOM     29  S   UNL A   1      28.640  33.459  22.985  1.00  0.00    -0.038 S 
BRANCH  23  30
ATOM     30  O   UNL A   1      31.153  29.415  24.144  1.00  0.00    -0.493 OA
ATOM     31  H   UNL A   1      31.977  29.789  23.900  1.00  0.00     0.295 HD
ENDBRANCH  23  30
ENDBRANCH  18  20
ENDBRANCH   9  13
ENDBRANCH   4   6
ENDBRANCH   3   4
ENDBRANCH   2   3
ENDBRANCH   1   2
BRANCH   1  32
ATOM     32  O   UNL A   1      38.430  22.669  26.174  1.00  0.00    -0.374 OA
BRANCH  32  33
ATOM     33  C   UNL A   1      39.650  22.084  26.564  1.00  0.00     0.202 C 
BRANCH  33  34
ATOM     34  C   UNL A   1      39.767  20.635  26.077  1.00  0.00     0.261 C 
BRANCH  34  35
ATOM     35  O   UNL A   1      40.962  20.036  26.636  1.00  0.00    -0.460 OA
BRANCH  35  36
ATOM     36  C   UNL A   1      42.133  20.255  25.970  1.00  0.00     0.338 C 
ATOM     37  O   UNL A   1      42.618  19.513  25.131  1.00  0.00    -0.246 OA
BRANCH  36  38
ATOM     38  C   UNL A   1      42.897  21.366  26.628  1.00  0.00     0.060 A 
ATOM     39  C   UNL A   1      42.812  21.562  28.024  1.00  0.00     0.016 A 
ATOM     40  C   UNL A   1      43.369  22.394  25.819  1.00  0.00     0.016 A 
ATOM     41  C   UNL A   1      43.044  22.835  28.583  1.00  0.00     0.010 A 
ATOM     42  C   UNL A   1      43.473  23.662  26.357  1.00  0.00     0.010 A 
ATOM     43  C   UNL A   1      43.290  23.910  27.730  1.00  0.00    -0.014 A 
BRANCH  43  44
ATOM     44  C   UNL A   1      43.236  25.339  28.076  1.00  0.00     0.031 A 
ATOM     45  C   UNL A   1      41.984  26.076  27.817  1.00  0.00     0.074 A 
ATOM     46  C   UNL A   1      44.146  25.922  28.897  1.00  0.00     0.049 A 
ATOM     47  N   UNL A   1      41.901  27.363  27.815  1.00  0.00    -0.248 NA
ATOM     48  C   UNL A   1      40.712  25.423  27.513  1.00  0.00     0.031 C 
ATOM     49  C   UNL A   1      43.936  27.037  29.827  1.00  0.00     0.029 A 
ATOM     50  N   UNL A   1      45.490  25.613  29.090  1.00  0.00    -0.354 N 
ATOM     51  C   UNL A   1      40.568  27.667  27.922  1.00  0.00     0.074 A 
ATOM     52  C   UNL A   1      39.866  26.450  27.592  1.00  0.00     0.031 C 
ATOM     53  C   UNL A   1      45.119  27.457  30.308  1.00  0.00     0.029 A 
ATOM     54  C   UNL A   1      46.157  26.736  29.595  1.00  0.00     0.049 A 
ATOM     55  H   UNL A   1      45.906  24.740  28.901  1.00  0.00     0.167 HD
ATOM     56  C   UNL A   1      40.192  28.853  28.472  1.00  0.00     0.031 A 
ATOM     57  C   UNL A   1      47.264  27.229  28.981  1.00  0.00     0.031 A 
ATOM     58  C   UNL A   1      41.346  29.633  28.945  1.00  0.00     0.049 A 
ATOM     59  C   UNL A   1      46.971  28.613  28.478  1.00  0.00     0.074 A 
ATOM     60  C   UNL A   1      41.826  29.950  30.207  1.00  0.00     0.029 A 
ATOM     61  N   UNL A   1      42.385  29.935  28.068  1.00  0.00    -0.354 N 
ATOM     62  N   UNL A   1      45.767  29.115  28.500  1.00  0.00    -0.248 NA
ATOM     63  C   UNL A   1      47.936  29.540  27.915  1.00  0.00     0.031 C 
ATOM     64  C   UNL A   1      43.137  30.493  30.067  1.00  0.00     0.029 A 
ATOM     65  C   UNL A   1      43.452  30.531  28.718  1.00  0.00     0.049 A 
ATOM     66  H   UNL A   1      42.364  29.748  27.101  1.00  0.00     0.167 HD
ATOM     67  C   UNL A   1      45.756  30.374  28.000  1.00  0.00     0.074 A 
ATOM     68  C   UNL A   1      47.143  30.585  27.607  1.00  0.00     0.031 C 
ATOM     69  C   UNL A   1      44.582  31.075  27.954  1.00  0.00     0.031 A 
BRANCH  56  70
ATOM     70  C   UNL A   1      38.753  29.149  28.836  1.00  0.00    -0.014 A 
ATOM     71  C   UNL A   1      37.885  29.714  27.890  1.00  0.00     0.009 A 
ATOM     72  C   UNL A   1      38.189  28.893  30.103  1.00  0.00     0.009 A 
ATOM     73  C   UNL A   1      36.571  30.085  28.211  1.00  0.00     0.001 A 
ATOM     74  C   UNL A   1      36.896  29.307  30.449  1.00  0.00     0.001 A 
ATOM     75  C   UNL A   1      36.086  29.908  29.499  1.00  0.00     0.000 A 
ENDBRANCH  56  70
BRANCH  57  76
ATOM     76  C   UNL A   1      48.079  26.145  28.345  1.00  0.00    -0.014 A 
ATOM     77  C   UNL A   1      48.156  26.141  26.932  1.00  0.00     0.009 A 
ATOM     78  C   UNL A   1      49.132  25.548  29.061  1.00  0.00     0.009 A 
ATOM     79  C   UNL A   1      49.313  25.702  26.272  1.00  0.00     0.001 A 
ATOM     80  C   UNL A   1      50.293  25.124  28.394  1.00  0.00     0.001 A 
ATOM     81  C   UNL A   1      50.398  25.237  27.007  1.00  0.00     0.000 A 
ENDBRANCH  57  76
BRANCH  69  82
ATOM     82  C   UNL A   1      44.351  32.340  27.167  1.00  0.00    -0.014 A 
ATOM     83  C   UNL A   1      44.590  32.488  25.800  1.00  0.00     0.009 A 
ATOM     84  C   UNL A   1      43.822  33.470  27.833  1.00  0.00     0.009 A 
ATOM     85  C   UNL A   1      44.209  33.649  25.116  1.00  0.00     0.001 A 
ATOM     86  C   UNL A   1      43.447  34.632  27.162  1.00  0.00     0.001 A 
ATOM     87  C   UNL A   1      43.619  34.711  25.793  1.00  0.00     0.000 A 
ENDBRANCH  69  82
ENDBRANCH  43  44
ENDBRANCH  36  38
ENDBRANCH  35  36
ENDBRANCH  34  35
ENDBRANCH  33  34
ENDBRANCH  32  33
ENDBRANCH   1  32
TORSDOF 17
ENDMDL
MODEL 3
REMARK VINA RESULT:     -11.5      4.929     10.466
REMARK SMILES Cc1c(C(=O)OCCOCCOC(=O)c2ccc(-c3c4nc(c(-c5ccccc5)c5ccc([nH]5)c(-c5ccccc5)c5nc(c(-c6ccccc6)c6ccc3[nH]6)C=C5)C=C4)cc2)cccc1-n1c(C)cc(/C=C2/C(=O)NC(=S)N=C2O)c1C
REMARK SMILES IDX 8 1 7 2 6 3 4 4 5 5 3 6 1 7 2 8 66 9 63 10 65 11 64 12 67 13
REMARK SMILES IDX 68 14 82 15 69 16 70 17 71 18 83 19 72 20 73 21 74 22 80 23
REMARK SMILES IDX 75 24 76 25 79 26 77 27 78 29 81 30 9 32 10 33 11 34 12 35
REMARK SMILES IDX 13 36 14 37 15 38 16 39 62 40 17 41 61 42 18 43 19 44 20 45
REMARK SMILES IDX 55 46 21 47 60 48 54 49 56 50 22 51 59 52 53 53 52 54 23 56
REMARK SMILES IDX 45 57 30 58 44 59 31 60 34 61 43 62 57 63 32 64 33 65 42 67
REMARK SMILES IDX 58 68 35 69 24 70 25 71 29 72 26 73 28 74 27 75 46 76 47 77
REMARK SMILES IDX 51 78 48 79 50 80 49 81 36 82 37 83 41 84 38 85 40 86 39 87
REMARK H PARENT 76 28 81 31 56 55 34 66
REMARK Flexibility Score: inf
ROOT
ATOM      1  C   UNL A   1      32.706  30.893  27.442  1.00  0.00     0.202 C 
ENDROOT
BRANCH   1   2
ATOM      2  C   UNL A   1      32.294  30.513  26.060  1.00  0.00     0.261 C 
BRANCH   2   3
ATOM      3  O   UNL A   1      33.268  29.696  25.403  1.00  0.00    -0.460 OA
BRANCH   3   4
ATOM      4  C   UNL A   1      33.038  28.911  24.330  1.00  0.00     0.338 C 
ATOM      5  O   UNL A   1      33.222  29.160  23.168  1.00  0.00    -0.246 OA
BRANCH   4   6
ATOM      6  C   UNL A   1      32.532  27.616  24.887  1.00  0.00     0.065 A 
ATOM      7  C   UNL A   1      33.731  26.157  23.111  1.00  0.00     0.047 C 
ATOM      8  C   UNL A   1      32.884  26.348  24.359  1.00  0.00    -0.012 A 
ATOM      9  C   UNL A   1      32.315  25.224  24.971  1.00  0.00     0.049 A 
ATOM     10  C   UNL A   1      31.583  27.715  25.925  1.00  0.00     0.016 A 
ATOM     11  C   UNL A   1      31.342  25.318  25.972  1.00  0.00     0.027 A 
ATOM     12  C   UNL A   1      30.973  26.572  26.446  1.00  0.00     0.003 A 
BRANCH   9  13
ATOM     13  N   UNL A   1      32.600  23.956  24.438  1.00  0.00    -0.318 N 
ATOM     14  C   UNL A   1      31.813  23.275  23.520  1.00  0.00     0.020 A 
ATOM     15  C   UNL A   1      33.415  23.036  25.090  1.00  0.00     0.027 A 
ATOM     16  C   UNL A   1      30.563  23.828  22.918  1.00  0.00     0.065 C 
ATOM     17  C   UNL A   1      32.409  22.043  23.338  1.00  0.00     0.031 A 
ATOM     18  C   UNL A   1      33.484  21.928  24.265  1.00  0.00    -0.003 A 
ATOM     19  C   UNL A   1      33.962  23.326  26.455  1.00  0.00     0.065 C 
BRANCH  18  20
ATOM     20  C   UNL A   1      34.293  20.762  24.384  1.00  0.00     0.029 C 
ATOM     21  C   UNL A   1      34.027  19.543  24.890  1.00  0.00     0.102 C 
ATOM     22  C   UNL A   1      35.125  18.550  24.787  1.00  0.00     0.262 C 
ATOM     23  C   UNL A   1      32.802  18.997  25.477  1.00  0.00     0.226 C 
ATOM     24  O   UNL A   1      36.295  18.834  24.559  1.00  0.00    -0.269 OA
ATOM     25  N   UNL A   1      34.714  17.254  24.940  1.00  0.00    -0.297 N 
ATOM     26  N   UNL A   1      32.510  17.756  25.622  1.00  0.00    -0.184 NA
ATOM     27  C   UNL A   1      33.447  16.829  25.254  1.00  0.00     0.203 C 
ATOM     28  H   UNL A   1      35.396  16.556  24.812  1.00  0.00     0.172 HD
ATOM     29  S   UNL A   1      33.151  15.181  25.234  1.00  0.00    -0.038 S 
BRANCH  23  30
ATOM     30  O   UNL A   1      31.925  19.868  25.974  1.00  0.00    -0.493 OA
ATOM     31  H   UNL A   1      31.870  20.733  25.618  1.00  0.00     0.295 HD
ENDBRANCH  23  30
ENDBRANCH  18  20
ENDBRANCH   9  13
ENDBRANCH   4   6
ENDBRANCH   3   4
ENDBRANCH   2   3
ENDBRANCH   1   2
BRANCH   1  32
ATOM     32  O   UNL A   1      34.117  30.938  27.408  1.00  0.00    -0.374 OA
BRANCH  32  33
ATOM     33  C   UNL A   1      34.692  32.165  27.791  1.00  0.00     0.202 C 
BRANCH  33  34
ATOM     34  C   UNL A   1      33.633  33.261  27.962  1.00  0.00     0.261 C 
BRANCH  34  35
ATOM     35  O   UNL A   1      34.209  34.377  28.682  1.00  0.00    -0.460 OA
BRANCH  35  36
ATOM     36  C   UNL A   1      34.142  34.337  30.044  1.00  0.00     0.338 C 
ATOM     37  O   UNL A   1      33.169  34.646  30.713  1.00  0.00    -0.246 OA
BRANCH  36  38
ATOM     38  C   UNL A   1      35.515  34.159  30.620  1.00  0.00     0.060 A 
ATOM     39  C   UNL A   1      36.658  34.466  29.850  1.00  0.00     0.016 A 
ATOM     40  C   UNL A   1      35.645  33.356  31.748  1.00  0.00     0.016 A 
ATOM     41  C   UNL A   1      37.891  33.837  30.118  1.00  0.00     0.010 A 
ATOM     42  C   UNL A   1      36.820  32.653  31.927  1.00  0.00     0.010 A 
ATOM     43  C   UNL A   1      37.946  32.857  31.108  1.00  0.00    -0.014 A 
BRANCH  43  44
ATOM     44  C   UNL A   1      39.023  31.877  31.319  1.00  0.00     0.031 A 
ATOM     45  C   UNL A   1      38.979  30.614  30.557  1.00  0.00     0.074 A 
ATOM     46  C   UNL A   1      40.195  32.204  31.921  1.00  0.00     0.049 A 
ATOM     47  N   UNL A   1      39.692  29.580  30.849  1.00  0.00    -0.248 NA
ATOM     48  C   UNL A   1      38.106  30.397  29.405  1.00  0.00     0.031 C 
ATOM     49  C   UNL A   1      41.527  31.646  31.661  1.00  0.00     0.029 A 
ATOM     50  N   UNL A   1      40.448  33.150  32.910  1.00  0.00    -0.354 N 
ATOM     51  C   UNL A   1      39.677  28.772  29.741  1.00  0.00     0.074 A 
ATOM     52  C   UNL A   1      38.579  29.244  28.932  1.00  0.00     0.031 C 
ATOM     53  C   UNL A   1      42.391  32.078  32.596  1.00  0.00     0.029 A 
ATOM     54  C   UNL A   1      41.625  32.810  33.589  1.00  0.00     0.049 A 
ATOM     55  H   UNL A   1      39.887  33.937  33.102  1.00  0.00     0.167 HD
ATOM     56  C   UNL A   1      40.712  27.918  29.519  1.00  0.00     0.031 A 
ATOM     57  C   UNL A   1      41.642  32.678  34.941  1.00  0.00     0.031 A 
ATOM     58  C   UNL A   1      41.769  28.055  30.534  1.00  0.00     0.049 A 
ATOM     59  C   UNL A   1      41.968  31.255  35.290  1.00  0.00     0.074 A 
ATOM     60  C   UNL A   1      43.053  28.578  30.505  1.00  0.00     0.029 A 
ATOM     61  N   UNL A   1      41.454  27.925  31.885  1.00  0.00    -0.354 N 
ATOM     62  N   UNL A   1      42.023  30.317  34.385  1.00  0.00    -0.248 NA
ATOM     63  C   UNL A   1      42.243  30.743  36.620  1.00  0.00     0.031 C 
ATOM     64  C   UNL A   1      43.518  28.706  31.846  1.00  0.00     0.029 A 
ATOM     65  C   UNL A   1      42.529  28.241  32.697  1.00  0.00     0.049 A 
ATOM     66  H   UNL A   1      40.572  27.643  32.222  1.00  0.00     0.167 HD
ATOM     67  C   UNL A   1      42.339  29.122  34.941  1.00  0.00     0.074 A 
ATOM     68  C   UNL A   1      42.429  29.433  36.362  1.00  0.00     0.031 C 
ATOM     69  C   UNL A   1      42.460  28.015  34.147  1.00  0.00     0.031 A 
BRANCH  56  70
ATOM     70  C   UNL A   1      40.876  27.178  28.209  1.00  0.00    -0.014 A 
ATOM     71  C   UNL A   1      41.535  27.788  27.130  1.00  0.00     0.009 A 
ATOM     72  C   UNL A   1      40.400  25.873  27.972  1.00  0.00     0.009 A 
ATOM     73  C   UNL A   1      41.633  27.174  25.873  1.00  0.00     0.001 A 
ATOM     74  C   UNL A   1      40.446  25.272  26.707  1.00  0.00     0.001 A 
ATOM     75  C   UNL A   1      41.061  25.928  25.653  1.00  0.00     0.000 A 
ENDBRANCH  56  70
BRANCH  57  76
ATOM     76  C   UNL A   1      40.687  33.620  35.605  1.00  0.00    -0.014 A 
ATOM     77  C   UNL A   1      39.537  33.054  36.205  1.00  0.00     0.009 A 
ATOM     78  C   UNL A   1      41.148  34.851  36.104  1.00  0.00     0.009 A 
ATOM     79  C   UNL A   1      38.970  33.617  37.358  1.00  0.00     0.001 A 
ATOM     80  C   UNL A   1      40.585  35.401  37.267  1.00  0.00     0.001 A 
ATOM     81  C   UNL A   1      39.525  34.766  37.914  1.00  0.00     0.000 A 
ENDBRANCH  57  76
BRANCH  69  82
ATOM     82  C   UNL A   1      42.504  26.590  34.637  1.00  0.00    -0.014 A 
ATOM     83  C   UNL A   1      41.554  26.000  35.472  1.00  0.00     0.009 A 
ATOM     84  C   UNL A   1      43.560  25.753  34.206  1.00  0.00     0.009 A 
ATOM     85  C   UNL A   1      41.589  24.630  35.760  1.00  0.00     0.001 A 
ATOM     86  C   UNL A   1      43.607  24.392  34.493  1.00  0.00     0.001 A 
ATOM     87  C   UNL A   1      42.602  23.824  35.254  1.00  0.00     0.000 A 
ENDBRANCH  69  82
ENDBRANCH  43  44
ENDBRANCH  36  38
ENDBRANCH  35  36
ENDBRANCH  34  35
ENDBRANCH  33  34
ENDBRANCH  32  33
ENDBRANCH   1  32
TORSDOF 17
ENDMDL
