MODEL 1
REMARK VINA RESULT:      -9.9      0.000      0.000
REMARK SMILES CC[C@@H](C)S(=O)(=O)c1cc(C(=O)OCCOCCOC(=O)c2ccc(-c3c4nc(c(-c5ccccc5)c5ccc([nH]5)c(-c5ccccc5)c5nc(c(-c6ccccc6)c6ccc3[nH]6)C=C5)C=C4)cc2)c(C)cc1C
REMARK SMILES IDX 15 1 14 2 13 3 11 4 12 5 10 6 8 7 9 8 73 9 72 10 74 11 70 12
REMARK SMILES IDX 71 13 5 14 6 15 7 16 3 17 4 18 2 19 1 20 16 21 17 22 18 23
REMARK SMILES IDX 19 24 20 25 21 26 22 27 23 28 69 29 24 30 68 31 25 32 26 33
REMARK SMILES IDX 27 34 62 35 28 36 67 37 61 38 63 39 29 40 66 41 60 42 59 43
REMARK SMILES IDX 30 45 52 46 37 47 51 48 38 49 41 50 50 51 64 52 39 53 40 54
REMARK SMILES IDX 49 56 65 57 42 58 31 59 32 60 36 61 33 62 35 63 34 64 53 65
REMARK SMILES IDX 54 66 58 67 55 68 57 69 56 70 43 71 44 72 48 73 45 74 47 75
REMARK SMILES IDX 46 76
REMARK H PARENT 63 44 41 55
REMARK Flexibility Score: inf
ROOT
ATOM      1  C   UNL A   1      32.759  29.909  26.803  1.00  0.00     0.202 C 
ENDROOT
BRANCH   1   2
ATOM      2  C   UNL A   1      33.270  28.710  26.006  1.00  0.00     0.261 C 
BRANCH   2   3
ATOM      3  O   UNL A   1      32.153  27.990  25.456  1.00  0.00    -0.460 OA
BRANCH   3   4
ATOM      4  C   UNL A   1      31.638  27.039  26.260  1.00  0.00     0.338 C 
ATOM      5  O   UNL A   1      31.162  27.202  27.374  1.00  0.00    -0.246 OA
BRANCH   4   6
ATOM      6  C   UNL A   1      31.520  25.742  25.554  1.00  0.00     0.064 A 
ATOM      7  C   UNL A   1      32.613  23.573  25.290  1.00  0.00     0.071 A 
ATOM      8  C   UNL A   1      32.420  24.764  25.997  1.00  0.00     0.036 A 
ATOM      9  C   UNL A   1      31.885  23.341  24.114  1.00  0.00    -0.032 A 
ATOM     10  C   UNL A   1      30.880  24.272  23.765  1.00  0.00     0.009 A 
ATOM     11  C   UNL A   1      32.074  22.163  23.199  1.00  0.00     0.046 C 
ATOM     12  C   UNL A   1      30.665  25.465  24.484  1.00  0.00    -0.036 A 
ATOM     13  C   UNL A   1      29.584  26.396  24.015  1.00  0.00     0.045 C 
BRANCH   7  14
ATOM     14  S   UNL A   1      33.790  22.432  26.011  1.00  0.00     0.181 S 
ATOM     15  O   UNL A   1      33.164  21.130  26.141  1.00  0.00    -0.223 OA
ATOM     16  O   UNL A   1      34.295  23.091  27.203  1.00  0.00    -0.223 OA
BRANCH  14  17
ATOM     17  C   UNL A   1      35.137  22.280  24.812  1.00  0.00     0.110 C 
ATOM     18  C   UNL A   1      36.074  21.114  25.128  1.00  0.00     0.025 C 
BRANCH  17  19
ATOM     19  C   UNL A   1      35.882  23.612  24.635  1.00  0.00     0.016 C 
ATOM     20  C   UNL A   1      37.163  23.710  25.449  1.00  0.00     0.005 C 
ENDBRANCH  17  19
ENDBRANCH  14  17
ENDBRANCH   7  14
ENDBRANCH   4   6
ENDBRANCH   3   4
ENDBRANCH   2   3
ENDBRANCH   1   2
BRANCH   1  21
ATOM     21  O   UNL A   1      31.998  30.861  26.055  1.00  0.00    -0.374 OA
BRANCH  21  22
ATOM     22  C   UNL A   1      31.402  31.940  26.775  1.00  0.00     0.202 C 
BRANCH  22  23
ATOM     23  C   UNL A   1      32.230  33.227  26.870  1.00  0.00     0.261 C 
BRANCH  23  24
ATOM     24  O   UNL A   1      32.238  33.773  28.201  1.00  0.00    -0.460 OA
BRANCH  24  25
ATOM     25  C   UNL A   1      33.301  34.561  28.485  1.00  0.00     0.338 C 
ATOM     26  O   UNL A   1      33.305  35.776  28.641  1.00  0.00    -0.246 OA
BRANCH  25  27
ATOM     27  C   UNL A   1      34.486  33.732  28.762  1.00  0.00     0.060 A 
ATOM     28  C   UNL A   1      34.272  32.453  29.295  1.00  0.00     0.016 A 
ATOM     29  C   UNL A   1      35.784  34.215  28.579  1.00  0.00     0.016 A 
ATOM     30  C   UNL A   1      35.353  31.672  29.694  1.00  0.00     0.010 A 
ATOM     31  C   UNL A   1      36.869  33.431  28.988  1.00  0.00     0.010 A 
ATOM     32  C   UNL A   1      36.656  32.173  29.578  1.00  0.00    -0.014 A 
BRANCH  32  33
ATOM     33  C   UNL A   1      37.779  31.437  30.206  1.00  0.00     0.031 A 
ATOM     34  C   UNL A   1      38.114  31.706  31.648  1.00  0.00     0.074 A 
ATOM     35  C   UNL A   1      38.473  30.519  29.513  1.00  0.00     0.049 A 
ATOM     36  N   UNL A   1      39.057  31.183  32.390  1.00  0.00    -0.248 NA
ATOM     37  C   UNL A   1      37.275  32.693  32.343  1.00  0.00     0.031 C 
ATOM     38  C   UNL A   1      38.218  30.134  28.125  1.00  0.00     0.029 A 
ATOM     39  N   UNL A   1      39.539  29.741  29.890  1.00  0.00    -0.354 N 
ATOM     40  C   UNL A   1      38.931  31.784  33.636  1.00  0.00     0.074 A 
ATOM     41  C   UNL A   1      37.838  32.729  33.542  1.00  0.00     0.031 C 
ATOM     42  C   UNL A   1      39.107  29.191  27.766  1.00  0.00     0.029 A 
ATOM     43  C   UNL A   1      40.009  28.931  28.886  1.00  0.00     0.049 A 
ATOM     44  H   UNL A   1      39.930  29.763  30.793  1.00  0.00     0.167 HD
ATOM     45  C   UNL A   1      39.654  31.566  34.761  1.00  0.00     0.031 A 
ATOM     46  C   UNL A   1      41.058  28.087  28.869  1.00  0.00     0.031 A 
ATOM     47  C   UNL A   1      40.748  30.638  34.854  1.00  0.00     0.049 A 
ATOM     48  C   UNL A   1      41.897  27.920  30.107  1.00  0.00     0.074 A 
ATOM     49  C   UNL A   1      41.527  30.330  35.956  1.00  0.00     0.029 A 
ATOM     50  N   UNL A   1      41.224  29.872  33.801  1.00  0.00    -0.354 N 
ATOM     51  N   UNL A   1      41.749  28.472  31.287  1.00  0.00    -0.248 NA
ATOM     52  C   UNL A   1      43.046  27.008  30.009  1.00  0.00     0.031 C 
ATOM     53  C   UNL A   1      42.511  29.419  35.555  1.00  0.00     0.029 A 
ATOM     54  C   UNL A   1      42.307  29.117  34.218  1.00  0.00     0.049 A 
ATOM     55  H   UNL A   1      40.848  29.866  32.891  1.00  0.00     0.167 HD
ATOM     56  C   UNL A   1      42.766  27.955  32.079  1.00  0.00     0.074 A 
ATOM     57  C   UNL A   1      43.518  27.037  31.248  1.00  0.00     0.031 C 
ATOM     58  C   UNL A   1      43.050  28.212  33.379  1.00  0.00     0.031 A 
BRANCH  45  59
ATOM     59  C   UNL A   1      39.305  32.384  35.971  1.00  0.00    -0.014 A 
ATOM     60  C   UNL A   1      40.009  33.556  36.289  1.00  0.00     0.009 A 
ATOM     61  C   UNL A   1      38.239  31.986  36.793  1.00  0.00     0.009 A 
ATOM     62  C   UNL A   1      39.675  34.292  37.429  1.00  0.00     0.001 A 
ATOM     63  C   UNL A   1      37.891  32.738  37.918  1.00  0.00     0.001 A 
ATOM     64  C   UNL A   1      38.616  33.885  38.240  1.00  0.00     0.000 A 
ENDBRANCH  45  59
BRANCH  46  65
ATOM     65  C   UNL A   1      41.385  27.337  27.630  1.00  0.00    -0.014 A 
ATOM     66  C   UNL A   1      40.848  26.061  27.403  1.00  0.00     0.009 A 
ATOM     67  C   UNL A   1      42.247  27.891  26.670  1.00  0.00     0.009 A 
ATOM     68  C   UNL A   1      41.181  25.348  26.250  1.00  0.00     0.001 A 
ATOM     69  C   UNL A   1      42.559  27.187  25.507  1.00  0.00     0.001 A 
ATOM     70  C   UNL A   1      42.032  25.914  25.300  1.00  0.00     0.000 A 
ENDBRANCH  46  65
BRANCH  58  71
ATOM     71  C   UNL A   1      44.203  27.471  33.994  1.00  0.00    -0.014 A 
ATOM     72  C   UNL A   1      45.498  28.010  34.001  1.00  0.00     0.009 A 
ATOM     73  C   UNL A   1      43.980  26.230  34.612  1.00  0.00     0.009 A 
ATOM     74  C   UNL A   1      46.553  27.308  34.587  1.00  0.00     0.001 A 
ATOM     75  C   UNL A   1      45.031  25.542  35.222  1.00  0.00     0.001 A 
ATOM     76  C   UNL A   1      46.317  26.077  35.201  1.00  0.00     0.000 A 
ENDBRANCH  58  71
ENDBRANCH  32  33
ENDBRANCH  25  27
ENDBRANCH  24  25
ENDBRANCH  23  24
ENDBRANCH  22  23
ENDBRANCH  21  22
ENDBRANCH   1  21
TORSDOF 17
ENDMDL
MODEL 2
REMARK VINA RESULT:      -9.9      3.981      9.163
REMARK SMILES CC[C@@H](C)S(=O)(=O)c1cc(C(=O)OCCOCCOC(=O)c2ccc(-c3c4nc(c(-c5ccccc5)c5ccc([nH]5)c(-c5ccccc5)c5nc(c(-c6ccccc6)c6ccc3[nH]6)C=C5)C=C4)cc2)c(C)cc1C
REMARK SMILES IDX 15 1 14 2 13 3 11 4 12 5 10 6 8 7 9 8 73 9 72 10 74 11 70 12
REMARK SMILES IDX 71 13 5 14 6 15 7 16 3 17 4 18 2 19 1 20 16 21 17 22 18 23
REMARK SMILES IDX 19 24 20 25 21 26 22 27 23 28 69 29 24 30 68 31 25 32 26 33
REMARK SMILES IDX 27 34 62 35 28 36 67 37 61 38 63 39 29 40 66 41 60 42 59 43
REMARK SMILES IDX 30 45 52 46 37 47 51 48 38 49 41 50 50 51 64 52 39 53 40 54
REMARK SMILES IDX 49 56 65 57 42 58 31 59 32 60 36 61 33 62 35 63 34 64 53 65
REMARK SMILES IDX 54 66 58 67 55 68 57 69 56 70 43 71 44 72 48 73 45 74 47 75
REMARK SMILES IDX 46 76
REMARK H PARENT 63 44 41 55
REMARK Flexibility Score: inf
ROOT
ATOM      1  C   UNL A   1      36.253  21.290  25.725  1.00  0.00     0.202 C 
ENDROOT
BRANCH   1   2
ATOM      2  C   UNL A   1      34.949  21.604  24.993  1.00  0.00     0.261 C 
BRANCH   2   3
ATOM      3  O   UNL A   1      34.769  23.029  24.926  1.00  0.00    -0.460 OA
BRANCH   3   4
ATOM      4  C   UNL A   1      34.629  23.527  23.682  1.00  0.00     0.338 C 
ATOM      5  O   UNL A   1      35.398  23.378  22.744  1.00  0.00    -0.246 OA
BRANCH   4   6
ATOM      6  C   UNL A   1      33.293  24.139  23.493  1.00  0.00     0.064 A 
ATOM      7  C   UNL A   1      32.095  26.262  23.656  1.00  0.00     0.071 A 
ATOM      8  C   UNL A   1      33.288  25.538  23.569  1.00  0.00     0.036 A 
ATOM      9  C   UNL A   1      30.871  25.579  23.657  1.00  0.00    -0.032 A 
ATOM     10  C   UNL A   1      30.892  24.184  23.434  1.00  0.00     0.009 A 
ATOM     11  C   UNL A   1      29.525  26.219  23.857  1.00  0.00     0.046 C 
ATOM     12  C   UNL A   1      32.090  23.449  23.325  1.00  0.00    -0.036 A 
ATOM     13  C   UNL A   1      32.000  21.966  23.109  1.00  0.00     0.045 C 
BRANCH   7  14
ATOM     14  S   UNL A   1      32.279  28.042  23.729  1.00  0.00     0.181 S 
ATOM     15  O   UNL A   1      31.023  28.661  23.350  1.00  0.00    -0.223 OA
ATOM     16  O   UNL A   1      33.472  28.346  22.959  1.00  0.00    -0.223 OA
BRANCH  14  17
ATOM     17  C   UNL A   1      32.588  28.441  25.467  1.00  0.00     0.110 C 
ATOM     18  C   UNL A   1      34.079  28.548  25.788  1.00  0.00     0.025 C 
BRANCH  17  19
ATOM     19  C   UNL A   1      31.845  27.475  26.404  1.00  0.00     0.016 C 
ATOM     20  C   UNL A   1      31.434  28.102  27.728  1.00  0.00     0.005 C 
ENDBRANCH  17  19
ENDBRANCH  14  17
ENDBRANCH   7  14
ENDBRANCH   4   6
ENDBRANCH   3   4
ENDBRANCH   2   3
ENDBRANCH   1   2
BRANCH   1  21
ATOM     21  O   UNL A   1      37.438  21.790  25.102  1.00  0.00    -0.374 OA
BRANCH  21  22
ATOM     22  C   UNL A   1      38.688  21.486  25.724  1.00  0.00     0.202 C 
BRANCH  22  23
ATOM     23  C   UNL A   1      39.250  20.085  25.458  1.00  0.00     0.261 C 
BRANCH  23  24
ATOM     24  O   UNL A   1      40.218  19.689  26.447  1.00  0.00    -0.460 OA
BRANCH  24  25
ATOM     25  C   UNL A   1      41.509  19.820  26.061  1.00  0.00     0.338 C 
ATOM     26  O   UNL A   1      42.132  19.098  25.293  1.00  0.00    -0.246 OA
BRANCH  25  27
ATOM     27  C   UNL A   1      42.062  21.089  26.565  1.00  0.00     0.060 A 
ATOM     28  C   UNL A   1      41.938  21.349  27.937  1.00  0.00     0.016 A 
ATOM     29  C   UNL A   1      42.621  22.041  25.711  1.00  0.00     0.016 A 
ATOM     30  C   UNL A   1      42.329  22.582  28.452  1.00  0.00     0.010 A 
ATOM     31  C   UNL A   1      43.005  23.283  26.229  1.00  0.00     0.010 A 
ATOM     32  C   UNL A   1      42.828  23.570  27.594  1.00  0.00    -0.014 A 
BRANCH  32  33
ATOM     33  C   UNL A   1      43.029  24.947  28.105  1.00  0.00     0.031 A 
ATOM     34  C   UNL A   1      44.418  25.395  28.471  1.00  0.00     0.074 A 
ATOM     35  C   UNL A   1      41.996  25.799  28.213  1.00  0.00     0.049 A 
ATOM     36  N   UNL A   1      44.818  26.548  28.943  1.00  0.00    -0.248 NA
ATOM     37  C   UNL A   1      45.496  24.412  28.279  1.00  0.00     0.031 C 
ATOM     38  C   UNL A   1      40.612  25.502  27.848  1.00  0.00     0.029 A 
ATOM     39  N   UNL A   1      41.957  27.094  28.664  1.00  0.00    -0.354 N 
ATOM     40  C   UNL A   1      46.192  26.428  29.114  1.00  0.00     0.074 A 
ATOM     41  C   UNL A   1      46.551  25.082  28.720  1.00  0.00     0.031 C 
ATOM     42  C   UNL A   1      39.857  26.588  28.091  1.00  0.00     0.029 A 
ATOM     43  C   UNL A   1      40.698  27.640  28.657  1.00  0.00     0.049 A 
ATOM     44  H   UNL A   1      42.757  27.585  28.965  1.00  0.00     0.167 HD
ATOM     45  C   UNL A   1      47.077  27.354  29.553  1.00  0.00     0.031 A 
ATOM     46  C   UNL A   1      40.271  28.847  29.073  1.00  0.00     0.031 A 
ATOM     47  C   UNL A   1      46.722  28.688  29.957  1.00  0.00     0.049 A 
ATOM     48  C   UNL A   1      41.261  29.833  29.632  1.00  0.00     0.074 A 
ATOM     49  C   UNL A   1      47.550  29.706  30.394  1.00  0.00     0.029 A 
ATOM     50  N   UNL A   1      45.429  29.185  29.981  1.00  0.00    -0.354 N 
ATOM     51  N   UNL A   1      42.560  29.717  29.761  1.00  0.00    -0.248 NA
ATOM     52  C   UNL A   1      40.722  31.119  30.099  1.00  0.00     0.031 C 
ATOM     53  C   UNL A   1      46.751  30.803  30.737  1.00  0.00     0.029 A 
ATOM     54  C   UNL A   1      45.432  30.486  30.457  1.00  0.00     0.049 A 
ATOM     55  H   UNL A   1      44.626  28.688  29.701  1.00  0.00     0.167 HD
ATOM     56  C   UNL A   1      42.999  30.922  30.296  1.00  0.00     0.074 A 
ATOM     57  C   UNL A   1      41.827  31.759  30.458  1.00  0.00     0.031 C 
ATOM     58  C   UNL A   1      44.258  31.305  30.619  1.00  0.00     0.031 A 
BRANCH  45  59
ATOM     59  C   UNL A   1      48.516  26.935  29.657  1.00  0.00    -0.014 A 
ATOM     60  C   UNL A   1      49.413  27.132  28.595  1.00  0.00     0.009 A 
ATOM     61  C   UNL A   1      48.986  26.354  30.845  1.00  0.00     0.009 A 
ATOM     62  C   UNL A   1      50.743  26.720  28.709  1.00  0.00     0.001 A 
ATOM     63  C   UNL A   1      50.321  25.967  30.965  1.00  0.00     0.001 A 
ATOM     64  C   UNL A   1      51.196  26.141  29.894  1.00  0.00     0.000 A 
ENDBRANCH  45  59
BRANCH  46  65
ATOM     65  C   UNL A   1      38.829  29.193  28.989  1.00  0.00    -0.014 A 
ATOM     66  C   UNL A   1      38.286  29.717  27.806  1.00  0.00     0.009 A 
ATOM     67  C   UNL A   1      37.988  29.008  30.098  1.00  0.00     0.009 A 
ATOM     68  C   UNL A   1      36.936  30.066  27.742  1.00  0.00     0.001 A 
ATOM     69  C   UNL A   1      36.634  29.335  30.023  1.00  0.00     0.001 A 
ATOM     70  C   UNL A   1      36.110  29.870  28.848  1.00  0.00     0.000 A 
ENDBRANCH  46  65
BRANCH  58  71
ATOM     71  C   UNL A   1      44.441  32.697  31.153  1.00  0.00    -0.014 A 
ATOM     72  C   UNL A   1      44.642  33.788  30.293  1.00  0.00     0.009 A 
ATOM     73  C   UNL A   1      44.371  32.925  32.537  1.00  0.00     0.009 A 
ATOM     74  C   UNL A   1      44.799  35.075  30.811  1.00  0.00     0.001 A 
ATOM     75  C   UNL A   1      44.501  34.217  33.049  1.00  0.00     0.001 A 
ATOM     76  C   UNL A   1      44.723  35.289  32.188  1.00  0.00     0.000 A 
ENDBRANCH  58  71
ENDBRANCH  32  33
ENDBRANCH  25  27
ENDBRANCH  24  25
ENDBRANCH  23  24
ENDBRANCH  22  23
ENDBRANCH  21  22
ENDBRANCH   1  21
TORSDOF 17
ENDMDL
MODEL 3
REMARK VINA RESULT:      -9.8      4.566      8.711
REMARK SMILES CC[C@@H](C)S(=O)(=O)c1cc(C(=O)OCCOCCOC(=O)c2ccc(-c3c4nc(c(-c5ccccc5)c5ccc([nH]5)c(-c5ccccc5)c5nc(c(-c6ccccc6)c6ccc3[nH]6)C=C5)C=C4)cc2)c(C)cc1C
REMARK SMILES IDX 15 1 14 2 13 3 11 4 12 5 10 6 8 7 9 8 73 9 72 10 74 11 70 12
REMARK SMILES IDX 71 13 5 14 6 15 7 16 3 17 4 18 2 19 1 20 16 21 17 22 18 23
REMARK SMILES IDX 19 24 20 25 21 26 22 27 23 28 69 29 24 30 68 31 25 32 26 33
REMARK SMILES IDX 27 34 62 35 28 36 67 37 61 38 63 39 29 40 66 41 60 42 59 43
REMARK SMILES IDX 30 45 52 46 37 47 51 48 38 49 41 50 50 51 64 52 39 53 40 54
REMARK SMILES IDX 49 56 65 57 42 58 31 59 32 60 36 61 33 62 35 63 34 64 53 65
REMARK SMILES IDX 54 66 58 67 55 68 57 69 56 70 43 71 44 72 48 73 45 74 47 75
REMARK SMILES IDX 46 76
REMARK H PARENT 63 44 41 55
REMARK Flexibility Score: inf
ROOT
ATOM      1  C   UNL A   1      36.191  21.278  24.665  1.00  0.00     0.202 C 
ENDROOT
BRANCH   1   2
ATOM      2  C   UNL A   1      35.034  20.347  25.021  1.00  0.00     0.261 C 
BRANCH   2   3
ATOM      3  O   UNL A   1      33.929  20.597  24.136  1.00  0.00    -0.460 OA
BRANCH   3   4
ATOM      4  C   UNL A   1      32.819  21.076  24.732  1.00  0.00     0.338 C 
ATOM      5  O   UNL A   1      31.896  20.420  25.194  1.00  0.00    -0.246 OA
BRANCH   4   6
ATOM      6  C   UNL A   1      32.917  22.536  24.961  1.00  0.00     0.064 A 
ATOM      7  C   UNL A   1      33.188  24.666  23.795  1.00  0.00     0.071 A 
ATOM      8  C   UNL A   1      32.869  23.304  23.791  1.00  0.00     0.036 A 
ATOM      9  C   UNL A   1      33.553  25.286  24.998  1.00  0.00    -0.032 A 
ATOM     10  C   UNL A   1      33.454  24.530  26.188  1.00  0.00     0.009 A 
ATOM     11  C   UNL A   1      34.026  26.707  25.129  1.00  0.00     0.046 C 
ATOM     12  C   UNL A   1      33.114  23.162  26.194  1.00  0.00    -0.036 A 
ATOM     13  C   UNL A   1      33.057  22.447  27.514  1.00  0.00     0.045 C 
BRANCH   7  14
ATOM     14  S   UNL A   1      33.058  25.492  22.211  1.00  0.00     0.181 S 
ATOM     15  O   UNL A   1      32.962  24.491  21.166  1.00  0.00    -0.223 OA
ATOM     16  O   UNL A   1      34.154  26.443  22.174  1.00  0.00    -0.223 OA
BRANCH  14  17
ATOM     17  C   UNL A   1      31.494  26.402  22.250  1.00  0.00     0.110 C 
ATOM     18  C   UNL A   1      31.689  27.888  22.548  1.00  0.00     0.025 C 
BRANCH  17  19
ATOM     19  C   UNL A   1      30.480  25.733  23.190  1.00  0.00     0.016 C 
ATOM     20  C   UNL A   1      30.046  26.617  24.350  1.00  0.00     0.005 C 
ENDBRANCH  17  19
ENDBRANCH  14  17
ENDBRANCH   7  14
ENDBRANCH   4   6
ENDBRANCH   3   4
ENDBRANCH   2   3
ENDBRANCH   1   2
BRANCH   1  21
ATOM     21  O   UNL A   1      36.851  21.886  25.777  1.00  0.00    -0.374 OA
BRANCH  21  22
ATOM     22  C   UNL A   1      38.279  21.915  25.761  1.00  0.00     0.202 C 
BRANCH  22  23
ATOM     23  C   UNL A   1      38.976  20.597  25.404  1.00  0.00     0.261 C 
BRANCH  23  24
ATOM     24  O   UNL A   1      39.721  20.058  26.511  1.00  0.00    -0.460 OA
BRANCH  24  25
ATOM     25  C   UNL A   1      41.045  19.900  26.280  1.00  0.00     0.338 C 
ATOM     26  O   UNL A   1      41.593  18.968  25.704  1.00  0.00    -0.246 OA
BRANCH  25  27
ATOM     27  C   UNL A   1      41.777  21.116  26.675  1.00  0.00     0.060 A 
ATOM     28  C   UNL A   1      41.856  21.409  28.043  1.00  0.00     0.016 A 
ATOM     29  C   UNL A   1      42.311  21.995  25.730  1.00  0.00     0.016 A 
ATOM     30  C   UNL A   1      42.425  22.606  28.470  1.00  0.00     0.010 A 
ATOM     31  C   UNL A   1      42.875  23.201  26.160  1.00  0.00     0.010 A 
ATOM     32  C   UNL A   1      42.902  23.526  27.527  1.00  0.00    -0.014 A 
BRANCH  32  33
ATOM     33  C   UNL A   1      43.298  24.885  27.970  1.00  0.00     0.031 A 
ATOM     34  C   UNL A   1      42.227  25.907  28.238  1.00  0.00     0.074 A 
ATOM     35  C   UNL A   1      44.591  25.197  28.161  1.00  0.00     0.049 A 
ATOM     36  N   UNL A   1      42.349  27.151  28.623  1.00  0.00    -0.248 NA
ATOM     37  C   UNL A   1      40.836  25.466  28.046  1.00  0.00     0.031 C 
ATOM     38  C   UNL A   1      45.718  24.284  27.980  1.00  0.00     0.029 A 
ATOM     39  N   UNL A   1      45.170  26.378  28.551  1.00  0.00    -0.354 N 
ATOM     40  C   UNL A   1      41.054  27.646  28.711  1.00  0.00     0.074 A 
ATOM     41  C   UNL A   1      40.164  26.576  28.314  1.00  0.00     0.031 C 
ATOM     42  C   UNL A   1      46.858  24.941  28.260  1.00  0.00     0.029 A 
ATOM     43  C   UNL A   1      46.540  26.325  28.607  1.00  0.00     0.049 A 
ATOM     44  H   UNL A   1      44.652  27.186  28.771  1.00  0.00     0.167 HD
ATOM     45  C   UNL A   1      40.639  28.878  29.093  1.00  0.00     0.031 A 
ATOM     46  C   UNL A   1      47.437  27.288  28.891  1.00  0.00     0.031 A 
ATOM     47  C   UNL A   1      41.521  29.947  29.476  1.00  0.00     0.049 A 
ATOM     48  C   UNL A   1      46.957  28.671  29.236  1.00  0.00     0.074 A 
ATOM     49  C   UNL A   1      41.196  31.223  29.902  1.00  0.00     0.029 A 
ATOM     50  N   UNL A   1      42.904  29.867  29.472  1.00  0.00    -0.354 N 
ATOM     51  N   UNL A   1      45.729  29.117  29.344  1.00  0.00    -0.248 NA
ATOM     52  C   UNL A   1      47.991  29.683  29.503  1.00  0.00     0.031 C 
ATOM     53  C   UNL A   1      42.385  31.935  30.101  1.00  0.00     0.029 A 
ATOM     54  C   UNL A   1      43.449  31.082  29.855  1.00  0.00     0.049 A 
ATOM     55  H   UNL A   1      43.424  29.066  29.232  1.00  0.00     0.167 HD
ATOM     56  C   UNL A   1      45.841  30.451  29.718  1.00  0.00     0.074 A 
ATOM     57  C   UNL A   1      47.256  30.738  29.828  1.00  0.00     0.031 C 
ATOM     58  C   UNL A   1      44.860  31.356  29.954  1.00  0.00     0.031 A 
BRANCH  45  59
ATOM     59  C   UNL A   1      39.161  29.142  29.074  1.00  0.00    -0.014 A 
ATOM     60  C   UNL A   1      38.368  28.944  30.215  1.00  0.00     0.009 A 
ATOM     61  C   UNL A   1      38.556  29.619  27.900  1.00  0.00     0.009 A 
ATOM     62  C   UNL A   1      36.992  29.182  30.169  1.00  0.00     0.001 A 
ATOM     63  C   UNL A   1      37.185  29.881  27.865  1.00  0.00     0.001 A 
ATOM     64  C   UNL A   1      36.403  29.653  28.996  1.00  0.00     0.000 A 
ENDBRANCH  45  59
BRANCH  46  65
ATOM     65  C   UNL A   1      48.891  26.982  28.851  1.00  0.00    -0.014 A 
ATOM     66  C   UNL A   1      49.571  26.590  30.014  1.00  0.00     0.009 A 
ATOM     67  C   UNL A   1      49.607  27.091  27.649  1.00  0.00     0.009 A 
ATOM     68  C   UNL A   1      50.942  26.331  29.976  1.00  0.00     0.001 A 
ATOM     69  C   UNL A   1      50.973  26.808  27.609  1.00  0.00     0.001 A 
ATOM     70  C   UNL A   1      51.641  26.435  28.774  1.00  0.00     0.000 A 
ENDBRANCH  46  65
BRANCH  58  71
ATOM     71  C   UNL A   1      45.279  32.732  30.384  1.00  0.00    -0.014 A 
ATOM     72  C   UNL A   1      45.488  33.043  31.736  1.00  0.00     0.009 A 
ATOM     73  C   UNL A   1      45.508  33.723  29.415  1.00  0.00     0.009 A 
ATOM     74  C   UNL A   1      45.888  34.327  32.112  1.00  0.00     0.001 A 
ATOM     75  C   UNL A   1      45.936  34.997  29.792  1.00  0.00     0.001 A 
ATOM     76  C   UNL A   1      46.116  35.301  31.139  1.00  0.00     0.000 A 
ENDBRANCH  58  71
ENDBRANCH  32  33
ENDBRANCH  25  27
ENDBRANCH  24  25
ENDBRANCH  23  24
ENDBRANCH  22  23
ENDBRANCH  21  22
ENDBRANCH   1  21
TORSDOF 17
ENDMDL
