MODEL 1
REMARK VINA RESULT:     -10.1      0.000      0.000
REMARK SMILES C[C@]([NH2+]Cc1nc(-c2ccsc2)no1)(C(=O)OCCOCCOC(=O)c1ccc(-c2c3nc(c(-c4ccccc4)c4ccc([nH]4)c(-c4ccccc4)c4nc(c(-c5ccccc5)c5ccc2[nH]5)C=C4)C=C3)cc1)C(F)(F)F
REMARK SMILES IDX 19 1 18 2 17 3 15 4 16 5 2 6 1 7 74 8 75 9 76 10 77 11 3 12
REMARK SMILES IDX 4 15 5 16 6 17 14 18 7 19 13 20 8 21 9 22 12 23 10 24 11 25
REMARK SMILES IDX 20 26 21 27 22 28 23 29 24 30 25 31 26 32 27 33 73 34 28 35
REMARK SMILES IDX 72 36 29 37 30 38 31 39 66 40 32 41 71 42 65 43 67 44 33 45
REMARK SMILES IDX 70 46 64 47 63 48 34 50 56 51 41 52 55 53 42 54 45 55 54 56
REMARK SMILES IDX 68 57 43 58 44 59 53 61 69 62 46 63 35 64 36 65 40 66 37 67
REMARK SMILES IDX 39 68 38 69 57 70 58 71 62 72 59 73 61 74 60 75 47 76 48 77
REMARK SMILES IDX 52 78 49 79 51 80 50 81
REMARK H PARENT 3 13 3 14 67 49 45 60
REMARK Flexibility Score: inf
ROOT
ATOM      1  C   UNL A   1      36.552  22.350  23.572  1.00  0.00     0.202 C 
ENDROOT
BRANCH   1   2
ATOM      2  C   UNL A   1      35.837  23.643  23.968  1.00  0.00     0.261 C 
BRANCH   2   3
ATOM      3  O   UNL A   1      34.865  24.067  22.992  1.00  0.00    -0.458 OA
BRANCH   3   4
ATOM      4  C   UNL A   1      33.901  24.910  23.477  1.00  0.00     0.377 C 
ATOM      5  O   UNL A   1      34.084  25.671  24.420  1.00  0.00    -0.244 OA
BRANCH   4   6
ATOM      6  C   UNL A   1      32.548  24.739  22.777  1.00  0.00     0.287 C 
ATOM      7  C   UNL A   1      31.508  25.334  23.742  1.00  0.00     0.103 C 
BRANCH   6   8
ATOM      8  C   UNL A   1      32.658  25.658  21.531  1.00  0.00     0.455 C 
ATOM      9  F   UNL A   1      32.982  24.959  20.416  1.00  0.00    -0.164 F 
ATOM     10  F   UNL A   1      31.465  26.261  21.284  1.00  0.00    -0.164 F 
ATOM     11  F   UNL A   1      33.559  26.654  21.673  1.00  0.00    -0.164 F 
ENDBRANCH   6   8
BRANCH   6  12
ATOM     12  N   UNL A   1      32.291  23.310  22.348  1.00  0.00    -0.317 N 
ATOM     13  H   UNL A   1      33.201  22.882  22.180  1.00  0.00     0.347 HD
ATOM     14  H   UNL A   1      31.670  23.410  21.545  1.00  0.00     0.347 HD
BRANCH  12  15
ATOM     15  C   UNL A   1      31.558  22.411  23.235  1.00  0.00     0.363 C 
BRANCH  15  16
ATOM     16  C   UNL A   1      32.378  21.285  23.797  1.00  0.00     0.282 A 
ATOM     17  N   UNL A   1      32.446  19.996  23.521  1.00  0.00    -0.186 NA
ATOM     18  O   UNL A   1      33.146  21.641  24.873  1.00  0.00    -0.333 OA
ATOM     19  C   UNL A   1      33.238  19.531  24.546  1.00  0.00     0.203 A 
ATOM     20  N   UNL A   1      33.700  20.473  25.377  1.00  0.00    -0.057 NA
BRANCH  19  21
ATOM     21  C   UNL A   1      33.495  18.105  24.758  1.00  0.00     0.033 A 
ATOM     22  C   UNL A   1      34.774  17.496  24.600  1.00  0.00     0.024 A 
ATOM     23  C   UNL A   1      32.540  17.197  25.171  1.00  0.00     0.077 A 
ATOM     24  C   UNL A   1      34.749  16.154  24.924  1.00  0.00     0.065 A 
ATOM     25  S   UNL A   1      33.184  15.625  25.372  1.00  0.00    -0.152 S 
ENDBRANCH  19  21
ENDBRANCH  15  16
ENDBRANCH  12  15
ENDBRANCH   6  12
ENDBRANCH   4   6
ENDBRANCH   3   4
ENDBRANCH   2   3
ENDBRANCH   1   2
BRANCH   1  26
ATOM     26  O   UNL A   1      37.353  21.726  24.567  1.00  0.00    -0.374 OA
BRANCH  26  27
ATOM     27  C   UNL A   1      37.258  20.309  24.720  1.00  0.00     0.202 C 
BRANCH  27  28
ATOM     28  C   UNL A   1      38.535  19.562  25.125  1.00  0.00     0.261 C 
BRANCH  28  29
ATOM     29  O   UNL A   1      39.396  20.369  25.951  1.00  0.00    -0.460 OA
BRANCH  29  30
ATOM     30  C   UNL A   1      40.671  19.924  26.052  1.00  0.00     0.338 C 
ATOM     31  O   UNL A   1      41.100  18.818  25.752  1.00  0.00    -0.246 OA
BRANCH  30  32
ATOM     32  C   UNL A   1      41.563  21.039  26.413  1.00  0.00     0.060 A 
ATOM     33  C   UNL A   1      41.841  21.246  27.772  1.00  0.00     0.016 A 
ATOM     34  C   UNL A   1      42.050  21.917  25.444  1.00  0.00     0.016 A 
ATOM     35  C   UNL A   1      42.573  22.362  28.173  1.00  0.00     0.010 A 
ATOM     36  C   UNL A   1      42.770  23.042  25.849  1.00  0.00     0.010 A 
ATOM     37  C   UNL A   1      43.005  23.286  27.216  1.00  0.00    -0.014 A 
BRANCH  37  38
ATOM     38  C   UNL A   1      43.562  24.592  27.634  1.00  0.00     0.031 A 
ATOM     39  C   UNL A   1      42.617  25.672  28.078  1.00  0.00     0.074 A 
ATOM     40  C   UNL A   1      44.883  24.829  27.579  1.00  0.00     0.049 A 
ATOM     41  N   UNL A   1      42.859  26.929  28.344  1.00  0.00    -0.248 NA
ATOM     42  C   UNL A   1      41.207  25.280  28.231  1.00  0.00     0.031 C 
ATOM     43  C   UNL A   1      45.903  23.850  27.210  1.00  0.00     0.029 A 
ATOM     44  N   UNL A   1      45.585  25.985  27.807  1.00  0.00    -0.354 N 
ATOM     45  C   UNL A   1      41.630  27.486  28.669  1.00  0.00     0.074 A 
ATOM     46  C   UNL A   1      40.643  26.433  28.554  1.00  0.00     0.031 C 
ATOM     47  C   UNL A   1      47.102  24.457  27.201  1.00  0.00     0.029 A 
ATOM     48  C   UNL A   1      46.924  25.872  27.525  1.00  0.00     0.049 A 
ATOM     49  H   UNL A   1      45.170  26.813  28.142  1.00  0.00     0.167 HD
ATOM     50  C   UNL A   1      41.346  28.762  29.021  1.00  0.00     0.031 A 
ATOM     51  C   UNL A   1      47.887  26.812  27.489  1.00  0.00     0.031 A 
ATOM     52  C   UNL A   1      42.327  29.809  29.119  1.00  0.00     0.049 A 
ATOM     53  C   UNL A   1      47.545  28.238  27.821  1.00  0.00     0.074 A 
ATOM     54  C   UNL A   1      42.149  31.127  29.496  1.00  0.00     0.029 A 
ATOM     55  N   UNL A   1      43.673  29.655  28.822  1.00  0.00    -0.354 N 
ATOM     56  N   UNL A   1      46.384  28.752  28.150  1.00  0.00    -0.248 NA
ATOM     57  C   UNL A   1      48.645  29.212  27.780  1.00  0.00     0.031 C 
ATOM     58  C   UNL A   1      43.377  31.785  29.373  1.00  0.00     0.029 A 
ATOM     59  C   UNL A   1      44.332  30.862  28.976  1.00  0.00     0.049 A 
ATOM     60  H   UNL A   1      44.097  28.811  28.542  1.00  0.00     0.167 HD
ATOM     61  C   UNL A   1      46.617  30.103  28.379  1.00  0.00     0.074 A 
ATOM     62  C   UNL A   1      48.031  30.326  28.156  1.00  0.00     0.031 C 
ATOM     63  C   UNL A   1      45.739  31.068  28.749  1.00  0.00     0.031 A 
BRANCH  50  64
ATOM     64  C   UNL A   1      39.903  29.099  29.269  1.00  0.00    -0.014 A 
ATOM     65  C   UNL A   1      39.330  28.993  30.547  1.00  0.00     0.009 A 
ATOM     66  C   UNL A   1      39.101  29.529  28.200  1.00  0.00     0.009 A 
ATOM     67  C   UNL A   1      37.974  29.264  30.738  1.00  0.00     0.001 A 
ATOM     68  C   UNL A   1      37.753  29.827  28.399  1.00  0.00     0.001 A 
ATOM     69  C   UNL A   1      37.187  29.683  29.665  1.00  0.00     0.000 A 
ENDBRANCH  50  64
BRANCH  51  70
ATOM     70  C   UNL A   1      49.262  26.428  27.084  1.00  0.00    -0.014 A 
ATOM     71  C   UNL A   1      50.203  26.017  28.039  1.00  0.00     0.009 A 
ATOM     72  C   UNL A   1      49.631  26.444  25.729  1.00  0.00     0.009 A 
ATOM     73  C   UNL A   1      51.488  25.634  27.645  1.00  0.00     0.001 A 
ATOM     74  C   UNL A   1      50.907  26.039  25.335  1.00  0.00     0.001 A 
ATOM     75  C   UNL A   1      51.836  25.638  26.293  1.00  0.00     0.000 A 
ENDBRANCH  51  70
BRANCH  63  76
ATOM     76  C   UNL A   1      46.283  32.451  28.974  1.00  0.00    -0.014 A 
ATOM     77  C   UNL A   1      46.794  32.840  30.222  1.00  0.00     0.009 A 
ATOM     78  C   UNL A   1      46.347  33.352  27.900  1.00  0.00     0.009 A 
ATOM     79  C   UNL A   1      47.340  34.114  30.392  1.00  0.00     0.001 A 
ATOM     80  C   UNL A   1      46.917  34.614  28.067  1.00  0.00     0.001 A 
ATOM     81  C   UNL A   1      47.408  34.997  29.314  1.00  0.00     0.000 A 
ENDBRANCH  63  76
ENDBRANCH  37  38
ENDBRANCH  30  32
ENDBRANCH  29  30
ENDBRANCH  28  29
ENDBRANCH  27  28
ENDBRANCH  26  27
ENDBRANCH   1  26
TORSDOF 19
ENDMDL
MODEL 2
REMARK VINA RESULT:      -9.7      5.103      9.552
REMARK SMILES C[C@]([NH2+]Cc1nc(-c2ccsc2)no1)(C(=O)OCCOCCOC(=O)c1ccc(-c2c3nc(c(-c4ccccc4)c4ccc([nH]4)c(-c4ccccc4)c4nc(c(-c5ccccc5)c5ccc2[nH]5)C=C4)C=C3)cc1)C(F)(F)F
REMARK SMILES IDX 19 1 18 2 17 3 15 4 16 5 2 6 1 7 74 8 75 9 76 10 77 11 3 12
REMARK SMILES IDX 4 15 5 16 6 17 14 18 7 19 13 20 8 21 9 22 12 23 10 24 11 25
REMARK SMILES IDX 20 26 21 27 22 28 23 29 24 30 25 31 26 32 27 33 73 34 28 35
REMARK SMILES IDX 72 36 29 37 30 38 31 39 66 40 32 41 71 42 65 43 67 44 33 45
REMARK SMILES IDX 70 46 64 47 63 48 34 50 56 51 41 52 55 53 42 54 45 55 54 56
REMARK SMILES IDX 68 57 43 58 44 59 53 61 69 62 46 63 35 64 36 65 40 66 37 67
REMARK SMILES IDX 39 68 38 69 57 70 58 71 62 72 59 73 61 74 60 75 47 76 48 77
REMARK SMILES IDX 52 78 49 79 51 80 50 81
REMARK H PARENT 3 13 3 14 67 49 45 60
REMARK Flexibility Score: inf
ROOT
ATOM      1  C   UNL A   1      33.740  28.371  27.163  1.00  0.00     0.202 C 
ENDROOT
BRANCH   1   2
ATOM      2  C   UNL A   1      33.359  27.493  25.969  1.00  0.00     0.261 C 
BRANCH   2   3
ATOM      3  O   UNL A   1      32.082  27.842  25.402  1.00  0.00    -0.458 OA
BRANCH   3   4
ATOM      4  C   UNL A   1      32.146  28.395  24.151  1.00  0.00     0.377 C 
ATOM      5  O   UNL A   1      32.916  29.300  23.853  1.00  0.00    -0.244 OA
BRANCH   4   6
ATOM      6  C   UNL A   1      31.096  27.825  23.190  1.00  0.00     0.287 C 
ATOM      7  C   UNL A   1      30.221  26.893  24.045  1.00  0.00     0.103 C 
BRANCH   6   8
ATOM      8  C   UNL A   1      30.257  29.066  22.782  1.00  0.00     0.455 C 
ATOM      9  F   UNL A   1      30.848  29.770  21.787  1.00  0.00    -0.164 F 
ATOM     10  F   UNL A   1      29.038  28.679  22.321  1.00  0.00    -0.164 F 
ATOM     11  F   UNL A   1      30.018  29.915  23.805  1.00  0.00    -0.164 F 
ENDBRANCH   6   8
BRANCH   6  12
ATOM     12  N   UNL A   1      31.713  27.190  21.963  1.00  0.00    -0.317 N 
ATOM     13  H   UNL A   1      31.528  27.815  21.179  1.00  0.00     0.347 HD
ATOM     14  H   UNL A   1      31.283  26.265  21.930  1.00  0.00     0.347 HD
BRANCH  12  15
ATOM     15  C   UNL A   1      33.144  26.900  21.944  1.00  0.00     0.363 C 
BRANCH  15  16
ATOM     16  C   UNL A   1      33.505  25.512  22.392  1.00  0.00     0.282 A 
ATOM     17  N   UNL A   1      34.117  25.042  23.463  1.00  0.00    -0.186 NA
ATOM     18  O   UNL A   1      33.228  24.541  21.467  1.00  0.00    -0.333 OA
ATOM     19  C   UNL A   1      34.296  23.719  23.127  1.00  0.00     0.203 A 
ATOM     20  N   UNL A   1      33.769  23.358  21.950  1.00  0.00    -0.057 NA
BRANCH  19  21
ATOM     21  C   UNL A   1      35.069  22.793  23.956  1.00  0.00     0.033 A 
ATOM     22  C   UNL A   1      34.581  21.532  24.406  1.00  0.00     0.024 A 
ATOM     23  C   UNL A   1      36.368  23.018  24.365  1.00  0.00     0.077 A 
ATOM     24  C   UNL A   1      35.535  20.834  25.118  1.00  0.00     0.065 A 
ATOM     25  S   UNL A   1      36.995  21.714  25.279  1.00  0.00    -0.152 S 
ENDBRANCH  19  21
ENDBRANCH  15  16
ENDBRANCH  12  15
ENDBRANCH   6  12
ENDBRANCH   4   6
ENDBRANCH   3   4
ENDBRANCH   2   3
ENDBRANCH   1   2
BRANCH   1  26
ATOM     26  O   UNL A   1      34.123  29.711  26.880  1.00  0.00    -0.374 OA
BRANCH  26  27
ATOM     27  C   UNL A   1      33.197  30.755  27.181  1.00  0.00     0.202 C 
BRANCH  27  28
ATOM     28  C   UNL A   1      33.779  32.094  27.651  1.00  0.00     0.261 C 
BRANCH  28  29
ATOM     29  O   UNL A   1      32.750  33.062  27.935  1.00  0.00    -0.460 OA
BRANCH  29  30
ATOM     30  C   UNL A   1      33.193  34.228  28.462  1.00  0.00     0.338 C 
ATOM     31  O   UNL A   1      32.622  35.310  28.463  1.00  0.00    -0.246 OA
BRANCH  30  32
ATOM     32  C   UNL A   1      34.425  33.992  29.233  1.00  0.00     0.060 A 
ATOM     33  C   UNL A   1      35.646  34.380  28.660  1.00  0.00     0.016 A 
ATOM     34  C   UNL A   1      34.393  33.326  30.459  1.00  0.00     0.016 A 
ATOM     35  C   UNL A   1      36.846  34.062  29.292  1.00  0.00     0.010 A 
ATOM     36  C   UNL A   1      35.598  32.996  31.083  1.00  0.00     0.010 A 
ATOM     37  C   UNL A   1      36.828  33.332  30.485  1.00  0.00    -0.014 A 
BRANCH  37  38
ATOM     38  C   UNL A   1      38.081  32.772  31.041  1.00  0.00     0.031 A 
ATOM     39  C   UNL A   1      38.670  31.548  30.402  1.00  0.00     0.074 A 
ATOM     40  C   UNL A   1      38.662  33.319  32.122  1.00  0.00     0.049 A 
ATOM     41  N   UNL A   1      39.667  30.801  30.801  1.00  0.00    -0.248 NA
ATOM     42  C   UNL A   1      38.041  31.100  29.149  1.00  0.00     0.031 C 
ATOM     43  C   UNL A   1      38.212  34.531  32.801  1.00  0.00     0.029 A 
ATOM     44  N   UNL A   1      39.743  32.898  32.852  1.00  0.00    -0.354 N 
ATOM     45  C   UNL A   1      39.768  29.780  29.865  1.00  0.00     0.074 A 
ATOM     46  C   UNL A   1      38.723  29.996  28.886  1.00  0.00     0.031 C 
ATOM     47  C   UNL A   1      38.992  34.739  33.876  1.00  0.00     0.029 A 
ATOM     48  C   UNL A   1      39.966  33.653  33.977  1.00  0.00     0.049 A 
ATOM     49  H   UNL A   1      40.305  32.131  32.595  1.00  0.00     0.167 HD
ATOM     50  C   UNL A   1      40.645  28.750  29.830  1.00  0.00     0.031 A 
ATOM     51  C   UNL A   1      40.826  33.464  34.995  1.00  0.00     0.031 A 
ATOM     52  C   UNL A   1      41.671  28.530  30.812  1.00  0.00     0.049 A 
ATOM     53  C   UNL A   1      41.752  32.279  34.973  1.00  0.00     0.074 A 
ATOM     54  C   UNL A   1      42.630  27.534  30.852  1.00  0.00     0.029 A 
ATOM     55  N   UNL A   1      41.862  29.316  31.939  1.00  0.00    -0.354 N 
ATOM     56  N   UNL A   1      41.857  31.331  34.073  1.00  0.00    -0.248 NA
ATOM     57  C   UNL A   1      42.679  32.139  36.105  1.00  0.00     0.031 C 
ATOM     58  C   UNL A   1      43.365  27.684  32.033  1.00  0.00     0.029 A 
ATOM     59  C   UNL A   1      42.902  28.809  32.698  1.00  0.00     0.049 A 
ATOM     60  H   UNL A   1      41.335  30.116  32.166  1.00  0.00     0.167 HD
ATOM     61  C   UNL A   1      42.877  30.496  34.516  1.00  0.00     0.074 A 
ATOM     62  C   UNL A   1      43.360  31.054  35.763  1.00  0.00     0.031 C 
ATOM     63  C   UNL A   1      43.371  29.374  33.937  1.00  0.00     0.031 A 
BRANCH  50  64
ATOM     64  C   UNL A   1      40.486  27.754  28.716  1.00  0.00    -0.014 A 
ATOM     65  C   UNL A   1      41.116  27.930  27.474  1.00  0.00     0.009 A 
ATOM     66  C   UNL A   1      39.686  26.618  28.916  1.00  0.00     0.009 A 
ATOM     67  C   UNL A   1      40.910  27.014  26.440  1.00  0.00     0.001 A 
ATOM     68  C   UNL A   1      39.504  25.689  27.891  1.00  0.00     0.001 A 
ATOM     69  C   UNL A   1      40.106  25.893  26.650  1.00  0.00     0.000 A 
ENDBRANCH  50  64
BRANCH  51  70
ATOM     70  C   UNL A   1      40.819  34.409  36.139  1.00  0.00    -0.014 A 
ATOM     71  C   UNL A   1      41.655  35.535  36.145  1.00  0.00     0.009 A 
ATOM     72  C   UNL A   1      39.946  34.203  37.221  1.00  0.00     0.009 A 
ATOM     73  C   UNL A   1      41.622  36.432  37.216  1.00  0.00     0.001 A 
ATOM     74  C   UNL A   1      39.899  35.114  38.277  1.00  0.00     0.001 A 
ATOM     75  C   UNL A   1      40.739  36.225  38.276  1.00  0.00     0.000 A 
ENDBRANCH  51  70
BRANCH  63  76
ATOM     76  C   UNL A   1      44.520  28.689  34.621  1.00  0.00    -0.014 A 
ATOM     77  C   UNL A   1      44.309  27.651  35.541  1.00  0.00     0.009 A 
ATOM     78  C   UNL A   1      45.836  29.044  34.284  1.00  0.00     0.009 A 
ATOM     79  C   UNL A   1      45.395  26.997  36.125  1.00  0.00     0.001 A 
ATOM     80  C   UNL A   1      46.919  28.371  34.850  1.00  0.00     0.001 A 
ATOM     81  C   UNL A   1      46.698  27.352  35.775  1.00  0.00     0.000 A 
ENDBRANCH  63  76
ENDBRANCH  37  38
ENDBRANCH  30  32
ENDBRANCH  29  30
ENDBRANCH  28  29
ENDBRANCH  27  28
ENDBRANCH  26  27
ENDBRANCH   1  26
TORSDOF 19
ENDMDL
MODEL 3
REMARK VINA RESULT:      -9.7      5.152      9.550
REMARK SMILES C[C@]([NH2+]Cc1nc(-c2ccsc2)no1)(C(=O)OCCOCCOC(=O)c1ccc(-c2c3nc(c(-c4ccccc4)c4ccc([nH]4)c(-c4ccccc4)c4nc(c(-c5ccccc5)c5ccc2[nH]5)C=C4)C=C3)cc1)C(F)(F)F
REMARK SMILES IDX 19 1 18 2 17 3 15 4 16 5 2 6 1 7 74 8 75 9 76 10 77 11 3 12
REMARK SMILES IDX 4 15 5 16 6 17 14 18 7 19 13 20 8 21 9 22 12 23 10 24 11 25
REMARK SMILES IDX 20 26 21 27 22 28 23 29 24 30 25 31 26 32 27 33 73 34 28 35
REMARK SMILES IDX 72 36 29 37 30 38 31 39 66 40 32 41 71 42 65 43 67 44 33 45
REMARK SMILES IDX 70 46 64 47 63 48 34 50 56 51 41 52 55 53 42 54 45 55 54 56
REMARK SMILES IDX 68 57 43 58 44 59 53 61 69 62 46 63 35 64 36 65 40 66 37 67
REMARK SMILES IDX 39 68 38 69 57 70 58 71 62 72 59 73 61 74 60 75 47 76 48 77
REMARK SMILES IDX 52 78 49 79 51 80 50 81
REMARK H PARENT 3 13 3 14 67 49 45 60
REMARK Flexibility Score: inf
ROOT
ATOM      1  C   UNL A   1      32.970  29.629  25.786  1.00  0.00     0.202 C 
ENDROOT
BRANCH   1   2
ATOM      2  C   UNL A   1      33.122  29.183  24.330  1.00  0.00     0.261 C 
BRANCH   2   3
ATOM      3  O   UNL A   1      33.808  27.924  24.199  1.00  0.00    -0.458 OA
BRANCH   3   4
ATOM      4  C   UNL A   1      33.502  27.224  23.063  1.00  0.00     0.377 C 
ATOM      5  O   UNL A   1      33.860  27.568  21.942  1.00  0.00    -0.244 OA
BRANCH   4   6
ATOM      6  C   UNL A   1      32.593  26.018  23.329  1.00  0.00     0.287 C 
ATOM      7  C   UNL A   1      32.068  25.588  21.948  1.00  0.00     0.103 C 
BRANCH   6   8
ATOM      8  C   UNL A   1      33.567  24.930  23.855  1.00  0.00     0.455 C 
ATOM      9  F   UNL A   1      34.677  24.832  23.085  1.00  0.00    -0.164 F 
ATOM     10  F   UNL A   1      33.985  25.241  25.110  1.00  0.00    -0.164 F 
ATOM     11  F   UNL A   1      33.010  23.703  23.939  1.00  0.00    -0.164 F 
ENDBRANCH   6   8
BRANCH   6  12
ATOM     12  N   UNL A   1      31.529  26.309  24.365  1.00  0.00    -0.317 N 
ATOM     13  H   UNL A   1      31.572  27.308  24.563  1.00  0.00     0.347 HD
ATOM     14  H   UNL A   1      31.760  25.673  25.129  1.00  0.00     0.347 HD
BRANCH  12  15
ATOM     15  C   UNL A   1      30.133  25.996  24.072  1.00  0.00     0.363 C 
BRANCH  15  16
ATOM     16  C   UNL A   1      29.341  27.144  23.511  1.00  0.00     0.282 A 
ATOM     17  N   UNL A   1      29.689  28.295  22.967  1.00  0.00    -0.186 NA
ATOM     18  O   UNL A   1      27.989  27.017  23.675  1.00  0.00    -0.333 OA
ATOM     19  C   UNL A   1      28.475  28.939  22.876  1.00  0.00     0.203 A 
ATOM     20  N   UNL A   1      27.419  28.216  23.269  1.00  0.00    -0.057 NA
BRANCH  19  21
ATOM     21  C   UNL A   1      28.354  30.335  22.451  1.00  0.00     0.033 A 
ATOM     22  C   UNL A   1      28.543  31.449  23.319  1.00  0.00     0.024 A 
ATOM     23  C   UNL A   1      28.082  30.731  21.157  1.00  0.00     0.077 A 
ATOM     24  C   UNL A   1      28.433  32.651  22.648  1.00  0.00     0.065 A 
ATOM     25  S   UNL A   1      28.060  32.434  20.991  1.00  0.00    -0.152 S 
ENDBRANCH  19  21
ENDBRANCH  15  16
ENDBRANCH  12  15
ENDBRANCH   6  12
ENDBRANCH   4   6
ENDBRANCH   3   4
ENDBRANCH   2   3
ENDBRANCH   1   2
BRANCH   1  26
ATOM     26  O   UNL A   1      31.713  30.177  26.164  1.00  0.00    -0.374 OA
BRANCH  26  27
ATOM     27  C   UNL A   1      31.667  31.549  26.559  1.00  0.00     0.202 C 
BRANCH  27  28
ATOM     28  C   UNL A   1      32.772  32.045  27.499  1.00  0.00     0.261 C 
BRANCH  28  29
ATOM     29  O   UNL A   1      33.106  33.426  27.263  1.00  0.00    -0.460 OA
BRANCH  29  30
ATOM     30  C   UNL A   1      33.303  34.165  28.380  1.00  0.00     0.338 C 
ATOM     31  O   UNL A   1      32.525  34.956  28.897  1.00  0.00    -0.246 OA
BRANCH  30  32
ATOM     32  C   UNL A   1      34.554  33.753  29.038  1.00  0.00     0.060 A 
ATOM     33  C   UNL A   1      35.757  33.942  28.342  1.00  0.00     0.016 A 
ATOM     34  C   UNL A   1      34.541  33.116  30.279  1.00  0.00     0.016 A 
ATOM     35  C   UNL A   1      36.952  33.452  28.866  1.00  0.00     0.010 A 
ATOM     36  C   UNL A   1      35.737  32.613  30.796  1.00  0.00     0.010 A 
ATOM     37  C   UNL A   1      36.940  32.749  30.076  1.00  0.00    -0.014 A 
BRANCH  37  38
ATOM     38  C   UNL A   1      38.141  32.011  30.526  1.00  0.00     0.031 A 
ATOM     39  C   UNL A   1      39.069  32.671  31.506  1.00  0.00     0.074 A 
ATOM     40  C   UNL A   1      38.425  30.792  30.040  1.00  0.00     0.049 A 
ATOM     41  N   UNL A   1      40.245  32.284  31.924  1.00  0.00    -0.248 NA
ATOM     42  C   UNL A   1      38.609  33.945  32.081  1.00  0.00     0.031 C 
ATOM     43  C   UNL A   1      37.582  30.030  29.122  1.00  0.00     0.029 A 
ATOM     44  N   UNL A   1      39.526  29.996  30.234  1.00  0.00    -0.354 N 
ATOM     45  C   UNL A   1      40.681  33.279  32.790  1.00  0.00     0.074 A 
ATOM     46  C   UNL A   1      39.647  34.292  32.826  1.00  0.00     0.031 C 
ATOM     47  C   UNL A   1      38.214  28.888  28.802  1.00  0.00     0.029 A 
ATOM     48  C   UNL A   1      39.518  28.862  29.461  1.00  0.00     0.049 A 
ATOM     49  H   UNL A   1      40.248  30.217  30.865  1.00  0.00     0.167 HD
ATOM     50  C   UNL A   1      41.840  33.347  33.485  1.00  0.00     0.031 A 
ATOM     51  C   UNL A   1      40.474  27.932  29.273  1.00  0.00     0.031 A 
ATOM     52  C   UNL A   1      42.871  32.346  33.434  1.00  0.00     0.049 A 
ATOM     53  C   UNL A   1      41.782  28.055  30.004  1.00  0.00     0.074 A 
ATOM     54  C   UNL A   1      44.070  32.306  34.121  1.00  0.00     0.029 A 
ATOM     55  N   UNL A   1      42.827  31.212  32.637  1.00  0.00    -0.354 N 
ATOM     56  N   UNL A   1      42.177  28.986  30.838  1.00  0.00    -0.248 NA
ATOM     57  C   UNL A   1      42.776  26.997  29.768  1.00  0.00     0.031 C 
ATOM     58  C   UNL A   1      44.778  31.176  33.697  1.00  0.00     0.029 A 
ATOM     59  C   UNL A   1      43.992  30.482  32.790  1.00  0.00     0.049 A 
ATOM     60  H   UNL A   1      42.078  30.965  32.048  1.00  0.00     0.167 HD
ATOM     61  C   UNL A   1      43.453  28.616  31.247  1.00  0.00     0.074 A 
ATOM     62  C   UNL A   1      43.763  27.372  30.571  1.00  0.00     0.031 C 
ATOM     63  C   UNL A   1      44.287  29.247  32.110  1.00  0.00     0.031 A 
BRANCH  50  64
ATOM     64  C   UNL A   1      42.070  34.580  34.312  1.00  0.00    -0.014 A 
ATOM     65  C   UNL A   1      41.672  34.650  35.657  1.00  0.00     0.009 A 
ATOM     66  C   UNL A   1      42.697  35.694  33.732  1.00  0.00     0.009 A 
ATOM     67  C   UNL A   1      41.853  35.826  36.388  1.00  0.00     0.001 A 
ATOM     68  C   UNL A   1      42.902  36.858  34.472  1.00  0.00     0.001 A 
ATOM     69  C   UNL A   1      42.469  36.928  35.796  1.00  0.00     0.000 A 
ENDBRANCH  50  64
BRANCH  51  70
ATOM     70  C   UNL A   1      40.230  26.822  28.319  1.00  0.00    -0.014 A 
ATOM     71  C   UNL A   1      40.698  26.893  26.999  1.00  0.00     0.009 A 
ATOM     72  C   UNL A   1      39.548  25.667  28.737  1.00  0.00     0.009 A 
ATOM     73  C   UNL A   1      40.484  25.832  26.116  1.00  0.00     0.001 A 
ATOM     74  C   UNL A   1      39.356  24.599  27.859  1.00  0.00     0.001 A 
ATOM     75  C   UNL A   1      39.820  24.684  26.549  1.00  0.00     0.000 A 
ENDBRANCH  51  70
BRANCH  63  76
ATOM     76  C   UNL A   1      45.604  28.588  32.407  1.00  0.00    -0.014 A 
ATOM     77  C   UNL A   1      45.740  27.670  33.460  1.00  0.00     0.009 A 
ATOM     78  C   UNL A   1      46.706  28.839  31.575  1.00  0.00     0.009 A 
ATOM     79  C   UNL A   1      46.962  27.033  33.684  1.00  0.00     0.001 A 
ATOM     80  C   UNL A   1      47.918  28.181  31.786  1.00  0.00     0.001 A 
ATOM     81  C   UNL A   1      48.048  27.283  32.844  1.00  0.00     0.000 A 
ENDBRANCH  63  76
ENDBRANCH  37  38
ENDBRANCH  30  32
ENDBRANCH  29  30
ENDBRANCH  28  29
ENDBRANCH  27  28
ENDBRANCH  26  27
ENDBRANCH   1  26
TORSDOF 19
ENDMDL
