MODEL 1
REMARK VINA RESULT:      -8.3      0.000      0.000
REMARK SMILES C[C@H]1[C@@H](C(=O)OCCOCCOC(=O)c2ccc(-c3c4nc(c(-c5ccccc5)c5ccc([nH]5)c(-c5ccccc5)c5nc(c(-c6ccccc6)c6ccc3[nH]6)C=C5)C=C4)cc2)CCN1C(=O)/C=C/c1cccc(F)c1
REMARK SMILES IDX 8 1 7 2 6 3 4 4 5 5 3 6 1 7 2 8 65 9 63 10 64 11 66 12 67 13
REMARK SMILES IDX 68 14 69 15 70 16 71 17 76 18 72 19 74 20 73 21 75 22 9 23
REMARK SMILES IDX 10 24 11 25 12 26 13 27 14 28 15 29 16 30 62 31 17 32 61 33
REMARK SMILES IDX 18 34 19 35 20 36 55 37 21 38 60 39 54 40 56 41 22 42 59 43
REMARK SMILES IDX 53 44 52 45 23 47 45 48 30 49 44 50 31 51 34 52 43 53 57 54
REMARK SMILES IDX 32 55 33 56 42 58 58 59 35 60 24 61 25 62 29 63 26 64 28 65
REMARK SMILES IDX 27 66 46 67 47 68 51 69 48 70 50 71 49 72 36 73 37 74 41 75
REMARK SMILES IDX 38 76 40 77 39 78
REMARK H PARENT 56 46 34 57
REMARK Flexibility Score: inf
ROOT
ATOM      1  C   UNL A   1      34.351  34.424  31.474  1.00  0.00     0.202 C 
ENDROOT
BRANCH   1   2
ATOM      2  C   UNL A   1      34.652  35.525  32.498  1.00  0.00     0.261 C 
BRANCH   2   3
ATOM      3  O   UNL A   1      35.982  35.334  33.019  1.00  0.00    -0.463 OA
BRANCH   3   4
ATOM      4  C   UNL A   1      36.141  34.424  34.000  1.00  0.00     0.311 C 
ATOM      5  O   UNL A   1      35.344  34.254  34.915  1.00  0.00    -0.252 OA
BRANCH   4   6
ATOM      6  C   UNL A   1      37.402  33.582  33.856  1.00  0.00     0.123 C 
ATOM      7  C   UNL A   1      36.132  31.584  32.651  1.00  0.00     0.032 C 
ATOM      8  C   UNL A   1      37.442  32.209  33.130  1.00  0.00     0.096 C 
ATOM      9  N   UNL A   1      38.164  31.308  34.048  1.00  0.00    -0.336 N 
ATOM     10  C   UNL A   1      37.998  33.330  35.256  1.00  0.00     0.039 C 
ATOM     11  C   UNL A   1      38.189  31.836  35.390  1.00  0.00     0.121 C 
BRANCH   9  12
ATOM     12  C   UNL A   1      38.689  30.048  33.832  1.00  0.00     0.246 C 
ATOM     13  O   UNL A   1      38.031  29.123  33.359  1.00  0.00    -0.270 OA
BRANCH  12  14
ATOM     14  C   UNL A   1      40.139  29.824  34.051  1.00  0.00     0.072 C 
ATOM     15  C   UNL A   1      40.759  28.667  33.782  1.00  0.00     0.014 C 
BRANCH  15  16
ATOM     16  C   UNL A   1      42.162  28.353  34.103  1.00  0.00    -0.023 A 
ATOM     17  C   UNL A   1      42.829  29.180  35.021  1.00  0.00     0.008 A 
ATOM     18  C   UNL A   1      42.874  27.294  33.524  1.00  0.00     0.047 A 
ATOM     19  C   UNL A   1      44.171  28.962  35.352  1.00  0.00     0.004 A 
ATOM     20  C   UNL A   1      44.211  27.086  33.859  1.00  0.00     0.123 A 
ATOM     21  C   UNL A   1      44.864  27.908  34.767  1.00  0.00     0.039 A 
ATOM     22  F   UNL A   1      44.878  26.073  33.291  1.00  0.00    -0.207 F 
ENDBRANCH  15  16
ENDBRANCH  12  14
ENDBRANCH   9  12
ENDBRANCH   4   6
ENDBRANCH   3   4
ENDBRANCH   2   3
ENDBRANCH   1   2
BRANCH   1  23
ATOM     23  O   UNL A   1      33.494  34.837  30.405  1.00  0.00    -0.374 OA
BRANCH  23  24
ATOM     24  C   UNL A   1      33.732  34.241  29.130  1.00  0.00     0.202 C 
BRANCH  24  25
ATOM     25  C   UNL A   1      34.955  33.323  29.064  1.00  0.00     0.261 C 
BRANCH  25  26
ATOM     26  O   UNL A   1      34.591  31.958  29.335  1.00  0.00    -0.460 OA
BRANCH  26  27
ATOM     27  C   UNL A   1      34.748  31.125  28.284  1.00  0.00     0.338 C 
ATOM     28  O   UNL A   1      34.053  31.070  27.277  1.00  0.00    -0.246 OA
BRANCH  27  29
ATOM     29  C   UNL A   1      35.992  30.346  28.420  1.00  0.00     0.060 A 
ATOM     30  C   UNL A   1      36.210  29.720  29.651  1.00  0.00     0.016 A 
ATOM     31  C   UNL A   1      36.962  30.284  27.413  1.00  0.00     0.016 A 
ATOM     32  C   UNL A   1      37.433  29.116  29.920  1.00  0.00     0.010 A 
ATOM     33  C   UNL A   1      38.191  29.668  27.681  1.00  0.00     0.010 A 
ATOM     34  C   UNL A   1      38.451  29.137  28.957  1.00  0.00    -0.014 A 
BRANCH  34  35
ATOM     35  C   UNL A   1      39.823  28.773  29.382  1.00  0.00     0.031 A 
ATOM     36  C   UNL A   1      40.395  27.451  28.941  1.00  0.00     0.074 A 
ATOM     37  C   UNL A   1      40.590  29.650  30.054  1.00  0.00     0.049 A 
ATOM     38  N   UNL A   1      41.608  26.981  29.089  1.00  0.00    -0.248 NA
ATOM     39  C   UNL A   1      39.481  26.540  28.231  1.00  0.00     0.031 C 
ATOM     40  C   UNL A   1      40.166  30.974  30.503  1.00  0.00     0.029 A 
ATOM     41  N   UNL A   1      41.900  29.560  30.453  1.00  0.00    -0.354 N 
ATOM     42  C   UNL A   1      41.601  25.726  28.492  1.00  0.00     0.074 A 
ATOM     43  C   UNL A   1      40.257  25.489  28.016  1.00  0.00     0.031 C 
ATOM     44  C   UNL A   1      41.203  31.583  31.102  1.00  0.00     0.029 A 
ATOM     45  C   UNL A   1      42.356  30.685  31.095  1.00  0.00     0.049 A 
ATOM     46  H   UNL A   1      42.459  28.765  30.294  1.00  0.00     0.167 HD
ATOM     47  C   UNL A   1      42.625  24.853  28.337  1.00  0.00     0.031 A 
ATOM     48  C   UNL A   1      43.568  30.958  31.614  1.00  0.00     0.031 A 
ATOM     49  C   UNL A   1      43.961  25.080  28.816  1.00  0.00     0.049 A 
ATOM     50  C   UNL A   1      44.674  29.947  31.481  1.00  0.00     0.074 A 
ATOM     51  C   UNL A   1      45.071  24.261  28.700  1.00  0.00     0.029 A 
ATOM     52  N   UNL A   1      44.366  26.208  29.510  1.00  0.00    -0.354 N 
ATOM     53  N   UNL A   1      44.662  28.780  30.882  1.00  0.00    -0.248 NA
ATOM     54  C   UNL A   1      45.968  30.301  32.082  1.00  0.00     0.031 C 
ATOM     55  C   UNL A   1      46.136  24.872  29.372  1.00  0.00     0.029 A 
ATOM     56  C   UNL A   1      45.703  26.097  29.852  1.00  0.00     0.049 A 
ATOM     57  H   UNL A   1      43.789  26.976  29.729  1.00  0.00     0.167 HD
ATOM     58  C   UNL A   1      45.951  28.276  31.009  1.00  0.00     0.074 A 
ATOM     59  C   UNL A   1      46.722  29.272  31.724  1.00  0.00     0.031 C 
ATOM     60  C   UNL A   1      46.454  27.095  30.569  1.00  0.00     0.031 A 
BRANCH  47  61
ATOM     61  C   UNL A   1      42.323  23.553  27.642  1.00  0.00    -0.014 A 
ATOM     62  C   UNL A   1      41.783  22.461  28.339  1.00  0.00     0.009 A 
ATOM     63  C   UNL A   1      42.567  23.428  26.266  1.00  0.00     0.009 A 
ATOM     64  C   UNL A   1      41.525  21.258  27.677  1.00  0.00     0.001 A 
ATOM     65  C   UNL A   1      42.282  22.233  25.602  1.00  0.00     0.001 A 
ATOM     66  C   UNL A   1      41.769  21.147  26.309  1.00  0.00     0.000 A 
ENDBRANCH  47  61
BRANCH  48  67
ATOM     67  C   UNL A   1      43.805  32.250  32.309  1.00  0.00    -0.014 A 
ATOM     68  C   UNL A   1      44.318  33.358  31.616  1.00  0.00     0.009 A 
ATOM     69  C   UNL A   1      43.537  32.375  33.682  1.00  0.00     0.009 A 
ATOM     70  C   UNL A   1      44.584  34.553  32.289  1.00  0.00     0.001 A 
ATOM     71  C   UNL A   1      43.776  33.580  34.345  1.00  0.00     0.001 A 
ATOM     72  C   UNL A   1      44.309  34.664  33.651  1.00  0.00     0.000 A 
ENDBRANCH  48  67
BRANCH  60  73
ATOM     73  C   UNL A   1      47.913  26.835  30.822  1.00  0.00    -0.014 A 
ATOM     74  C   UNL A   1      48.897  27.235  29.904  1.00  0.00     0.009 A 
ATOM     75  C   UNL A   1      48.310  26.203  32.011  1.00  0.00     0.009 A 
ATOM     76  C   UNL A   1      50.245  26.966  30.152  1.00  0.00     0.001 A 
ATOM     77  C   UNL A   1      49.660  25.963  32.270  1.00  0.00     0.001 A 
ATOM     78  C   UNL A   1      50.625  26.334  31.336  1.00  0.00     0.000 A 
ENDBRANCH  60  73
ENDBRANCH  34  35
ENDBRANCH  27  29
ENDBRANCH  26  27
ENDBRANCH  25  26
ENDBRANCH  24  25
ENDBRANCH  23  24
ENDBRANCH   1  23
TORSDOF 17
ENDMDL
MODEL 2
REMARK VINA RESULT:      -7.9      5.548     11.147
REMARK SMILES C[C@H]1[C@@H](C(=O)OCCOCCOC(=O)c2ccc(-c3c4nc(c(-c5ccccc5)c5ccc([nH]5)c(-c5ccccc5)c5nc(c(-c6ccccc6)c6ccc3[nH]6)C=C5)C=C4)cc2)CCN1C(=O)/C=C/c1cccc(F)c1
REMARK SMILES IDX 8 1 7 2 6 3 4 4 5 5 3 6 1 7 2 8 65 9 63 10 64 11 66 12 67 13
REMARK SMILES IDX 68 14 69 15 70 16 71 17 76 18 72 19 74 20 73 21 75 22 9 23
REMARK SMILES IDX 10 24 11 25 12 26 13 27 14 28 15 29 16 30 62 31 17 32 61 33
REMARK SMILES IDX 18 34 19 35 20 36 55 37 21 38 60 39 54 40 56 41 22 42 59 43
REMARK SMILES IDX 53 44 52 45 23 47 45 48 30 49 44 50 31 51 34 52 43 53 57 54
REMARK SMILES IDX 32 55 33 56 42 58 58 59 35 60 24 61 25 62 29 63 26 64 28 65
REMARK SMILES IDX 27 66 46 67 47 68 51 69 48 70 50 71 49 72 36 73 37 74 41 75
REMARK SMILES IDX 38 76 40 77 39 78
REMARK H PARENT 56 46 34 57
REMARK Flexibility Score: inf
ROOT
ATOM      1  C   UNL A   1      36.561  22.302  23.841  1.00  0.00     0.202 C 
ENDROOT
BRANCH   1   2
ATOM      2  C   UNL A   1      35.464  23.240  24.356  1.00  0.00     0.261 C 
BRANCH   2   3
ATOM      3  O   UNL A   1      34.177  22.728  23.955  1.00  0.00    -0.463 OA
BRANCH   3   4
ATOM      4  C   UNL A   1      33.612  23.260  22.855  1.00  0.00     0.311 C 
ATOM      5  O   UNL A   1      34.053  23.120  21.720  1.00  0.00    -0.252 OA
BRANCH   4   6
ATOM      6  C   UNL A   1      32.332  24.036  23.137  1.00  0.00     0.123 C 
ATOM      7  C   UNL A   1      33.571  26.385  23.195  1.00  0.00     0.032 C 
ATOM      8  C   UNL A   1      32.269  25.585  23.237  1.00  0.00     0.096 C 
ATOM      9  N   UNL A   1      31.508  25.862  24.470  1.00  0.00    -0.336 N 
ATOM     10  C   UNL A   1      31.705  23.508  24.444  1.00  0.00     0.039 C 
ATOM     11  C   UNL A   1      31.472  24.708  25.335  1.00  0.00     0.121 C 
BRANCH   9  12
ATOM     12  C   UNL A   1      30.954  27.041  24.931  1.00  0.00     0.246 C 
ATOM     13  O   UNL A   1      31.064  27.419  26.096  1.00  0.00    -0.270 OA
BRANCH  12  14
ATOM     14  C   UNL A   1      30.311  27.962  23.963  1.00  0.00     0.072 C 
ATOM     15  C   UNL A   1      30.192  29.282  24.161  1.00  0.00     0.014 C 
BRANCH  15  16
ATOM     16  C   UNL A   1      29.450  30.215  23.297  1.00  0.00    -0.023 A 
ATOM     17  C   UNL A   1      28.858  29.703  22.131  1.00  0.00     0.008 A 
ATOM     18  C   UNL A   1      29.326  31.586  23.558  1.00  0.00     0.047 A 
ATOM     19  C   UNL A   1      28.163  30.534  21.246  1.00  0.00     0.004 A 
ATOM     20  C   UNL A   1      28.633  32.406  22.669  1.00  0.00     0.123 A 
ATOM     21  C   UNL A   1      28.050  31.893  21.518  1.00  0.00     0.039 A 
ATOM     22  F   UNL A   1      28.530  33.716  22.930  1.00  0.00    -0.207 F 
ENDBRANCH  15  16
ENDBRANCH  12  14
ENDBRANCH   9  12
ENDBRANCH   4   6
ENDBRANCH   3   4
ENDBRANCH   2   3
ENDBRANCH   1   2
BRANCH   1  23
ATOM     23  O   UNL A   1      37.424  21.792  24.863  1.00  0.00    -0.374 OA
BRANCH  23  24
ATOM     24  C   UNL A   1      37.503  20.372  24.981  1.00  0.00     0.202 C 
BRANCH  24  25
ATOM     25  C   UNL A   1      38.924  19.801  24.978  1.00  0.00     0.261 C 
BRANCH  25  26
ATOM     26  O   UNL A   1      39.623  20.150  26.185  1.00  0.00    -0.460 OA
BRANCH  26  27
ATOM     27  C   UNL A   1      40.952  19.920  26.141  1.00  0.00     0.338 C 
ATOM     28  O   UNL A   1      41.513  18.924  25.699  1.00  0.00    -0.246 OA
BRANCH  27  29
ATOM     29  C   UNL A   1      41.701  21.115  26.571  1.00  0.00     0.060 A 
ATOM     30  C   UNL A   1      41.862  21.293  27.949  1.00  0.00     0.016 A 
ATOM     31  C   UNL A   1      42.171  22.079  25.673  1.00  0.00     0.016 A 
ATOM     32  C   UNL A   1      42.399  22.477  28.440  1.00  0.00     0.010 A 
ATOM     33  C   UNL A   1      42.721  23.269  26.169  1.00  0.00     0.010 A 
ATOM     34  C   UNL A   1      42.779  23.494  27.555  1.00  0.00    -0.014 A 
BRANCH  34  35
ATOM     35  C   UNL A   1      43.046  24.842  28.113  1.00  0.00     0.031 A 
ATOM     36  C   UNL A   1      44.474  25.285  28.292  1.00  0.00     0.074 A 
ATOM     37  C   UNL A   1      42.038  25.700  28.348  1.00  0.00     0.049 A 
ATOM     38  N   UNL A   1      44.942  26.457  28.644  1.00  0.00    -0.248 NA
ATOM     39  C   UNL A   1      45.516  24.277  28.035  1.00  0.00     0.031 C 
ATOM     40  C   UNL A   1      40.617  25.405  28.176  1.00  0.00     0.029 A 
ATOM     41  N   UNL A   1      42.064  27.008  28.762  1.00  0.00    -0.354 N 
ATOM     42  C   UNL A   1      46.324  26.325  28.647  1.00  0.00     0.074 A 
ATOM     43  C   UNL A   1      46.622  24.952  28.305  1.00  0.00     0.031 C 
ATOM     44  C   UNL A   1      39.905  26.507  28.465  1.00  0.00     0.029 A 
ATOM     45  C   UNL A   1      40.819  27.577  28.860  1.00  0.00     0.049 A 
ATOM     46  H   UNL A   1      42.896  27.492  28.969  1.00  0.00     0.167 HD
ATOM     47  C   UNL A   1      47.268  27.265  28.897  1.00  0.00     0.031 A 
ATOM     48  C   UNL A   1      40.458  28.823  29.224  1.00  0.00     0.031 A 
ATOM     49  C   UNL A   1      46.977  28.629  29.247  1.00  0.00     0.049 A 
ATOM     50  C   UNL A   1      41.523  29.834  29.555  1.00  0.00     0.074 A 
ATOM     51  C   UNL A   1      47.862  29.660  29.509  1.00  0.00     0.029 A 
ATOM     52  N   UNL A   1      45.701  29.149  29.390  1.00  0.00    -0.354 N 
ATOM     53  N   UNL A   1      42.828  29.704  29.519  1.00  0.00    -0.248 NA
ATOM     54  C   UNL A   1      41.062  31.170  29.958  1.00  0.00     0.031 C 
ATOM     55  C   UNL A   1      47.120  30.792  29.863  1.00  0.00     0.029 A 
ATOM     56  C   UNL A   1      45.774  30.481  29.761  1.00  0.00     0.049 A 
ATOM     57  H   UNL A   1      44.866  28.647  29.249  1.00  0.00     0.167 HD
ATOM     58  C   UNL A   1      43.342  30.948  29.866  1.00  0.00     0.074 A 
ATOM     59  C   UNL A   1      42.208  31.822  30.090  1.00  0.00     0.031 C 
ATOM     60  C   UNL A   1      44.636  31.334  29.986  1.00  0.00     0.031 A 
BRANCH  47  61
ATOM     61  C   UNL A   1      48.707  26.833  28.828  1.00  0.00    -0.014 A 
ATOM     62  C   UNL A   1      49.364  26.301  29.949  1.00  0.00     0.009 A 
ATOM     63  C   UNL A   1      49.410  26.944  27.619  1.00  0.00     0.009 A 
ATOM     64  C   UNL A   1      50.705  25.920  29.868  1.00  0.00     0.001 A 
ATOM     65  C   UNL A   1      50.742  26.536  27.533  1.00  0.00     0.001 A 
ATOM     66  C   UNL A   1      51.391  26.033  28.660  1.00  0.00     0.000 A 
ENDBRANCH  47  61
BRANCH  48  67
ATOM     67  C   UNL A   1      39.020  29.190  29.295  1.00  0.00    -0.014 A 
ATOM     68  C   UNL A   1      38.282  28.993  30.473  1.00  0.00     0.009 A 
ATOM     69  C   UNL A   1      38.370  29.724  28.170  1.00  0.00     0.009 A 
ATOM     70  C   UNL A   1      36.919  29.296  30.514  1.00  0.00     0.001 A 
ATOM     71  C   UNL A   1      37.015  30.054  28.224  1.00  0.00     0.001 A 
ATOM     72  C   UNL A   1      36.288  29.830  29.391  1.00  0.00     0.000 A 
ENDBRANCH  48  67
BRANCH  60  73
ATOM     73  C   UNL A   1      44.892  32.773  30.343  1.00  0.00    -0.014 A 
ATOM     74  C   UNL A   1      44.956  33.771  29.358  1.00  0.00     0.009 A 
ATOM     75  C   UNL A   1      45.044  33.136  31.690  1.00  0.00     0.009 A 
ATOM     76  C   UNL A   1      45.213  35.097  29.713  1.00  0.00     0.001 A 
ATOM     77  C   UNL A   1      45.270  34.467  32.044  1.00  0.00     0.001 A 
ATOM     78  C   UNL A   1      45.367  35.444  31.055  1.00  0.00     0.000 A 
ENDBRANCH  60  73
ENDBRANCH  34  35
ENDBRANCH  27  29
ENDBRANCH  26  27
ENDBRANCH  25  26
ENDBRANCH  24  25
ENDBRANCH  23  24
ENDBRANCH   1  23
TORSDOF 17
ENDMDL
MODEL 3
REMARK VINA RESULT:      -7.9      5.503     11.496
REMARK SMILES C[C@H]1[C@@H](C(=O)OCCOCCOC(=O)c2ccc(-c3c4nc(c(-c5ccccc5)c5ccc([nH]5)c(-c5ccccc5)c5nc(c(-c6ccccc6)c6ccc3[nH]6)C=C5)C=C4)cc2)CCN1C(=O)/C=C/c1cccc(F)c1
REMARK SMILES IDX 8 1 7 2 6 3 4 4 5 5 3 6 1 7 2 8 65 9 63 10 64 11 66 12 67 13
REMARK SMILES IDX 68 14 69 15 70 16 71 17 76 18 72 19 74 20 73 21 75 22 9 23
REMARK SMILES IDX 10 24 11 25 12 26 13 27 14 28 15 29 16 30 62 31 17 32 61 33
REMARK SMILES IDX 18 34 19 35 20 36 55 37 21 38 60 39 54 40 56 41 22 42 59 43
REMARK SMILES IDX 53 44 52 45 23 47 45 48 30 49 44 50 31 51 34 52 43 53 57 54
REMARK SMILES IDX 32 55 33 56 42 58 58 59 35 60 24 61 25 62 29 63 26 64 28 65
REMARK SMILES IDX 27 66 46 67 47 68 51 69 48 70 50 71 49 72 36 73 37 74 41 75
REMARK SMILES IDX 38 76 40 77 39 78
REMARK H PARENT 56 46 34 57
REMARK Flexibility Score: inf
ROOT
ATOM      1  C   UNL A   1      37.471  22.650  25.777  1.00  0.00     0.202 C 
ENDROOT
BRANCH   1   2
ATOM      2  C   UNL A   1      37.076  21.594  24.739  1.00  0.00     0.261 C 
BRANCH   2   3
ATOM      3  O   UNL A   1      36.273  20.580  25.376  1.00  0.00    -0.463 OA
BRANCH   3   4
ATOM      4  C   UNL A   1      35.025  20.390  24.907  1.00  0.00     0.311 C 
ATOM      5  O   UNL A   1      34.556  19.292  24.629  1.00  0.00    -0.252 OA
BRANCH   4   6
ATOM      6  C   UNL A   1      34.215  21.674  24.781  1.00  0.00     0.123 C 
ATOM      7  C   UNL A   1      33.953  21.964  27.409  1.00  0.00     0.032 C 
ATOM      8  C   UNL A   1      33.735  22.512  25.998  1.00  0.00     0.096 C 
ATOM      9  N   UNL A   1      32.308  22.783  25.742  1.00  0.00    -0.336 N 
ATOM     10  C   UNL A   1      32.949  21.387  23.948  1.00  0.00     0.039 C 
ATOM     11  C   UNL A   1      31.770  21.875  24.758  1.00  0.00     0.121 C 
BRANCH   9  12
ATOM     12  C   UNL A   1      31.442  23.664  26.361  1.00  0.00     0.246 C 
ATOM     13  O   UNL A   1      30.848  23.394  27.403  1.00  0.00    -0.270 OA
BRANCH  12  14
ATOM     14  C   UNL A   1      31.315  25.043  25.830  1.00  0.00     0.072 C 
ATOM     15  C   UNL A   1      30.272  25.465  25.102  1.00  0.00     0.014 C 
BRANCH  15  16
ATOM     16  C   UNL A   1      30.160  26.778  24.444  1.00  0.00    -0.023 A 
ATOM     17  C   UNL A   1      31.217  27.688  24.609  1.00  0.00     0.008 A 
ATOM     18  C   UNL A   1      29.051  27.178  23.689  1.00  0.00     0.047 A 
ATOM     19  C   UNL A   1      31.168  28.965  24.039  1.00  0.00     0.004 A 
ATOM     20  C   UNL A   1      29.011  28.453  23.126  1.00  0.00     0.123 A 
ATOM     21  C   UNL A   1      30.059  29.348  23.294  1.00  0.00     0.039 A 
ATOM     22  F   UNL A   1      27.939  28.822  22.413  1.00  0.00    -0.207 F 
ENDBRANCH  15  16
ENDBRANCH  12  14
ENDBRANCH   9  12
ENDBRANCH   4   6
ENDBRANCH   3   4
ENDBRANCH   2   3
ENDBRANCH   1   2
BRANCH   1  23
ATOM     23  O   UNL A   1      38.881  22.871  25.883  1.00  0.00    -0.374 OA
BRANCH  23  24
ATOM     24  C   UNL A   1      39.636  21.861  26.551  1.00  0.00     0.202 C 
BRANCH  24  25
ATOM     25  C   UNL A   1      41.115  21.794  26.159  1.00  0.00     0.261 C 
BRANCH  25  26
ATOM     26  O   UNL A   1      41.637  23.107  25.890  1.00  0.00    -0.460 OA
BRANCH  26  27
ATOM     27  C   UNL A   1      42.530  23.545  26.803  1.00  0.00     0.338 C 
ATOM     28  O   UNL A   1      43.650  23.095  27.014  1.00  0.00    -0.246 OA
BRANCH  27  29
ATOM     29  C   UNL A   1      42.045  24.776  27.455  1.00  0.00     0.060 A 
ATOM     30  C   UNL A   1      42.886  25.892  27.391  1.00  0.00     0.016 A 
ATOM     31  C   UNL A   1      40.846  24.833  28.173  1.00  0.00     0.016 A 
ATOM     32  C   UNL A   1      42.586  27.033  28.126  1.00  0.00     0.010 A 
ATOM     33  C   UNL A   1      40.540  25.987  28.907  1.00  0.00     0.010 A 
ATOM     34  C   UNL A   1      41.440  27.066  28.932  1.00  0.00    -0.014 A 
BRANCH  34  35
ATOM     35  C   UNL A   1      41.319  28.156  29.930  1.00  0.00     0.031 A 
ATOM     36  C   UNL A   1      40.191  29.145  29.793  1.00  0.00     0.074 A 
ATOM     37  C   UNL A   1      42.128  28.198  31.003  1.00  0.00     0.049 A 
ATOM     38  N   UNL A   1      39.820  30.098  30.612  1.00  0.00    -0.248 NA
ATOM     39  C   UNL A   1      39.368  29.043  28.578  1.00  0.00     0.031 C 
ATOM     40  C   UNL A   1      43.230  27.275  31.269  1.00  0.00     0.029 A 
ATOM     41  N   UNL A   1      42.127  29.044  32.083  1.00  0.00    -0.354 N 
ATOM     42  C   UNL A   1      38.724  30.703  30.010  1.00  0.00     0.074 A 
ATOM     43  C   UNL A   1      38.514  30.042  28.742  1.00  0.00     0.031 C 
ATOM     44  C   UNL A   1      43.789  27.594  32.449  1.00  0.00     0.029 A 
ATOM     45  C   UNL A   1      43.098  28.754  33.009  1.00  0.00     0.049 A 
ATOM     46  H   UNL A   1      41.491  29.789  32.184  1.00  0.00     0.167 HD
ATOM     47  C   UNL A   1      37.948  31.711  30.476  1.00  0.00     0.031 A 
ATOM     48  C   UNL A   1      43.393  29.354  34.178  1.00  0.00     0.031 A 
ATOM     49  C   UNL A   1      38.158  32.380  31.732  1.00  0.00     0.049 A 
ATOM     50  C   UNL A   1      42.552  30.511  34.647  1.00  0.00     0.074 A 
ATOM     51  C   UNL A   1      37.421  33.405  32.298  1.00  0.00     0.029 A 
ATOM     52  N   UNL A   1      39.187  32.091  32.613  1.00  0.00    -0.354 N 
ATOM     53  N   UNL A   1      41.496  31.050  34.085  1.00  0.00    -0.248 NA
ATOM     54  C   UNL A   1      42.935  31.130  35.924  1.00  0.00     0.031 C 
ATOM     55  C   UNL A   1      38.037  33.773  33.500  1.00  0.00     0.029 A 
ATOM     56  C   UNL A   1      39.121  32.936  33.708  1.00  0.00     0.049 A 
ATOM     57  H   UNL A   1      39.866  31.390  32.481  1.00  0.00     0.167 HD
ATOM     58  C   UNL A   1      41.073  32.049  34.952  1.00  0.00     0.074 A 
ATOM     59  C   UNL A   1      41.975  32.029  36.086  1.00  0.00     0.031 C 
ATOM     60  C   UNL A   1      40.030  32.906  34.825  1.00  0.00     0.031 A 
BRANCH  47  61
ATOM     61  C   UNL A   1      36.814  32.170  29.601  1.00  0.00    -0.014 A 
ATOM     62  C   UNL A   1      35.565  31.529  29.628  1.00  0.00     0.009 A 
ATOM     63  C   UNL A   1      36.993  33.272  28.751  1.00  0.00     0.009 A 
ATOM     64  C   UNL A   1      34.530  31.962  28.795  1.00  0.00     0.001 A 
ATOM     65  C   UNL A   1      35.948  33.721  27.942  1.00  0.00     0.001 A 
ATOM     66  C   UNL A   1      34.720  33.060  27.958  1.00  0.00     0.000 A 
ENDBRANCH  47  61
BRANCH  48  67
ATOM     67  C   UNL A   1      44.538  28.872  34.994  1.00  0.00    -0.014 A 
ATOM     68  C   UNL A   1      44.357  27.889  35.979  1.00  0.00     0.009 A 
ATOM     69  C   UNL A   1      45.819  29.414  34.803  1.00  0.00     0.009 A 
ATOM     70  C   UNL A   1      45.430  27.479  36.774  1.00  0.00     0.001 A 
ATOM     71  C   UNL A   1      46.895  28.980  35.579  1.00  0.00     0.001 A 
ATOM     72  C   UNL A   1      46.698  28.021  36.571  1.00  0.00     0.000 A 
ENDBRANCH  48  67
BRANCH  60  73
ATOM     73  C   UNL A   1      39.790  33.867  35.957  1.00  0.00    -0.014 A 
ATOM     74  C   UNL A   1      40.364  35.147  35.964  1.00  0.00     0.009 A 
ATOM     75  C   UNL A   1      38.953  33.491  37.020  1.00  0.00     0.009 A 
ATOM     76  C   UNL A   1      40.141  36.015  37.035  1.00  0.00     0.001 A 
ATOM     77  C   UNL A   1      38.707  34.372  38.074  1.00  0.00     0.001 A 
ATOM     78  C   UNL A   1      39.311  35.628  38.087  1.00  0.00     0.000 A 
ENDBRANCH  60  73
ENDBRANCH  34  35
ENDBRANCH  27  29
ENDBRANCH  26  27
ENDBRANCH  25  26
ENDBRANCH  24  25
ENDBRANCH  23  24
ENDBRANCH   1  23
TORSDOF 17
ENDMDL
