MODEL 1
REMARK VINA RESULT:      -9.6      0.000      0.000
REMARK SMILES [NH3+][C@H](Cc1ccc2nsnc2c1)C(=O)OCCOCCOC(=O)c1ccc(-c2c3nc(c(-c4ccccc4)c4ccc([nH]4)c(-c4ccccc4)c4nc(c(-c5ccccc5)c5ccc2[nH]5)C=C4)C=C3)cc1
REMARK SMILES IDX 18 1 17 2 16 3 15 4 13 5 14 6 2 7 1 8 3 12 4 13 5 14 12 15
REMARK SMILES IDX 6 16 11 17 7 18 10 19 8 20 9 21 19 22 20 23 21 24 22 25
REMARK SMILES IDX 23 26 24 27 25 28 71 29 26 30 70 31 27 32 28 33 29 34 64 35
REMARK SMILES IDX 30 36 69 37 63 38 65 39 31 40 68 41 62 42 61 43 32 45 54 46
REMARK SMILES IDX 39 47 53 48 40 49 43 50 52 51 66 52 41 53 42 54 51 56 67 57
REMARK SMILES IDX 44 58 33 59 34 60 38 61 35 62 37 63 36 64 55 65 56 66 60 67
REMARK SMILES IDX 57 68 59 69 58 70 45 71 46 72 50 73 47 74 49 75 48 76
REMARK H PARENT 1 9 1 10 1 11 65 44 43 55
REMARK Flexibility Score: inf
ROOT
ATOM      1  O   UNL A   1      44.663  21.075  23.617  1.00  0.00    -0.374 OA
ENDROOT
BRANCH   1   2
ATOM      2  C   UNL A   1      45.186  20.246  24.657  1.00  0.00     0.202 C 
BRANCH   2   3
ATOM      3  C   UNL A   1      44.575  18.847  24.752  1.00  0.00     0.261 C 
BRANCH   3   4
ATOM      4  O   UNL A   1      43.146  18.945  24.892  1.00  0.00    -0.459 OA
BRANCH   4   5
ATOM      5  C   UNL A   1      42.646  18.651  26.122  1.00  0.00     0.365 C 
ATOM      6  O   UNL A   1      43.077  17.757  26.842  1.00  0.00    -0.245 OA
BRANCH   5   7
ATOM      7  C   UNL A   1      41.517  19.620  26.547  1.00  0.00     0.296 C 
BRANCH   7   8
ATOM      8  N   UNL A   1      41.335  19.581  28.014  1.00  0.00    -0.346 N 
ATOM      9  H   UNL A   1      42.246  19.522  28.468  1.00  0.00     0.345 HD
ATOM     10  H   UNL A   1      40.777  18.766  28.267  1.00  0.00     0.345 HD
ATOM     11  H   UNL A   1      40.857  20.429  28.320  1.00  0.00     0.345 HD
ENDBRANCH   7   8
BRANCH   7  12
ATOM     12  C   UNL A   1      40.193  19.545  25.741  1.00  0.00     0.113 C 
BRANCH  12  13
ATOM     13  C   UNL A   1      39.305  20.780  25.745  1.00  0.00    -0.039 A 
ATOM     14  C   UNL A   1      39.781  21.953  26.402  1.00  0.00     0.006 A 
ATOM     15  C   UNL A   1      38.053  20.747  25.092  1.00  0.00     0.035 A 
ATOM     16  C   UNL A   1      39.048  23.151  26.498  1.00  0.00     0.032 A 
ATOM     17  C   UNL A   1      37.266  21.920  25.175  1.00  0.00     0.105 A 
ATOM     18  C   UNL A   1      37.771  23.142  25.894  1.00  0.00     0.104 A 
ATOM     19  N   UNL A   1      36.038  22.080  24.658  1.00  0.00    -0.173 NA
ATOM     20  N   UNL A   1      36.898  24.160  25.884  1.00  0.00    -0.173 NA
ATOM     21  S   UNL A   1      35.563  23.624  25.052  1.00  0.00     0.069 S 
ENDBRANCH  12  13
ENDBRANCH   7  12
ENDBRANCH   5   7
ENDBRANCH   4   5
ENDBRANCH   3   4
ENDBRANCH   2   3
ENDBRANCH   1   2
BRANCH   1  22
ATOM     22  C   UNL A   1      44.574  22.476  23.870  1.00  0.00     0.202 C 
BRANCH  22  23
ATOM     23  C   UNL A   1      43.406  22.927  24.757  1.00  0.00     0.261 C 
BRANCH  23  24
ATOM     24  O   UNL A   1      43.843  23.689  25.898  1.00  0.00    -0.460 OA
BRANCH  24  25
ATOM     25  C   UNL A   1      44.005  25.013  25.662  1.00  0.00     0.338 C 
ATOM     26  O   UNL A   1      44.592  25.531  24.720  1.00  0.00    -0.246 OA
BRANCH  25  27
ATOM     27  C   UNL A   1      43.229  25.813  26.626  1.00  0.00     0.060 A 
ATOM     28  C   UNL A   1      43.565  27.168  26.753  1.00  0.00     0.016 A 
ATOM     29  C   UNL A   1      42.267  25.241  27.460  1.00  0.00     0.016 A 
ATOM     30  C   UNL A   1      42.976  27.943  27.750  1.00  0.00     0.010 A 
ATOM     31  C   UNL A   1      41.684  26.019  28.468  1.00  0.00     0.010 A 
ATOM     32  C   UNL A   1      42.064  27.363  28.641  1.00  0.00    -0.014 A 
BRANCH  32  33
ATOM     33  C   UNL A   1      41.630  28.130  29.835  1.00  0.00     0.031 A 
ATOM     34  C   UNL A   1      40.425  29.026  29.733  1.00  0.00     0.074 A 
ATOM     35  C   UNL A   1      42.266  27.994  31.012  1.00  0.00     0.049 A 
ATOM     36  N   UNL A   1      39.867  29.772  30.654  1.00  0.00    -0.248 NA
ATOM     37  C   UNL A   1      39.759  29.087  28.422  1.00  0.00     0.031 C 
ATOM     38  C   UNL A   1      43.416  27.125  31.257  1.00  0.00     0.029 A 
ATOM     39  N   UNL A   1      42.026  28.589  32.225  1.00  0.00    -0.354 N 
ATOM     40  C   UNL A   1      38.790  30.392  30.033  1.00  0.00     0.074 A 
ATOM     41  C   UNL A   1      38.788  29.957  28.652  1.00  0.00     0.031 C 
ATOM     42  C   UNL A   1      43.784  27.245  32.545  1.00  0.00     0.029 A 
ATOM     43  C   UNL A   1      42.913  28.218  33.205  1.00  0.00     0.049 A 
ATOM     44  H   UNL A   1      41.288  29.223  32.378  1.00  0.00     0.167 HD
ATOM     45  C   UNL A   1      37.878  31.242  30.563  1.00  0.00     0.031 A 
ATOM     46  C   UNL A   1      43.022  28.627  34.483  1.00  0.00     0.031 A 
ATOM     47  C   UNL A   1      37.880  31.689  31.930  1.00  0.00     0.049 A 
ATOM     48  C   UNL A   1      42.044  29.633  35.028  1.00  0.00     0.074 A 
ATOM     49  C   UNL A   1      36.989  32.540  32.561  1.00  0.00     0.029 A 
ATOM     50  N   UNL A   1      38.826  31.328  32.876  1.00  0.00    -0.354 N 
ATOM     51  N   UNL A   1      41.015  30.192  34.437  1.00  0.00    -0.248 NA
ATOM     52  C   UNL A   1      42.241  30.061  36.421  1.00  0.00     0.031 C 
ATOM     53  C   UNL A   1      37.424  32.733  33.877  1.00  0.00     0.029 A 
ATOM     54  C   UNL A   1      38.556  31.960  34.077  1.00  0.00     0.049 A 
ATOM     55  H   UNL A   1      39.577  30.712  32.717  1.00  0.00     0.167 HD
ATOM     56  C   UNL A   1      40.429  31.014  35.393  1.00  0.00     0.074 A 
ATOM     57  C   UNL A   1      41.209  30.872  36.604  1.00  0.00     0.031 C 
ATOM     58  C   UNL A   1      39.341  31.813  35.276  1.00  0.00     0.031 A 
BRANCH  45  59
ATOM     59  C   UNL A   1      36.814  31.772  29.645  1.00  0.00    -0.014 A 
ATOM     60  C   UNL A   1      35.624  31.062  29.423  1.00  0.00     0.009 A 
ATOM     61  C   UNL A   1      36.992  33.015  29.017  1.00  0.00     0.009 A 
ATOM     62  C   UNL A   1      34.647  31.572  28.566  1.00  0.00     0.001 A 
ATOM     63  C   UNL A   1      36.003  33.534  28.180  1.00  0.00     0.001 A 
ATOM     64  C   UNL A   1      34.835  32.808  27.949  1.00  0.00     0.000 A 
ENDBRANCH  45  59
BRANCH  46  65
ATOM     65  C   UNL A   1      44.112  28.100  35.342  1.00  0.00    -0.014 A 
ATOM     66  C   UNL A   1      45.360  28.740  35.391  1.00  0.00     0.009 A 
ATOM     67  C   UNL A   1      43.915  26.936  36.102  1.00  0.00     0.009 A 
ATOM     68  C   UNL A   1      46.395  28.212  36.168  1.00  0.00     0.001 A 
ATOM     69  C   UNL A   1      44.943  26.426  36.899  1.00  0.00     0.001 A 
ATOM     70  C   UNL A   1      46.184  27.060  36.923  1.00  0.00     0.000 A 
ENDBRANCH  46  65
BRANCH  58  71
ATOM     71  C   UNL A   1      38.908  32.572  36.498  1.00  0.00    -0.014 A 
ATOM     72  C   UNL A   1      39.365  33.875  36.746  1.00  0.00     0.009 A 
ATOM     73  C   UNL A   1      37.997  31.988  37.393  1.00  0.00     0.009 A 
ATOM     74  C   UNL A   1      38.942  34.567  37.883  1.00  0.00     0.001 A 
ATOM     75  C   UNL A   1      37.556  32.691  38.515  1.00  0.00     0.001 A 
ATOM     76  C   UNL A   1      38.034  33.976  38.763  1.00  0.00     0.000 A 
ENDBRANCH  58  71
ENDBRANCH  32  33
ENDBRANCH  25  27
ENDBRANCH  24  25
ENDBRANCH  23  24
ENDBRANCH  22  23
ENDBRANCH   1  22
TORSDOF 17
ENDMDL
MODEL 2
REMARK VINA RESULT:      -9.5      5.437     10.410
REMARK SMILES [NH3+][C@H](Cc1ccc2nsnc2c1)C(=O)OCCOCCOC(=O)c1ccc(-c2c3nc(c(-c4ccccc4)c4ccc([nH]4)c(-c4ccccc4)c4nc(c(-c5ccccc5)c5ccc2[nH]5)C=C4)C=C3)cc1
REMARK SMILES IDX 18 1 17 2 16 3 15 4 13 5 14 6 2 7 1 8 3 12 4 13 5 14 12 15
REMARK SMILES IDX 6 16 11 17 7 18 10 19 8 20 9 21 19 22 20 23 21 24 22 25
REMARK SMILES IDX 23 26 24 27 25 28 71 29 26 30 70 31 27 32 28 33 29 34 64 35
REMARK SMILES IDX 30 36 69 37 63 38 65 39 31 40 68 41 62 42 61 43 32 45 54 46
REMARK SMILES IDX 39 47 53 48 40 49 43 50 52 51 66 52 41 53 42 54 51 56 67 57
REMARK SMILES IDX 44 58 33 59 34 60 38 61 35 62 37 63 36 64 55 65 56 66 60 67
REMARK SMILES IDX 57 68 59 69 58 70 45 71 46 72 50 73 47 74 49 75 48 76
REMARK H PARENT 1 9 1 10 1 11 65 44 43 55
REMARK Flexibility Score: inf
ROOT
ATOM      1  O   UNL A   1      31.920  30.734  26.562  1.00  0.00    -0.374 OA
ENDROOT
BRANCH   1   2
ATOM      2  C   UNL A   1      33.119  30.259  27.180  1.00  0.00     0.202 C 
BRANCH   2   3
ATOM      3  C   UNL A   1      33.516  28.824  26.828  1.00  0.00     0.261 C 
BRANCH   3   4
ATOM      4  O   UNL A   1      33.557  28.665  25.398  1.00  0.00    -0.459 OA
BRANCH   4   5
ATOM      5  C   UNL A   1      32.738  27.710  24.881  1.00  0.00     0.365 C 
ATOM      6  O   UNL A   1      32.661  26.566  25.313  1.00  0.00    -0.245 OA
BRANCH   5   7
ATOM      7  C   UNL A   1      31.856  28.250  23.729  1.00  0.00     0.296 C 
BRANCH   7   8
ATOM      8  N   UNL A   1      32.564  29.327  23.005  1.00  0.00    -0.346 N 
ATOM      9  H   UNL A   1      32.012  30.184  23.047  1.00  0.00     0.345 HD
ATOM     10  H   UNL A   1      32.692  29.055  22.031  1.00  0.00     0.345 HD
ATOM     11  H   UNL A   1      33.474  29.487  23.437  1.00  0.00     0.345 HD
ENDBRANCH   7   8
BRANCH   7  12
ATOM     12  C   UNL A   1      30.381  28.581  24.078  1.00  0.00     0.113 C 
BRANCH  12  13
ATOM     13  C   UNL A   1      29.756  29.783  23.389  1.00  0.00    -0.039 A 
ATOM     14  C   UNL A   1      29.600  30.987  24.138  1.00  0.00     0.006 A 
ATOM     15  C   UNL A   1      29.364  29.692  22.035  1.00  0.00     0.035 A 
ATOM     16  C   UNL A   1      29.016  32.161  23.626  1.00  0.00     0.032 A 
ATOM     17  C   UNL A   1      28.752  30.839  21.475  1.00  0.00     0.105 A 
ATOM     18  C   UNL A   1      28.572  32.094  22.287  1.00  0.00     0.104 A 
ATOM     19  N   UNL A   1      28.277  30.945  20.225  1.00  0.00    -0.173 NA
ATOM     20  N   UNL A   1      27.968  33.081  21.608  1.00  0.00    -0.173 NA
ATOM     21  S   UNL A   1      27.653  32.480  20.091  1.00  0.00     0.069 S 
ENDBRANCH  12  13
ENDBRANCH   7  12
ENDBRANCH   5   7
ENDBRANCH   4   5
ENDBRANCH   3   4
ENDBRANCH   2   3
ENDBRANCH   1   2
BRANCH   1  22
ATOM     22  C   UNL A   1      31.537  32.084  26.816  1.00  0.00     0.202 C 
BRANCH  22  23
ATOM     23  C   UNL A   1      32.667  33.043  27.211  1.00  0.00     0.261 C 
BRANCH  23  24
ATOM     24  O   UNL A   1      32.219  34.091  28.091  1.00  0.00    -0.460 OA
BRANCH  24  25
ATOM     25  C   UNL A   1      33.213  34.762  28.719  1.00  0.00     0.338 C 
ATOM     26  O   UNL A   1      33.167  35.899  29.175  1.00  0.00    -0.246 OA
BRANCH  25  27
ATOM     27  C   UNL A   1      34.373  33.883  28.949  1.00  0.00     0.060 A 
ATOM     28  C   UNL A   1      34.151  32.705  29.675  1.00  0.00     0.016 A 
ATOM     29  C   UNL A   1      35.664  34.240  28.557  1.00  0.00     0.016 A 
ATOM     30  C   UNL A   1      35.227  31.907  30.058  1.00  0.00     0.010 A 
ATOM     31  C   UNL A   1      36.745  33.442  28.951  1.00  0.00     0.010 A 
ATOM     32  C   UNL A   1      36.535  32.292  29.735  1.00  0.00    -0.014 A 
BRANCH  32  33
ATOM     33  C   UNL A   1      37.676  31.567  30.347  1.00  0.00     0.031 A 
ATOM     34  C   UNL A   1      38.025  31.832  31.787  1.00  0.00     0.074 A 
ATOM     35  C   UNL A   1      38.363  30.647  29.649  1.00  0.00     0.049 A 
ATOM     36  N   UNL A   1      38.971  31.301  32.521  1.00  0.00    -0.248 NA
ATOM     37  C   UNL A   1      37.198  32.822  32.494  1.00  0.00     0.031 C 
ATOM     38  C   UNL A   1      38.098  30.264  28.263  1.00  0.00     0.029 A 
ATOM     39  N   UNL A   1      39.428  29.863  30.020  1.00  0.00    -0.354 N 
ATOM     40  C   UNL A   1      38.854  31.894  33.772  1.00  0.00     0.074 A 
ATOM     41  C   UNL A   1      37.766  32.844  33.691  1.00  0.00     0.031 C 
ATOM     42  C   UNL A   1      38.980  29.316  27.899  1.00  0.00     0.029 A 
ATOM     43  C   UNL A   1      39.887  29.048  29.015  1.00  0.00     0.049 A 
ATOM     44  H   UNL A   1      39.825  29.885  30.920  1.00  0.00     0.167 HD
ATOM     45  C   UNL A   1      39.582  31.666  34.891  1.00  0.00     0.031 A 
ATOM     46  C   UNL A   1      40.927  28.195  28.992  1.00  0.00     0.031 A 
ATOM     47  C   UNL A   1      40.673  30.733  34.977  1.00  0.00     0.049 A 
ATOM     48  C   UNL A   1      41.771  28.017  30.226  1.00  0.00     0.074 A 
ATOM     49  C   UNL A   1      41.461  30.425  36.073  1.00  0.00     0.029 A 
ATOM     50  N   UNL A   1      41.137  29.963  33.922  1.00  0.00    -0.354 N 
ATOM     51  N   UNL A   1      41.634  28.565  31.409  1.00  0.00    -0.248 NA
ATOM     52  C   UNL A   1      42.912  27.094  30.121  1.00  0.00     0.031 C 
ATOM     53  C   UNL A   1      42.434  29.505  35.669  1.00  0.00     0.029 A 
ATOM     54  C   UNL A   1      42.217  29.202  34.334  1.00  0.00     0.049 A 
ATOM     55  H   UNL A   1      40.754  29.959  33.016  1.00  0.00     0.167 HD
ATOM     56  C   UNL A   1      42.652  28.036  32.193  1.00  0.00     0.074 A 
ATOM     57  C   UNL A   1      43.391  27.114  31.356  1.00  0.00     0.031 C 
ATOM     58  C   UNL A   1      42.947  28.290  33.491  1.00  0.00     0.031 A 
BRANCH  45  59
ATOM     59  C   UNL A   1      39.237  32.469  36.113  1.00  0.00    -0.014 A 
ATOM     60  C   UNL A   1      38.419  31.941  37.124  1.00  0.00     0.009 A 
ATOM     61  C   UNL A   1      39.764  33.761  36.267  1.00  0.00     0.009 A 
ATOM     62  C   UNL A   1      38.111  32.705  38.253  1.00  0.00     0.001 A 
ATOM     63  C   UNL A   1      39.473  34.512  37.408  1.00  0.00     0.001 A 
ATOM     64  C   UNL A   1      38.641  33.986  38.395  1.00  0.00     0.000 A 
ENDBRANCH  45  59
BRANCH  46  65
ATOM     65  C   UNL A   1      41.250  27.449  27.749  1.00  0.00    -0.014 A 
ATOM     66  C   UNL A   1      42.101  28.002  26.780  1.00  0.00     0.009 A 
ATOM     67  C   UNL A   1      40.687  26.184  27.517  1.00  0.00     0.009 A 
ATOM     68  C   UNL A   1      42.364  27.312  25.594  1.00  0.00     0.001 A 
ATOM     69  C   UNL A   1      40.973  25.485  26.342  1.00  0.00     0.001 A 
ATOM     70  C   UNL A   1      41.804  26.054  25.378  1.00  0.00     0.000 A 
ENDBRANCH  46  65
BRANCH  58  71
ATOM     71  C   UNL A   1      44.097  27.537  34.098  1.00  0.00    -0.014 A 
ATOM     72  C   UNL A   1      43.914  26.274  34.681  1.00  0.00     0.009 A 
ATOM     73  C   UNL A   1      45.390  28.083  34.047  1.00  0.00     0.009 A 
ATOM     74  C   UNL A   1      44.998  25.587  35.231  1.00  0.00     0.001 A 
ATOM     75  C   UNL A   1      46.475  27.383  34.574  1.00  0.00     0.001 A 
ATOM     76  C   UNL A   1      46.278  26.140  35.172  1.00  0.00     0.000 A 
ENDBRANCH  58  71
ENDBRANCH  32  33
ENDBRANCH  25  27
ENDBRANCH  24  25
ENDBRANCH  23  24
ENDBRANCH  22  23
ENDBRANCH   1  22
TORSDOF 17
ENDMDL
MODEL 3
REMARK VINA RESULT:      -9.4      3.961      7.833
REMARK SMILES [NH3+][C@H](Cc1ccc2nsnc2c1)C(=O)OCCOCCOC(=O)c1ccc(-c2c3nc(c(-c4ccccc4)c4ccc([nH]4)c(-c4ccccc4)c4nc(c(-c5ccccc5)c5ccc2[nH]5)C=C4)C=C3)cc1
REMARK SMILES IDX 18 1 17 2 16 3 15 4 13 5 14 6 2 7 1 8 3 12 4 13 5 14 12 15
REMARK SMILES IDX 6 16 11 17 7 18 10 19 8 20 9 21 19 22 20 23 21 24 22 25
REMARK SMILES IDX 23 26 24 27 25 28 71 29 26 30 70 31 27 32 28 33 29 34 64 35
REMARK SMILES IDX 30 36 69 37 63 38 65 39 31 40 68 41 62 42 61 43 32 45 54 46
REMARK SMILES IDX 39 47 53 48 40 49 43 50 52 51 66 52 41 53 42 54 51 56 67 57
REMARK SMILES IDX 44 58 33 59 34 60 38 61 35 62 37 63 36 64 55 65 56 66 60 67
REMARK SMILES IDX 57 68 59 69 58 70 45 71 46 72 50 73 47 74 49 75 48 76
REMARK H PARENT 1 9 1 10 1 11 65 44 43 55
REMARK Flexibility Score: inf
ROOT
ATOM      1  O   UNL A   1      42.612  19.099  26.770  1.00  0.00    -0.374 OA
ENDROOT
BRANCH   1   2
ATOM      2  C   UNL A   1      43.259  18.156  25.914  1.00  0.00     0.202 C 
BRANCH   2   3
ATOM      3  C   UNL A   1      44.661  18.548  25.443  1.00  0.00     0.261 C 
BRANCH   3   4
ATOM      4  O   UNL A   1      44.588  19.722  24.615  1.00  0.00    -0.459 OA
BRANCH   4   5
ATOM      5  C   UNL A   1      45.625  20.595  24.725  1.00  0.00     0.365 C 
ATOM      6  O   UNL A   1      46.763  20.270  25.044  1.00  0.00    -0.245 OA
BRANCH   5   7
ATOM      7  C   UNL A   1      45.228  22.037  24.329  1.00  0.00     0.296 C 
BRANCH   7   8
ATOM      8  N   UNL A   1      44.476  22.029  23.056  1.00  0.00    -0.346 N 
ATOM      9  H   UNL A   1      44.231  22.985  22.800  1.00  0.00     0.345 HD
ATOM     10  H   UNL A   1      43.624  21.480  23.167  1.00  0.00     0.345 HD
ATOM     11  H   UNL A   1      45.053  21.617  22.322  1.00  0.00     0.345 HD
ENDBRANCH   7   8
BRANCH   7  12
ATOM     12  C   UNL A   1      46.344  23.112  24.401  1.00  0.00     0.113 C 
BRANCH  12  13
ATOM     13  C   UNL A   1      45.936  24.511  24.835  1.00  0.00    -0.039 A 
ATOM     14  C   UNL A   1      44.559  24.757  25.118  1.00  0.00     0.006 A 
ATOM     15  C   UNL A   1      46.915  25.520  24.966  1.00  0.00     0.035 A 
ATOM     16  C   UNL A   1      44.049  26.010  25.505  1.00  0.00     0.032 A 
ATOM     17  C   UNL A   1      46.452  26.806  25.334  1.00  0.00     0.105 A 
ATOM     18  C   UNL A   1      44.993  27.056  25.605  1.00  0.00     0.104 A 
ATOM     19  N   UNL A   1      47.212  27.904  25.474  1.00  0.00    -0.173 NA
ATOM     20  N   UNL A   1      44.726  28.328  25.932  1.00  0.00    -0.173 NA
ATOM     21  S   UNL A   1      46.178  29.135  25.897  1.00  0.00     0.069 S 
ENDBRANCH  12  13
ENDBRANCH   7  12
ENDBRANCH   5   7
ENDBRANCH   4   5
ENDBRANCH   3   4
ENDBRANCH   2   3
ENDBRANCH   1   2
BRANCH   1  22
ATOM     22  C   UNL A   1      41.853  20.138  26.154  1.00  0.00     0.202 C 
BRANCH  22  23
ATOM     23  C   UNL A   1      40.495  20.452  26.795  1.00  0.00     0.261 C 
BRANCH  23  24
ATOM     24  O   UNL A   1      40.399  21.817  27.243  1.00  0.00    -0.460 OA
BRANCH  24  25
ATOM     25  C   UNL A   1      39.588  22.600  26.493  1.00  0.00     0.338 C 
ATOM     26  O   UNL A   1      38.828  22.240  25.602  1.00  0.00    -0.246 OA
BRANCH  25  27
ATOM     27  C   UNL A   1      39.599  23.988  26.988  1.00  0.00     0.060 A 
ATOM     28  C   UNL A   1      40.312  24.932  26.237  1.00  0.00     0.016 A 
ATOM     29  C   UNL A   1      39.016  24.345  28.205  1.00  0.00     0.016 A 
ATOM     30  C   UNL A   1      40.490  26.224  26.727  1.00  0.00     0.010 A 
ATOM     31  C   UNL A   1      39.205  25.642  28.700  1.00  0.00     0.010 A 
ATOM     32  C   UNL A   1      39.974  26.575  27.981  1.00  0.00    -0.014 A 
BRANCH  32  33
ATOM     33  C   UNL A   1      40.370  27.868  28.592  1.00  0.00     0.031 A 
ATOM     34  C   UNL A   1      41.794  28.064  29.037  1.00  0.00     0.074 A 
ATOM     35  C   UNL A   1      39.489  28.877  28.705  1.00  0.00     0.049 A 
ATOM     36  N   UNL A   1      42.356  29.115  29.580  1.00  0.00    -0.248 NA
ATOM     37  C   UNL A   1      42.708  26.926  28.840  1.00  0.00     0.031 C 
ATOM     38  C   UNL A   1      38.093  28.834  28.272  1.00  0.00     0.029 A 
ATOM     39  N   UNL A   1      39.646  30.141  29.218  1.00  0.00    -0.354 N 
ATOM     40  C   UNL A   1      43.684  28.764  29.792  1.00  0.00     0.074 A 
ATOM     41  C   UNL A   1      43.838  27.396  29.346  1.00  0.00     0.031 C 
ATOM     42  C   UNL A   1      37.519  30.021  28.539  1.00  0.00     0.029 A 
ATOM     43  C   UNL A   1      38.498  30.893  29.186  1.00  0.00     0.049 A 
ATOM     44  H   UNL A   1      40.500  30.475  29.576  1.00  0.00     0.167 HD
ATOM     45  C   UNL A   1      44.688  29.514  30.306  1.00  0.00     0.031 A 
ATOM     46  C   UNL A   1      38.259  32.138  29.641  1.00  0.00     0.031 A 
ATOM     47  C   UNL A   1      44.541  30.869  30.764  1.00  0.00     0.049 A 
ATOM     48  C   UNL A   1      39.373  32.923  30.281  1.00  0.00     0.074 A 
ATOM     49  C   UNL A   1      45.506  31.712  31.288  1.00  0.00     0.029 A 
ATOM     50  N   UNL A   1      43.349  31.577  30.760  1.00  0.00    -0.354 N 
ATOM     51  N   UNL A   1      40.629  32.588  30.453  1.00  0.00    -0.248 NA
ATOM     52  C   UNL A   1      39.034  34.262  30.786  1.00  0.00     0.031 C 
ATOM     53  C   UNL A   1      44.887  32.915  31.649  1.00  0.00     0.029 A 
ATOM     54  C   UNL A   1      43.549  32.836  31.299  1.00  0.00     0.049 A 
ATOM     55  H   UNL A   1      42.491  31.235  30.424  1.00  0.00     0.167 HD
ATOM     56  C   UNL A   1      41.234  33.683  31.059  1.00  0.00     0.074 A 
ATOM     57  C   UNL A   1      40.211  34.696  31.215  1.00  0.00     0.031 C 
ATOM     58  C   UNL A   1      42.522  33.835  31.451  1.00  0.00     0.031 A 
BRANCH  45  59
ATOM     59  C   UNL A   1      46.037  28.865  30.431  1.00  0.00    -0.014 A 
ATOM     60  C   UNL A   1      46.392  28.135  31.576  1.00  0.00     0.009 A 
ATOM     61  C   UNL A   1      46.954  28.959  29.372  1.00  0.00     0.009 A 
ATOM     62  C   UNL A   1      47.651  27.539  31.671  1.00  0.00     0.001 A 
ATOM     63  C   UNL A   1      48.203  28.341  29.460  1.00  0.00     0.001 A 
ATOM     64  C   UNL A   1      48.553  27.639  30.613  1.00  0.00     0.000 A 
ENDBRANCH  45  59
BRANCH  46  65
ATOM     65  C   UNL A   1      36.899  32.723  29.527  1.00  0.00    -0.014 A 
ATOM     66  C   UNL A   1      35.972  32.594  30.572  1.00  0.00     0.009 A 
ATOM     67  C   UNL A   1      36.515  33.397  28.357  1.00  0.00     0.009 A 
ATOM     68  C   UNL A   1      34.680  33.109  30.438  1.00  0.00     0.001 A 
ATOM     69  C   UNL A   1      35.231  33.934  28.237  1.00  0.00     0.001 A 
ATOM     70  C   UNL A   1      34.313  33.781  29.274  1.00  0.00     0.000 A 
ENDBRANCH  46  65
BRANCH  58  71
ATOM     71  C   UNL A   1      42.908  35.155  32.055  1.00  0.00    -0.014 A 
ATOM     72  C   UNL A   1      42.703  35.421  33.417  1.00  0.00     0.009 A 
ATOM     73  C   UNL A   1      43.525  36.132  31.256  1.00  0.00     0.009 A 
ATOM     74  C   UNL A   1      43.079  36.651  33.961  1.00  0.00     0.001 A 
ATOM     75  C   UNL A   1      43.923  37.351  31.808  1.00  0.00     0.001 A 
ATOM     76  C   UNL A   1      43.693  37.612  33.157  1.00  0.00     0.000 A 
ENDBRANCH  58  71
ENDBRANCH  32  33
ENDBRANCH  25  27
ENDBRANCH  24  25
ENDBRANCH  23  24
ENDBRANCH  22  23
ENDBRANCH   1  22
TORSDOF 17
ENDMDL
