MODEL 1
REMARK VINA RESULT:     -10.4      0.000      0.000
REMARK SMILES O=C(C[C@H]1C(=O)Nc2ccccc21)OCCOCCOC(=O)c1ccc(-c2c3nc(c(-c4ccccc4)c4ccc([nH]4)c(-c4ccccc4)c4nc(c(-c5ccccc5)c5ccc2[nH]5)C=C4)C=C3)cc1
REMARK SMILES IDX 18 1 17 2 16 3 15 4 14 5 2 6 1 7 3 8 4 9 5 10 13 11 6 12
REMARK SMILES IDX 7 13 8 14 12 15 9 17 11 18 10 19 19 20 20 21 21 22 22 23
REMARK SMILES IDX 23 24 24 25 70 26 25 27 69 28 26 29 27 30 28 31 63 32 29 33
REMARK SMILES IDX 68 34 62 35 64 36 30 37 67 38 61 39 60 40 31 42 53 43 38 44
REMARK SMILES IDX 52 45 39 46 42 47 51 48 65 49 40 50 41 51 50 53 66 54 43 55
REMARK SMILES IDX 32 56 33 57 37 58 34 59 36 60 35 61 54 62 55 63 59 64 56 65
REMARK SMILES IDX 58 66 57 67 44 68 45 69 49 70 46 71 48 72 47 73
REMARK H PARENT 7 16 64 41 42 52
REMARK Flexibility Score: inf
ROOT
ATOM      1  C   UNL A   1      32.411  28.299  26.270  1.00  0.00     0.202 C 
ENDROOT
BRANCH   1   2
ATOM      2  O   UNL A   1      33.540  27.540  25.826  1.00  0.00    -0.374 OA
BRANCH   2   3
ATOM      3  C   UNL A   1      33.407  26.131  25.744  1.00  0.00     0.202 C 
BRANCH   3   4
ATOM      4  C   UNL A   1      33.867  25.448  24.462  1.00  0.00     0.261 C 
BRANCH   4   5
ATOM      5  O   UNL A   1      32.828  25.065  23.555  1.00  0.00    -0.463 OA
BRANCH   5   6
ATOM      6  C   UNL A   1      32.702  25.587  22.309  1.00  0.00     0.307 C 
ATOM      7  O   UNL A   1      33.590  25.416  21.477  1.00  0.00    -0.252 OA
BRANCH   6   8
ATOM      8  C   UNL A   1      31.506  26.449  22.002  1.00  0.00     0.141 C 
BRANCH   8   9
ATOM      9  C   UNL A   1      31.243  27.630  22.935  1.00  0.00     0.122 C 
ATOM     10  C   UNL A   1      32.185  28.763  22.492  1.00  0.00     0.232 C 
ATOM     11  C   UNL A   1      29.895  28.293  22.816  1.00  0.00    -0.011 A 
ATOM     12  O   UNL A   1      33.405  28.739  22.511  1.00  0.00    -0.274 OA
ATOM     13  N   UNL A   1      31.397  29.802  22.024  1.00  0.00    -0.325 N 
ATOM     14  C   UNL A   1      30.052  29.536  22.211  1.00  0.00     0.045 A 
ATOM     15  C   UNL A   1      28.638  27.869  23.218  1.00  0.00     0.007 A 
ATOM     16  H   UNL A   1      31.749  30.624  21.611  1.00  0.00     0.169 HD
ATOM     17  C   UNL A   1      28.986  30.353  21.910  1.00  0.00     0.026 A 
ATOM     18  C   UNL A   1      27.540  28.683  22.933  1.00  0.00     0.000 A 
ATOM     19  C   UNL A   1      27.711  29.907  22.267  1.00  0.00     0.002 A 
ENDBRANCH   8   9
ENDBRANCH   6   8
ENDBRANCH   5   6
ENDBRANCH   4   5
ENDBRANCH   3   4
ENDBRANCH   2   3
ENDBRANCH   1   2
BRANCH   1  20
ATOM     20  C   UNL A   1      32.475  29.822  26.109  1.00  0.00     0.261 C 
BRANCH  20  21
ATOM     21  O   UNL A   1      32.546  30.485  27.384  1.00  0.00    -0.460 OA
BRANCH  21  22
ATOM     22  C   UNL A   1      33.286  31.616  27.421  1.00  0.00     0.338 C 
ATOM     23  O   UNL A   1      32.897  32.772  27.334  1.00  0.00    -0.246 OA
BRANCH  22  24
ATOM     24  C   UNL A   1      34.658  31.260  27.803  1.00  0.00     0.060 A 
ATOM     25  C   UNL A   1      34.960  29.924  28.110  1.00  0.00     0.016 A 
ATOM     26  C   UNL A   1      35.617  32.262  27.932  1.00  0.00     0.016 A 
ATOM     27  C   UNL A   1      36.223  29.590  28.589  1.00  0.00     0.010 A 
ATOM     28  C   UNL A   1      36.872  31.930  28.428  1.00  0.00     0.010 A 
ATOM     29  C   UNL A   1      37.165  30.603  28.794  1.00  0.00    -0.014 A 
BRANCH  29  30
ATOM     30  C   UNL A   1      38.390  30.355  29.579  1.00  0.00     0.031 A 
ATOM     31  C   UNL A   1      39.436  29.459  28.983  1.00  0.00     0.074 A 
ATOM     32  C   UNL A   1      38.519  30.832  30.827  1.00  0.00     0.049 A 
ATOM     33  N   UNL A   1      40.471  28.899  29.549  1.00  0.00    -0.248 NA
ATOM     34  C   UNL A   1      39.270  29.131  27.558  1.00  0.00     0.031 C 
ATOM     35  C   UNL A   1      37.584  31.740  31.486  1.00  0.00     0.029 A 
ATOM     36  N   UNL A   1      39.473  30.572  31.775  1.00  0.00    -0.354 N 
ATOM     37  C   UNL A   1      41.056  28.119  28.561  1.00  0.00     0.074 A 
ATOM     38  C   UNL A   1      40.254  28.267  27.367  1.00  0.00     0.031 C 
ATOM     39  C   UNL A   1      37.988  31.927  32.754  1.00  0.00     0.029 A 
ATOM     40  C   UNL A   1      39.175  31.111  33.002  1.00  0.00     0.049 A 
ATOM     41  H   UNL A   1      40.290  30.051  31.596  1.00  0.00     0.167 HD
ATOM     42  C   UNL A   1      42.157  27.337  28.649  1.00  0.00     0.031 A 
ATOM     43  C   UNL A   1      39.763  30.920  34.199  1.00  0.00     0.031 A 
ATOM     44  C   UNL A   1      42.929  27.183  29.853  1.00  0.00     0.049 A 
ATOM     45  C   UNL A   1      40.950  30.001  34.294  1.00  0.00     0.074 A 
ATOM     46  C   UNL A   1      44.083  26.449  30.049  1.00  0.00     0.029 A 
ATOM     47  N   UNL A   1      42.608  27.765  31.070  1.00  0.00    -0.354 N 
ATOM     48  N   UNL A   1      41.524  29.291  33.352  1.00  0.00    -0.248 NA
ATOM     49  C   UNL A   1      41.575  29.861  35.617  1.00  0.00     0.031 C 
ATOM     50  C   UNL A   1      44.422  26.530  31.404  1.00  0.00     0.029 A 
ATOM     51  C   UNL A   1      43.523  27.378  32.033  1.00  0.00     0.049 A 
ATOM     52  H   UNL A   1      41.843  28.365  31.226  1.00  0.00     0.167 HD
ATOM     53  C   UNL A   1      42.594  28.644  33.959  1.00  0.00     0.074 A 
ATOM     54  C   UNL A   1      42.592  29.051  35.350  1.00  0.00     0.031 C 
ATOM     55  C   UNL A   1      43.502  27.798  33.412  1.00  0.00     0.031 A 
BRANCH  42  56
ATOM     56  C   UNL A   1      42.540  26.546  27.429  1.00  0.00    -0.014 A 
ATOM     57  C   UNL A   1      42.071  25.239  27.217  1.00  0.00     0.009 A 
ATOM     58  C   UNL A   1      43.399  27.118  26.476  1.00  0.00     0.009 A 
ATOM     59  C   UNL A   1      42.496  24.506  26.106  1.00  0.00     0.001 A 
ATOM     60  C   UNL A   1      43.793  26.396  25.349  1.00  0.00     0.001 A 
ATOM     61  C   UNL A   1      43.353  25.085  25.172  1.00  0.00     0.000 A 
ENDBRANCH  42  56
BRANCH  43  62
ATOM     62  C   UNL A   1      39.203  31.591  35.400  1.00  0.00    -0.014 A 
ATOM     63  C   UNL A   1      38.326  30.909  36.257  1.00  0.00     0.009 A 
ATOM     64  C   UNL A   1      39.575  32.907  35.717  1.00  0.00     0.009 A 
ATOM     65  C   UNL A   1      37.825  31.536  37.400  1.00  0.00     0.001 A 
ATOM     66  C   UNL A   1      39.096  33.521  36.877  1.00  0.00     0.001 A 
ATOM     67  C   UNL A   1      38.218  32.837  37.714  1.00  0.00     0.000 A 
ENDBRANCH  43  62
BRANCH  55  68
ATOM     68  C   UNL A   1      44.604  27.290  34.301  1.00  0.00    -0.014 A 
ATOM     69  C   UNL A   1      45.837  27.953  34.396  1.00  0.00     0.009 A 
ATOM     70  C   UNL A   1      44.365  26.175  35.121  1.00  0.00     0.009 A 
ATOM     71  C   UNL A   1      46.816  27.494  35.281  1.00  0.00     0.001 A 
ATOM     72  C   UNL A   1      45.334  25.738  36.026  1.00  0.00     0.001 A 
ATOM     73  C   UNL A   1      46.561  26.395  36.100  1.00  0.00     0.000 A 
ENDBRANCH  55  68
ENDBRANCH  29  30
ENDBRANCH  22  24
ENDBRANCH  21  22
ENDBRANCH  20  21
ENDBRANCH   1  20
TORSDOF 15
ENDMDL
MODEL 2
REMARK VINA RESULT:     -10.3      3.854      8.541
REMARK SMILES O=C(C[C@H]1C(=O)Nc2ccccc21)OCCOCCOC(=O)c1ccc(-c2c3nc(c(-c4ccccc4)c4ccc([nH]4)c(-c4ccccc4)c4nc(c(-c5ccccc5)c5ccc2[nH]5)C=C4)C=C3)cc1
REMARK SMILES IDX 18 1 17 2 16 3 15 4 14 5 2 6 1 7 3 8 4 9 5 10 13 11 6 12
REMARK SMILES IDX 7 13 8 14 12 15 9 17 11 18 10 19 19 20 20 21 21 22 22 23
REMARK SMILES IDX 23 24 24 25 70 26 25 27 69 28 26 29 27 30 28 31 63 32 29 33
REMARK SMILES IDX 68 34 62 35 64 36 30 37 67 38 61 39 60 40 31 42 53 43 38 44
REMARK SMILES IDX 52 45 39 46 42 47 51 48 65 49 40 50 41 51 50 53 66 54 43 55
REMARK SMILES IDX 32 56 33 57 37 58 34 59 36 60 35 61 54 62 55 63 59 64 56 65
REMARK SMILES IDX 58 66 57 67 44 68 45 69 49 70 46 71 48 72 47 73
REMARK H PARENT 7 16 64 41 42 52
REMARK Flexibility Score: inf
ROOT
ATOM      1  C   UNL A   1      35.749  21.618  25.733  1.00  0.00     0.202 C 
ENDROOT
BRANCH   1   2
ATOM      2  O   UNL A   1      34.960  22.435  24.861  1.00  0.00    -0.374 OA
BRANCH   2   3
ATOM      3  C   UNL A   1      33.822  23.083  25.402  1.00  0.00     0.202 C 
BRANCH   3   4
ATOM      4  C   UNL A   1      32.545  23.086  24.569  1.00  0.00     0.261 C 
BRANCH   4   5
ATOM      5  O   UNL A   1      32.665  23.626  23.249  1.00  0.00    -0.463 OA
BRANCH   5   6
ATOM      6  C   UNL A   1      33.344  24.768  22.973  1.00  0.00     0.307 C 
ATOM      7  O   UNL A   1      34.473  24.711  22.489  1.00  0.00    -0.252 OA
BRANCH   6   8
ATOM      8  C   UNL A   1      32.729  26.088  23.357  1.00  0.00     0.141 C 
BRANCH   8   9
ATOM      9  C   UNL A   1      33.654  27.128  23.986  1.00  0.00     0.122 C 
ATOM     10  C   UNL A   1      33.798  28.270  22.964  1.00  0.00     0.232 C 
ATOM     11  C   UNL A   1      33.118  27.863  25.188  1.00  0.00    -0.011 A 
ATOM     12  O   UNL A   1      34.291  28.187  21.852  1.00  0.00    -0.274 OA
ATOM     13  N   UNL A   1      33.224  29.402  23.520  1.00  0.00    -0.325 N 
ATOM     14  C   UNL A   1      32.824  29.174  24.825  1.00  0.00     0.045 A 
ATOM     15  C   UNL A   1      32.923  27.443  26.495  1.00  0.00     0.007 A 
ATOM     16  H   UNL A   1      33.116  30.258  23.047  1.00  0.00     0.169 HD
ATOM     17  C   UNL A   1      32.258  30.075  25.698  1.00  0.00     0.026 A 
ATOM     18  C   UNL A   1      32.359  28.341  27.403  1.00  0.00     0.000 A 
ATOM     19  C   UNL A   1      32.012  29.640  27.002  1.00  0.00     0.002 A 
ENDBRANCH   8   9
ENDBRANCH   6   8
ENDBRANCH   5   6
ENDBRANCH   4   5
ENDBRANCH   3   4
ENDBRANCH   2   3
ENDBRANCH   1   2
BRANCH   1  20
ATOM     20  C   UNL A   1      36.899  20.822  25.106  1.00  0.00     0.261 C 
BRANCH  20  21
ATOM     21  O   UNL A   1      38.103  21.606  25.028  1.00  0.00    -0.460 OA
BRANCH  21  22
ATOM     22  C   UNL A   1      39.086  21.268  25.891  1.00  0.00     0.338 C 
ATOM     23  O   UNL A   1      39.647  20.188  26.006  1.00  0.00    -0.246 OA
BRANCH  22  24
ATOM     24  C   UNL A   1      39.551  22.486  26.566  1.00  0.00     0.060 A 
ATOM     25  C   UNL A   1      39.060  23.733  26.145  1.00  0.00     0.016 A 
ATOM     26  C   UNL A   1      40.529  22.394  27.553  1.00  0.00     0.016 A 
ATOM     27  C   UNL A   1      39.579  24.903  26.690  1.00  0.00     0.010 A 
ATOM     28  C   UNL A   1      41.060  23.564  28.083  1.00  0.00     0.010 A 
ATOM     29  C   UNL A   1      40.616  24.819  27.626  1.00  0.00    -0.014 A 
BRANCH  29  30
ATOM     30  C   UNL A   1      41.403  26.011  27.998  1.00  0.00     0.031 A 
ATOM     31  C   UNL A   1      40.727  27.071  28.817  1.00  0.00     0.074 A 
ATOM     32  C   UNL A   1      42.649  26.187  27.533  1.00  0.00     0.049 A 
ATOM     33  N   UNL A   1      41.107  28.294  29.070  1.00  0.00    -0.248 NA
ATOM     34  C   UNL A   1      39.430  26.702  29.408  1.00  0.00     0.031 C 
ATOM     35  C   UNL A   1      43.412  25.207  26.763  1.00  0.00     0.029 A 
ATOM     36  N   UNL A   1      43.470  27.283  27.605  1.00  0.00    -0.354 N 
ATOM     37  C   UNL A   1      40.077  28.856  29.812  1.00  0.00     0.074 A 
ATOM     38  C   UNL A   1      39.053  27.845  29.957  1.00  0.00     0.031 C 
ATOM     39  C   UNL A   1      44.577  25.765  26.393  1.00  0.00     0.029 A 
ATOM     40  C   UNL A   1      44.612  27.151  26.856  1.00  0.00     0.049 A 
ATOM     41  H   UNL A   1      43.260  28.084  28.139  1.00  0.00     0.167 HD
ATOM     42  C   UNL A   1      39.990  30.109  30.315  1.00  0.00     0.031 A 
ATOM     43  C   UNL A   1      45.548  28.064  26.535  1.00  0.00     0.031 A 
ATOM     44  C   UNL A   1      41.009  31.109  30.140  1.00  0.00     0.049 A 
ATOM     45  C   UNL A   1      45.409  29.470  27.052  1.00  0.00     0.074 A 
ATOM     46  C   UNL A   1      41.046  32.399  30.635  1.00  0.00     0.029 A 
ATOM     47  N   UNL A   1      42.164  30.929  29.393  1.00  0.00    -0.354 N 
ATOM     48  N   UNL A   1      44.453  29.991  27.783  1.00  0.00    -0.248 NA
ATOM     49  C   UNL A   1      46.481  30.414  26.703  1.00  0.00     0.031 C 
ATOM     50  C   UNL A   1      42.191  33.023  30.131  1.00  0.00     0.029 A 
ATOM     51  C   UNL A   1      42.906  32.097  29.385  1.00  0.00     0.049 A 
ATOM     52  H   UNL A   1      42.418  30.095  28.938  1.00  0.00     0.167 HD
ATOM     53  C   UNL A   1      44.820  31.312  28.009  1.00  0.00     0.074 A 
ATOM     54  C   UNL A   1      46.090  31.511  27.339  1.00  0.00     0.031 C 
ATOM     55  C   UNL A   1      44.170  32.271  28.713  1.00  0.00     0.031 A 
BRANCH  42  56
ATOM     56  C   UNL A   1      38.723  30.475  31.038  1.00  0.00    -0.014 A 
ATOM     57  C   UNL A   1      37.607  30.992  30.361  1.00  0.00     0.009 A 
ATOM     58  C   UNL A   1      38.651  30.308  32.431  1.00  0.00     0.009 A 
ATOM     59  C   UNL A   1      36.467  31.383  31.069  1.00  0.00     0.001 A 
ATOM     60  C   UNL A   1      37.498  30.667  33.131  1.00  0.00     0.001 A 
ATOM     61  C   UNL A   1      36.413  31.218  32.452  1.00  0.00     0.000 A 
ENDBRANCH  42  56
BRANCH  43  62
ATOM     62  C   UNL A   1      46.676  27.671  25.651  1.00  0.00    -0.014 A 
ATOM     63  C   UNL A   1      47.798  27.012  26.172  1.00  0.00     0.009 A 
ATOM     64  C   UNL A   1      46.616  27.920  24.270  1.00  0.00     0.009 A 
ATOM     65  C   UNL A   1      48.842  26.620  25.331  1.00  0.00     0.001 A 
ATOM     66  C   UNL A   1      47.647  27.501  23.427  1.00  0.00     0.001 A 
ATOM     67  C   UNL A   1      48.762  26.856  23.959  1.00  0.00     0.000 A 
ENDBRANCH  43  62
BRANCH  55  68
ATOM     68  C   UNL A   1      44.839  33.612  28.846  1.00  0.00    -0.014 A 
ATOM     69  C   UNL A   1      44.571  34.660  27.953  1.00  0.00     0.009 A 
ATOM     70  C   UNL A   1      45.687  33.849  29.940  1.00  0.00     0.009 A 
ATOM     71  C   UNL A   1      45.157  35.914  28.143  1.00  0.00     0.001 A 
ATOM     72  C   UNL A   1      46.247  35.112  30.144  1.00  0.00     0.001 A 
ATOM     73  C   UNL A   1      45.986  36.141  29.241  1.00  0.00     0.000 A 
ENDBRANCH  55  68
ENDBRANCH  29  30
ENDBRANCH  22  24
ENDBRANCH  21  22
ENDBRANCH  20  21
ENDBRANCH   1  20
TORSDOF 15
ENDMDL
MODEL 3
REMARK VINA RESULT:     -10.2      2.094      3.919
REMARK SMILES O=C(C[C@H]1C(=O)Nc2ccccc21)OCCOCCOC(=O)c1ccc(-c2c3nc(c(-c4ccccc4)c4ccc([nH]4)c(-c4ccccc4)c4nc(c(-c5ccccc5)c5ccc2[nH]5)C=C4)C=C3)cc1
REMARK SMILES IDX 18 1 17 2 16 3 15 4 14 5 2 6 1 7 3 8 4 9 5 10 13 11 6 12
REMARK SMILES IDX 7 13 8 14 12 15 9 17 11 18 10 19 19 20 20 21 21 22 22 23
REMARK SMILES IDX 23 24 24 25 70 26 25 27 69 28 26 29 27 30 28 31 63 32 29 33
REMARK SMILES IDX 68 34 62 35 64 36 30 37 67 38 61 39 60 40 31 42 53 43 38 44
REMARK SMILES IDX 52 45 39 46 42 47 51 48 65 49 40 50 41 51 50 53 66 54 43 55
REMARK SMILES IDX 32 56 33 57 37 58 34 59 36 60 35 61 54 62 55 63 59 64 56 65
REMARK SMILES IDX 58 66 57 67 44 68 45 69 49 70 46 71 48 72 47 73
REMARK H PARENT 7 16 64 41 42 52
REMARK Flexibility Score: inf
ROOT
ATOM      1  C   UNL A   1      31.697  29.654  25.026  1.00  0.00     0.202 C 
ENDROOT
BRANCH   1   2
ATOM      2  O   UNL A   1      32.609  28.551  25.062  1.00  0.00    -0.374 OA
BRANCH   2   3
ATOM      3  C   UNL A   1      32.085  27.246  24.888  1.00  0.00     0.202 C 
BRANCH   3   4
ATOM      4  C   UNL A   1      31.823  26.414  26.138  1.00  0.00     0.261 C 
BRANCH   4   5
ATOM      5  O   UNL A   1      30.851  25.373  26.001  1.00  0.00    -0.463 OA
BRANCH   5   6
ATOM      6  C   UNL A   1      31.078  24.091  26.381  1.00  0.00     0.307 C 
ATOM      7  O   UNL A   1      30.393  23.580  27.264  1.00  0.00    -0.252 OA
BRANCH   6   8
ATOM      8  C   UNL A   1      32.237  23.349  25.770  1.00  0.00     0.141 C 
BRANCH   8   9
ATOM      9  C   UNL A   1      33.592  23.484  26.462  1.00  0.00     0.122 C 
ATOM     10  C   UNL A   1      33.647  22.393  27.547  1.00  0.00     0.232 C 
ATOM     11  C   UNL A   1      34.806  23.149  25.634  1.00  0.00    -0.011 A 
ATOM     12  O   UNL A   1      32.915  22.302  28.519  1.00  0.00    -0.274 OA
ATOM     13  N   UNL A   1      34.651  21.505  27.196  1.00  0.00    -0.325 N 
ATOM     14  C   UNL A   1      35.338  21.941  26.076  1.00  0.00     0.045 A 
ATOM     15  C   UNL A   1      35.417  23.841  24.600  1.00  0.00     0.007 A 
ATOM     16  H   UNL A   1      34.850  20.672  27.680  1.00  0.00     0.169 HD
ATOM     17  C   UNL A   1      36.419  21.342  25.469  1.00  0.00     0.026 A 
ATOM     18  C   UNL A   1      36.521  23.260  23.973  1.00  0.00     0.000 A 
ATOM     19  C   UNL A   1      37.006  22.012  24.393  1.00  0.00     0.002 A 
ENDBRANCH   8   9
ENDBRANCH   6   8
ENDBRANCH   5   6
ENDBRANCH   4   5
ENDBRANCH   3   4
ENDBRANCH   2   3
ENDBRANCH   1   2
BRANCH   1  20
ATOM     20  C   UNL A   1      31.742  30.646  26.193  1.00  0.00     0.261 C 
BRANCH  20  21
ATOM     21  O   UNL A   1      32.901  30.436  27.020  1.00  0.00    -0.460 OA
BRANCH  21  22
ATOM     22  C   UNL A   1      33.552  31.551  27.420  1.00  0.00     0.338 C 
ATOM     23  O   UNL A   1      33.084  32.663  27.618  1.00  0.00    -0.246 OA
BRANCH  22  24
ATOM     24  C   UNL A   1      34.921  31.179  27.798  1.00  0.00     0.060 A 
ATOM     25  C   UNL A   1      35.221  29.831  28.048  1.00  0.00     0.016 A 
ATOM     26  C   UNL A   1      35.877  32.175  27.979  1.00  0.00     0.016 A 
ATOM     27  C   UNL A   1      36.481  29.477  28.523  1.00  0.00     0.010 A 
ATOM     28  C   UNL A   1      37.128  31.822  28.471  1.00  0.00     0.010 A 
ATOM     29  C   UNL A   1      37.420  30.481  28.780  1.00  0.00    -0.014 A 
BRANCH  29  30
ATOM     30  C   UNL A   1      38.638  30.199  29.564  1.00  0.00     0.031 A 
ATOM     31  C   UNL A   1      39.664  29.285  28.961  1.00  0.00     0.074 A 
ATOM     32  C   UNL A   1      38.776  30.662  30.816  1.00  0.00     0.049 A 
ATOM     33  N   UNL A   1      40.686  28.698  29.523  1.00  0.00    -0.248 NA
ATOM     34  C   UNL A   1      39.493  28.973  27.533  1.00  0.00     0.031 C 
ATOM     35  C   UNL A   1      37.861  31.585  31.482  1.00  0.00     0.029 A 
ATOM     36  N   UNL A   1      39.724  30.373  31.763  1.00  0.00    -0.354 N 
ATOM     37  C   UNL A   1      41.255  27.913  28.529  1.00  0.00     0.074 A 
ATOM     38  C   UNL A   1      40.457  28.089  27.335  1.00  0.00     0.031 C 
ATOM     39  C   UNL A   1      38.268  31.752  32.752  1.00  0.00     0.029 A 
ATOM     40  C   UNL A   1      39.437  30.908  32.994  1.00  0.00     0.049 A 
ATOM     41  H   UNL A   1      40.529  29.835  31.579  1.00  0.00     0.167 HD
ATOM     42  C   UNL A   1      42.338  27.106  28.611  1.00  0.00     0.031 A 
ATOM     43  C   UNL A   1      40.018  30.693  34.189  1.00  0.00     0.031 A 
ATOM     44  C   UNL A   1      43.105  26.925  29.813  1.00  0.00     0.049 A 
ATOM     45  C   UNL A   1      41.185  29.748  34.278  1.00  0.00     0.074 A 
ATOM     46  C   UNL A   1      44.242  26.163  30.005  1.00  0.00     0.029 A 
ATOM     47  N   UNL A   1      42.796  27.503  31.036  1.00  0.00    -0.354 N 
ATOM     48  N   UNL A   1      41.744  29.033  33.330  1.00  0.00    -0.248 NA
ATOM     49  C   UNL A   1      41.805  29.583  35.600  1.00  0.00     0.031 C 
ATOM     50  C   UNL A   1      44.582  26.226  31.360  1.00  0.00     0.029 A 
ATOM     51  C   UNL A   1      43.701  27.088  31.996  1.00  0.00     0.049 A 
ATOM     52  H   UNL A   1      42.044  28.118  31.196  1.00  0.00     0.167 HD
ATOM     53  C   UNL A   1      42.799  28.358  33.932  1.00  0.00     0.074 A 
ATOM     54  C   UNL A   1      42.804  28.752  35.327  1.00  0.00     0.031 C 
ATOM     55  C   UNL A   1      43.688  27.496  33.379  1.00  0.00     0.031 A 
BRANCH  42  56
ATOM     56  C   UNL A   1      42.705  26.317  27.384  1.00  0.00    -0.014 A 
ATOM     57  C   UNL A   1      42.110  25.077  27.096  1.00  0.00     0.009 A 
ATOM     58  C   UNL A   1      43.675  26.822  26.503  1.00  0.00     0.009 A 
ATOM     59  C   UNL A   1      42.518  24.338  25.983  1.00  0.00     0.001 A 
ATOM     60  C   UNL A   1      44.054  26.097  25.372  1.00  0.00     0.001 A 
ATOM     61  C   UNL A   1      43.487  24.849  25.121  1.00  0.00     0.000 A 
ENDBRANCH  42  56
BRANCH  43  62
ATOM     62  C   UNL A   1      39.472  31.366  35.396  1.00  0.00    -0.014 A 
ATOM     63  C   UNL A   1      39.988  32.599  35.823  1.00  0.00     0.009 A 
ATOM     64  C   UNL A   1      38.404  30.795  36.106  1.00  0.00     0.009 A 
ATOM     65  C   UNL A   1      39.451  33.240  36.941  1.00  0.00     0.001 A 
ATOM     66  C   UNL A   1      37.850  31.453  37.206  1.00  0.00     0.001 A 
ATOM     67  C   UNL A   1      38.377  32.672  37.626  1.00  0.00     0.000 A 
ENDBRANCH  43  62
BRANCH  55  68
ATOM     68  C   UNL A   1      44.778  26.956  34.264  1.00  0.00    -0.014 A 
ATOM     69  C   UNL A   1      45.958  27.677  34.500  1.00  0.00     0.009 A 
ATOM     70  C   UNL A   1      44.575  25.741  34.939  1.00  0.00     0.009 A 
ATOM     71  C   UNL A   1      46.923  27.179  35.380  1.00  0.00     0.001 A 
ATOM     72  C   UNL A   1      45.526  25.262  35.841  1.00  0.00     0.001 A 
ATOM     73  C   UNL A   1      46.702  25.979  36.056  1.00  0.00     0.000 A 
ENDBRANCH  55  68
ENDBRANCH  29  30
ENDBRANCH  22  24
ENDBRANCH  21  22
ENDBRANCH  20  21
ENDBRANCH   1  20
TORSDOF 15
ENDMDL
