MODEL 1
REMARK VINA RESULT:     -10.8      0.000      0.000
REMARK SMILES C[C@H](NC(=O)c1c(C(=O)OCCOCCOC(=O)c2ccc(-c3c4nc(c(-c5ccccc5)c5ccc([nH]5)c(-c5ccccc5)c5nc(c(-c6ccccc6)c6ccc3[nH]6)C=C5)C=C4)cc2)cnn1C)[C@]12C[C@H]3C[C@H](C[C@H](C3)C1)C2
REMARK SMILES IDX 12 1 11 2 10 3 8 4 9 5 7 6 6 7 69 8 67 9 68 10 70 11 4 12
REMARK SMILES IDX 3 13 5 15 2 16 1 17 71 18 72 19 79 20 80 21 73 22 77 23
REMARK SMILES IDX 75 24 74 25 78 26 76 27 13 28 14 29 15 30 16 31 17 32 18 33
REMARK SMILES IDX 19 34 20 35 66 36 21 37 65 38 22 39 23 40 24 41 59 42 25 43
REMARK SMILES IDX 64 44 58 45 60 46 26 47 63 48 57 49 56 50 27 52 49 53 34 54
REMARK SMILES IDX 48 55 35 56 38 57 47 58 61 59 36 60 37 61 46 63 62 64 39 65
REMARK SMILES IDX 28 66 29 67 33 68 30 69 32 70 31 71 50 72 51 73 55 74 52 75
REMARK SMILES IDX 54 76 53 77 40 78 41 79 45 80 42 81 44 82 43 83
REMARK H PARENT 3 14 60 51 38 62
REMARK Flexibility Score: inf
ROOT
ATOM      1  C   UNL A   1      32.931  28.645  27.284  1.00  0.00     0.202 C 
ENDROOT
BRANCH   1   2
ATOM      2  C   UNL A   1      33.938  28.729  26.128  1.00  0.00     0.261 C 
BRANCH   2   3
ATOM      3  O   UNL A   1      33.909  27.599  25.245  1.00  0.00    -0.460 OA
BRANCH   3   4
ATOM      4  C   UNL A   1      33.529  27.908  23.969  1.00  0.00     0.342 C 
ATOM      5  O   UNL A   1      34.214  28.541  23.182  1.00  0.00    -0.246 OA
BRANCH   4   6
ATOM      6  C   UNL A   1      32.260  27.335  23.554  1.00  0.00     0.111 A 
ATOM      7  C   UNL A   1      31.942  26.325  22.637  1.00  0.00     0.140 A 
ATOM      8  N   UNL A   1      30.682  25.951  23.058  1.00  0.00    -0.262 N 
ATOM      9  C   UNL A   1      31.020  27.718  24.115  1.00  0.00     0.151 A 
ATOM     10  N   UNL A   1      30.028  26.929  23.714  1.00  0.00    -0.180 NA
ATOM     11  C   UNL A   1      30.172  24.606  23.224  1.00  0.00     0.174 C 
BRANCH   7  12
ATOM     12  C   UNL A   1      32.823  25.584  21.775  1.00  0.00     0.270 C 
ATOM     13  N   UNL A   1      33.272  24.316  22.041  1.00  0.00    -0.348 N 
ATOM     14  H   UNL A   1      33.893  24.033  21.332  1.00  0.00     0.164 HD
ATOM     15  O   UNL A   1      33.237  26.071  20.720  1.00  0.00    -0.267 OA
BRANCH  13  16
ATOM     16  C   UNL A   1      33.137  23.232  23.040  1.00  0.00     0.085 C 
ATOM     17  C   UNL A   1      32.435  21.977  22.539  1.00  0.00     0.031 C 
BRANCH  16  18
ATOM     18  C   UNL A   1      34.381  22.951  23.955  1.00  0.00    -0.009 C 
ATOM     19  C   UNL A   1      34.235  21.517  24.572  1.00  0.00     0.012 C 
ATOM     20  C   UNL A   1      34.462  23.948  25.145  1.00  0.00     0.012 C 
ATOM     21  C   UNL A   1      35.731  23.009  23.198  1.00  0.00     0.012 C 
ATOM     22  C   UNL A   1      35.402  21.168  25.503  1.00  0.00    -0.010 C 
ATOM     23  C   UNL A   1      35.626  23.587  26.093  1.00  0.00    -0.010 C 
ATOM     24  C   UNL A   1      36.905  22.655  24.138  1.00  0.00    -0.010 C 
ATOM     25  C   UNL A   1      36.711  21.238  24.702  1.00  0.00     0.007 C 
ATOM     26  C   UNL A   1      35.435  22.175  26.654  1.00  0.00     0.007 C 
ATOM     27  C   UNL A   1      36.947  23.644  25.313  1.00  0.00     0.007 C 
ENDBRANCH  16  18
ENDBRANCH  13  16
ENDBRANCH   7  12
ENDBRANCH   4   6
ENDBRANCH   3   4
ENDBRANCH   2   3
ENDBRANCH   1   2
BRANCH   1  28
ATOM     28  O   UNL A   1      31.824  29.539  27.278  1.00  0.00    -0.374 OA
BRANCH  28  29
ATOM     29  C   UNL A   1      31.918  30.740  26.516  1.00  0.00     0.202 C 
BRANCH  29  30
ATOM     30  C   UNL A   1      31.772  32.076  27.250  1.00  0.00     0.261 C 
BRANCH  30  31
ATOM     31  O   UNL A   1      32.895  32.953  27.045  1.00  0.00    -0.460 OA
BRANCH  31  32
ATOM     32  C   UNL A   1      33.149  33.800  28.073  1.00  0.00     0.338 C 
ATOM     33  O   UNL A   1      32.406  34.650  28.535  1.00  0.00    -0.246 OA
BRANCH  32  34
ATOM     34  C   UNL A   1      34.453  33.488  28.685  1.00  0.00     0.060 A 
ATOM     35  C   UNL A   1      35.619  33.805  27.982  1.00  0.00     0.016 A 
ATOM     36  C   UNL A   1      34.525  32.777  29.879  1.00  0.00     0.016 A 
ATOM     37  C   UNL A   1      36.855  33.365  28.455  1.00  0.00     0.010 A 
ATOM     38  C   UNL A   1      35.760  32.333  30.355  1.00  0.00     0.010 A 
ATOM     39  C   UNL A   1      36.929  32.593  29.625  1.00  0.00    -0.014 A 
BRANCH  39  40
ATOM     40  C   UNL A   1      38.212  31.973  30.031  1.00  0.00     0.031 A 
ATOM     41  C   UNL A   1      39.116  32.693  30.995  1.00  0.00     0.074 A 
ATOM     42  C   UNL A   1      38.569  30.774  29.537  1.00  0.00     0.049 A 
ATOM     43  N   UNL A   1      40.274  32.322  31.477  1.00  0.00    -0.248 NA
ATOM     44  C   UNL A   1      38.657  34.008  31.473  1.00  0.00     0.031 C 
ATOM     45  C   UNL A   1      37.784  29.980  28.594  1.00  0.00     0.029 A 
ATOM     46  N   UNL A   1      39.693  30.020  29.761  1.00  0.00    -0.354 N 
ATOM     47  C   UNL A   1      40.684  33.353  32.313  1.00  0.00     0.074 A 
ATOM     48  C   UNL A   1      39.670  34.383  32.244  1.00  0.00     0.031 C 
ATOM     49  C   UNL A   1      38.450  28.846  28.320  1.00  0.00     0.029 A 
ATOM     50  C   UNL A   1      39.715  28.846  29.049  1.00  0.00     0.049 A 
ATOM     51  H   UNL A   1      40.414  30.294  30.372  1.00  0.00     0.167 HD
ATOM     52  C   UNL A   1      41.798  33.432  33.080  1.00  0.00     0.031 A 
ATOM     53  C   UNL A   1      40.654  27.884  28.989  1.00  0.00     0.031 A 
ATOM     54  C   UNL A   1      42.812  32.414  33.145  1.00  0.00     0.049 A 
ATOM     55  C   UNL A   1      41.902  28.013  29.820  1.00  0.00     0.074 A 
ATOM     56  C   UNL A   1      43.959  32.386  33.918  1.00  0.00     0.029 A 
ATOM     57  N   UNL A   1      42.803  31.245  32.401  1.00  0.00    -0.354 N 
ATOM     58  N   UNL A   1      42.247  28.967  30.649  1.00  0.00    -0.248 NA
ATOM     59  C   UNL A   1      42.883  26.923  29.715  1.00  0.00     0.031 C 
ATOM     60  C   UNL A   1      44.669  31.221  33.608  1.00  0.00     0.029 A 
ATOM     61  C   UNL A   1      43.937  30.500  32.679  1.00  0.00     0.049 A 
ATOM     62  H   UNL A   1      42.095  30.983  31.769  1.00  0.00     0.167 HD
ATOM     63  C   UNL A   1      43.469  28.580  31.185  1.00  0.00     0.074 A 
ATOM     64  C   UNL A   1      43.798  27.297  30.597  1.00  0.00     0.031 C 
ATOM     65  C   UNL A   1      44.248  29.225  32.086  1.00  0.00     0.031 A 
BRANCH  52  66
ATOM     66  C   UNL A   1      41.985  34.672  33.908  1.00  0.00    -0.014 A 
ATOM     67  C   UNL A   1      41.531  34.733  35.235  1.00  0.00     0.009 A 
ATOM     68  C   UNL A   1      42.667  35.775  33.373  1.00  0.00     0.009 A 
ATOM     69  C   UNL A   1      41.734  35.884  36.000  1.00  0.00     0.001 A 
ATOM     70  C   UNL A   1      42.889  36.915  34.147  1.00  0.00     0.001 A 
ATOM     71  C   UNL A   1      42.416  36.972  35.457  1.00  0.00     0.000 A 
ENDBRANCH  52  66
BRANCH  53  72
ATOM     72  C   UNL A   1      40.455  26.705  28.108  1.00  0.00    -0.014 A 
ATOM     73  C   UNL A   1      39.812  25.553  28.588  1.00  0.00     0.009 A 
ATOM     74  C   UNL A   1      40.921  26.721  26.784  1.00  0.00     0.009 A 
ATOM     75  C   UNL A   1      39.665  24.432  27.768  1.00  0.00     0.001 A 
ATOM     76  C   UNL A   1      40.748  25.608  25.959  1.00  0.00     0.001 A 
ATOM     77  C   UNL A   1      40.130  24.461  26.454  1.00  0.00     0.000 A 
ENDBRANCH  53  72
BRANCH  65  78
ATOM     78  C   UNL A   1      45.515  28.541  32.516  1.00  0.00    -0.014 A 
ATOM     79  C   UNL A   1      46.737  28.804  31.879  1.00  0.00     0.009 A 
ATOM     80  C   UNL A   1      45.489  27.649  33.600  1.00  0.00     0.009 A 
ATOM     81  C   UNL A   1      47.904  28.161  32.299  1.00  0.00     0.001 A 
ATOM     82  C   UNL A   1      46.661  27.030  34.035  1.00  0.00     0.001 A 
ATOM     83  C   UNL A   1      47.864  27.278  33.378  1.00  0.00     0.000 A 
ENDBRANCH  65  78
ENDBRANCH  39  40
ENDBRANCH  32  34
ENDBRANCH  31  32
ENDBRANCH  30  31
ENDBRANCH  29  30
ENDBRANCH  28  29
ENDBRANCH   1  28
TORSDOF 17
ENDMDL
MODEL 2
REMARK VINA RESULT:     -10.8      1.921      2.662
REMARK SMILES C[C@H](NC(=O)c1c(C(=O)OCCOCCOC(=O)c2ccc(-c3c4nc(c(-c5ccccc5)c5ccc([nH]5)c(-c5ccccc5)c5nc(c(-c6ccccc6)c6ccc3[nH]6)C=C5)C=C4)cc2)cnn1C)[C@]12C[C@H]3C[C@H](C[C@H](C3)C1)C2
REMARK SMILES IDX 12 1 11 2 10 3 8 4 9 5 7 6 6 7 69 8 67 9 68 10 70 11 4 12
REMARK SMILES IDX 3 13 5 15 2 16 1 17 71 18 72 19 79 20 80 21 73 22 77 23
REMARK SMILES IDX 75 24 74 25 78 26 76 27 13 28 14 29 15 30 16 31 17 32 18 33
REMARK SMILES IDX 19 34 20 35 66 36 21 37 65 38 22 39 23 40 24 41 59 42 25 43
REMARK SMILES IDX 64 44 58 45 60 46 26 47 63 48 57 49 56 50 27 52 49 53 34 54
REMARK SMILES IDX 48 55 35 56 38 57 47 58 61 59 36 60 37 61 46 63 62 64 39 65
REMARK SMILES IDX 28 66 29 67 33 68 30 69 32 70 31 71 50 72 51 73 55 74 52 75
REMARK SMILES IDX 54 76 53 77 40 78 41 79 45 80 42 81 44 82 43 83
REMARK H PARENT 3 14 60 51 38 62
REMARK Flexibility Score: inf
ROOT
ATOM      1  C   UNL A   1      33.417  30.115  26.563  1.00  0.00     0.202 C 
ENDROOT
BRANCH   1   2
ATOM      2  C   UNL A   1      33.823  28.813  27.267  1.00  0.00     0.261 C 
BRANCH   2   3
ATOM      3  O   UNL A   1      33.308  27.627  26.645  1.00  0.00    -0.460 OA
BRANCH   3   4
ATOM      4  C   UNL A   1      31.957  27.475  26.784  1.00  0.00     0.342 C 
ATOM      5  O   UNL A   1      31.354  27.617  27.837  1.00  0.00    -0.246 OA
BRANCH   4   6
ATOM      6  C   UNL A   1      31.240  27.226  25.546  1.00  0.00     0.111 A 
ATOM      7  C   UNL A   1      30.398  26.181  25.143  1.00  0.00     0.140 A 
ATOM      8  N   UNL A   1      29.700  26.768  24.106  1.00  0.00    -0.262 N 
ATOM      9  C   UNL A   1      31.242  28.128  24.457  1.00  0.00     0.151 A 
ATOM     10  N   UNL A   1      30.371  27.776  23.517  1.00  0.00    -0.180 NA
ATOM     11  C   UNL A   1      28.276  26.702  23.856  1.00  0.00     0.174 C 
BRANCH   7  12
ATOM     12  C   UNL A   1      30.043  24.986  25.861  1.00  0.00     0.270 C 
ATOM     13  N   UNL A   1      30.456  23.727  25.509  1.00  0.00    -0.348 N 
ATOM     14  H   UNL A   1      30.055  23.068  26.120  1.00  0.00     0.164 HD
ATOM     15  O   UNL A   1      29.319  25.036  26.858  1.00  0.00    -0.267 OA
BRANCH  13  16
ATOM     16  C   UNL A   1      31.303  23.028  24.517  1.00  0.00     0.085 C 
ATOM     17  C   UNL A   1      30.970  23.324  23.060  1.00  0.00     0.031 C 
BRANCH  16  18
ATOM     18  C   UNL A   1      32.842  22.956  24.822  1.00  0.00    -0.009 C 
ATOM     19  C   UNL A   1      33.556  24.135  24.076  1.00  0.00     0.012 C 
ATOM     20  C   UNL A   1      33.475  21.638  24.295  1.00  0.00     0.012 C 
ATOM     21  C   UNL A   1      33.178  23.073  26.330  1.00  0.00     0.012 C 
ATOM     22  C   UNL A   1      35.072  24.127  24.301  1.00  0.00    -0.010 C 
ATOM     23  C   UNL A   1      35.005  21.636  24.505  1.00  0.00    -0.010 C 
ATOM     24  C   UNL A   1      34.707  23.064  26.553  1.00  0.00    -0.010 C 
ATOM     25  C   UNL A   1      35.348  24.247  25.808  1.00  0.00     0.007 C 
ATOM     26  C   UNL A   1      35.645  22.814  23.765  1.00  0.00     0.007 C 
ATOM     27  C   UNL A   1      35.307  21.761  26.005  1.00  0.00     0.007 C 
ENDBRANCH  16  18
ENDBRANCH  13  16
ENDBRANCH   7  12
ENDBRANCH   4   6
ENDBRANCH   3   4
ENDBRANCH   2   3
ENDBRANCH   1   2
BRANCH   1  28
ATOM     28  O   UNL A   1      33.474  31.328  27.305  1.00  0.00    -0.374 OA
BRANCH  28  29
ATOM     29  C   UNL A   1      32.317  32.160  27.346  1.00  0.00     0.202 C 
BRANCH  29  30
ATOM     30  C   UNL A   1      32.518  33.676  27.418  1.00  0.00     0.261 C 
BRANCH  30  31
ATOM     31  O   UNL A   1      32.424  34.191  28.759  1.00  0.00    -0.460 OA
BRANCH  31  32
ATOM     32  C   UNL A   1      33.523  34.861  29.188  1.00  0.00     0.338 C 
ATOM     33  O   UNL A   1      33.611  36.047  29.456  1.00  0.00    -0.246 OA
BRANCH  32  34
ATOM     34  C   UNL A   1      34.638  33.924  29.419  1.00  0.00     0.060 A 
ATOM     35  C   UNL A   1      34.440  32.844  30.283  1.00  0.00     0.016 A 
ATOM     36  C   UNL A   1      35.900  34.178  28.890  1.00  0.00     0.016 A 
ATOM     37  C   UNL A   1      35.523  32.047  30.656  1.00  0.00     0.010 A 
ATOM     38  C   UNL A   1      36.987  33.384  29.262  1.00  0.00     0.010 A 
ATOM     39  C   UNL A   1      36.810  32.336  30.176  1.00  0.00    -0.014 A 
BRANCH  39  40
ATOM     40  C   UNL A   1      37.986  31.608  30.709  1.00  0.00     0.031 A 
ATOM     41  C   UNL A   1      38.504  31.933  32.083  1.00  0.00     0.074 A 
ATOM     42  C   UNL A   1      38.590  30.664  29.965  1.00  0.00     0.049 A 
ATOM     43  N   UNL A   1      39.514  31.411  32.732  1.00  0.00    -0.248 NA
ATOM     44  C   UNL A   1      37.795  32.992  32.823  1.00  0.00     0.031 C 
ATOM     45  C   UNL A   1      38.186  30.262  28.619  1.00  0.00     0.029 A 
ATOM     46  N   UNL A   1      39.678  29.876  30.242  1.00  0.00    -0.354 N 
ATOM     47  C   UNL A   1      39.563  32.074  33.952  1.00  0.00     0.074 A 
ATOM     48  C   UNL A   1      38.507  33.064  33.940  1.00  0.00     0.031 C 
ATOM     49  C   UNL A   1      39.017  29.298  28.186  1.00  0.00     0.029 A 
ATOM     50  C   UNL A   1      40.021  29.034  29.213  1.00  0.00     0.049 A 
ATOM     51  H   UNL A   1      40.167  29.912  31.096  1.00  0.00     0.167 HD
ATOM     52  C   UNL A   1      40.404  31.871  34.994  1.00  0.00     0.031 A 
ATOM     53  C   UNL A   1      41.034  28.155  29.111  1.00  0.00     0.031 A 
ATOM     54  C   UNL A   1      41.460  30.894  35.007  1.00  0.00     0.049 A 
ATOM     55  C   UNL A   1      41.980  27.975  30.267  1.00  0.00     0.074 A 
ATOM     56  C   UNL A   1      42.341  30.589  36.029  1.00  0.00     0.029 A 
ATOM     57  N   UNL A   1      41.781  30.069  33.941  1.00  0.00    -0.354 N 
ATOM     58  N   UNL A   1      41.978  28.569  31.436  1.00  0.00    -0.248 NA
ATOM     59  C   UNL A   1      43.059  26.992  30.093  1.00  0.00     0.031 C 
ATOM     60  C   UNL A   1      43.227  29.610  35.566  1.00  0.00     0.029 A 
ATOM     61  C   UNL A   1      42.863  29.270  34.273  1.00  0.00     0.049 A 
ATOM     62  H   UNL A   1      41.310  30.051  33.077  1.00  0.00     0.167 HD
ATOM     63  C   UNL A   1      43.035  28.012  32.146  1.00  0.00     0.074 A 
ATOM     64  C   UNL A   1      43.647  27.024  31.281  1.00  0.00     0.031 C 
ATOM     65  C   UNL A   1      43.459  28.291  33.401  1.00  0.00     0.031 A 
BRANCH  52  66
ATOM     66  C   UNL A   1      40.221  32.733  36.213  1.00  0.00    -0.014 A 
ATOM     67  C   UNL A   1      41.042  33.848  36.442  1.00  0.00     0.009 A 
ATOM     68  C   UNL A   1      39.183  32.456  37.116  1.00  0.00     0.009 A 
ATOM     69  C   UNL A   1      40.844  34.652  37.566  1.00  0.00     0.001 A 
ATOM     70  C   UNL A   1      38.972  33.275  38.226  1.00  0.00     0.001 A 
ATOM     71  C   UNL A   1      39.807  34.368  38.455  1.00  0.00     0.000 A 
ENDBRANCH  52  66
BRANCH  53  72
ATOM     72  C   UNL A   1      41.213  27.370  27.862  1.00  0.00    -0.014 A 
ATOM     73  C   UNL A   1      40.613  26.110  27.718  1.00  0.00     0.009 A 
ATOM     74  C   UNL A   1      42.000  27.872  26.814  1.00  0.00     0.009 A 
ATOM     75  C   UNL A   1      40.820  25.357  26.560  1.00  0.00     0.001 A 
ATOM     76  C   UNL A   1      42.182  27.129  25.647  1.00  0.00     0.001 A 
ATOM     77  C   UNL A   1      41.601  25.868  25.524  1.00  0.00     0.000 A 
ENDBRANCH  53  72
BRANCH  65  78
ATOM     78  C   UNL A   1      44.619  27.495  33.928  1.00  0.00    -0.014 A 
ATOM     79  C   UNL A   1      45.939  27.953  33.792  1.00  0.00     0.009 A 
ATOM     80  C   UNL A   1      44.383  26.288  34.605  1.00  0.00     0.009 A 
ATOM     81  C   UNL A   1      47.001  27.200  34.296  1.00  0.00     0.001 A 
ATOM     82  C   UNL A   1      45.445  25.551  35.130  1.00  0.00     0.001 A 
ATOM     83  C   UNL A   1      46.753  26.002  34.966  1.00  0.00     0.000 A 
ENDBRANCH  65  78
ENDBRANCH  39  40
ENDBRANCH  32  34
ENDBRANCH  31  32
ENDBRANCH  30  31
ENDBRANCH  29  30
ENDBRANCH  28  29
ENDBRANCH   1  28
TORSDOF 17
ENDMDL
MODEL 3
REMARK VINA RESULT:     -10.7      0.773      5.755
REMARK SMILES C[C@H](NC(=O)c1c(C(=O)OCCOCCOC(=O)c2ccc(-c3c4nc(c(-c5ccccc5)c5ccc([nH]5)c(-c5ccccc5)c5nc(c(-c6ccccc6)c6ccc3[nH]6)C=C5)C=C4)cc2)cnn1C)[C@]12C[C@H]3C[C@H](C[C@H](C3)C1)C2
REMARK SMILES IDX 12 1 11 2 10 3 8 4 9 5 7 6 6 7 69 8 67 9 68 10 70 11 4 12
REMARK SMILES IDX 3 13 5 15 2 16 1 17 71 18 72 19 79 20 80 21 73 22 77 23
REMARK SMILES IDX 75 24 74 25 78 26 76 27 13 28 14 29 15 30 16 31 17 32 18 33
REMARK SMILES IDX 19 34 20 35 66 36 21 37 65 38 22 39 23 40 24 41 59 42 25 43
REMARK SMILES IDX 64 44 58 45 60 46 26 47 63 48 57 49 56 50 27 52 49 53 34 54
REMARK SMILES IDX 48 55 35 56 38 57 47 58 61 59 36 60 37 61 46 63 62 64 39 65
REMARK SMILES IDX 28 66 29 67 33 68 30 69 32 70 31 71 50 72 51 73 55 74 52 75
REMARK SMILES IDX 54 76 53 77 40 78 41 79 45 80 42 81 44 82 43 83
REMARK H PARENT 3 14 60 51 38 62
REMARK Flexibility Score: inf
ROOT
ATOM      1  C   UNL A   1      33.527  29.358  27.357  1.00  0.00     0.202 C 
ENDROOT
BRANCH   1   2
ATOM      2  C   UNL A   1      34.318  29.034  26.082  1.00  0.00     0.261 C 
BRANCH   2   3
ATOM      3  O   UNL A   1      33.912  27.820  25.435  1.00  0.00    -0.460 OA
BRANCH   3   4
ATOM      4  C   UNL A   1      33.585  27.982  24.118  1.00  0.00     0.342 C 
ATOM      5  O   UNL A   1      34.319  28.493  23.285  1.00  0.00    -0.246 OA
BRANCH   4   6
ATOM      6  C   UNL A   1      32.312  27.402  23.728  1.00  0.00     0.111 A 
ATOM      7  C   UNL A   1      31.978  26.412  22.795  1.00  0.00     0.140 A 
ATOM      8  N   UNL A   1      30.737  26.010  23.246  1.00  0.00    -0.262 N 
ATOM      9  C   UNL A   1      31.086  27.753  24.338  1.00  0.00     0.151 A 
ATOM     10  N   UNL A   1      30.091  26.961  23.948  1.00  0.00    -0.180 NA
ATOM     11  C   UNL A   1      30.251  24.654  23.392  1.00  0.00     0.174 C 
BRANCH   7  12
ATOM     12  C   UNL A   1      32.841  25.706  21.886  1.00  0.00     0.270 C 
ATOM     13  N   UNL A   1      33.285  24.425  22.087  1.00  0.00    -0.348 N 
ATOM     14  H   UNL A   1      33.893  24.171  21.356  1.00  0.00     0.164 HD
ATOM     15  O   UNL A   1      33.241  26.239  20.849  1.00  0.00    -0.267 OA
BRANCH  13  16
ATOM     16  C   UNL A   1      33.157  23.297  23.036  1.00  0.00     0.085 C 
ATOM     17  C   UNL A   1      32.505  22.044  22.466  1.00  0.00     0.031 C 
BRANCH  16  18
ATOM     18  C   UNL A   1      34.387  23.013  23.971  1.00  0.00    -0.009 C 
ATOM     19  C   UNL A   1      34.141  21.661  24.725  1.00  0.00     0.012 C 
ATOM     20  C   UNL A   1      34.553  24.112  25.057  1.00  0.00     0.012 C 
ATOM     21  C   UNL A   1      35.729  22.896  23.207  1.00  0.00     0.012 C 
ATOM     22  C   UNL A   1      35.288  21.316  25.681  1.00  0.00    -0.010 C 
ATOM     23  C   UNL A   1      35.697  23.758  26.033  1.00  0.00    -0.010 C 
ATOM     24  C   UNL A   1      36.883  22.549  24.174  1.00  0.00    -0.010 C 
ATOM     25  C   UNL A   1      36.590  21.211  24.873  1.00  0.00     0.007 C 
ATOM     26  C   UNL A   1      35.408  22.425  26.729  1.00  0.00     0.007 C 
ATOM     27  C   UNL A   1      37.010  23.640  25.247  1.00  0.00     0.007 C 
ENDBRANCH  16  18
ENDBRANCH  13  16
ENDBRANCH   7  12
ENDBRANCH   4   6
ENDBRANCH   3   4
ENDBRANCH   2   3
ENDBRANCH   1   2
BRANCH   1  28
ATOM     28  O   UNL A   1      32.204  29.862  27.218  1.00  0.00    -0.374 OA
BRANCH  28  29
ATOM     29  C   UNL A   1      32.008  31.089  26.520  1.00  0.00     0.202 C 
BRANCH  29  30
ATOM     30  C   UNL A   1      31.571  32.317  27.323  1.00  0.00     0.261 C 
BRANCH  30  31
ATOM     31  O   UNL A   1      32.329  33.498  26.998  1.00  0.00    -0.460 OA
BRANCH  31  32
ATOM     32  C   UNL A   1      32.932  34.094  28.057  1.00  0.00     0.338 C 
ATOM     33  O   UNL A   1      32.509  35.020  28.727  1.00  0.00    -0.246 OA
BRANCH  32  34
ATOM     34  C   UNL A   1      34.177  33.384  28.404  1.00  0.00     0.060 A 
ATOM     35  C   UNL A   1      34.114  32.316  29.303  1.00  0.00     0.016 A 
ATOM     36  C   UNL A   1      35.409  33.846  27.948  1.00  0.00     0.016 A 
ATOM     37  C   UNL A   1      35.293  31.743  29.782  1.00  0.00     0.010 A 
ATOM     38  C   UNL A   1      36.590  33.277  28.426  1.00  0.00     0.010 A 
ATOM     39  C   UNL A   1      36.538  32.246  29.375  1.00  0.00    -0.014 A 
BRANCH  39  40
ATOM     40  C   UNL A   1      37.784  31.763  30.017  1.00  0.00     0.031 A 
ATOM     41  C   UNL A   1      38.440  30.504  29.518  1.00  0.00     0.074 A 
ATOM     42  C   UNL A   1      38.324  32.445  31.043  1.00  0.00     0.049 A 
ATOM     43  N   UNL A   1      39.532  29.918  29.938  1.00  0.00    -0.248 NA
ATOM     44  C   UNL A   1      37.774  29.810  28.402  1.00  0.00     0.031 C 
ATOM     45  C   UNL A   1      37.781  33.674  31.620  1.00  0.00     0.029 A 
ATOM     46  N   UNL A   1      39.450  32.191  31.783  1.00  0.00    -0.354 N 
ATOM     47  C   UNL A   1      39.685  28.789  29.142  1.00  0.00     0.074 A 
ATOM     48  C   UNL A   1      38.554  28.750  28.240  1.00  0.00     0.031 C 
ATOM     49  C   UNL A   1      38.578  34.070  32.627  1.00  0.00     0.029 A 
ATOM     50  C   UNL A   1      39.670  33.112  32.778  1.00  0.00     0.049 A 
ATOM     51  H   UNL A   1      40.043  31.423  31.618  1.00  0.00     0.167 HD
ATOM     52  C   UNL A   1      40.682  27.873  29.152  1.00  0.00     0.031 A 
ATOM     53  C   UNL A   1      40.640  33.170  33.709  1.00  0.00     0.031 A 
ATOM     54  C   UNL A   1      41.803  27.904  30.053  1.00  0.00     0.049 A 
ATOM     55  C   UNL A   1      41.716  32.118  33.726  1.00  0.00     0.074 A 
ATOM     56  C   UNL A   1      42.883  27.041  30.118  1.00  0.00     0.029 A 
ATOM     57  N   UNL A   1      41.984  28.846  31.053  1.00  0.00    -0.354 N 
ATOM     58  N   UNL A   1      41.878  31.089  32.930  1.00  0.00    -0.248 NA
ATOM     59  C   UNL A   1      42.750  32.246  34.763  1.00  0.00     0.031 C 
ATOM     60  C   UNL A   1      43.695  27.434  31.188  1.00  0.00     0.029 A 
ATOM     61  C   UNL A   1      43.146  28.572  31.755  1.00  0.00     0.049 A 
ATOM     62  H   UNL A   1      41.377  29.600  31.236  1.00  0.00     0.167 HD
ATOM     63  C   UNL A   1      43.045  30.464  33.351  1.00  0.00     0.074 A 
ATOM     64  C   UNL A   1      43.557  31.237  34.464  1.00  0.00     0.031 C 
ATOM     65  C   UNL A   1      43.642  29.352  32.859  1.00  0.00     0.031 A 
BRANCH  52  66
ATOM     66  C   UNL A   1      40.602  26.747  28.160  1.00  0.00    -0.014 A 
ATOM     67  C   UNL A   1      39.891  25.572  28.451  1.00  0.00     0.009 A 
ATOM     68  C   UNL A   1      41.202  26.882  26.898  1.00  0.00     0.009 A 
ATOM     69  C   UNL A   1      39.806  24.545  27.509  1.00  0.00     0.001 A 
ATOM     70  C   UNL A   1      41.095  25.864  25.950  1.00  0.00     0.001 A 
ATOM     71  C   UNL A   1      40.404  24.693  26.258  1.00  0.00     0.000 A 
ENDBRANCH  52  66
BRANCH  53  72
ATOM     72  C   UNL A   1      40.644  34.267  34.710  1.00  0.00    -0.014 A 
ATOM     73  C   UNL A   1      39.976  34.120  35.935  1.00  0.00     0.009 A 
ATOM     74  C   UNL A   1      41.305  35.475  34.438  1.00  0.00     0.009 A 
ATOM     75  C   UNL A   1      39.946  35.170  36.855  1.00  0.00     0.001 A 
ATOM     76  C   UNL A   1      41.296  36.513  35.371  1.00  0.00     0.001 A 
ATOM     77  C   UNL A   1      40.608  36.364  36.575  1.00  0.00     0.000 A 
ENDBRANCH  53  72
BRANCH  65  78
ATOM     78  C   UNL A   1      44.932  28.924  33.498  1.00  0.00    -0.014 A 
ATOM     79  C   UNL A   1      44.951  27.995  34.550  1.00  0.00     0.009 A 
ATOM     80  C   UNL A   1      46.149  29.430  33.014  1.00  0.00     0.009 A 
ATOM     81  C   UNL A   1      46.163  27.606  35.125  1.00  0.00     0.001 A 
ATOM     82  C   UNL A   1      47.359  29.019  33.573  1.00  0.00     0.001 A 
ATOM     83  C   UNL A   1      47.365  28.116  34.634  1.00  0.00     0.000 A 
ENDBRANCH  65  78
ENDBRANCH  39  40
ENDBRANCH  32  34
ENDBRANCH  31  32
ENDBRANCH  30  31
ENDBRANCH  29  30
ENDBRANCH  28  29
ENDBRANCH   1  28
TORSDOF 17
ENDMDL
