MODEL 1
REMARK VINA RESULT:     -10.2      0.000      0.000
REMARK SMILES Cc1onc(-c2cccc(Br)c2)c1C(=O)OCCOCCOC(=O)c1ccc(-c2c3nc(c(-c4ccccc4)c4ccc([nH]4)c(-c4ccccc4)c4nc(c(-c5ccccc5)c5ccc2[nH]5)C=C4)C=C3)cc1
REMARK SMILES IDX 20 1 19 2 18 3 17 4 16 5 14 6 15 7 13 8 1 9 2 10 3 11 4 12
REMARK SMILES IDX 5 13 6 14 7 15 12 16 8 17 10 18 9 19 11 20 21 21 22 22 23 23
REMARK SMILES IDX 24 24 25 25 26 26 72 27 27 28 71 29 28 30 29 31 30 32 65 33
REMARK SMILES IDX 31 34 70 35 64 36 66 37 32 38 69 39 63 40 62 41 33 43 55 44
REMARK SMILES IDX 40 45 54 46 41 47 44 48 53 49 67 50 42 51 43 52 52 54 68 55
REMARK SMILES IDX 45 56 34 57 35 58 39 59 36 60 38 61 37 62 56 63 57 64 61 65
REMARK SMILES IDX 58 66 60 67 59 68 46 69 47 70 51 71 48 72 50 73 49 74
REMARK H PARENT 66 42 44 53
REMARK Flexibility Score: inf
ROOT
ATOM      1  C   UNL A   1      37.553  20.643  24.976  1.00  0.00     0.202 C 
ENDROOT
BRANCH   1   2
ATOM      2  O   UNL A   1      38.147  21.942  25.001  1.00  0.00    -0.374 OA
BRANCH   2   3
ATOM      3  C   UNL A   1      37.484  22.905  25.827  1.00  0.00     0.202 C 
BRANCH   3   4
ATOM      4  C   UNL A   1      36.346  23.606  25.081  1.00  0.00     0.261 C 
BRANCH   4   5
ATOM      5  O   UNL A   1      35.351  24.014  26.038  1.00  0.00    -0.459 OA
BRANCH   5   6
ATOM      6  C   UNL A   1      34.229  24.595  25.533  1.00  0.00     0.344 C 
ATOM      7  O   UNL A   1      34.199  25.278  24.518  1.00  0.00    -0.246 OA
BRANCH   6   8
ATOM      8  C   UNL A   1      33.046  24.218  26.272  1.00  0.00     0.130 A 
ATOM      9  C   UNL A   1      33.461  21.726  27.050  1.00  0.00     0.092 C 
ATOM     10  C   UNL A   1      32.752  23.009  26.868  1.00  0.00     0.148 A 
ATOM     11  O   UNL A   1      31.503  23.068  27.404  1.00  0.00    -0.360 OA
ATOM     12  N   UNL A   1      30.939  24.298  27.141  1.00  0.00    -0.079 NA
ATOM     13  C   UNL A   1      31.866  24.994  26.469  1.00  0.00     0.128 A 
BRANCH  13  14
ATOM     14  C   UNL A   1      31.576  26.317  25.941  1.00  0.00     0.006 A 
ATOM     15  C   UNL A   1      30.882  26.444  24.730  1.00  0.00     0.010 A 
ATOM     16  C   UNL A   1      32.038  27.461  26.602  1.00  0.00     0.026 A 
ATOM     17  C   UNL A   1      30.674  27.704  24.168  1.00  0.00     0.002 A 
ATOM     18  C   UNL A   1      31.818  28.716  26.037  1.00  0.00     0.018 A 
ATOM     19  C   UNL A   1      31.146  28.843  24.821  1.00  0.00     0.016 A 
ATOM     20  Br  UNL A   1      32.454  30.262  26.920  1.00  0.00    -0.051 Br
ENDBRANCH  13  14
ENDBRANCH   6   8
ENDBRANCH   5   6
ENDBRANCH   4   5
ENDBRANCH   3   4
ENDBRANCH   2   3
ENDBRANCH   1   2
BRANCH   1  21
ATOM     21  C   UNL A   1      38.594  19.524  25.056  1.00  0.00     0.261 C 
BRANCH  21  22
ATOM     22  O   UNL A   1      39.333  19.654  26.282  1.00  0.00    -0.460 OA
BRANCH  22  23
ATOM     23  C   UNL A   1      40.680  19.655  26.155  1.00  0.00     0.338 C 
ATOM     24  O   UNL A   1      41.370  18.790  25.642  1.00  0.00    -0.246 OA
BRANCH  23  25
ATOM     25  C   UNL A   1      41.224  20.951  26.627  1.00  0.00     0.060 A 
ATOM     26  C   UNL A   1      41.105  21.244  27.990  1.00  0.00     0.016 A 
ATOM     27  C   UNL A   1      41.844  21.868  25.765  1.00  0.00     0.016 A 
ATOM     28  C   UNL A   1      41.573  22.458  28.488  1.00  0.00     0.010 A 
ATOM     29  C   UNL A   1      42.310  23.087  26.265  1.00  0.00     0.010 A 
ATOM     30  C   UNL A   1      42.155  23.395  27.624  1.00  0.00    -0.014 A 
BRANCH  30  31
ATOM     31  C   UNL A   1      42.473  24.744  28.139  1.00  0.00     0.031 A 
ATOM     32  C   UNL A   1      43.908  25.106  28.384  1.00  0.00     0.074 A 
ATOM     33  C   UNL A   1      41.502  25.651  28.337  1.00  0.00     0.049 A 
ATOM     34  N   UNL A   1      44.423  26.265  28.701  1.00  0.00    -0.248 NA
ATOM     35  C   UNL A   1      44.893  24.021  28.243  1.00  0.00     0.031 C 
ATOM     36  C   UNL A   1      40.073  25.427  28.130  1.00  0.00     0.029 A 
ATOM     37  N   UNL A   1      41.586  26.957  28.747  1.00  0.00    -0.354 N 
ATOM     38  C   UNL A   1      45.794  26.058  28.767  1.00  0.00     0.074 A 
ATOM     39  C   UNL A   1      46.029  24.656  28.492  1.00  0.00     0.031 C 
ATOM     40  C   UNL A   1      39.410  26.564  28.410  1.00  0.00     0.029 A 
ATOM     41  C   UNL A   1      40.371  27.590  28.810  1.00  0.00     0.049 A 
ATOM     42  H   UNL A   1      42.436  27.398  28.975  1.00  0.00     0.167 HD
ATOM     43  C   UNL A   1      46.775  26.956  29.018  1.00  0.00     0.031 A 
ATOM     44  C   UNL A   1      40.072  28.859  29.142  1.00  0.00     0.031 A 
ATOM     45  C   UNL A   1      46.554  28.342  29.317  1.00  0.00     0.049 A 
ATOM     46  C   UNL A   1      41.172  29.821  29.489  1.00  0.00     0.074 A 
ATOM     47  C   UNL A   1      47.488  29.333  29.560  1.00  0.00     0.029 A 
ATOM     48  N   UNL A   1      45.305  28.927  29.432  1.00  0.00    -0.354 N 
ATOM     49  N   UNL A   1      42.468  29.625  29.486  1.00  0.00    -0.248 NA
ATOM     50  C   UNL A   1      40.765  31.178  29.880  1.00  0.00     0.031 C 
ATOM     51  C   UNL A   1      46.799  30.518  29.850  1.00  0.00     0.029 A 
ATOM     52  C   UNL A   1      45.440  30.261  29.771  1.00  0.00     0.049 A 
ATOM     53  H   UNL A   1      44.448  28.463  29.294  1.00  0.00     0.167 HD
ATOM     54  C   UNL A   1      43.032  30.838  29.857  1.00  0.00     0.074 A 
ATOM     55  C   UNL A   1      41.940  31.763  30.080  1.00  0.00     0.031 C 
ATOM     56  C   UNL A   1      44.340  31.160  29.995  1.00  0.00     0.031 A 
BRANCH  43  57
ATOM     57  C   UNL A   1      48.180  26.445  28.976  1.00  0.00    -0.014 A 
ATOM     58  C   UNL A   1      48.920  26.503  27.785  1.00  0.00     0.009 A 
ATOM     59  C   UNL A   1      48.766  25.897  30.125  1.00  0.00     0.009 A 
ATOM     60  C   UNL A   1      50.221  26.000  27.742  1.00  0.00     0.001 A 
ATOM     61  C   UNL A   1      50.070  25.402  30.080  1.00  0.00     0.001 A 
ATOM     62  C   UNL A   1      50.794  25.451  28.888  1.00  0.00     0.000 A 
ENDBRANCH  43  57
BRANCH  44  63
ATOM     63  C   UNL A   1      38.659  29.306  29.153  1.00  0.00    -0.014 A 
ATOM     64  C   UNL A   1      37.878  29.162  30.307  1.00  0.00     0.009 A 
ATOM     65  C   UNL A   1      38.088  29.867  28.001  1.00  0.00     0.009 A 
ATOM     66  C   UNL A   1      36.540  29.560  30.303  1.00  0.00     0.001 A 
ATOM     67  C   UNL A   1      36.752  30.272  28.004  1.00  0.00     0.001 A 
ATOM     68  C   UNL A   1      35.978  30.114  29.153  1.00  0.00     0.000 A 
ENDBRANCH  44  63
BRANCH  56  69
ATOM     69  C   UNL A   1      44.656  32.566  30.400  1.00  0.00    -0.014 A 
ATOM     70  C   UNL A   1      44.805  32.901  31.754  1.00  0.00     0.009 A 
ATOM     71  C   UNL A   1      44.844  33.553  29.423  1.00  0.00     0.009 A 
ATOM     72  C   UNL A   1      45.122  34.210  32.123  1.00  0.00     0.001 A 
ATOM     73  C   UNL A   1      45.169  34.858  29.795  1.00  0.00     0.001 A 
ATOM     74  C   UNL A   1      45.305  35.185  31.143  1.00  0.00     0.000 A 
ENDBRANCH  56  69
ENDBRANCH  30  31
ENDBRANCH  23  25
ENDBRANCH  22  23
ENDBRANCH  21  22
ENDBRANCH   1  21
TORSDOF 15
ENDMDL
MODEL 2
REMARK VINA RESULT:     -10.1      2.140      3.233
REMARK SMILES Cc1onc(-c2cccc(Br)c2)c1C(=O)OCCOCCOC(=O)c1ccc(-c2c3nc(c(-c4ccccc4)c4ccc([nH]4)c(-c4ccccc4)c4nc(c(-c5ccccc5)c5ccc2[nH]5)C=C4)C=C3)cc1
REMARK SMILES IDX 20 1 19 2 18 3 17 4 16 5 14 6 15 7 13 8 1 9 2 10 3 11 4 12
REMARK SMILES IDX 5 13 6 14 7 15 12 16 8 17 10 18 9 19 11 20 21 21 22 22 23 23
REMARK SMILES IDX 24 24 25 25 26 26 72 27 27 28 71 29 28 30 29 31 30 32 65 33
REMARK SMILES IDX 31 34 70 35 64 36 66 37 32 38 69 39 63 40 62 41 33 43 55 44
REMARK SMILES IDX 40 45 54 46 41 47 44 48 53 49 67 50 42 51 43 52 52 54 68 55
REMARK SMILES IDX 45 56 34 57 35 58 39 59 36 60 38 61 37 62 56 63 57 64 61 65
REMARK SMILES IDX 58 66 60 67 59 68 46 69 47 70 51 71 48 72 50 73 49 74
REMARK H PARENT 66 42 44 53
REMARK Flexibility Score: inf
ROOT
ATOM      1  C   UNL A   1      35.173  21.273  25.261  1.00  0.00     0.202 C 
ENDROOT
BRANCH   1   2
ATOM      2  O   UNL A   1      35.074  22.559  25.875  1.00  0.00    -0.374 OA
BRANCH   2   3
ATOM      3  C   UNL A   1      33.930  23.333  25.499  1.00  0.00     0.202 C 
BRANCH   3   4
ATOM      4  C   UNL A   1      34.320  24.552  24.659  1.00  0.00     0.261 C 
BRANCH   4   5
ATOM      5  O   UNL A   1      34.502  25.677  25.538  1.00  0.00    -0.459 OA
BRANCH   5   6
ATOM      6  C   UNL A   1      33.818  26.810  25.219  1.00  0.00     0.344 C 
ATOM      7  O   UNL A   1      33.978  27.449  24.188  1.00  0.00    -0.246 OA
BRANCH   6   8
ATOM      8  C   UNL A   1      32.792  27.113  26.191  1.00  0.00     0.130 A 
ATOM      9  C   UNL A   1      30.855  25.371  25.744  1.00  0.00     0.092 C 
ATOM     10  C   UNL A   1      31.564  26.509  26.363  1.00  0.00     0.148 A 
ATOM     11  O   UNL A   1      30.887  27.149  27.354  1.00  0.00    -0.360 OA
ATOM     12  N   UNL A   1      31.637  28.204  27.826  1.00  0.00    -0.079 NA
ATOM     13  C   UNL A   1      32.786  28.180  27.136  1.00  0.00     0.128 A 
BRANCH  13  14
ATOM     14  C   UNL A   1      33.788  29.219  27.308  1.00  0.00     0.006 A 
ATOM     15  C   UNL A   1      35.147  28.877  27.321  1.00  0.00     0.010 A 
ATOM     16  C   UNL A   1      33.402  30.547  27.522  1.00  0.00     0.026 A 
ATOM     17  C   UNL A   1      36.114  29.850  27.574  1.00  0.00     0.002 A 
ATOM     18  C   UNL A   1      34.376  31.514  27.765  1.00  0.00     0.018 A 
ATOM     19  C   UNL A   1      35.728  31.172  27.799  1.00  0.00     0.016 A 
ATOM     20  Br  UNL A   1      33.857  33.307  28.069  1.00  0.00    -0.051 Br
ENDBRANCH  13  14
ENDBRANCH   6   8
ENDBRANCH   5   6
ENDBRANCH   4   5
ENDBRANCH   3   4
ENDBRANCH   2   3
ENDBRANCH   1   2
BRANCH   1  21
ATOM     21  C   UNL A   1      36.624  20.842  25.038  1.00  0.00     0.261 C 
BRANCH  21  22
ATOM     22  O   UNL A   1      37.495  21.944  25.343  1.00  0.00    -0.460 OA
BRANCH  22  23
ATOM     23  C   UNL A   1      38.675  21.614  25.919  1.00  0.00     0.338 C 
ATOM     24  O   UNL A   1      39.239  20.534  25.871  1.00  0.00    -0.246 OA
BRANCH  23  25
ATOM     25  C   UNL A   1      39.279  22.817  26.540  1.00  0.00     0.060 A 
ATOM     26  C   UNL A   1      38.695  24.055  26.253  1.00  0.00     0.016 A 
ATOM     27  C   UNL A   1      40.393  22.748  27.390  1.00  0.00     0.016 A 
ATOM     28  C   UNL A   1      39.235  25.224  26.785  1.00  0.00     0.010 A 
ATOM     29  C   UNL A   1      40.937  23.921  27.921  1.00  0.00     0.010 A 
ATOM     30  C   UNL A   1      40.373  25.165  27.601  1.00  0.00    -0.014 A 
BRANCH  30  31
ATOM     31  C   UNL A   1      41.035  26.425  28.000  1.00  0.00     0.031 A 
ATOM     32  C   UNL A   1      42.417  26.710  27.490  1.00  0.00     0.074 A 
ATOM     33  C   UNL A   1      40.396  27.326  28.765  1.00  0.00     0.049 A 
ATOM     34  N   UNL A   1      43.127  27.803  27.600  1.00  0.00    -0.248 NA
ATOM     35  C   UNL A   1      43.081  25.625  26.749  1.00  0.00     0.031 C 
ATOM     36  C   UNL A   1      39.052  27.172  29.318  1.00  0.00     0.029 A 
ATOM     37  N   UNL A   1      40.801  28.563  29.194  1.00  0.00    -0.354 N 
ATOM     38  C   UNL A   1      44.308  27.549  26.917  1.00  0.00     0.074 A 
ATOM     39  C   UNL A   1      44.236  26.189  26.425  1.00  0.00     0.031 C 
ATOM     40  C   UNL A   1      38.739  28.281  30.012  1.00  0.00     0.029 A 
ATOM     41  C   UNL A   1      39.859  29.218  29.945  1.00  0.00     0.049 A 
ATOM     42  H   UNL A   1      41.684  28.946  28.984  1.00  0.00     0.167 HD
ATOM     43  C   UNL A   1      45.356  28.378  26.702  1.00  0.00     0.031 A 
ATOM     44  C   UNL A   1      39.893  30.440  30.506  1.00  0.00     0.031 A 
ATOM     45  C   UNL A   1      45.452  29.718  27.205  1.00  0.00     0.049 A 
ATOM     46  C   UNL A   1      41.099  31.316  30.316  1.00  0.00     0.074 A 
ATOM     47  C   UNL A   1      46.465  30.642  27.017  1.00  0.00     0.029 A 
ATOM     48  N   UNL A   1      44.503  30.319  28.014  1.00  0.00    -0.354 N 
ATOM     49  N   UNL A   1      42.182  31.086  29.615  1.00  0.00    -0.248 NA
ATOM     50  C   UNL A   1      41.081  32.621  30.991  1.00  0.00     0.031 C 
ATOM     51  C   UNL A   1      46.139  31.798  27.738  1.00  0.00     0.029 A 
ATOM     52  C   UNL A   1      44.918  31.593  28.358  1.00  0.00     0.049 A 
ATOM     53  H   UNL A   1      43.659  29.902  28.302  1.00  0.00     0.167 HD
ATOM     54  C   UNL A   1      42.967  32.222  29.750  1.00  0.00     0.074 A 
ATOM     55  C   UNL A   1      42.239  33.141  30.601  1.00  0.00     0.031 C 
ATOM     56  C   UNL A   1      44.181  32.485  29.212  1.00  0.00     0.031 A 
BRANCH  43  57
ATOM     57  C   UNL A   1      46.483  27.836  25.880  1.00  0.00    -0.014 A 
ATOM     58  C   UNL A   1      46.519  28.056  24.495  1.00  0.00     0.009 A 
ATOM     59  C   UNL A   1      47.508  27.099  26.487  1.00  0.00     0.009 A 
ATOM     60  C   UNL A   1      47.556  27.527  23.726  1.00  0.00     0.001 A 
ATOM     61  C   UNL A   1      48.548  26.577  25.717  1.00  0.00     0.001 A 
ATOM     62  C   UNL A   1      48.569  26.788  24.337  1.00  0.00     0.000 A 
ENDBRANCH  43  57
BRANCH  44  63
ATOM     63  C   UNL A   1      38.739  30.922  31.299  1.00  0.00    -0.014 A 
ATOM     64  C   UNL A   1      38.657  30.649  32.672  1.00  0.00     0.009 A 
ATOM     65  C   UNL A   1      37.711  31.647  30.679  1.00  0.00     0.009 A 
ATOM     66  C   UNL A   1      37.553  31.083  33.408  1.00  0.00     0.001 A 
ATOM     67  C   UNL A   1      36.613  32.086  31.422  1.00  0.00     0.001 A 
ATOM     68  C   UNL A   1      36.533  31.800  32.784  1.00  0.00     0.000 A 
ENDBRANCH  44  63
BRANCH  56  69
ATOM     69  C   UNL A   1      44.791  33.816  29.525  1.00  0.00    -0.014 A 
ATOM     70  C   UNL A   1      44.523  34.931  28.716  1.00  0.00     0.009 A 
ATOM     71  C   UNL A   1      45.606  33.967  30.656  1.00  0.00     0.009 A 
ATOM     72  C   UNL A   1      45.077  36.174  29.028  1.00  0.00     0.001 A 
ATOM     73  C   UNL A   1      46.152  35.212  30.969  1.00  0.00     0.001 A 
ATOM     74  C   UNL A   1      45.889  36.312  30.154  1.00  0.00     0.000 A 
ENDBRANCH  56  69
ENDBRANCH  30  31
ENDBRANCH  23  25
ENDBRANCH  22  23
ENDBRANCH  21  22
ENDBRANCH   1  21
TORSDOF 15
ENDMDL
MODEL 3
REMARK VINA RESULT:     -10.1      4.417      9.297
REMARK SMILES Cc1onc(-c2cccc(Br)c2)c1C(=O)OCCOCCOC(=O)c1ccc(-c2c3nc(c(-c4ccccc4)c4ccc([nH]4)c(-c4ccccc4)c4nc(c(-c5ccccc5)c5ccc2[nH]5)C=C4)C=C3)cc1
REMARK SMILES IDX 20 1 19 2 18 3 17 4 16 5 14 6 15 7 13 8 1 9 2 10 3 11 4 12
REMARK SMILES IDX 5 13 6 14 7 15 12 16 8 17 10 18 9 19 11 20 21 21 22 22 23 23
REMARK SMILES IDX 24 24 25 25 26 26 72 27 27 28 71 29 28 30 29 31 30 32 65 33
REMARK SMILES IDX 31 34 70 35 64 36 66 37 32 38 69 39 63 40 62 41 33 43 55 44
REMARK SMILES IDX 40 45 54 46 41 47 44 48 53 49 67 50 42 51 43 52 52 54 68 55
REMARK SMILES IDX 45 56 34 57 35 58 39 59 36 60 38 61 37 62 56 63 57 64 61 65
REMARK SMILES IDX 58 66 60 67 59 68 46 69 47 70 51 71 48 72 50 73 49 74
REMARK H PARENT 66 42 44 53
REMARK Flexibility Score: inf
ROOT
ATOM      1  C   UNL A   1      31.663  32.416  26.919  1.00  0.00     0.202 C 
ENDROOT
BRANCH   1   2
ATOM      2  O   UNL A   1      31.891  31.081  26.463  1.00  0.00    -0.374 OA
BRANCH   2   3
ATOM      3  C   UNL A   1      32.878  30.343  27.191  1.00  0.00     0.202 C 
BRANCH   3   4
ATOM      4  C   UNL A   1      32.740  28.835  26.965  1.00  0.00     0.261 C 
BRANCH   4   5
ATOM      5  O   UNL A   1      31.423  28.565  26.451  1.00  0.00    -0.459 OA
BRANCH   5   6
ATOM      6  C   UNL A   1      31.189  27.295  26.022  1.00  0.00     0.344 C 
ATOM      7  O   UNL A   1      30.614  26.438  26.679  1.00  0.00    -0.246 OA
BRANCH   6   8
ATOM      8  C   UNL A   1      31.600  27.104  24.650  1.00  0.00     0.130 A 
ATOM      9  C   UNL A   1      33.919  25.841  24.773  1.00  0.00     0.092 C 
ATOM     10  C   UNL A   1      32.752  26.516  24.170  1.00  0.00     0.148 A 
ATOM     11  O   UNL A   1      32.764  26.602  22.813  1.00  0.00    -0.360 OA
ATOM     12  N   UNL A   1      31.644  27.277  22.377  1.00  0.00    -0.079 NA
ATOM     13  C   UNL A   1      30.938  27.571  23.477  1.00  0.00     0.128 A 
BRANCH  13  14
ATOM     14  C   UNL A   1      29.728  28.374  23.401  1.00  0.00     0.006 A 
ATOM     15  C   UNL A   1      28.481  27.741  23.302  1.00  0.00     0.010 A 
ATOM     16  C   UNL A   1      29.805  29.770  23.364  1.00  0.00     0.026 A 
ATOM     17  C   UNL A   1      27.320  28.498  23.139  1.00  0.00     0.002 A 
ATOM     18  C   UNL A   1      28.638  30.518  23.209  1.00  0.00     0.018 A 
ATOM     19  C   UNL A   1      27.399  29.889  23.089  1.00  0.00     0.016 A 
ATOM     20  Br  UNL A   1      28.740  32.405  23.143  1.00  0.00    -0.051 Br
ENDBRANCH  13  14
ENDBRANCH   6   8
ENDBRANCH   5   6
ENDBRANCH   4   5
ENDBRANCH   3   4
ENDBRANCH   2   3
ENDBRANCH   1   2
BRANCH   1  21
ATOM     21  C   UNL A   1      32.835  32.963  27.734  1.00  0.00     0.261 C 
BRANCH  21  22
ATOM     22  O   UNL A   1      32.796  34.399  27.712  1.00  0.00    -0.460 OA
BRANCH  22  23
ATOM     23  C   UNL A   1      33.039  35.009  28.896  1.00  0.00     0.338 C 
ATOM     24  O   UNL A   1      32.328  35.822  29.463  1.00  0.00    -0.246 OA
BRANCH  23  25
ATOM     25  C   UNL A   1      34.270  34.448  29.502  1.00  0.00     0.060 A 
ATOM     26  C   UNL A   1      35.481  34.680  28.838  1.00  0.00     0.016 A 
ATOM     27  C   UNL A   1      34.257  33.712  30.696  1.00  0.00     0.016 A 
ATOM     28  C   UNL A   1      36.668  34.156  29.345  1.00  0.00     0.010 A 
ATOM     29  C   UNL A   1      35.447  33.182  31.201  1.00  0.00     0.010 A 
ATOM     30  C   UNL A   1      36.653  33.384  30.514  1.00  0.00    -0.014 A 
BRANCH  30  31
ATOM     31  C   UNL A   1      37.889  32.686  30.928  1.00  0.00     0.031 A 
ATOM     32  C   UNL A   1      38.638  33.189  32.126  1.00  0.00     0.074 A 
ATOM     33  C   UNL A   1      38.310  31.588  30.277  1.00  0.00     0.049 A 
ATOM     34  N   UNL A   1      39.661  32.655  32.743  1.00  0.00    -0.248 NA
ATOM     35  C   UNL A   1      38.168  34.454  32.713  1.00  0.00     0.031 C 
ATOM     36  C   UNL A   1      37.669  30.996  29.105  1.00  0.00     0.029 A 
ATOM     37  N   UNL A   1      39.381  30.771  30.529  1.00  0.00    -0.354 N 
ATOM     38  C   UNL A   1      39.936  33.502  33.807  1.00  0.00     0.074 A 
ATOM     39  C   UNL A   1      38.998  34.602  33.735  1.00  0.00     0.031 C 
ATOM     40  C   UNL A   1      38.359  29.899  28.741  1.00  0.00     0.029 A 
ATOM     41  C   UNL A   1      39.483  29.717  29.658  1.00  0.00     0.049 A 
ATOM     42  H   UNL A   1      40.017  30.924  31.265  1.00  0.00     0.167 HD
ATOM     43  C   UNL A   1      40.876  33.370  34.772  1.00  0.00     0.031 A 
ATOM     44  C   UNL A   1      40.377  28.712  29.613  1.00  0.00     0.031 A 
ATOM     45  C   UNL A   1      41.828  32.299  34.842  1.00  0.00     0.049 A 
ATOM     46  C   UNL A   1      41.458  28.627  30.652  1.00  0.00     0.074 A 
ATOM     47  C   UNL A   1      42.802  32.068  35.798  1.00  0.00     0.029 A 
ATOM     48  N   UNL A   1      41.936  31.287  33.904  1.00  0.00    -0.354 N 
ATOM     49  N   UNL A   1      41.666  29.400  31.689  1.00  0.00    -0.248 NA
ATOM     50  C   UNL A   1      42.421  27.525  30.515  1.00  0.00     0.031 C 
ATOM     51  C   UNL A   1      43.520  30.926  35.421  1.00  0.00     0.029 A 
ATOM     52  C   UNL A   1      42.979  30.443  34.241  1.00  0.00     0.049 A 
ATOM     53  H   UNL A   1      41.358  31.184  33.114  1.00  0.00     0.167 HD
ATOM     54  C   UNL A   1      42.773  28.870  32.337  1.00  0.00     0.074 A 
ATOM     55  C   UNL A   1      43.194  27.710  31.578  1.00  0.00     0.031 C 
ATOM     56  C   UNL A   1      43.384  29.301  33.466  1.00  0.00     0.031 A 
BRANCH  43  57
ATOM     57  C   UNL A   1      40.906  34.428  35.830  1.00  0.00    -0.014 A 
ATOM     58  C   UNL A   1      40.131  34.291  36.991  1.00  0.00     0.009 A 
ATOM     59  C   UNL A   1      41.704  35.568  35.665  1.00  0.00     0.009 A 
ATOM     60  C   UNL A   1      40.139  35.292  37.963  1.00  0.00     0.001 A 
ATOM     61  C   UNL A   1      41.716  36.564  36.642  1.00  0.00     0.001 A 
ATOM     62  C   UNL A   1      40.931  36.427  37.788  1.00  0.00     0.000 A 
ENDBRANCH  43  57
BRANCH  44  63
ATOM     63  C   UNL A   1      40.285  27.689  28.546  1.00  0.00    -0.014 A 
ATOM     64  C   UNL A   1      39.570  26.501  28.760  1.00  0.00     0.009 A 
ATOM     65  C   UNL A   1      40.924  27.895  27.315  1.00  0.00     0.009 A 
ATOM     66  C   UNL A   1      39.510  25.529  27.760  1.00  0.00     0.001 A 
ATOM     67  C   UNL A   1      40.854  26.923  26.315  1.00  0.00     0.001 A 
ATOM     68  C   UNL A   1      40.151  25.740  26.539  1.00  0.00     0.000 A 
ENDBRANCH  44  63
BRANCH  56  69
ATOM     69  C   UNL A   1      44.564  28.514  33.945  1.00  0.00    -0.014 A 
ATOM     70  C   UNL A   1      44.390  27.419  34.804  1.00  0.00     0.009 A 
ATOM     71  C   UNL A   1      45.854  28.845  33.505  1.00  0.00     0.009 A 
ATOM     72  C   UNL A   1      45.494  26.676  35.227  1.00  0.00     0.001 A 
ATOM     73  C   UNL A   1      46.954  28.095  33.924  1.00  0.00     0.001 A 
ATOM     74  C   UNL A   1      46.773  27.015  34.786  1.00  0.00     0.000 A 
ENDBRANCH  56  69
ENDBRANCH  30  31
ENDBRANCH  23  25
ENDBRANCH  22  23
ENDBRANCH  21  22
ENDBRANCH   1  21
TORSDOF 15
ENDMDL
