MODEL 1
REMARK VINA RESULT:      -8.3      0.000      0.000
REMARK SMILES C[NH+]1CCC([N@@H+](C)CCC(=O)OCCOCCOC(=O)c2ccc(-c3c4nc(c(-c5ccccc5)c5ccc([nH]5)c(-c5ccccc5)c5nc(c(-c6ccccc6)c6ccc3[nH]6)C=C5)C=C4)cc2)CC1
REMARK SMILES IDX 14 1 13 2 12 3 10 4 11 5 9 6 8 7 6 8 7 9 5 11 1 12 2 13 3 14
REMARK SMILES IDX 70 15 4 17 69 18 15 19 16 20 17 21 18 22 19 23 20 24 21 25
REMARK SMILES IDX 22 26 68 27 23 28 67 29 24 30 25 31 26 32 61 33 27 34 66 35
REMARK SMILES IDX 60 36 62 37 28 38 65 39 59 40 58 41 29 43 51 44 36 45 50 46
REMARK SMILES IDX 37 47 40 48 49 49 63 50 38 51 39 52 48 54 64 55 41 56 30 57
REMARK SMILES IDX 31 58 35 59 32 60 34 61 33 62 52 63 53 64 57 65 54 66 56 67
REMARK SMILES IDX 55 68 42 69 43 70 47 71 44 72 46 73 45 74
REMARK H PARENT 6 10 2 16 62 42 40 53
REMARK Flexibility Score: inf
ROOT
ATOM      1  C   UNL A   1      44.379  18.883  25.337  1.00  0.00     0.202 C 
ENDROOT
BRANCH   1   2
ATOM      2  C   UNL A   1      44.831  20.003  24.391  1.00  0.00     0.261 C 
BRANCH   2   3
ATOM      3  O   UNL A   1      45.027  21.256  25.078  1.00  0.00    -0.463 OA
BRANCH   3   4
ATOM      4  C   UNL A   1      44.192  22.281  24.767  1.00  0.00     0.311 C 
ATOM      5  O   UNL A   1      43.770  22.530  23.645  1.00  0.00    -0.252 OA
BRANCH   4   6
ATOM      6  C   UNL A   1      43.921  23.172  25.961  1.00  0.00     0.184 C 
BRANCH   6   7
ATOM      7  C   UNL A   1      44.892  22.969  27.127  1.00  0.00     0.274 C 
BRANCH   7   8
ATOM      8  N   UNL A   1      45.610  24.134  27.686  1.00  0.00    -0.334 N 
ATOM      9  C   UNL A   1      46.879  24.390  27.016  1.00  0.00     0.332 C 
ATOM     10  H   UNL A   1      44.967  24.893  27.456  1.00  0.00     0.348 HD
BRANCH   8  11
ATOM     11  C   UNL A   1      45.684  24.280  29.162  1.00  0.00     0.195 C 
ATOM     12  C   UNL A   1      44.578  26.370  32.805  1.00  0.00     0.332 C 
ATOM     13  N   UNL A   1      44.751  25.809  31.468  1.00  0.00    -0.337 N 
ATOM     14  C   UNL A   1      44.448  24.383  31.413  1.00  0.00     0.268 C 
ATOM     15  C   UNL A   1      46.120  26.006  31.008  1.00  0.00     0.268 C 
ATOM     16  H   UNL A   1      44.091  26.301  30.866  1.00  0.00     0.347 HD
ATOM     17  C   UNL A   1      44.393  23.959  29.945  1.00  0.00     0.126 C 
ATOM     18  C   UNL A   1      46.320  25.615  29.554  1.00  0.00     0.126 C 
ENDBRANCH   8  11
ENDBRANCH   7   8
ENDBRANCH   6   7
ENDBRANCH   4   6
ENDBRANCH   3   4
ENDBRANCH   2   3
ENDBRANCH   1   2
BRANCH   1  19
ATOM     19  O   UNL A   1      42.960  18.717  25.361  1.00  0.00    -0.374 OA
BRANCH  19  20
ATOM     20  C   UNL A   1      42.301  19.339  26.467  1.00  0.00     0.202 C 
BRANCH  20  21
ATOM     21  C   UNL A   1      40.909  19.872  26.095  1.00  0.00     0.261 C 
BRANCH  21  22
ATOM     22  O   UNL A   1      40.490  20.931  26.991  1.00  0.00    -0.460 OA
BRANCH  22  23
ATOM     23  C   UNL A   1      39.662  21.876  26.466  1.00  0.00     0.338 C 
ATOM     24  O   UNL A   1      38.756  21.695  25.682  1.00  0.00    -0.246 OA
BRANCH  23  25
ATOM     25  C   UNL A   1      39.929  23.203  27.091  1.00  0.00     0.060 A 
ATOM     26  C   UNL A   1      39.216  24.306  26.600  1.00  0.00     0.016 A 
ATOM     27  C   UNL A   1      40.813  23.376  28.163  1.00  0.00     0.016 A 
ATOM     28  C   UNL A   1      39.383  25.573  27.173  1.00  0.00     0.010 A 
ATOM     29  C   UNL A   1      40.984  24.652  28.734  1.00  0.00     0.010 A 
ATOM     30  C   UNL A   1      40.284  25.765  28.231  1.00  0.00    -0.014 A 
BRANCH  30  31
ATOM     31  C   UNL A   1      40.656  27.157  28.621  1.00  0.00     0.031 A 
ATOM     32  C   UNL A   1      42.059  27.615  28.314  1.00  0.00     0.074 A 
ATOM     33  C   UNL A   1      39.786  28.039  29.153  1.00  0.00     0.049 A 
ATOM     34  N   UNL A   1      42.595  28.802  28.442  1.00  0.00    -0.248 NA
ATOM     35  C   UNL A   1      42.972  26.593  27.779  1.00  0.00     0.031 C 
ATOM     36  C   UNL A   1      38.385  27.780  29.473  1.00  0.00     0.029 A 
ATOM     37  N   UNL A   1      39.968  29.360  29.502  1.00  0.00    -0.354 N 
ATOM     38  C   UNL A   1      43.896  28.675  27.976  1.00  0.00     0.074 A 
ATOM     39  C   UNL A   1      44.085  27.289  27.611  1.00  0.00     0.031 C 
ATOM     40  C   UNL A   1      37.832  28.907  29.961  1.00  0.00     0.029 A 
ATOM     41  C   UNL A   1      38.840  29.968  29.999  1.00  0.00     0.049 A 
ATOM     42  H   UNL A   1      40.830  29.827  29.406  1.00  0.00     0.167 HD
ATOM     43  C   UNL A   1      44.855  29.621  27.837  1.00  0.00     0.031 A 
ATOM     44  C   UNL A   1      38.640  31.232  30.427  1.00  0.00     0.031 A 
ATOM     45  C   UNL A   1      44.722  30.994  28.232  1.00  0.00     0.049 A 
ATOM     46  C   UNL A   1      39.764  32.242  30.381  1.00  0.00     0.074 A 
ATOM     47  C   UNL A   1      45.659  32.008  28.151  1.00  0.00     0.029 A 
ATOM     48  N   UNL A   1      43.585  31.541  28.799  1.00  0.00    -0.354 N 
ATOM     49  N   UNL A   1      40.973  32.116  29.892  1.00  0.00    -0.248 NA
ATOM     50  C   UNL A   1      39.484  33.577  30.942  1.00  0.00     0.031 C 
ATOM     51  C   UNL A   1      45.104  33.161  28.714  1.00  0.00     0.029 A 
ATOM     52  C   UNL A   1      43.806  32.874  29.099  1.00  0.00     0.049 A 
ATOM     53  H   UNL A   1      42.745  31.055  28.964  1.00  0.00     0.167 HD
ATOM     54  C   UNL A   1      41.580  33.358  30.052  1.00  0.00     0.074 A 
ATOM     55  C   UNL A   1      40.609  34.228  30.676  1.00  0.00     0.031 C 
ATOM     56  C   UNL A   1      42.834  33.743  29.708  1.00  0.00     0.031 A 
BRANCH  43  57
ATOM     57  C   UNL A   1      46.157  29.167  27.250  1.00  0.00    -0.014 A 
ATOM     58  C   UNL A   1      46.271  28.905  25.874  1.00  0.00     0.009 A 
ATOM     59  C   UNL A   1      47.271  28.978  28.078  1.00  0.00     0.009 A 
ATOM     60  C   UNL A   1      47.467  28.421  25.348  1.00  0.00     0.001 A 
ATOM     61  C   UNL A   1      48.474  28.517  27.545  1.00  0.00     0.001 A 
ATOM     62  C   UNL A   1      48.568  28.229  26.183  1.00  0.00     0.000 A 
ENDBRANCH  43  57
BRANCH  44  63
ATOM     63  C   UNL A   1      37.314  31.657  30.957  1.00  0.00    -0.014 A 
ATOM     64  C   UNL A   1      36.365  32.255  30.110  1.00  0.00     0.009 A 
ATOM     65  C   UNL A   1      37.029  31.556  32.327  1.00  0.00     0.009 A 
ATOM     66  C   UNL A   1      35.175  32.772  30.632  1.00  0.00     0.001 A 
ATOM     67  C   UNL A   1      35.828  32.053  32.841  1.00  0.00     0.001 A 
ATOM     68  C   UNL A   1      34.908  32.670  31.996  1.00  0.00     0.000 A 
ENDBRANCH  44  63
BRANCH  56  69
ATOM     69  C   UNL A   1      43.228  35.172  29.954  1.00  0.00    -0.014 A 
ATOM     70  C   UNL A   1      43.857  35.562  31.147  1.00  0.00     0.009 A 
ATOM     71  C   UNL A   1      43.036  36.129  28.944  1.00  0.00     0.009 A 
ATOM     72  C   UNL A   1      44.266  36.885  31.330  1.00  0.00     0.001 A 
ATOM     73  C   UNL A   1      43.467  37.446  29.121  1.00  0.00     0.001 A 
ATOM     74  C   UNL A   1      44.076  37.823  30.316  1.00  0.00     0.000 A 
ENDBRANCH  56  69
ENDBRANCH  30  31
ENDBRANCH  23  25
ENDBRANCH  22  23
ENDBRANCH  21  22
ENDBRANCH  20  21
ENDBRANCH  19  20
ENDBRANCH   1  19
TORSDOF 17
ENDMDL
MODEL 2
REMARK VINA RESULT:      -8.3      4.884     10.321
REMARK SMILES C[NH+]1CCC([N@@H+](C)CCC(=O)OCCOCCOC(=O)c2ccc(-c3c4nc(c(-c5ccccc5)c5ccc([nH]5)c(-c5ccccc5)c5nc(c(-c6ccccc6)c6ccc3[nH]6)C=C5)C=C4)cc2)CC1
REMARK SMILES IDX 14 1 13 2 12 3 10 4 11 5 9 6 8 7 6 8 7 9 5 11 1 12 2 13 3 14
REMARK SMILES IDX 70 15 4 17 69 18 15 19 16 20 17 21 18 22 19 23 20 24 21 25
REMARK SMILES IDX 22 26 68 27 23 28 67 29 24 30 25 31 26 32 61 33 27 34 66 35
REMARK SMILES IDX 60 36 62 37 28 38 65 39 59 40 58 41 29 43 51 44 36 45 50 46
REMARK SMILES IDX 37 47 40 48 49 49 63 50 38 51 39 52 48 54 64 55 41 56 30 57
REMARK SMILES IDX 31 58 35 59 32 60 34 61 33 62 52 63 53 64 57 65 54 66 56 67
REMARK SMILES IDX 55 68 42 69 43 70 47 71 44 72 46 73 45 74
REMARK H PARENT 6 10 2 16 62 42 40 53
REMARK Flexibility Score: inf
ROOT
ATOM      1  C   UNL A   1      30.244  25.994  25.917  1.00  0.00     0.202 C 
ENDROOT
BRANCH   1   2
ATOM      2  C   UNL A   1      30.339  24.472  26.090  1.00  0.00     0.261 C 
BRANCH   2   3
ATOM      3  O   UNL A   1      31.111  24.099  27.250  1.00  0.00    -0.463 OA
BRANCH   3   4
ATOM      4  C   UNL A   1      31.868  22.975  27.166  1.00  0.00     0.311 C 
ATOM      5  O   UNL A   1      32.676  22.606  28.008  1.00  0.00    -0.252 OA
BRANCH   4   6
ATOM      6  C   UNL A   1      31.686  22.268  25.839  1.00  0.00     0.184 C 
BRANCH   6   7
ATOM      7  C   UNL A   1      32.985  21.731  25.233  1.00  0.00     0.274 C 
BRANCH   7   8
ATOM      8  N   UNL A   1      33.643  22.482  24.143  1.00  0.00    -0.334 N 
ATOM      9  C   UNL A   1      35.098  22.447  24.231  1.00  0.00     0.332 C 
ATOM     10  H   UNL A   1      33.359  21.939  23.327  1.00  0.00     0.348 HD
BRANCH   8  11
ATOM     11  C   UNL A   1      33.107  23.818  23.779  1.00  0.00     0.195 C 
ATOM     12  C   UNL A   1      33.652  27.743  22.000  1.00  0.00     0.332 C 
ATOM     13  N   UNL A   1      33.699  26.363  22.474  1.00  0.00    -0.337 N 
ATOM     14  C   UNL A   1      32.610  25.549  21.945  1.00  0.00     0.268 C 
ATOM     15  C   UNL A   1      33.637  26.323  23.930  1.00  0.00     0.268 C 
ATOM     16  H   UNL A   1      34.581  25.977  22.138  1.00  0.00     0.347 HD
ATOM     17  C   UNL A   1      32.901  24.084  22.273  1.00  0.00     0.126 C 
ATOM     18  C   UNL A   1      33.870  24.934  24.497  1.00  0.00     0.126 C 
ENDBRANCH   8  11
ENDBRANCH   7   8
ENDBRANCH   6   7
ENDBRANCH   4   6
ENDBRANCH   3   4
ENDBRANCH   2   3
ENDBRANCH   1   2
BRANCH   1  19
ATOM     19  O   UNL A   1      31.035  26.710  26.868  1.00  0.00    -0.374 OA
BRANCH  19  20
ATOM     20  C   UNL A   1      31.730  27.842  26.339  1.00  0.00     0.202 C 
BRANCH  20  21
ATOM     21  C   UNL A   1      32.463  28.640  27.429  1.00  0.00     0.261 C 
BRANCH  21  22
ATOM     22  O   UNL A   1      33.687  29.228  26.922  1.00  0.00    -0.460 OA
BRANCH  22  23
ATOM     23  C   UNL A   1      34.207  30.259  27.644  1.00  0.00     0.338 C 
ATOM     24  O   UNL A   1      33.644  31.286  27.956  1.00  0.00    -0.246 OA
BRANCH  23  25
ATOM     25  C   UNL A   1      35.571  29.911  28.135  1.00  0.00     0.060 A 
ATOM     26  C   UNL A   1      36.643  30.078  27.247  1.00  0.00     0.016 A 
ATOM     27  C   UNL A   1      35.822  29.481  29.444  1.00  0.00     0.016 A 
ATOM     28  C   UNL A   1      37.955  29.816  27.658  1.00  0.00     0.010 A 
ATOM     29  C   UNL A   1      37.142  29.212  29.855  1.00  0.00     0.010 A 
ATOM     30  C   UNL A   1      38.218  29.359  28.959  1.00  0.00    -0.014 A 
BRANCH  30  31
ATOM     31  C   UNL A   1      39.571  28.814  29.274  1.00  0.00     0.031 A 
ATOM     32  C   UNL A   1      40.449  29.620  30.197  1.00  0.00     0.074 A 
ATOM     33  C   UNL A   1      40.010  27.613  28.845  1.00  0.00     0.049 A 
ATOM     34  N   UNL A   1      41.611  29.318  30.718  1.00  0.00    -0.248 NA
ATOM     35  C   UNL A   1      39.933  30.941  30.592  1.00  0.00     0.031 C 
ATOM     36  C   UNL A   1      39.278  26.687  27.985  1.00  0.00     0.029 A 
ATOM     37  N   UNL A   1      41.196  26.962  29.103  1.00  0.00    -0.354 N 
ATOM     38  C   UNL A   1      41.949  30.396  31.525  1.00  0.00     0.074 A 
ATOM     39  C   UNL A   1      40.898  31.380  31.384  1.00  0.00     0.031 C 
ATOM     40  C   UNL A   1      40.026  25.583  27.796  1.00  0.00     0.029 A 
ATOM     41  C   UNL A   1      41.295  25.724  28.511  1.00  0.00     0.049 A 
ATOM     42  H   UNL A   1      41.910  27.347  29.660  1.00  0.00     0.167 HD
ATOM     43  C   UNL A   1      43.023  30.562  32.331  1.00  0.00     0.031 A 
ATOM     44  C   UNL A   1      42.288  24.810  28.547  1.00  0.00     0.031 A 
ATOM     45  C   UNL A   1      44.108  29.632  32.460  1.00  0.00     0.049 A 
ATOM     46  C   UNL A   1      43.538  25.072  29.356  1.00  0.00     0.074 A 
ATOM     47  C   UNL A   1      45.249  29.741  33.236  1.00  0.00     0.029 A 
ATOM     48  N   UNL A   1      44.196  28.429  31.782  1.00  0.00    -0.354 N 
ATOM     49  N   UNL A   1      43.818  26.075  30.150  1.00  0.00    -0.248 NA
ATOM     50  C   UNL A   1      44.606  24.058  29.277  1.00  0.00     0.031 C 
ATOM     51  C   UNL A   1      46.052  28.623  32.990  1.00  0.00     0.029 A 
ATOM     52  C   UNL A   1      45.386  27.798  32.100  1.00  0.00     0.049 A 
ATOM     53  H   UNL A   1      43.515  28.075  31.166  1.00  0.00     0.167 HD
ATOM     54  C   UNL A   1      45.071  25.796  30.689  1.00  0.00     0.074 A 
ATOM     55  C   UNL A   1      45.497  24.528  30.141  1.00  0.00     0.031 C 
ATOM     56  C   UNL A   1      45.802  26.529  31.565  1.00  0.00     0.031 A 
BRANCH  43  57
ATOM     57  C   UNL A   1      43.074  31.836  33.119  1.00  0.00    -0.014 A 
ATOM     58  C   UNL A   1      42.503  31.910  34.401  1.00  0.00     0.009 A 
ATOM     59  C   UNL A   1      43.675  32.976  32.568  1.00  0.00     0.009 A 
ATOM     60  C   UNL A   1      42.499  33.117  35.098  1.00  0.00     0.001 A 
ATOM     61  C   UNL A   1      43.689  34.176  33.279  1.00  0.00     0.001 A 
ATOM     62  C   UNL A   1      43.092  34.248  34.538  1.00  0.00     0.000 A 
ENDBRANCH  43  57
BRANCH  44  63
ATOM     63  C   UNL A   1      42.176  23.532  27.790  1.00  0.00    -0.014 A 
ATOM     64  C   UNL A   1      42.605  23.454  26.454  1.00  0.00     0.009 A 
ATOM     65  C   UNL A   1      41.553  22.416  28.367  1.00  0.00     0.009 A 
ATOM     66  C   UNL A   1      42.380  22.296  25.704  1.00  0.00     0.001 A 
ATOM     67  C   UNL A   1      41.352  21.251  27.621  1.00  0.00     0.001 A 
ATOM     68  C   UNL A   1      41.754  21.196  26.288  1.00  0.00     0.000 A 
ENDBRANCH  44  63
BRANCH  56  69
ATOM     69  C   UNL A   1      47.120  25.972  32.025  1.00  0.00    -0.014 A 
ATOM     70  C   UNL A   1      48.311  26.243  31.333  1.00  0.00     0.009 A 
ATOM     71  C   UNL A   1      47.181  25.227  33.216  1.00  0.00     0.009 A 
ATOM     72  C   UNL A   1      49.531  25.761  31.812  1.00  0.00     0.001 A 
ATOM     73  C   UNL A   1      48.406  24.768  33.704  1.00  0.00     0.001 A 
ATOM     74  C   UNL A   1      49.579  25.030  32.999  1.00  0.00     0.000 A 
ENDBRANCH  56  69
ENDBRANCH  30  31
ENDBRANCH  23  25
ENDBRANCH  22  23
ENDBRANCH  21  22
ENDBRANCH  20  21
ENDBRANCH  19  20
ENDBRANCH   1  19
TORSDOF 17
ENDMDL
MODEL 3
REMARK VINA RESULT:      -8.2      3.902      6.747
REMARK SMILES C[NH+]1CCC([N@@H+](C)CCC(=O)OCCOCCOC(=O)c2ccc(-c3c4nc(c(-c5ccccc5)c5ccc([nH]5)c(-c5ccccc5)c5nc(c(-c6ccccc6)c6ccc3[nH]6)C=C5)C=C4)cc2)CC1
REMARK SMILES IDX 14 1 13 2 12 3 10 4 11 5 9 6 8 7 6 8 7 9 5 11 1 12 2 13 3 14
REMARK SMILES IDX 70 15 4 17 69 18 15 19 16 20 17 21 18 22 19 23 20 24 21 25
REMARK SMILES IDX 22 26 68 27 23 28 67 29 24 30 25 31 26 32 61 33 27 34 66 35
REMARK SMILES IDX 60 36 62 37 28 38 65 39 59 40 58 41 29 43 51 44 36 45 50 46
REMARK SMILES IDX 37 47 40 48 49 49 63 50 38 51 39 52 48 54 64 55 41 56 30 57
REMARK SMILES IDX 31 58 35 59 32 60 34 61 33 62 52 63 53 64 57 65 54 66 56 67
REMARK SMILES IDX 55 68 42 69 43 70 47 71 44 72 46 73 45 74
REMARK H PARENT 6 10 2 16 62 42 40 53
REMARK Flexibility Score: inf
ROOT
ATOM      1  C   UNL A   1      38.127  21.786  25.457  1.00  0.00     0.202 C 
ENDROOT
BRANCH   1   2
ATOM      2  C   UNL A   1      36.941  22.713  25.752  1.00  0.00     0.261 C 
BRANCH   2   3
ATOM      3  O   UNL A   1      36.755  23.710  24.726  1.00  0.00    -0.463 OA
BRANCH   3   4
ATOM      4  C   UNL A   1      36.056  23.350  23.620  1.00  0.00     0.311 C 
ATOM      5  O   UNL A   1      36.550  22.976  22.565  1.00  0.00    -0.252 OA
BRANCH   4   6
ATOM      6  C   UNL A   1      34.568  23.573  23.794  1.00  0.00     0.184 C 
BRANCH   6   7
ATOM      7  C   UNL A   1      33.694  22.685  22.905  1.00  0.00     0.274 C 
BRANCH   7   8
ATOM      8  N   UNL A   1      32.451  22.105  23.455  1.00  0.00    -0.334 N 
ATOM      9  C   UNL A   1      31.791  22.986  24.411  1.00  0.00     0.332 C 
ATOM     10  H   UNL A   1      31.869  22.048  22.618  1.00  0.00     0.348 HD
BRANCH   8  11
ATOM     11  C   UNL A   1      32.459  20.680  23.876  1.00  0.00     0.195 C 
ATOM     12  C   UNL A   1      34.033  16.649  23.510  1.00  0.00     0.332 C 
ATOM     13  N   UNL A   1      33.719  18.074  23.488  1.00  0.00    -0.337 N 
ATOM     14  C   UNL A   1      33.781  18.685  24.812  1.00  0.00     0.268 C 
ATOM     15  C   UNL A   1      32.384  18.292  22.944  1.00  0.00     0.268 C 
ATOM     16  H   UNL A   1      34.426  18.513  22.898  1.00  0.00     0.347 HD
ATOM     17  C   UNL A   1      33.709  20.202  24.645  1.00  0.00     0.126 C 
ATOM     18  C   UNL A   1      32.066  19.760  22.718  1.00  0.00     0.126 C 
ENDBRANCH   8  11
ENDBRANCH   7   8
ENDBRANCH   6   7
ENDBRANCH   4   6
ENDBRANCH   3   4
ENDBRANCH   2   3
ENDBRANCH   1   2
BRANCH   1  19
ATOM     19  O   UNL A   1      37.760  20.651  24.670  1.00  0.00    -0.374 OA
BRANCH  19  20
ATOM     20  C   UNL A   1      38.409  19.431  25.038  1.00  0.00     0.202 C 
BRANCH  20  21
ATOM     21  C   UNL A   1      39.602  19.664  25.980  1.00  0.00     0.261 C 
BRANCH  21  22
ATOM     22  O   UNL A   1      40.835  19.170  25.403  1.00  0.00    -0.460 OA
BRANCH  22  23
ATOM     23  C   UNL A   1      41.963  19.341  26.147  1.00  0.00     0.338 C 
ATOM     24  O   UNL A   1      42.851  18.534  26.317  1.00  0.00    -0.246 OA
BRANCH  23  25
ATOM     25  C   UNL A   1      42.044  20.741  26.651  1.00  0.00     0.060 A 
ATOM     26  C   UNL A   1      41.948  21.776  25.710  1.00  0.00     0.016 A 
ATOM     27  C   UNL A   1      42.161  21.056  28.011  1.00  0.00     0.016 A 
ATOM     28  C   UNL A   1      41.969  23.115  26.121  1.00  0.00     0.010 A 
ATOM     29  C   UNL A   1      42.188  22.402  28.422  1.00  0.00     0.010 A 
ATOM     30  C   UNL A   1      42.112  23.444  27.478  1.00  0.00    -0.014 A 
BRANCH  30  31
ATOM     31  C   UNL A   1      42.423  24.854  27.851  1.00  0.00     0.031 A 
ATOM     32  C   UNL A   1      43.817  25.357  27.574  1.00  0.00     0.074 A 
ATOM     33  C   UNL A   1      41.509  25.715  28.342  1.00  0.00     0.049 A 
ATOM     34  N   UNL A   1      44.308  26.564  27.694  1.00  0.00    -0.248 NA
ATOM     35  C   UNL A   1      44.780  24.358  27.084  1.00  0.00     0.031 C 
ATOM     36  C   UNL A   1      40.109  25.412  28.629  1.00  0.00     0.029 A 
ATOM     37  N   UNL A   1      41.635  27.047  28.671  1.00  0.00    -0.354 N 
ATOM     38  C   UNL A   1      45.625  26.475  27.266  1.00  0.00     0.074 A 
ATOM     39  C   UNL A   1      45.872  25.089  26.933  1.00  0.00     0.031 C 
ATOM     40  C   UNL A   1      39.504  26.527  29.080  1.00  0.00     0.029 A 
ATOM     41  C   UNL A   1      40.472  27.624  29.125  1.00  0.00     0.049 A 
ATOM     42  H   UNL A   1      42.481  27.543  28.589  1.00  0.00     0.167 HD
ATOM     43  C   UNL A   1      46.554  27.451  27.136  1.00  0.00     0.031 A 
ATOM     44  C   UNL A   1      40.216  28.888  29.524  1.00  0.00     0.031 A 
ATOM     45  C   UNL A   1      46.362  28.825  27.501  1.00  0.00     0.049 A 
ATOM     46  C   UNL A   1      41.306  29.936  29.489  1.00  0.00     0.074 A 
ATOM     47  C   UNL A   1      47.265  29.871  27.426  1.00  0.00     0.029 A 
ATOM     48  N   UNL A   1      45.191  29.342  28.026  1.00  0.00    -0.354 N 
ATOM     49  N   UNL A   1      42.531  29.844  29.035  1.00  0.00    -0.248 NA
ATOM     50  C   UNL A   1      40.964  31.270  30.016  1.00  0.00     0.031 C 
ATOM     51  C   UNL A   1      46.655  31.014  27.952  1.00  0.00     0.029 A 
ATOM     52  C   UNL A   1      45.357  30.687  28.306  1.00  0.00     0.049 A 
ATOM     53  H   UNL A   1      44.364  28.830  28.177  1.00  0.00     0.167 HD
ATOM     54  C   UNL A   1      43.090  31.110  29.188  1.00  0.00     0.074 A 
ATOM     55  C   UNL A   1      42.071  31.956  29.769  1.00  0.00     0.031 C 
ATOM     56  C   UNL A   1      44.338  31.532  28.871  1.00  0.00     0.031 A 
BRANCH  43  57
ATOM     57  C   UNL A   1      47.887  27.033  26.593  1.00  0.00    -0.014 A 
ATOM     58  C   UNL A   1      48.131  27.036  25.209  1.00  0.00     0.009 A 
ATOM     59  C   UNL A   1      48.898  26.612  27.467  1.00  0.00     0.009 A 
ATOM     60  C   UNL A   1      49.352  26.584  24.711  1.00  0.00     0.001 A 
ATOM     61  C   UNL A   1      50.127  26.183  26.966  1.00  0.00     0.001 A 
ATOM     62  C   UNL A   1      50.349  26.159  25.588  1.00  0.00     0.000 A 
ENDBRANCH  43  57
BRANCH  44  63
ATOM     63  C   UNL A   1      38.862  29.276  30.009  1.00  0.00    -0.014 A 
ATOM     64  C   UNL A   1      37.917  29.826  29.125  1.00  0.00     0.009 A 
ATOM     65  C   UNL A   1      38.542  29.186  31.371  1.00  0.00     0.009 A 
ATOM     66  C   UNL A   1      36.697  30.310  29.604  1.00  0.00     0.001 A 
ATOM     67  C   UNL A   1      37.310  29.649  31.843  1.00  0.00     0.001 A 
ATOM     68  C   UNL A   1      36.394  30.221  30.962  1.00  0.00     0.000 A 
ENDBRANCH  44  63
BRANCH  56  69
ATOM     69  C   UNL A   1      44.676  32.979  29.101  1.00  0.00    -0.014 A 
ATOM     70  C   UNL A   1      45.275  33.409  30.295  1.00  0.00     0.009 A 
ATOM     71  C   UNL A   1      44.460  33.913  28.074  1.00  0.00     0.009 A 
ATOM     72  C   UNL A   1      45.630  34.749  30.464  1.00  0.00     0.001 A 
ATOM     73  C   UNL A   1      44.839  35.247  28.237  1.00  0.00     0.001 A 
ATOM     74  C   UNL A   1      45.419  35.665  29.434  1.00  0.00     0.000 A 
ENDBRANCH  56  69
ENDBRANCH  30  31
ENDBRANCH  23  25
ENDBRANCH  22  23
ENDBRANCH  21  22
ENDBRANCH  20  21
ENDBRANCH  19  20
ENDBRANCH   1  19
TORSDOF 17
ENDMDL
