MODEL 1
REMARK VINA RESULT:      -8.5      0.000      0.000
REMARK SMILES Cc1cc(Cl)cc2c1O[C@H](C(F)(F)F)C(C(=O)OCCOCCOC(=O)c1ccc(-c3c4nc(c(-c5ccccc5)c5ccc([nH]5)c(-c5ccccc5)c5nc(c(-c6ccccc6)c6ccc3[nH]6)C=C5)C=C4)cc1)=C2
REMARK SMILES IDX 22 1 21 2 20 3 19 4 18 5 16 6 17 7 15 8 1 9 2 10 3 11 8 12
REMARK SMILES IDX 4 13 7 14 9 15 5 16 6 17 75 18 10 19 11 20 12 21 13 22 14 23
REMARK SMILES IDX 23 24 24 25 25 26 26 27 27 28 28 29 74 30 29 31 73 32 30 33
REMARK SMILES IDX 31 34 32 35 67 36 33 37 72 38 66 39 68 40 34 41 71 42 65 43
REMARK SMILES IDX 64 44 35 46 57 47 42 48 56 49 43 50 46 51 55 52 69 53 44 54
REMARK SMILES IDX 45 55 54 57 70 58 47 59 36 60 37 61 41 62 38 63 40 64 39 65
REMARK SMILES IDX 58 66 59 67 63 68 60 69 62 70 61 71 48 72 49 73 53 74 50 75
REMARK SMILES IDX 52 76 51 77
REMARK H PARENT 68 45 46 56
REMARK Flexibility Score: inf
ROOT
ATOM      1  C   UNL A   1      45.182  19.839  24.595  1.00  0.00     0.202 C 
ENDROOT
BRANCH   1   2
ATOM      2  O   UNL A   1      45.309  21.141  25.170  1.00  0.00    -0.374 OA
BRANCH   2   3
ATOM      3  C   UNL A   1      45.264  22.262  24.289  1.00  0.00     0.202 C 
BRANCH   3   4
ATOM      4  C   UNL A   1      46.568  23.043  24.113  1.00  0.00     0.261 C 
BRANCH   4   5
ATOM      5  O   UNL A   1      46.399  24.433  24.434  1.00  0.00    -0.460 OA
BRANCH   5   6
ATOM      6  C   UNL A   1      46.915  24.802  25.629  1.00  0.00     0.338 C 
ATOM      7  O   UNL A   1      47.848  24.277  26.217  1.00  0.00    -0.246 OA
BRANCH   6   8
ATOM      8  C   UNL A   1      46.258  26.035  26.101  1.00  0.00     0.087 C 
ATOM      9  C   UNL A   1      45.065  30.803  27.662  1.00  0.00     0.048 C 
ATOM     10  C   UNL A   1      44.345  29.630  27.059  1.00  0.00    -0.007 A 
ATOM     11  C   UNL A   1      43.002  29.797  26.680  1.00  0.00     0.027 A 
ATOM     12  C   UNL A   1      44.977  28.400  26.808  1.00  0.00     0.131 A 
ATOM     13  C   UNL A   1      42.301  28.753  26.080  1.00  0.00     0.042 A 
ATOM     14  C   UNL A   1      44.273  27.367  26.177  1.00  0.00     0.019 A 
ATOM     15  O   UNL A   1      46.277  28.268  27.213  1.00  0.00    -0.475 OA
ATOM     16  Cl  UNL A   1      40.658  28.973  25.625  1.00  0.00    -0.084 Cl
ATOM     17  C   UNL A   1      42.930  27.538  25.828  1.00  0.00     0.032 A 
ATOM     18  C   UNL A   1      44.951  26.132  25.830  1.00  0.00     0.027 C 
ATOM     19  C   UNL A   1      47.044  27.099  26.813  1.00  0.00     0.316 C 
BRANCH  19  20
ATOM     20  C   UNL A   1      48.260  27.577  26.007  1.00  0.00     0.430 C 
ATOM     21  F   UNL A   1      48.034  27.475  24.674  1.00  0.00    -0.167 F 
ATOM     22  F   UNL A   1      48.543  28.879  26.249  1.00  0.00    -0.167 F 
ATOM     23  F   UNL A   1      49.371  26.860  26.287  1.00  0.00    -0.167 F 
ENDBRANCH  19  20
ENDBRANCH   6   8
ENDBRANCH   5   6
ENDBRANCH   4   5
ENDBRANCH   3   4
ENDBRANCH   2   3
ENDBRANCH   1   2
BRANCH   1  24
ATOM     24  C   UNL A   1      43.790  19.195  24.642  1.00  0.00     0.261 C 
BRANCH  24  25
ATOM     25  O   UNL A   1      43.212  19.260  25.959  1.00  0.00    -0.460 OA
BRANCH  25  26
ATOM     26  C   UNL A   1      41.934  19.705  25.999  1.00  0.00     0.338 C 
ATOM     27  O   UNL A   1      40.921  19.083  25.714  1.00  0.00    -0.246 OA
BRANCH  26  28
ATOM     28  C   UNL A   1      41.886  21.036  26.624  1.00  0.00     0.060 A 
ATOM     29  C   UNL A   1      42.189  22.143  25.819  1.00  0.00     0.016 A 
ATOM     30  C   UNL A   1      41.648  21.195  27.990  1.00  0.00     0.016 A 
ATOM     31  C   UNL A   1      42.302  23.408  26.388  1.00  0.00     0.010 A 
ATOM     32  C   UNL A   1      41.775  22.464  28.563  1.00  0.00     0.010 A 
ATOM     33  C   UNL A   1      42.139  23.568  27.770  1.00  0.00    -0.014 A 
BRANCH  33  34
ATOM     34  C   UNL A   1      42.512  24.858  28.396  1.00  0.00     0.031 A 
ATOM     35  C   UNL A   1      41.465  25.930  28.531  1.00  0.00     0.074 A 
ATOM     36  C   UNL A   1      43.746  25.052  28.893  1.00  0.00     0.049 A 
ATOM     37  N   UNL A   1      41.567  27.123  29.059  1.00  0.00    -0.248 NA
ATOM     38  C   UNL A   1      40.126  25.614  28.009  1.00  0.00     0.031 C 
ATOM     39  C   UNL A   1      44.827  24.069  28.880  1.00  0.00     0.029 A 
ATOM     40  N   UNL A   1      44.290  26.147  29.516  1.00  0.00    -0.354 N 
ATOM     41  C   UNL A   1      40.306  27.695  28.939  1.00  0.00     0.074 A 
ATOM     42  C   UNL A   1      39.465  26.734  28.260  1.00  0.00     0.031 C 
ATOM     43  C   UNL A   1      45.907  24.603  29.477  1.00  0.00     0.029 A 
ATOM     44  C   UNL A   1      45.602  25.974  29.885  1.00  0.00     0.049 A 
ATOM     45  H   UNL A   1      43.788  26.977  29.684  1.00  0.00     0.167 HD
ATOM     46  C   UNL A   1      39.883  28.906  29.368  1.00  0.00     0.031 A 
ATOM     47  C   UNL A   1      46.460  26.828  30.474  1.00  0.00     0.031 A 
ATOM     48  C   UNL A   1      40.720  29.871  30.027  1.00  0.00     0.049 A 
ATOM     49  C   UNL A   1      45.994  28.212  30.840  1.00  0.00     0.074 A 
ATOM     50  C   UNL A   1      40.379  31.128  30.497  1.00  0.00     0.029 A 
ATOM     51  N   UNL A   1      42.065  29.689  30.305  1.00  0.00    -0.354 N 
ATOM     52  N   UNL A   1      44.799  28.738  30.728  1.00  0.00    -0.248 NA
ATOM     53  C   UNL A   1      47.000  29.121  31.411  1.00  0.00     0.031 C 
ATOM     54  C   UNL A   1      41.533  31.727  31.010  1.00  0.00     0.029 A 
ATOM     55  C   UNL A   1      42.578  30.823  30.910  1.00  0.00     0.049 A 
ATOM     56  H   UNL A   1      42.579  28.875  30.101  1.00  0.00     0.167 HD
ATOM     57  C   UNL A   1      44.902  30.029  31.230  1.00  0.00     0.074 A 
ATOM     58  C   UNL A   1      46.274  30.203  31.660  1.00  0.00     0.031 C 
ATOM     59  C   UNL A   1      43.947  30.985  31.325  1.00  0.00     0.031 A 
BRANCH  46  60
ATOM     60  C   UNL A   1      38.448  29.268  29.115  1.00  0.00    -0.014 A 
ATOM     61  C   UNL A   1      37.486  29.169  30.132  1.00  0.00     0.009 A 
ATOM     62  C   UNL A   1      38.062  29.763  27.859  1.00  0.00     0.009 A 
ATOM     63  C   UNL A   1      36.161  29.536  29.890  1.00  0.00     0.001 A 
ATOM     64  C   UNL A   1      36.742  30.151  27.627  1.00  0.00     0.001 A 
ATOM     65  C   UNL A   1      35.792  30.032  28.640  1.00  0.00     0.000 A 
ENDBRANCH  46  60
BRANCH  47  66
ATOM     66  C   UNL A   1      47.857  26.404  30.746  1.00  0.00    -0.014 A 
ATOM     67  C   UNL A   1      48.866  26.615  29.794  1.00  0.00     0.009 A 
ATOM     68  C   UNL A   1      48.189  25.784  31.962  1.00  0.00     0.009 A 
ATOM     69  C   UNL A   1      50.175  26.201  30.048  1.00  0.00     0.001 A 
ATOM     70  C   UNL A   1      49.504  25.394  32.222  1.00  0.00     0.001 A 
ATOM     71  C   UNL A   1      50.494  25.596  31.263  1.00  0.00     0.000 A 
ENDBRANCH  47  66
BRANCH  59  72
ATOM     72  C   UNL A   1      44.340  32.305  31.922  1.00  0.00    -0.014 A 
ATOM     73  C   UNL A   1      44.816  33.350  31.115  1.00  0.00     0.009 A 
ATOM     74  C   UNL A   1      44.155  32.534  33.294  1.00  0.00     0.009 A 
ATOM     75  C   UNL A   1      45.117  34.593  31.677  1.00  0.00     0.001 A 
ATOM     76  C   UNL A   1      44.433  33.785  33.848  1.00  0.00     0.001 A 
ATOM     77  C   UNL A   1      44.919  34.811  33.040  1.00  0.00     0.000 A 
ENDBRANCH  59  72
ENDBRANCH  33  34
ENDBRANCH  26  28
ENDBRANCH  25  26
ENDBRANCH  24  25
ENDBRANCH   1  24
TORSDOF 15
ENDMDL
MODEL 2
REMARK VINA RESULT:      -8.0      2.437      7.057
REMARK SMILES Cc1cc(Cl)cc2c1O[C@H](C(F)(F)F)C(C(=O)OCCOCCOC(=O)c1ccc(-c3c4nc(c(-c5ccccc5)c5ccc([nH]5)c(-c5ccccc5)c5nc(c(-c6ccccc6)c6ccc3[nH]6)C=C5)C=C4)cc1)=C2
REMARK SMILES IDX 22 1 21 2 20 3 19 4 18 5 16 6 17 7 15 8 1 9 2 10 3 11 8 12
REMARK SMILES IDX 4 13 7 14 9 15 5 16 6 17 75 18 10 19 11 20 12 21 13 22 14 23
REMARK SMILES IDX 23 24 24 25 25 26 26 27 27 28 28 29 74 30 29 31 73 32 30 33
REMARK SMILES IDX 31 34 32 35 67 36 33 37 72 38 66 39 68 40 34 41 71 42 65 43
REMARK SMILES IDX 64 44 35 46 57 47 42 48 56 49 43 50 46 51 55 52 69 53 44 54
REMARK SMILES IDX 45 55 54 57 70 58 47 59 36 60 37 61 41 62 38 63 40 64 39 65
REMARK SMILES IDX 58 66 59 67 63 68 60 69 62 70 61 71 48 72 49 73 53 74 50 75
REMARK SMILES IDX 52 76 51 77
REMARK H PARENT 68 45 46 56
REMARK Flexibility Score: inf
ROOT
ATOM      1  C   UNL A   1      41.128  19.544  27.448  1.00  0.00     0.202 C 
ENDROOT
BRANCH   1   2
ATOM      2  O   UNL A   1      42.527  19.361  27.221  1.00  0.00    -0.374 OA
BRANCH   2   3
ATOM      3  C   UNL A   1      42.922  18.670  26.037  1.00  0.00     0.202 C 
BRANCH   3   4
ATOM      4  C   UNL A   1      43.531  19.523  24.922  1.00  0.00     0.261 C 
BRANCH   4   5
ATOM      5  O   UNL A   1      44.443  20.503  25.444  1.00  0.00    -0.460 OA
BRANCH   5   6
ATOM      6  C   UNL A   1      43.928  21.750  25.554  1.00  0.00     0.338 C 
ATOM      7  O   UNL A   1      42.875  22.151  25.083  1.00  0.00    -0.246 OA
BRANCH   6   8
ATOM      8  C   UNL A   1      44.775  22.566  26.442  1.00  0.00     0.087 C 
ATOM      9  C   UNL A   1      48.214  25.801  28.517  1.00  0.00     0.048 C 
ATOM     10  C   UNL A   1      46.911  25.172  28.922  1.00  0.00    -0.007 A 
ATOM     11  C   UNL A   1      46.322  25.583  30.130  1.00  0.00     0.027 A 
ATOM     12  C   UNL A   1      46.236  24.241  28.115  1.00  0.00     0.131 A 
ATOM     13  C   UNL A   1      45.094  25.060  30.531  1.00  0.00     0.042 A 
ATOM     14  C   UNL A   1      44.988  23.744  28.513  1.00  0.00     0.019 A 
ATOM     15  O   UNL A   1      46.852  23.848  26.959  1.00  0.00    -0.475 OA
ATOM     16  Cl  UNL A   1      44.388  25.571  32.014  1.00  0.00    -0.084 Cl
ATOM     17  C   UNL A   1      44.425  24.142  29.730  1.00  0.00     0.032 A 
ATOM     18  C   UNL A   1      44.246  22.858  27.636  1.00  0.00     0.027 C 
ATOM     19  C   UNL A   1      46.127  23.041  25.990  1.00  0.00     0.316 C 
BRANCH  19  20
ATOM     20  C   UNL A   1      46.070  23.817  24.667  1.00  0.00     0.430 C 
ATOM     21  F   UNL A   1      45.107  24.771  24.699  1.00  0.00    -0.167 F 
ATOM     22  F   UNL A   1      47.236  24.458  24.409  1.00  0.00    -0.167 F 
ATOM     23  F   UNL A   1      45.809  23.011  23.614  1.00  0.00    -0.167 F 
ENDBRANCH  19  20
ENDBRANCH   6   8
ENDBRANCH   5   6
ENDBRANCH   4   5
ENDBRANCH   3   4
ENDBRANCH   2   3
ENDBRANCH   1   2
BRANCH   1  24
ATOM     24  C   UNL A   1      40.419  20.596  26.586  1.00  0.00     0.261 C 
BRANCH  24  25
ATOM     25  O   UNL A   1      40.060  21.763  27.351  1.00  0.00    -0.460 OA
BRANCH  25  26
ATOM     26  C   UNL A   1      39.497  22.763  26.632  1.00  0.00     0.338 C 
ATOM     27  O   UNL A   1      38.498  22.703  25.930  1.00  0.00    -0.246 OA
BRANCH  26  28
ATOM     28  C   UNL A   1      40.158  24.040  26.947  1.00  0.00     0.060 A 
ATOM     29  C   UNL A   1      40.742  24.174  28.213  1.00  0.00     0.016 A 
ATOM     30  C   UNL A   1      40.120  25.120  26.063  1.00  0.00     0.016 A 
ATOM     31  C   UNL A   1      41.251  25.403  28.620  1.00  0.00     0.010 A 
ATOM     32  C   UNL A   1      40.619  26.359  26.478  1.00  0.00     0.010 A 
ATOM     33  C   UNL A   1      41.153  26.514  27.770  1.00  0.00    -0.014 A 
BRANCH  33  34
ATOM     34  C   UNL A   1      41.458  27.861  28.306  1.00  0.00     0.031 A 
ATOM     35  C   UNL A   1      42.891  28.317  28.352  1.00  0.00     0.074 A 
ATOM     36  C   UNL A   1      40.472  28.691  28.689  1.00  0.00     0.049 A 
ATOM     37  N   UNL A   1      43.383  29.458  28.762  1.00  0.00    -0.248 NA
ATOM     38  C   UNL A   1      43.901  27.366  27.862  1.00  0.00     0.031 C 
ATOM     39  C   UNL A   1      39.043  28.389  28.634  1.00  0.00     0.029 A 
ATOM     40  N   UNL A   1      40.530  29.966  29.193  1.00  0.00    -0.354 N 
ATOM     41  C   UNL A   1      44.756  29.363  28.575  1.00  0.00     0.074 A 
ATOM     42  C   UNL A   1      45.024  28.045  28.045  1.00  0.00     0.031 C 
ATOM     43  C   UNL A   1      38.357  29.456  29.079  1.00  0.00     0.029 A 
ATOM     44  C   UNL A   1      39.298  30.500  29.479  1.00  0.00     0.049 A 
ATOM     45  H   UNL A   1      41.375  30.452  29.334  1.00  0.00     0.167 HD
ATOM     46  C   UNL A   1      45.708  30.296  28.811  1.00  0.00     0.031 A 
ATOM     47  C   UNL A   1      38.970  31.692  30.012  1.00  0.00     0.031 A 
ATOM     48  C   UNL A   1      45.448  31.601  29.355  1.00  0.00     0.049 A 
ATOM     49  C   UNL A   1      40.057  32.669  30.370  1.00  0.00     0.074 A 
ATOM     50  C   UNL A   1      46.350  32.614  29.630  1.00  0.00     0.029 A 
ATOM     51  N   UNL A   1      44.194  32.071  29.710  1.00  0.00    -0.354 N 
ATOM     52  N   UNL A   1      41.350  32.571  30.182  1.00  0.00    -0.248 NA
ATOM     53  C   UNL A   1      39.638  33.921  31.019  1.00  0.00     0.031 C 
ATOM     54  C   UNL A   1      45.647  33.677  30.204  1.00  0.00     0.029 A 
ATOM     55  C   UNL A   1      44.302  33.347  30.233  1.00  0.00     0.049 A 
ATOM     56  H   UNL A   1      43.353  31.571  29.607  1.00  0.00     0.167 HD
ATOM     57  C   UNL A   1      41.897  33.752  30.670  1.00  0.00     0.074 A 
ATOM     58  C   UNL A   1      40.794  34.558  31.150  1.00  0.00     0.031 C 
ATOM     59  C   UNL A   1      43.196  34.133  30.716  1.00  0.00     0.031 A 
BRANCH  46  60
ATOM     60  C   UNL A   1      47.130  29.927  28.502  1.00  0.00    -0.014 A 
ATOM     61  C   UNL A   1      47.661  30.104  27.215  1.00  0.00     0.009 A 
ATOM     62  C   UNL A   1      47.965  29.445  29.522  1.00  0.00     0.009 A 
ATOM     63  C   UNL A   1      48.994  29.783  26.949  1.00  0.00     0.001 A 
ATOM     64  C   UNL A   1      49.303  29.148  29.260  1.00  0.00     0.001 A 
ATOM     65  C   UNL A   1      49.814  29.312  27.974  1.00  0.00     0.000 A 
ENDBRANCH  46  60
BRANCH  47  66
ATOM     66  C   UNL A   1      37.543  32.028  30.254  1.00  0.00    -0.014 A 
ATOM     67  C   UNL A   1      36.787  32.681  29.269  1.00  0.00     0.009 A 
ATOM     68  C   UNL A   1      36.930  31.698  31.474  1.00  0.00     0.009 A 
ATOM     69  C   UNL A   1      35.450  33.009  29.506  1.00  0.00     0.001 A 
ATOM     70  C   UNL A   1      35.587  32.005  31.698  1.00  0.00     0.001 A 
ATOM     71  C   UNL A   1      34.850  32.667  30.718  1.00  0.00     0.000 A 
ENDBRANCH  47  66
BRANCH  59  72
ATOM     72  C   UNL A   1      43.506  35.483  31.297  1.00  0.00    -0.014 A 
ATOM     73  C   UNL A   1      43.714  36.596  30.468  1.00  0.00     0.009 A 
ATOM     74  C   UNL A   1      43.509  35.660  32.689  1.00  0.00     0.009 A 
ATOM     75  C   UNL A   1      43.938  37.857  31.025  1.00  0.00     0.001 A 
ATOM     76  C   UNL A   1      43.707  36.926  33.242  1.00  0.00     0.001 A 
ATOM     77  C   UNL A   1      43.927  38.022  32.410  1.00  0.00     0.000 A 
ENDBRANCH  59  72
ENDBRANCH  33  34
ENDBRANCH  26  28
ENDBRANCH  25  26
ENDBRANCH  24  25
ENDBRANCH   1  24
TORSDOF 15
ENDMDL
MODEL 3
REMARK VINA RESULT:      -7.9      6.798     11.657
REMARK SMILES Cc1cc(Cl)cc2c1O[C@H](C(F)(F)F)C(C(=O)OCCOCCOC(=O)c1ccc(-c3c4nc(c(-c5ccccc5)c5ccc([nH]5)c(-c5ccccc5)c5nc(c(-c6ccccc6)c6ccc3[nH]6)C=C5)C=C4)cc1)=C2
REMARK SMILES IDX 22 1 21 2 20 3 19 4 18 5 16 6 17 7 15 8 1 9 2 10 3 11 8 12
REMARK SMILES IDX 4 13 7 14 9 15 5 16 6 17 75 18 10 19 11 20 12 21 13 22 14 23
REMARK SMILES IDX 23 24 24 25 25 26 26 27 27 28 28 29 74 30 29 31 73 32 30 33
REMARK SMILES IDX 31 34 32 35 67 36 33 37 72 38 66 39 68 40 34 41 71 42 65 43
REMARK SMILES IDX 64 44 35 46 57 47 42 48 56 49 43 50 46 51 55 52 69 53 44 54
REMARK SMILES IDX 45 55 54 57 70 58 47 59 36 60 37 61 41 62 38 63 40 64 39 65
REMARK SMILES IDX 58 66 59 67 63 68 60 69 62 70 61 71 48 72 49 73 53 74 50 75
REMARK SMILES IDX 52 76 51 77
REMARK H PARENT 68 45 46 56
REMARK Flexibility Score: inf
ROOT
ATOM      1  C   UNL A   1      32.184  30.136  26.974  1.00  0.00     0.202 C 
ENDROOT
BRANCH   1   2
ATOM      2  O   UNL A   1      33.095  29.601  26.012  1.00  0.00    -0.374 OA
BRANCH   2   3
ATOM      3  C   UNL A   1      33.970  28.557  26.436  1.00  0.00     0.202 C 
BRANCH   3   4
ATOM      4  C   UNL A   1      33.921  27.258  25.627  1.00  0.00     0.261 C 
BRANCH   4   5
ATOM      5  O   UNL A   1      33.621  27.508  24.244  1.00  0.00    -0.460 OA
BRANCH   5   6
ATOM      6  C   UNL A   1      32.891  26.540  23.643  1.00  0.00     0.338 C 
ATOM      7  O   UNL A   1      33.255  25.405  23.380  1.00  0.00    -0.246 OA
BRANCH   6   8
ATOM      8  C   UNL A   1      31.509  27.010  23.435  1.00  0.00     0.087 C 
ATOM      9  C   UNL A   1      26.462  28.033  23.712  1.00  0.00     0.048 C 
ATOM     10  C   UNL A   1      27.677  28.650  23.078  1.00  0.00    -0.007 A 
ATOM     11  C   UNL A   1      27.538  29.901  22.453  1.00  0.00     0.027 A 
ATOM     12  C   UNL A   1      28.948  28.055  23.140  1.00  0.00     0.131 A 
ATOM     13  C   UNL A   1      28.641  30.534  21.885  1.00  0.00     0.042 A 
ATOM     14  C   UNL A   1      30.057  28.714  22.593  1.00  0.00     0.019 A 
ATOM     15  O   UNL A   1      29.039  26.827  23.735  1.00  0.00    -0.475 OA
ATOM     16  Cl  UNL A   1      28.454  32.063  21.121  1.00  0.00    -0.084 Cl
ATOM     17  C   UNL A   1      29.900  29.946  21.951  1.00  0.00     0.032 A 
ATOM     18  C   UNL A   1      31.385  28.147  22.741  1.00  0.00     0.027 C 
ATOM     19  C   UNL A   1      30.346  26.247  24.002  1.00  0.00     0.316 C 
BRANCH  19  20
ATOM     20  C   UNL A   1      30.468  26.021  25.516  1.00  0.00     0.430 C 
ATOM     21  F   UNL A   1      30.819  27.163  26.156  1.00  0.00    -0.167 F 
ATOM     22  F   UNL A   1      29.294  25.621  26.061  1.00  0.00    -0.167 F 
ATOM     23  F   UNL A   1      31.395  25.085  25.818  1.00  0.00    -0.167 F 
ENDBRANCH  19  20
ENDBRANCH   6   8
ENDBRANCH   5   6
ENDBRANCH   4   5
ENDBRANCH   3   4
ENDBRANCH   2   3
ENDBRANCH   1   2
BRANCH   1  24
ATOM     24  C   UNL A   1      31.916  31.645  26.910  1.00  0.00     0.261 C 
BRANCH  24  25
ATOM     25  O   UNL A   1      33.138  32.404  26.843  1.00  0.00    -0.460 OA
BRANCH  25  26
ATOM     26  C   UNL A   1      33.256  33.375  27.780  1.00  0.00     0.338 C 
ATOM     27  O   UNL A   1      32.427  34.219  28.086  1.00  0.00    -0.246 OA
BRANCH  26  28
ATOM     28  C   UNL A   1      34.494  33.178  28.552  1.00  0.00     0.060 A 
ATOM     29  C   UNL A   1      35.706  33.501  27.928  1.00  0.00     0.016 A 
ATOM     30  C   UNL A   1      34.480  32.597  29.821  1.00  0.00     0.016 A 
ATOM     31  C   UNL A   1      36.913  33.201  28.552  1.00  0.00     0.010 A 
ATOM     32  C   UNL A   1      35.693  32.283  30.442  1.00  0.00     0.010 A 
ATOM     33  C   UNL A   1      36.913  32.550  29.794  1.00  0.00    -0.014 A 
BRANCH  33  34
ATOM     34  C   UNL A   1      38.185  32.008  30.324  1.00  0.00     0.031 A 
ATOM     35  C   UNL A   1      38.696  30.698  29.789  1.00  0.00     0.074 A 
ATOM     36  C   UNL A   1      38.908  32.699  31.223  1.00  0.00     0.049 A 
ATOM     37  N   UNL A   1      39.791  30.050  30.096  1.00  0.00    -0.248 NA
ATOM     38  C   UNL A   1      37.870  30.036  28.768  1.00  0.00     0.031 C 
ATOM     39  C   UNL A   1      38.552  34.006  31.770  1.00  0.00     0.029 A 
ATOM     40  N   UNL A   1      40.103  32.393  31.825  1.00  0.00    -0.354 N 
ATOM     41  C   UNL A   1      39.786  28.910  29.303  1.00  0.00     0.074 A 
ATOM     42  C   UNL A   1      38.567  28.936  28.525  1.00  0.00     0.031 C 
ATOM     43  C   UNL A   1      39.514  34.396  32.623  1.00  0.00     0.029 A 
ATOM     44  C   UNL A   1      40.535  33.354  32.706  1.00  0.00     0.049 A 
ATOM     45  H   UNL A   1      40.602  31.565  31.643  1.00  0.00     0.167 HD
ATOM     46  C   UNL A   1      40.720  27.934  29.220  1.00  0.00     0.031 A 
ATOM     47  C   UNL A   1      41.625  33.382  33.496  1.00  0.00     0.031 A 
ATOM     48  C   UNL A   1      41.924  27.894  30.004  1.00  0.00     0.049 A 
ATOM     49  C   UNL A   1      42.593  32.229  33.466  1.00  0.00     0.074 A 
ATOM     50  C   UNL A   1      42.930  26.943  29.990  1.00  0.00     0.029 A 
ATOM     51  N   UNL A   1      42.282  28.844  30.947  1.00  0.00    -0.354 N 
ATOM     52  N   UNL A   1      42.581  31.161  32.707  1.00  0.00    -0.248 NA
ATOM     53  C   UNL A   1      43.722  32.286  34.407  1.00  0.00     0.031 C 
ATOM     54  C   UNL A   1      43.870  27.290  30.964  1.00  0.00     0.029 A 
ATOM     55  C   UNL A   1      43.477  28.485  31.544  1.00  0.00     0.049 A 
ATOM     56  H   UNL A   1      41.763  29.652  31.159  1.00  0.00     0.167 HD
ATOM     57  C   UNL A   1      43.706  30.429  33.063  1.00  0.00     0.074 A 
ATOM     58  C   UNL A   1      44.387  31.181  34.097  1.00  0.00     0.031 C 
ATOM     59  C   UNL A   1      44.137  29.239  32.578  1.00  0.00     0.031 A 
BRANCH  46  60
ATOM     60  C   UNL A   1      40.463  26.810  28.257  1.00  0.00    -0.014 A 
ATOM     61  C   UNL A   1      39.684  25.703  28.629  1.00  0.00     0.009 A 
ATOM     62  C   UNL A   1      40.962  26.883  26.948  1.00  0.00     0.009 A 
ATOM     63  C   UNL A   1      39.429  24.679  27.713  1.00  0.00     0.001 A 
ATOM     64  C   UNL A   1      40.687  25.869  26.028  1.00  0.00     0.001 A 
ATOM     65  C   UNL A   1      39.926  24.767  26.413  1.00  0.00     0.000 A 
ENDBRANCH  46  60
BRANCH  47  66
ATOM     66  C   UNL A   1      41.858  34.541  34.396  1.00  0.00    -0.014 A 
ATOM     67  C   UNL A   1      41.381  34.527  35.715  1.00  0.00     0.009 A 
ATOM     68  C   UNL A   1      42.559  35.668  33.938  1.00  0.00     0.009 A 
ATOM     69  C   UNL A   1      41.588  35.626  36.553  1.00  0.00     0.001 A 
ATOM     70  C   UNL A   1      42.786  36.754  34.786  1.00  0.00     0.001 A 
ATOM     71  C   UNL A   1      42.294  36.735  36.090  1.00  0.00     0.000 A 
ENDBRANCH  47  66
BRANCH  59  72
ATOM     72  C   UNL A   1      45.406  28.673  33.147  1.00  0.00    -0.014 A 
ATOM     73  C   UNL A   1      46.657  29.029  32.619  1.00  0.00     0.009 A 
ATOM     74  C   UNL A   1      45.355  27.840  34.275  1.00  0.00     0.009 A 
ATOM     75  C   UNL A   1      47.831  28.543  33.199  1.00  0.00     0.001 A 
ATOM     76  C   UNL A   1      46.531  27.377  34.869  1.00  0.00     0.001 A 
ATOM     77  C   UNL A   1      47.767  27.725  34.327  1.00  0.00     0.000 A 
ENDBRANCH  59  72
ENDBRANCH  33  34
ENDBRANCH  26  28
ENDBRANCH  25  26
ENDBRANCH  24  25
ENDBRANCH   1  24
TORSDOF 15
ENDMDL
