MODEL 1
REMARK VINA RESULT:     -10.0      0.000      0.000
REMARK SMILES Cc1cc(C)c2c(OCCCC(=O)OCCOCCOC(=O)c3ccc(-c4c5nc(c(-c6ccccc6)c6ccc([nH]6)c(-c6ccccc6)c6nc(c(-c7ccccc7)c7ccc4[nH]7)C=C6)C=C5)cc3)nsc2n1
REMARK SMILES IDX 16 1 15 2 14 3 12 4 13 5 11 6 10 7 9 8 8 9 7 10 1 11 2 12
REMARK SMILES IDX 3 13 74 14 4 15 73 16 5 17 6 18 72 19 71 20 17 21 18 22
REMARK SMILES IDX 19 23 20 24 21 25 22 26 23 27 24 28 70 29 25 30 69 31 26 32
REMARK SMILES IDX 27 33 28 34 63 35 29 36 68 37 62 38 64 39 30 40 67 41 61 42
REMARK SMILES IDX 60 43 31 45 53 46 38 47 52 48 39 49 42 50 51 51 65 52 40 53
REMARK SMILES IDX 41 54 50 56 66 57 43 58 32 59 33 60 37 61 34 62 36 63 35 64
REMARK SMILES IDX 54 65 55 66 59 67 56 68 58 69 57 70 44 71 45 72 49 73 46 74
REMARK SMILES IDX 48 75 47 76
REMARK H PARENT 64 44 42 55
REMARK Flexibility Score: inf
ROOT
ATOM      1  C   UNL A   1      32.396  28.812  25.570  1.00  0.00     0.202 C 
ENDROOT
BRANCH   1   2
ATOM      2  C   UNL A   1      31.326  29.788  25.111  1.00  0.00     0.261 C 
BRANCH   2   3
ATOM      3  O   UNL A   1      30.677  29.556  23.733  1.00  0.00    -0.463 OA
BRANCH   3   4
ATOM      4  C   UNL A   1      30.083  28.663  22.892  1.00  0.00     0.305 C 
ATOM      5  O   UNL A   1      29.494  28.961  21.847  1.00  0.00    -0.252 OA
BRANCH   4   6
ATOM      6  C   UNL A   1      30.124  27.140  23.372  1.00  0.00     0.126 C 
BRANCH   6   7
ATOM      7  C   UNL A   1      29.310  26.373  24.471  1.00  0.00     0.053 C 
BRANCH   7   8
ATOM      8  C   UNL A   1      29.852  25.646  25.753  1.00  0.00     0.232 C 
BRANCH   8   9
ATOM      9  O   UNL A   1      31.189  25.729  26.224  1.00  0.00    -0.477 OA
BRANCH   9  10
ATOM     10  C   UNL A   1      31.999  24.653  26.334  1.00  0.00     0.235 A 
ATOM     11  C   UNL A   1      37.406  23.650  25.676  1.00  0.00     0.067 C 
ATOM     12  C   UNL A   1      35.894  23.612  25.597  1.00  0.00     0.039 A 
ATOM     13  C   UNL A   1      35.287  24.282  24.544  1.00  0.00     0.027 A 
ATOM     14  N   UNL A   1      35.182  23.043  26.571  1.00  0.00    -0.240 NA
ATOM     15  C   UNL A   1      33.930  24.697  24.548  1.00  0.00    -0.034 A 
ATOM     16  C   UNL A   1      33.871  23.368  26.535  1.00  0.00     0.147 A 
ATOM     17  C   UNL A   1      33.309  25.648  23.555  1.00  0.00     0.045 C 
ATOM     18  C   UNL A   1      33.226  24.279  25.691  1.00  0.00     0.078 A 
ATOM     19  S   UNL A   1      32.717  22.691  27.582  1.00  0.00    -0.012 S 
ATOM     20  N   UNL A   1      31.521  23.781  27.222  1.00  0.00    -0.153 NA
ENDBRANCH   9  10
ENDBRANCH   8   9
ENDBRANCH   7   8
ENDBRANCH   6   7
ENDBRANCH   4   6
ENDBRANCH   3   4
ENDBRANCH   2   3
ENDBRANCH   1   2
BRANCH   1  21
ATOM     21  O   UNL A   1      32.719  28.864  26.945  1.00  0.00    -0.374 OA
BRANCH  21  22
ATOM     22  C   UNL A   1      34.005  29.364  27.278  1.00  0.00     0.202 C 
BRANCH  22  23
ATOM     23  C   UNL A   1      34.191  30.867  27.243  1.00  0.00     0.261 C 
BRANCH  23  24
ATOM     24  O   UNL A   1      33.862  31.443  28.495  1.00  0.00    -0.460 OA
BRANCH  24  25
ATOM     25  C   UNL A   1      33.620  32.763  28.435  1.00  0.00     0.338 C 
ATOM     26  O   UNL A   1      32.842  33.366  27.671  1.00  0.00    -0.246 OA
BRANCH  25  27
ATOM     27  C   UNL A   1      34.517  33.436  29.356  1.00  0.00     0.060 A 
ATOM     28  C   UNL A   1      35.444  34.300  28.772  1.00  0.00     0.016 A 
ATOM     29  C   UNL A   1      34.865  32.647  30.442  1.00  0.00     0.016 A 
ATOM     30  C   UNL A   1      36.759  33.878  28.807  1.00  0.00     0.010 A 
ATOM     31  C   UNL A   1      36.197  32.496  30.648  1.00  0.00     0.010 A 
ATOM     32  C   UNL A   1      37.058  32.760  29.588  1.00  0.00    -0.014 A 
BRANCH  32  33
ATOM     33  C   UNL A   1      38.405  32.216  29.731  1.00  0.00     0.031 A 
ATOM     34  C   UNL A   1      38.328  30.773  29.285  1.00  0.00     0.074 A 
ATOM     35  C   UNL A   1      39.498  32.965  30.085  1.00  0.00     0.049 A 
ATOM     36  N   UNL A   1      38.220  29.759  30.083  1.00  0.00    -0.248 NA
ATOM     37  C   UNL A   1      37.932  30.413  27.893  1.00  0.00     0.031 C 
ATOM     38  C   UNL A   1      39.656  34.395  30.441  1.00  0.00     0.029 A 
ATOM     39  N   UNL A   1      40.810  32.557  30.169  1.00  0.00    -0.354 N 
ATOM     40  C   UNL A   1      38.096  28.645  29.255  1.00  0.00     0.074 A 
ATOM     41  C   UNL A   1      37.603  29.125  28.006  1.00  0.00     0.031 C 
ATOM     42  C   UNL A   1      40.970  34.767  30.382  1.00  0.00     0.029 A 
ATOM     43  C   UNL A   1      41.783  33.590  30.149  1.00  0.00     0.049 A 
ATOM     44  H   UNL A   1      41.059  31.607  30.238  1.00  0.00     0.167 HD
ATOM     45  C   UNL A   1      38.810  27.517  29.514  1.00  0.00     0.031 A 
ATOM     46  C   UNL A   1      43.144  33.423  30.031  1.00  0.00     0.031 A 
ATOM     47  C   UNL A   1      39.301  27.556  30.865  1.00  0.00     0.049 A 
ATOM     48  C   UNL A   1      43.402  31.998  30.384  1.00  0.00     0.074 A 
ATOM     49  C   UNL A   1      38.698  27.565  32.105  1.00  0.00     0.029 A 
ATOM     50  N   UNL A   1      40.523  28.163  31.005  1.00  0.00    -0.354 N 
ATOM     51  N   UNL A   1      43.189  31.549  31.591  1.00  0.00    -0.248 NA
ATOM     52  C   UNL A   1      43.236  31.043  29.292  1.00  0.00     0.031 C 
ATOM     53  C   UNL A   1      39.404  28.556  32.848  1.00  0.00     0.029 A 
ATOM     54  C   UNL A   1      40.509  28.976  32.108  1.00  0.00     0.049 A 
ATOM     55  H   UNL A   1      41.293  28.034  30.405  1.00  0.00     0.167 HD
ATOM     56  C   UNL A   1      42.403  30.425  31.394  1.00  0.00     0.074 A 
ATOM     57  C   UNL A   1      42.451  30.175  29.943  1.00  0.00     0.031 C 
ATOM     58  C   UNL A   1      41.488  30.017  32.324  1.00  0.00     0.031 A 
BRANCH  45  59
ATOM     59  C   UNL A   1      39.485  26.696  28.442  1.00  0.00    -0.014 A 
ATOM     60  C   UNL A   1      39.353  25.299  28.492  1.00  0.00     0.009 A 
ATOM     61  C   UNL A   1      40.454  27.205  27.551  1.00  0.00     0.009 A 
ATOM     62  C   UNL A   1      40.152  24.460  27.703  1.00  0.00     0.001 A 
ATOM     63  C   UNL A   1      41.234  26.373  26.742  1.00  0.00     0.001 A 
ATOM     64  C   UNL A   1      41.089  24.998  26.825  1.00  0.00     0.000 A 
ENDBRANCH  45  59
BRANCH  46  65
ATOM     65  C   UNL A   1      44.130  34.160  29.165  1.00  0.00    -0.014 A 
ATOM     66  C   UNL A   1      44.049  34.207  27.750  1.00  0.00     0.009 A 
ATOM     67  C   UNL A   1      44.963  35.112  29.773  1.00  0.00     0.009 A 
ATOM     68  C   UNL A   1      44.744  35.186  27.001  1.00  0.00     0.001 A 
ATOM     69  C   UNL A   1      45.635  36.097  29.032  1.00  0.00     0.001 A 
ATOM     70  C   UNL A   1      45.518  36.146  27.647  1.00  0.00     0.000 A 
ENDBRANCH  46  65
BRANCH  58  71
ATOM     71  C   UNL A   1      41.440  30.711  33.667  1.00  0.00    -0.014 A 
ATOM     72  C   UNL A   1      40.673  31.850  33.993  1.00  0.00     0.009 A 
ATOM     73  C   UNL A   1      42.091  30.040  34.711  1.00  0.00     0.009 A 
ATOM     74  C   UNL A   1      40.609  32.311  35.320  1.00  0.00     0.001 A 
ATOM     75  C   UNL A   1      42.005  30.482  36.029  1.00  0.00     0.001 A 
ATOM     76  C   UNL A   1      41.278  31.628  36.334  1.00  0.00     0.000 A 
ENDBRANCH  58  71
ENDBRANCH  32  33
ENDBRANCH  25  27
ENDBRANCH  24  25
ENDBRANCH  23  24
ENDBRANCH  22  23
ENDBRANCH  21  22
ENDBRANCH   1  21
TORSDOF 18
ENDMDL
MODEL 2
REMARK VINA RESULT:      -9.5      1.991      6.084
REMARK SMILES Cc1cc(C)c2c(OCCCC(=O)OCCOCCOC(=O)c3ccc(-c4c5nc(c(-c6ccccc6)c6ccc([nH]6)c(-c6ccccc6)c6nc(c(-c7ccccc7)c7ccc4[nH]7)C=C6)C=C5)cc3)nsc2n1
REMARK SMILES IDX 16 1 15 2 14 3 12 4 13 5 11 6 10 7 9 8 8 9 7 10 1 11 2 12
REMARK SMILES IDX 3 13 74 14 4 15 73 16 5 17 6 18 72 19 71 20 17 21 18 22
REMARK SMILES IDX 19 23 20 24 21 25 22 26 23 27 24 28 70 29 25 30 69 31 26 32
REMARK SMILES IDX 27 33 28 34 63 35 29 36 68 37 62 38 64 39 30 40 67 41 61 42
REMARK SMILES IDX 60 43 31 45 53 46 38 47 52 48 39 49 42 50 51 51 65 52 40 53
REMARK SMILES IDX 41 54 50 56 66 57 43 58 32 59 33 60 37 61 34 62 36 63 35 64
REMARK SMILES IDX 54 65 55 66 59 67 56 68 58 69 57 70 44 71 45 72 49 73 46 74
REMARK SMILES IDX 48 75 47 76
REMARK H PARENT 64 44 42 55
REMARK Flexibility Score: inf
ROOT
ATOM      1  C   UNL A   1      34.538  32.753  27.953  1.00  0.00     0.202 C 
ENDROOT
BRANCH   1   2
ATOM      2  C   UNL A   1      34.496  31.236  27.869  1.00  0.00     0.261 C 
BRANCH   2   3
ATOM      3  O   UNL A   1      33.500  30.591  26.887  1.00  0.00    -0.463 OA
BRANCH   3   4
ATOM      4  C   UNL A   1      33.146  29.468  26.200  1.00  0.00     0.305 C 
ATOM      5  O   UNL A   1      33.809  28.957  25.292  1.00  0.00    -0.252 OA
BRANCH   4   6
ATOM      6  C   UNL A   1      31.729  28.845  26.594  1.00  0.00     0.126 C 
BRANCH   6   7
ATOM      7  C   UNL A   1      31.321  27.409  27.075  1.00  0.00     0.053 C 
BRANCH   7   8
ATOM      8  C   UNL A   1      31.636  26.029  26.397  1.00  0.00     0.232 C 
BRANCH   8   9
ATOM      9  O   UNL A   1      32.942  25.530  26.150  1.00  0.00    -0.477 OA
BRANCH   9  10
ATOM     10  C   UNL A   1      33.259  24.219  26.240  1.00  0.00     0.235 A 
ATOM     11  C   UNL A   1      37.548  21.043  24.761  1.00  0.00     0.067 C 
ATOM     12  C   UNL A   1      36.167  21.633  24.956  1.00  0.00     0.039 A 
ATOM     13  C   UNL A   1      35.672  22.457  23.955  1.00  0.00     0.027 A 
ATOM     14  N   UNL A   1      35.507  21.444  26.100  1.00  0.00    -0.240 NA
ATOM     15  C   UNL A   1      34.627  23.398  24.150  1.00  0.00    -0.034 A 
ATOM     16  C   UNL A   1      34.460  22.282  26.258  1.00  0.00     0.147 A 
ATOM     17  C   UNL A   1      34.245  24.486  23.177  1.00  0.00     0.045 C 
ATOM     18  C   UNL A   1      34.071  23.348  25.440  1.00  0.00     0.078 A 
ATOM     19  S   UNL A   1      33.378  22.181  27.564  1.00  0.00    -0.012 S 
ATOM     20  N   UNL A   1      32.670  23.656  27.295  1.00  0.00    -0.153 NA
ENDBRANCH   9  10
ENDBRANCH   8   9
ENDBRANCH   7   8
ENDBRANCH   6   7
ENDBRANCH   4   6
ENDBRANCH   3   4
ENDBRANCH   2   3
ENDBRANCH   1   2
BRANCH   1  21
ATOM     21  O   UNL A   1      33.280  33.396  27.993  1.00  0.00    -0.374 OA
BRANCH  21  22
ATOM     22  C   UNL A   1      33.219  34.632  28.687  1.00  0.00     0.202 C 
BRANCH  22  23
ATOM     23  C   UNL A   1      34.146  34.804  29.873  1.00  0.00     0.261 C 
BRANCH  23  24
ATOM     24  O   UNL A   1      33.598  34.198  31.030  1.00  0.00    -0.460 OA
BRANCH  24  25
ATOM     25  C   UNL A   1      33.635  34.984  32.119  1.00  0.00     0.338 C 
ATOM     26  O   UNL A   1      33.198  36.144  32.243  1.00  0.00    -0.246 OA
BRANCH  25  27
ATOM     27  C   UNL A   1      34.391  34.300  33.152  1.00  0.00     0.060 A 
ATOM     28  C   UNL A   1      35.475  35.007  33.675  1.00  0.00     0.016 A 
ATOM     29  C   UNL A   1      34.465  32.931  32.948  1.00  0.00     0.016 A 
ATOM     30  C   UNL A   1      36.723  34.521  33.337  1.00  0.00     0.010 A 
ATOM     31  C   UNL A   1      35.719  32.413  32.930  1.00  0.00     0.010 A 
ATOM     32  C   UNL A   1      36.782  33.280  32.700  1.00  0.00    -0.014 A 
BRANCH  32  33
ATOM     33  C   UNL A   1      38.032  32.638  32.304  1.00  0.00     0.031 A 
ATOM     34  C   UNL A   1      38.887  32.572  33.550  1.00  0.00     0.074 A 
ATOM     35  C   UNL A   1      38.260  32.113  31.058  1.00  0.00     0.049 A 
ATOM     36  N   UNL A   1      39.827  33.411  33.846  1.00  0.00    -0.248 NA
ATOM     37  C   UNL A   1      38.445  31.807  34.751  1.00  0.00     0.031 C 
ATOM     38  C   UNL A   1      37.433  32.061  29.829  1.00  0.00     0.029 A 
ATOM     39  N   UNL A   1      39.371  31.425  30.621  1.00  0.00    -0.354 N 
ATOM     40  C   UNL A   1      40.286  33.029  35.105  1.00  0.00     0.074 A 
ATOM     41  C   UNL A   1      39.223  32.301  35.716  1.00  0.00     0.031 C 
ATOM     42  C   UNL A   1      37.930  31.141  28.948  1.00  0.00     0.029 A 
ATOM     43  C   UNL A   1      39.195  30.643  29.451  1.00  0.00     0.049 A 
ATOM     44  H   UNL A   1      40.234  31.474  31.092  1.00  0.00     0.167 HD
ATOM     45  C   UNL A   1      41.621  32.962  35.355  1.00  0.00     0.031 A 
ATOM     46  C   UNL A   1      40.092  29.732  28.939  1.00  0.00     0.031 A 
ATOM     47  C   UNL A   1      42.339  33.688  34.342  1.00  0.00     0.049 A 
ATOM     48  C   UNL A   1      41.401  30.068  29.568  1.00  0.00     0.074 A 
ATOM     49  C   UNL A   1      42.387  35.012  33.964  1.00  0.00     0.029 A 
ATOM     50  N   UNL A   1      42.676  32.939  33.244  1.00  0.00    -0.354 N 
ATOM     51  N   UNL A   1      42.005  31.198  29.315  1.00  0.00    -0.248 NA
ATOM     52  C   UNL A   1      41.631  29.484  30.886  1.00  0.00     0.031 C 
ATOM     53  C   UNL A   1      42.338  34.987  32.539  1.00  0.00     0.029 A 
ATOM     54  C   UNL A   1      42.446  33.666  32.105  1.00  0.00     0.049 A 
ATOM     55  H   UNL A   1      43.029  32.021  33.268  1.00  0.00     0.167 HD
ATOM     56  C   UNL A   1      42.287  31.712  30.570  1.00  0.00     0.074 A 
ATOM     57  C   UNL A   1      42.010  30.608  31.506  1.00  0.00     0.031 C 
ATOM     58  C   UNL A   1      42.347  33.059  30.797  1.00  0.00     0.031 A 
BRANCH  45  59
ATOM     59  C   UNL A   1      42.263  31.850  36.148  1.00  0.00    -0.014 A 
ATOM     60  C   UNL A   1      43.041  32.192  37.266  1.00  0.00     0.009 A 
ATOM     61  C   UNL A   1      42.360  30.515  35.699  1.00  0.00     0.009 A 
ATOM     62  C   UNL A   1      43.875  31.256  37.892  1.00  0.00     0.001 A 
ATOM     63  C   UNL A   1      43.170  29.570  36.338  1.00  0.00     0.001 A 
ATOM     64  C   UNL A   1      43.936  29.944  37.430  1.00  0.00     0.000 A 
ENDBRANCH  45  59
BRANCH  46  65
ATOM     65  C   UNL A   1      39.856  28.339  28.423  1.00  0.00    -0.014 A 
ATOM     66  C   UNL A   1      40.503  27.805  27.280  1.00  0.00     0.009 A 
ATOM     67  C   UNL A   1      39.239  27.412  29.277  1.00  0.00     0.009 A 
ATOM     68  C   UNL A   1      40.551  26.412  27.038  1.00  0.00     0.001 A 
ATOM     69  C   UNL A   1      39.305  26.028  29.050  1.00  0.00     0.001 A 
ATOM     70  C   UNL A   1      39.971  25.523  27.939  1.00  0.00     0.000 A 
ENDBRANCH  46  65
BRANCH  58  71
ATOM     71  C   UNL A   1      42.264  34.010  29.623  1.00  0.00    -0.014 A 
ATOM     72  C   UNL A   1      41.163  34.826  29.286  1.00  0.00     0.009 A 
ATOM     73  C   UNL A   1      43.462  34.206  28.925  1.00  0.00     0.009 A 
ATOM     74  C   UNL A   1      41.268  35.773  28.251  1.00  0.00     0.001 A 
ATOM     75  C   UNL A   1      43.573  35.162  27.919  1.00  0.00     0.001 A 
ATOM     76  C   UNL A   1      42.472  35.936  27.567  1.00  0.00     0.000 A 
ENDBRANCH  58  71
ENDBRANCH  32  33
ENDBRANCH  25  27
ENDBRANCH  24  25
ENDBRANCH  23  24
ENDBRANCH  22  23
ENDBRANCH  21  22
ENDBRANCH   1  21
TORSDOF 18
ENDMDL
MODEL 3
REMARK VINA RESULT:      -9.5      1.569      2.578
REMARK SMILES Cc1cc(C)c2c(OCCCC(=O)OCCOCCOC(=O)c3ccc(-c4c5nc(c(-c6ccccc6)c6ccc([nH]6)c(-c6ccccc6)c6nc(c(-c7ccccc7)c7ccc4[nH]7)C=C6)C=C5)cc3)nsc2n1
REMARK SMILES IDX 16 1 15 2 14 3 12 4 13 5 11 6 10 7 9 8 8 9 7 10 1 11 2 12
REMARK SMILES IDX 3 13 74 14 4 15 73 16 5 17 6 18 72 19 71 20 17 21 18 22
REMARK SMILES IDX 19 23 20 24 21 25 22 26 23 27 24 28 70 29 25 30 69 31 26 32
REMARK SMILES IDX 27 33 28 34 63 35 29 36 68 37 62 38 64 39 30 40 67 41 61 42
REMARK SMILES IDX 60 43 31 45 53 46 38 47 52 48 39 49 42 50 51 51 65 52 40 53
REMARK SMILES IDX 41 54 50 56 66 57 43 58 32 59 33 60 37 61 34 62 36 63 35 64
REMARK SMILES IDX 54 65 55 66 59 67 56 68 58 69 57 70 44 71 45 72 49 73 46 74
REMARK SMILES IDX 48 75 47 76
REMARK H PARENT 64 44 42 55
REMARK Flexibility Score: inf
ROOT
ATOM      1  C   UNL A   1      31.447  28.601  25.581  1.00  0.00     0.202 C 
ENDROOT
BRANCH   1   2
ATOM      2  C   UNL A   1      31.907  27.416  24.748  1.00  0.00     0.261 C 
BRANCH   2   3
ATOM      3  O   UNL A   1      33.132  26.620  25.235  1.00  0.00    -0.463 OA
BRANCH   3   4
ATOM      4  C   UNL A   1      33.581  25.520  25.905  1.00  0.00     0.305 C 
ATOM      5  O   UNL A   1      34.757  25.141  25.932  1.00  0.00    -0.252 OA
BRANCH   4   6
ATOM      6  C   UNL A   1      32.453  24.657  26.636  1.00  0.00     0.126 C 
BRANCH   6   7
ATOM      7  C   UNL A   1      32.455  23.185  27.176  1.00  0.00     0.053 C 
BRANCH   7   8
ATOM      8  C   UNL A   1      33.662  22.358  27.746  1.00  0.00     0.232 C 
BRANCH   8   9
ATOM      9  O   UNL A   1      34.459  21.463  26.984  1.00  0.00    -0.477 OA
BRANCH   9  10
ATOM     10  C   UNL A   1      34.938  21.767  25.757  1.00  0.00     0.235 A 
ATOM     11  C   UNL A   1      32.984  24.273  21.222  1.00  0.00     0.067 C 
ATOM     12  C   UNL A   1      33.607  23.294  22.195  1.00  0.00     0.039 A 
ATOM     13  C   UNL A   1      32.792  22.296  22.713  1.00  0.00     0.027 A 
ATOM     14  N   UNL A   1      34.863  23.462  22.611  1.00  0.00    -0.240 NA
ATOM     15  C   UNL A   1      33.077  21.585  23.908  1.00  0.00    -0.034 A 
ATOM     16  C   UNL A   1      35.167  22.727  23.703  1.00  0.00     0.147 A 
ATOM     17  C   UNL A   1      32.104  20.695  24.641  1.00  0.00     0.045 C 
ATOM     18  C   UNL A   1      34.318  21.925  24.473  1.00  0.00     0.078 A 
ATOM     19  S   UNL A   1      36.728  22.658  24.370  1.00  0.00    -0.012 S 
ATOM     20  N   UNL A   1      36.260  21.936  25.788  1.00  0.00    -0.153 NA
ENDBRANCH   9  10
ENDBRANCH   8   9
ENDBRANCH   7   8
ENDBRANCH   6   7
ENDBRANCH   4   6
ENDBRANCH   3   4
ENDBRANCH   2   3
ENDBRANCH   1   2
BRANCH   1  21
ATOM     21  O   UNL A   1      31.955  28.654  26.899  1.00  0.00    -0.374 OA
BRANCH  21  22
ATOM     22  C   UNL A   1      33.263  29.181  27.056  1.00  0.00     0.202 C 
BRANCH  22  23
ATOM     23  C   UNL A   1      33.435  30.672  26.850  1.00  0.00     0.261 C 
BRANCH  23  24
ATOM     24  O   UNL A   1      33.742  31.316  28.074  1.00  0.00    -0.460 OA
BRANCH  24  25
ATOM     25  C   UNL A   1      33.353  32.601  28.119  1.00  0.00     0.338 C 
ATOM     26  O   UNL A   1      32.493  33.168  27.419  1.00  0.00    -0.246 OA
BRANCH  25  27
ATOM     27  C   UNL A   1      34.194  33.301  29.072  1.00  0.00     0.060 A 
ATOM     28  C   UNL A   1      35.100  34.210  28.525  1.00  0.00     0.016 A 
ATOM     29  C   UNL A   1      34.543  32.516  30.160  1.00  0.00     0.016 A 
ATOM     30  C   UNL A   1      36.430  33.843  28.593  1.00  0.00     0.010 A 
ATOM     31  C   UNL A   1      35.874  32.418  30.403  1.00  0.00     0.010 A 
ATOM     32  C   UNL A   1      36.753  32.729  29.371  1.00  0.00    -0.014 A 
BRANCH  32  33
ATOM     33  C   UNL A   1      38.117  32.241  29.548  1.00  0.00     0.031 A 
ATOM     34  C   UNL A   1      38.109  30.795  29.108  1.00  0.00     0.074 A 
ATOM     35  C   UNL A   1      39.171  33.035  29.924  1.00  0.00     0.049 A 
ATOM     36  N   UNL A   1      38.023  29.780  29.907  1.00  0.00    -0.248 NA
ATOM     37  C   UNL A   1      37.761  30.413  27.709  1.00  0.00     0.031 C 
ATOM     38  C   UNL A   1      39.263  34.472  30.277  1.00  0.00     0.029 A 
ATOM     39  N   UNL A   1      40.496  32.681  30.040  1.00  0.00    -0.354 N 
ATOM     40  C   UNL A   1      37.964  28.659  29.082  1.00  0.00     0.074 A 
ATOM     41  C   UNL A   1      37.481  29.114  27.820  1.00  0.00     0.031 C 
ATOM     42  C   UNL A   1      40.562  34.896  30.247  1.00  0.00     0.029 A 
ATOM     43  C   UNL A   1      41.427  33.753  30.038  1.00  0.00     0.049 A 
ATOM     44  H   UNL A   1      40.782  31.742  30.120  1.00  0.00     0.167 HD
ATOM     45  C   UNL A   1      38.717  27.562  29.363  1.00  0.00     0.031 A 
ATOM     46  C   UNL A   1      42.796  33.640  29.953  1.00  0.00     0.031 A 
ATOM     47  C   UNL A   1      39.174  27.625  30.725  1.00  0.00     0.049 A 
ATOM     48  C   UNL A   1      43.102  32.228  30.318  1.00  0.00     0.074 A 
ATOM     49  C   UNL A   1      38.543  27.614  31.950  1.00  0.00     0.029 A 
ATOM     50  N   UNL A   1      40.367  28.282  30.890  1.00  0.00    -0.354 N 
ATOM     51  N   UNL A   1      42.880  31.775  31.522  1.00  0.00    -0.248 NA
ATOM     52  C   UNL A   1      43.001  31.263  29.227  1.00  0.00     0.031 C 
ATOM     53  C   UNL A   1      39.190  28.637  32.705  1.00  0.00     0.029 A 
ATOM     54  C   UNL A   1      40.294  29.098  31.989  1.00  0.00     0.049 A 
ATOM     55  H   UNL A   1      41.155  28.182  30.309  1.00  0.00     0.167 HD
ATOM     56  C   UNL A   1      42.145  30.619  31.312  1.00  0.00     0.074 A 
ATOM     57  C   UNL A   1      42.237  30.367  29.863  1.00  0.00     0.031 C 
ATOM     58  C   UNL A   1      41.226  30.178  32.222  1.00  0.00     0.031 A 
BRANCH  45  59
ATOM     59  C   UNL A   1      39.449  26.764  28.311  1.00  0.00    -0.014 A 
ATOM     60  C   UNL A   1      39.396  25.363  28.381  1.00  0.00     0.009 A 
ATOM     61  C   UNL A   1      40.398  27.315  27.422  1.00  0.00     0.009 A 
ATOM     62  C   UNL A   1      40.250  24.559  27.613  1.00  0.00     0.001 A 
ATOM     63  C   UNL A   1      41.233  26.516  26.634  1.00  0.00     0.001 A 
ATOM     64  C   UNL A   1      41.165  25.136  26.737  1.00  0.00     0.000 A 
ENDBRANCH  45  59
BRANCH  46  65
ATOM     65  C   UNL A   1      43.771  34.413  29.106  1.00  0.00    -0.014 A 
ATOM     66  C   UNL A   1      45.166  34.453  29.354  1.00  0.00     0.009 A 
ATOM     67  C   UNL A   1      43.354  34.836  27.835  1.00  0.00     0.009 A 
ATOM     68  C   UNL A   1      46.085  34.862  28.359  1.00  0.00     0.001 A 
ATOM     69  C   UNL A   1      44.266  35.222  26.840  1.00  0.00     0.001 A 
ATOM     70  C   UNL A   1      45.633  35.224  27.094  1.00  0.00     0.000 A 
ENDBRANCH  46  65
BRANCH  58  71
ATOM     71  C   UNL A   1      41.118  30.875  33.561  1.00  0.00    -0.014 A 
ATOM     72  C   UNL A   1      41.890  30.600  34.710  1.00  0.00     0.009 A 
ATOM     73  C   UNL A   1      40.290  32.004  33.583  1.00  0.00     0.009 A 
ATOM     74  C   UNL A   1      41.789  31.419  35.850  1.00  0.00     0.001 A 
ATOM     75  C   UNL A   1      40.210  32.829  34.702  1.00  0.00     0.001 A 
ATOM     76  C   UNL A   1      40.946  32.529  35.844  1.00  0.00     0.000 A 
ENDBRANCH  58  71
ENDBRANCH  32  33
ENDBRANCH  25  27
ENDBRANCH  24  25
ENDBRANCH  23  24
ENDBRANCH  22  23
ENDBRANCH  21  22
ENDBRANCH   1  21
TORSDOF 18
ENDMDL
