MODEL 1
REMARK VINA RESULT:      -8.7      0.000      0.000
REMARK SMILES CC1(C)CCC[C@@H]1[C@H](O)C(=O)OCCOCCOC(=O)c1ccc(-c2c3nc(c(-c4ccccc4)c4ccc([nH]4)c(-c4ccccc4)c4nc(c(-c5ccccc5)c5ccc2[nH]5)C=C4)C=C3)cc1
REMARK SMILES IDX 16 1 15 2 14 3 13 4 12 5 10 6 11 7 8 8 7 9 1 10 2 11 3 12
REMARK SMILES IDX 4 13 5 14 6 15 9 16 17 18 18 19 19 20 20 21 21 22 22 23
REMARK SMILES IDX 68 24 23 25 67 26 24 27 25 28 26 29 61 30 27 31 66 32 60 33
REMARK SMILES IDX 62 34 28 35 65 36 59 37 58 38 29 40 51 41 36 42 50 43 37 44
REMARK SMILES IDX 40 45 49 46 63 47 38 48 39 49 48 51 64 52 41 53 30 54 31 55
REMARK SMILES IDX 35 56 32 57 34 58 33 59 52 60 53 61 57 62 54 63 56 64 55 65
REMARK SMILES IDX 42 66 43 67 47 68 44 69 46 70 45 71
REMARK H PARENT 9 17 62 39 40 50
REMARK Flexibility Score: inf
ROOT
ATOM      1  C   UNL A   1      33.373  34.113  28.838  1.00  0.00     0.202 C 
ENDROOT
BRANCH   1   2
ATOM      2  O   UNL A   1      33.311  35.522  29.061  1.00  0.00    -0.374 OA
BRANCH   2   3
ATOM      3  C   UNL A   1      33.636  35.995  30.371  1.00  0.00     0.202 C 
BRANCH   3   4
ATOM      4  C   UNL A   1      32.538  35.816  31.420  1.00  0.00     0.261 C 
BRANCH   4   5
ATOM      5  O   UNL A   1      32.846  34.665  32.226  1.00  0.00    -0.461 OA
BRANCH   5   6
ATOM      6  C   UNL A   1      34.007  34.703  32.920  1.00  0.00     0.335 C 
ATOM      7  O   UNL A   1      34.332  35.607  33.685  1.00  0.00    -0.249 OA
BRANCH   6   8
ATOM      8  C   UNL A   1      34.817  33.401  32.825  1.00  0.00     0.227 C 
BRANCH   8   9
ATOM      9  C   UNL A   1      36.298  33.404  32.382  1.00  0.00     0.035 C 
ATOM     10  C   UNL A   1      36.935  31.021  33.082  1.00  0.00     0.011 C 
ATOM     11  C   UNL A   1      37.216  32.517  33.276  1.00  0.00    -0.030 C 
ATOM     12  C   UNL A   1      37.122  32.865  34.777  1.00  0.00     0.011 C 
ATOM     13  C   UNL A   1      38.608  32.882  32.735  1.00  0.00     0.007 C 
ATOM     14  C   UNL A   1      38.550  34.384  32.483  1.00  0.00     0.001 C 
ATOM     15  C   UNL A   1      37.068  34.733  32.311  1.00  0.00     0.007 C 
ENDBRANCH   8   9
BRANCH   8  16
ATOM     16  O   UNL A   1      34.112  32.470  31.982  1.00  0.00    -0.381 OA
ATOM     17  H   UNL A   1      33.752  31.750  32.524  1.00  0.00     0.211 HD
ENDBRANCH   8  16
ENDBRANCH   6   8
ENDBRANCH   5   6
ENDBRANCH   4   5
ENDBRANCH   3   4
ENDBRANCH   2   3
ENDBRANCH   1   2
BRANCH   1  18
ATOM     18  C   UNL A   1      34.770  33.525  28.619  1.00  0.00     0.261 C 
BRANCH  18  19
ATOM     19  O   UNL A   1      34.926  32.233  29.228  1.00  0.00    -0.460 OA
BRANCH  19  20
ATOM     20  C   UNL A   1      34.857  31.191  28.369  1.00  0.00     0.338 C 
ATOM     21  O   UNL A   1      34.004  30.980  27.516  1.00  0.00    -0.246 OA
BRANCH  20  22
ATOM     22  C   UNL A   1      36.072  30.368  28.488  1.00  0.00     0.060 A 
ATOM     23  C   UNL A   1      36.305  29.714  29.705  1.00  0.00     0.016 A 
ATOM     24  C   UNL A   1      37.008  30.306  27.454  1.00  0.00     0.016 A 
ATOM     25  C   UNL A   1      37.504  29.032  29.913  1.00  0.00     0.010 A 
ATOM     26  C   UNL A   1      38.213  29.634  27.669  1.00  0.00     0.010 A 
ATOM     27  C   UNL A   1      38.480  29.027  28.910  1.00  0.00    -0.014 A 
BRANCH  27  28
ATOM     28  C   UNL A   1      39.850  28.547  29.201  1.00  0.00     0.031 A 
ATOM     29  C   UNL A   1      40.819  29.495  29.848  1.00  0.00     0.074 A 
ATOM     30  C   UNL A   1      40.234  27.301  28.872  1.00  0.00     0.049 A 
ATOM     31  N   UNL A   1      42.103  29.355  30.058  1.00  0.00    -0.248 NA
ATOM     32  C   UNL A   1      40.266  30.777  30.317  1.00  0.00     0.031 C 
ATOM     33  C   UNL A   1      39.371  26.270  28.299  1.00  0.00     0.029 A 
ATOM     34  N   UNL A   1      41.467  26.705  28.957  1.00  0.00    -0.354 N 
ATOM     35  C   UNL A   1      42.514  30.538  30.659  1.00  0.00     0.074 A 
ATOM     36  C   UNL A   1      41.350  31.389  30.770  1.00  0.00     0.031 C 
ATOM     37  C   UNL A   1      40.109  25.172  28.063  1.00  0.00     0.029 A 
ATOM     38  C   UNL A   1      41.500  25.441  28.424  1.00  0.00     0.049 A 
ATOM     39  H   UNL A   1      42.252  27.141  29.362  1.00  0.00     0.167 HD
ATOM     40  C   UNL A   1      43.755  30.886  31.075  1.00  0.00     0.031 A 
ATOM     41  C   UNL A   1      42.542  24.614  28.213  1.00  0.00     0.031 A 
ATOM     42  C   UNL A   1      44.911  30.042  30.955  1.00  0.00     0.049 A 
ATOM     43  C   UNL A   1      43.927  25.056  28.604  1.00  0.00     0.074 A 
ATOM     44  C   UNL A   1      46.211  30.298  31.352  1.00  0.00     0.029 A 
ATOM     45  N   UNL A   1      44.905  28.777  30.388  1.00  0.00    -0.354 N 
ATOM     46  N   UNL A   1      44.309  26.174  29.173  1.00  0.00    -0.248 NA
ATOM     47  C   UNL A   1      45.029  24.121  28.323  1.00  0.00     0.031 C 
ATOM     48  C   UNL A   1      47.002  29.208  30.981  1.00  0.00     0.029 A 
ATOM     49  C   UNL A   1      46.184  28.249  30.405  1.00  0.00     0.049 A 
ATOM     50  H   UNL A   1      44.109  28.322  30.028  1.00  0.00     0.167 HD
ATOM     51  C   UNL A   1      45.683  26.063  29.349  1.00  0.00     0.074 A 
ATOM     52  C   UNL A   1      46.070  24.768  28.828  1.00  0.00     0.031 C 
ATOM     53  C   UNL A   1      46.546  26.951  29.900  1.00  0.00     0.031 A 
BRANCH  40  54
ATOM     54  C   UNL A   1      43.929  32.258  31.661  1.00  0.00    -0.014 A 
ATOM     55  C   UNL A   1      43.808  32.485  33.040  1.00  0.00     0.009 A 
ATOM     56  C   UNL A   1      44.250  33.334  30.819  1.00  0.00     0.009 A 
ATOM     57  C   UNL A   1      43.976  33.769  33.560  1.00  0.00     0.001 A 
ATOM     58  C   UNL A   1      44.443  34.612  31.346  1.00  0.00     0.001 A 
ATOM     59  C   UNL A   1      44.298  34.831  32.715  1.00  0.00     0.000 A 
ENDBRANCH  40  54
BRANCH  41  60
ATOM     60  C   UNL A   1      42.326  23.293  27.568  1.00  0.00    -0.014 A 
ATOM     61  C   UNL A   1      41.946  22.178  28.329  1.00  0.00     0.009 A 
ATOM     62  C   UNL A   1      42.515  23.137  26.185  1.00  0.00     0.009 A 
ATOM     63  C   UNL A   1      41.782  20.930  27.723  1.00  0.00     0.001 A 
ATOM     64  C   UNL A   1      42.324  21.894  25.577  1.00  0.00     0.001 A 
ATOM     65  C   UNL A   1      41.966  20.790  26.348  1.00  0.00     0.000 A 
ENDBRANCH  41  60
BRANCH  53  66
ATOM     66  C   UNL A   1      47.984  26.539  30.029  1.00  0.00    -0.014 A 
ATOM     67  C   UNL A   1      48.938  26.902  29.067  1.00  0.00     0.009 A 
ATOM     68  C   UNL A   1      48.402  25.852  31.180  1.00  0.00     0.009 A 
ATOM     69  C   UNL A   1      50.281  26.569  29.249  1.00  0.00     0.001 A 
ATOM     70  C   UNL A   1      49.749  25.542  31.371  1.00  0.00     0.001 A 
ATOM     71  C   UNL A   1      50.687  25.897  30.403  1.00  0.00     0.000 A 
ENDBRANCH  53  66
ENDBRANCH  27  28
ENDBRANCH  20  22
ENDBRANCH  19  20
ENDBRANCH  18  19
ENDBRANCH   1  18
TORSDOF 16
ENDMDL
MODEL 2
REMARK VINA RESULT:      -8.6      4.507      9.210
REMARK SMILES CC1(C)CCC[C@@H]1[C@H](O)C(=O)OCCOCCOC(=O)c1ccc(-c2c3nc(c(-c4ccccc4)c4ccc([nH]4)c(-c4ccccc4)c4nc(c(-c5ccccc5)c5ccc2[nH]5)C=C4)C=C3)cc1
REMARK SMILES IDX 16 1 15 2 14 3 13 4 12 5 10 6 11 7 8 8 7 9 1 10 2 11 3 12
REMARK SMILES IDX 4 13 5 14 6 15 9 16 17 18 18 19 19 20 20 21 21 22 22 23
REMARK SMILES IDX 68 24 23 25 67 26 24 27 25 28 26 29 61 30 27 31 66 32 60 33
REMARK SMILES IDX 62 34 28 35 65 36 59 37 58 38 29 40 51 41 36 42 50 43 37 44
REMARK SMILES IDX 40 45 49 46 63 47 38 48 39 49 48 51 64 52 41 53 30 54 31 55
REMARK SMILES IDX 35 56 32 57 34 58 33 59 52 60 53 61 57 62 54 63 56 64 55 65
REMARK SMILES IDX 42 66 43 67 47 68 44 69 46 70 45 71
REMARK H PARENT 9 17 62 39 40 50
REMARK Flexibility Score: inf
ROOT
ATOM      1  C   UNL A   1      32.222  28.634  25.302  1.00  0.00     0.202 C 
ENDROOT
BRANCH   1   2
ATOM      2  O   UNL A   1      31.090  27.765  25.253  1.00  0.00    -0.374 OA
BRANCH   2   3
ATOM      3  C   UNL A   1      30.550  27.462  23.964  1.00  0.00     0.202 C 
BRANCH   3   4
ATOM      4  C   UNL A   1      31.508  27.674  22.791  1.00  0.00     0.261 C 
BRANCH   4   5
ATOM      5  O   UNL A   1      31.472  26.513  21.943  1.00  0.00    -0.461 OA
BRANCH   5   6
ATOM      6  C   UNL A   1      32.663  25.946  21.640  1.00  0.00     0.335 C 
ATOM      7  O   UNL A   1      33.650  26.563  21.250  1.00  0.00    -0.249 OA
BRANCH   6   8
ATOM      8  C   UNL A   1      32.745  24.460  22.023  1.00  0.00     0.227 C 
BRANCH   8   9
ATOM      9  C   UNL A   1      33.490  23.995  23.296  1.00  0.00     0.035 C 
ATOM     10  C   UNL A   1      32.496  21.641  23.509  1.00  0.00     0.011 C 
ATOM     11  C   UNL A   1      32.662  23.012  24.177  1.00  0.00    -0.030 C 
ATOM     12  C   UNL A   1      31.273  23.565  24.561  1.00  0.00     0.011 C 
ATOM     13  C   UNL A   1      33.551  22.905  25.427  1.00  0.00     0.007 C 
ATOM     14  C   UNL A   1      34.071  24.319  25.662  1.00  0.00     0.001 C 
ATOM     15  C   UNL A   1      33.982  25.038  24.312  1.00  0.00     0.007 C 
ENDBRANCH   8   9
BRANCH   8  16
ATOM     16  O   UNL A   1      33.279  23.717  20.910  1.00  0.00    -0.381 OA
ATOM     17  H   UNL A   1      33.342  24.297  20.135  1.00  0.00     0.211 HD
ENDBRANCH   8  16
ENDBRANCH   6   8
ENDBRANCH   5   6
ENDBRANCH   4   5
ENDBRANCH   3   4
ENDBRANCH   2   3
ENDBRANCH   1   2
BRANCH   1  18
ATOM     18  C   UNL A   1      31.948  30.078  25.731  1.00  0.00     0.261 C 
BRANCH  18  19
ATOM     19  O   UNL A   1      32.345  30.335  27.088  1.00  0.00    -0.460 OA
BRANCH  19  20
ATOM     20  C   UNL A   1      33.033  31.485  27.267  1.00  0.00     0.338 C 
ATOM     21  O   UNL A   1      32.603  32.629  27.215  1.00  0.00    -0.246 OA
BRANCH  20  22
ATOM     22  C   UNL A   1      34.408  31.178  27.699  1.00  0.00     0.060 A 
ATOM     23  C   UNL A   1      34.735  29.838  27.947  1.00  0.00     0.016 A 
ATOM     24  C   UNL A   1      35.335  32.194  27.937  1.00  0.00     0.016 A 
ATOM     25  C   UNL A   1      35.979  29.511  28.483  1.00  0.00     0.010 A 
ATOM     26  C   UNL A   1      36.576  31.866  28.487  1.00  0.00     0.010 A 
ATOM     27  C   UNL A   1      36.888  30.529  28.795  1.00  0.00    -0.014 A 
BRANCH  27  28
ATOM     28  C   UNL A   1      38.093  30.236  29.604  1.00  0.00     0.031 A 
ATOM     29  C   UNL A   1      39.152  29.347  29.015  1.00  0.00     0.074 A 
ATOM     30  C   UNL A   1      38.232  30.728  30.847  1.00  0.00     0.049 A 
ATOM     31  N   UNL A   1      40.211  28.830  29.583  1.00  0.00    -0.248 NA
ATOM     32  C   UNL A   1      38.991  28.989  27.595  1.00  0.00     0.031 C 
ATOM     33  C   UNL A   1      37.307  31.649  31.504  1.00  0.00     0.029 A 
ATOM     34  N   UNL A   1      39.205  30.495  31.786  1.00  0.00    -0.354 N 
ATOM     35  C   UNL A   1      40.827  28.067  28.599  1.00  0.00     0.074 A 
ATOM     36  C   UNL A   1      40.021  28.178  27.404  1.00  0.00     0.031 C 
ATOM     37  C   UNL A   1      37.747  31.887  32.751  1.00  0.00     0.029 A 
ATOM     38  C   UNL A   1      38.955  31.099  32.993  1.00  0.00     0.049 A 
ATOM     39  H   UNL A   1      40.006  29.949  31.611  1.00  0.00     0.167 HD
ATOM     40  C   UNL A   1      41.963  27.335  28.686  1.00  0.00     0.031 A 
ATOM     41  C   UNL A   1      39.604  30.993  34.168  1.00  0.00     0.031 A 
ATOM     42  C   UNL A   1      42.756  27.220  29.878  1.00  0.00     0.049 A 
ATOM     43  C   UNL A   1      40.814  30.103  34.267  1.00  0.00     0.074 A 
ATOM     44  C   UNL A   1      43.928  26.508  30.068  1.00  0.00     0.029 A 
ATOM     45  N   UNL A   1      42.455  27.830  31.085  1.00  0.00    -0.354 N 
ATOM     46  N   UNL A   1      41.392  29.387  33.333  1.00  0.00    -0.248 NA
ATOM     47  C   UNL A   1      41.463  30.006  35.584  1.00  0.00     0.031 C 
ATOM     48  C   UNL A   1      44.309  26.647  31.405  1.00  0.00     0.029 A 
ATOM     49  C   UNL A   1      43.407  27.492  32.032  1.00  0.00     0.049 A 
ATOM     50  H   UNL A   1      41.681  28.416  31.245  1.00  0.00     0.167 HD
ATOM     51  C   UNL A   1      42.489  28.784  33.938  1.00  0.00     0.074 A 
ATOM     52  C   UNL A   1      42.497  29.219  35.320  1.00  0.00     0.031 C 
ATOM     53  C   UNL A   1      43.410  27.951  33.396  1.00  0.00     0.031 A 
BRANCH  40  54
ATOM     54  C   UNL A   1      42.386  26.566  27.468  1.00  0.00    -0.014 A 
ATOM     55  C   UNL A   1      43.231  27.134  26.502  1.00  0.00     0.009 A 
ATOM     56  C   UNL A   1      41.956  25.240  27.301  1.00  0.00     0.009 A 
ATOM     57  C   UNL A   1      43.612  26.398  25.378  1.00  0.00     0.001 A 
ATOM     58  C   UNL A   1      42.359  24.499  26.190  1.00  0.00     0.001 A 
ATOM     59  C   UNL A   1      43.180  25.081  25.225  1.00  0.00     0.000 A 
ENDBRANCH  40  54
BRANCH  41  60
ATOM     60  C   UNL A   1      39.104  31.722  35.363  1.00  0.00    -0.014 A 
ATOM     61  C   UNL A   1      39.496  33.046  35.610  1.00  0.00     0.009 A 
ATOM     62  C   UNL A   1      38.242  31.089  36.274  1.00  0.00     0.009 A 
ATOM     63  C   UNL A   1      39.054  33.713  36.755  1.00  0.00     0.001 A 
ATOM     64  C   UNL A   1      37.780  31.768  37.403  1.00  0.00     0.001 A 
ATOM     65  C   UNL A   1      38.194  33.076  37.647  1.00  0.00     0.000 A 
ENDBRANCH  41  60
BRANCH  53  66
ATOM     66  C   UNL A   1      44.543  27.498  34.272  1.00  0.00    -0.014 A 
ATOM     67  C   UNL A   1      44.473  26.298  34.994  1.00  0.00     0.009 A 
ATOM     68  C   UNL A   1      45.731  28.245  34.300  1.00  0.00     0.009 A 
ATOM     69  C   UNL A   1      45.570  25.864  35.742  1.00  0.00     0.001 A 
ATOM     70  C   UNL A   1      46.833  27.796  35.028  1.00  0.00     0.001 A 
ATOM     71  C   UNL A   1      46.750  26.609  35.752  1.00  0.00     0.000 A 
ENDBRANCH  53  66
ENDBRANCH  27  28
ENDBRANCH  20  22
ENDBRANCH  19  20
ENDBRANCH  18  19
ENDBRANCH   1  18
TORSDOF 16
ENDMDL
MODEL 3
REMARK VINA RESULT:      -8.6      4.906     11.013
REMARK SMILES CC1(C)CCC[C@@H]1[C@H](O)C(=O)OCCOCCOC(=O)c1ccc(-c2c3nc(c(-c4ccccc4)c4ccc([nH]4)c(-c4ccccc4)c4nc(c(-c5ccccc5)c5ccc2[nH]5)C=C4)C=C3)cc1
REMARK SMILES IDX 16 1 15 2 14 3 13 4 12 5 10 6 11 7 8 8 7 9 1 10 2 11 3 12
REMARK SMILES IDX 4 13 5 14 6 15 9 16 17 18 18 19 19 20 20 21 21 22 22 23
REMARK SMILES IDX 68 24 23 25 67 26 24 27 25 28 26 29 61 30 27 31 66 32 60 33
REMARK SMILES IDX 62 34 28 35 65 36 59 37 58 38 29 40 51 41 36 42 50 43 37 44
REMARK SMILES IDX 40 45 49 46 63 47 38 48 39 49 48 51 64 52 41 53 30 54 31 55
REMARK SMILES IDX 35 56 32 57 34 58 33 59 52 60 53 61 57 62 54 63 56 64 55 65
REMARK SMILES IDX 42 66 43 67 47 68 44 69 46 70 45 71
REMARK H PARENT 9 17 62 39 40 50
REMARK Flexibility Score: inf
ROOT
ATOM      1  C   UNL A   1      43.971  20.153  25.416  1.00  0.00     0.202 C 
ENDROOT
BRANCH   1   2
ATOM      2  O   UNL A   1      42.622  19.693  25.322  1.00  0.00    -0.374 OA
BRANCH   2   3
ATOM      3  C   UNL A   1      41.762  19.948  26.437  1.00  0.00     0.202 C 
BRANCH   3   4
ATOM      4  C   UNL A   1      40.269  19.775  26.160  1.00  0.00     0.261 C 
BRANCH   4   5
ATOM      5  O   UNL A   1      39.711  21.049  25.791  1.00  0.00    -0.461 OA
BRANCH   5   6
ATOM      6  C   UNL A   1      38.433  21.046  25.348  1.00  0.00     0.335 C 
ATOM      7  O   UNL A   1      37.937  20.161  24.656  1.00  0.00    -0.249 OA
BRANCH   6   8
ATOM      8  C   UNL A   1      37.574  22.164  25.959  1.00  0.00     0.227 C 
BRANCH   8   9
ATOM      9  C   UNL A   1      36.587  22.985  25.096  1.00  0.00     0.035 C 
ATOM     10  C   UNL A   1      34.639  23.149  26.754  1.00  0.00     0.011 C 
ATOM     11  C   UNL A   1      35.091  22.652  25.375  1.00  0.00    -0.030 C 
ATOM     12  C   UNL A   1      34.770  21.148  25.243  1.00  0.00     0.011 C 
ATOM     13  C   UNL A   1      34.392  23.441  24.256  1.00  0.00     0.007 C 
ATOM     14  C   UNL A   1      35.281  23.259  23.032  1.00  0.00     0.001 C 
ATOM     15  C   UNL A   1      36.676  22.912  23.563  1.00  0.00     0.007 C 
ENDBRANCH   8   9
BRANCH   8  16
ATOM     16  O   UNL A   1      38.433  23.095  26.643  1.00  0.00    -0.381 OA
ATOM     17  H   UNL A   1      38.076  23.993  26.551  1.00  0.00     0.211 HD
ENDBRANCH   8  16
ENDBRANCH   6   8
ENDBRANCH   5   6
ENDBRANCH   4   5
ENDBRANCH   3   4
ENDBRANCH   2   3
ENDBRANCH   1   2
BRANCH   1  18
ATOM     18  C   UNL A   1      44.301  21.438  24.651  1.00  0.00     0.261 C 
BRANCH  18  19
ATOM     19  O   UNL A   1      43.451  22.535  25.024  1.00  0.00    -0.460 OA
BRANCH  19  20
ATOM     20  C   UNL A   1      44.050  23.747  25.001  1.00  0.00     0.338 C 
ATOM     21  O   UNL A   1      44.988  24.104  24.301  1.00  0.00    -0.246 OA
BRANCH  20  22
ATOM     22  C   UNL A   1      43.309  24.684  25.863  1.00  0.00     0.060 A 
ATOM     23  C   UNL A   1      43.638  26.045  25.789  1.00  0.00     0.016 A 
ATOM     24  C   UNL A   1      42.368  24.227  26.787  1.00  0.00     0.016 A 
ATOM     25  C   UNL A   1      43.061  26.951  26.676  1.00  0.00     0.010 A 
ATOM     26  C   UNL A   1      41.801  25.135  27.683  1.00  0.00     0.010 A 
ATOM     27  C   UNL A   1      42.172  26.492  27.655  1.00  0.00    -0.014 A 
BRANCH  27  28
ATOM     28  C   UNL A   1      41.757  27.378  28.766  1.00  0.00     0.031 A 
ATOM     29  C   UNL A   1      42.523  27.315  30.057  1.00  0.00     0.074 A 
ATOM     30  C   UNL A   1      40.705  28.204  28.640  1.00  0.00     0.049 A 
ATOM     31  N   UNL A   1      42.257  27.875  31.209  1.00  0.00    -0.248 NA
ATOM     32  C   UNL A   1      43.754  26.505  30.050  1.00  0.00     0.031 C 
ATOM     33  C   UNL A   1      39.922  28.402  27.422  1.00  0.00     0.029 A 
ATOM     34  N   UNL A   1      40.101  29.016  29.567  1.00  0.00    -0.354 N 
ATOM     35  C   UNL A   1      43.270  27.467  32.067  1.00  0.00     0.074 A 
ATOM     36  C   UNL A   1      44.149  26.603  31.310  1.00  0.00     0.031 C 
ATOM     37  C   UNL A   1      38.925  29.265  27.683  1.00  0.00     0.029 A 
ATOM     38  C   UNL A   1      38.974  29.640  29.096  1.00  0.00     0.049 A 
ATOM     39  H   UNL A   1      40.445  29.139  30.482  1.00  0.00     0.167 HD
ATOM     40  C   UNL A   1      43.448  27.779  33.372  1.00  0.00     0.031 A 
ATOM     41  C   UNL A   1      38.064  30.395  29.742  1.00  0.00     0.031 A 
ATOM     42  C   UNL A   1      42.567  28.630  34.123  1.00  0.00     0.049 A 
ATOM     43  C   UNL A   1      38.234  30.658  31.215  1.00  0.00     0.074 A 
ATOM     44  C   UNL A   1      42.663  29.014  35.449  1.00  0.00     0.029 A 
ATOM     45  N   UNL A   1      41.424  29.224  33.613  1.00  0.00    -0.354 N 
ATOM     46  N   UNL A   1      39.193  30.270  32.019  1.00  0.00    -0.248 NA
ATOM     47  C   UNL A   1      37.192  31.464  31.871  1.00  0.00     0.031 C 
ATOM     48  C   UNL A   1      41.550  29.802  35.755  1.00  0.00     0.029 A 
ATOM     49  C   UNL A   1      40.793  29.955  34.605  1.00  0.00     0.049 A 
ATOM     50  H   UNL A   1      41.109  29.140  32.684  1.00  0.00     0.167 HD
ATOM     51  C   UNL A   1      38.892  30.811  33.263  1.00  0.00     0.074 A 
ATOM     52  C   UNL A   1      37.660  31.556  33.108  1.00  0.00     0.031 C 
ATOM     53  C   UNL A   1      39.578  30.707  34.426  1.00  0.00     0.031 A 
BRANCH  40  54
ATOM     54  C   UNL A   1      44.618  27.159  34.079  1.00  0.00    -0.014 A 
ATOM     55  C   UNL A   1      45.908  27.704  33.976  1.00  0.00     0.009 A 
ATOM     56  C   UNL A   1      44.420  26.028  34.886  1.00  0.00     0.009 A 
ATOM     57  C   UNL A   1      46.980  27.110  34.644  1.00  0.00     0.001 A 
ATOM     58  C   UNL A   1      45.489  25.452  35.573  1.00  0.00     0.001 A 
ATOM     59  C   UNL A   1      46.770  25.988  35.445  1.00  0.00     0.000 A 
ENDBRANCH  40  54
BRANCH  41  60
ATOM     60  C   UNL A   1      36.885  30.929  29.011  1.00  0.00    -0.014 A 
ATOM     61  C   UNL A   1      35.809  30.093  28.680  1.00  0.00     0.009 A 
ATOM     62  C   UNL A   1      36.840  32.278  28.624  1.00  0.00     0.009 A 
ATOM     63  C   UNL A   1      34.722  30.591  27.958  1.00  0.00     0.001 A 
ATOM     64  C   UNL A   1      35.740  32.780  27.926  1.00  0.00     0.001 A 
ATOM     65  C   UNL A   1      34.686  31.934  27.586  1.00  0.00     0.000 A 
ENDBRANCH  41  60
BRANCH  53  66
ATOM     66  C   UNL A   1      39.055  31.460  35.616  1.00  0.00    -0.014 A 
ATOM     67  C   UNL A   1      38.136  30.880  36.502  1.00  0.00     0.009 A 
ATOM     68  C   UNL A   1      39.562  32.739  35.897  1.00  0.00     0.009 A 
ATOM     69  C   UNL A   1      37.723  31.576  37.640  1.00  0.00     0.001 A 
ATOM     70  C   UNL A   1      39.166  33.421  37.048  1.00  0.00     0.001 A 
ATOM     71  C   UNL A   1      38.244  32.841  37.916  1.00  0.00     0.000 A 
ENDBRANCH  53  66
ENDBRANCH  27  28
ENDBRANCH  20  22
ENDBRANCH  19  20
ENDBRANCH  18  19
ENDBRANCH   1  18
TORSDOF 16
ENDMDL
