MODEL 1
REMARK VINA RESULT:      -8.8      0.000      0.000
REMARK SMILES O=C(OCCOCCOC(=O)c1cnc(OCC2CC2)c(Cl)c1)c1ccc(-c2c3nc(c(-c4ccccc4)c4ccc([nH]4)c(-c4ccccc4)c4nc(c(-c5ccccc5)c5ccc2[nH]5)C=C4)C=C3)cc1
REMARK SMILES IDX 7 1 6 2 5 3 4 4 3 5 2 6 1 7 24 8 25 9 71 10 26 11 70 12
REMARK SMILES IDX 27 13 28 14 29 15 64 16 30 17 69 18 63 19 65 20 31 21 68 22
REMARK SMILES IDX 62 23 61 24 32 26 54 27 39 28 53 29 40 30 43 31 52 32 66 33
REMARK SMILES IDX 41 34 42 35 51 37 67 38 44 39 33 40 34 41 38 42 35 43 37 44
REMARK SMILES IDX 36 45 55 46 56 47 60 48 57 49 59 50 58 51 45 52 46 53 50 54
REMARK SMILES IDX 47 55 49 56 48 57 8 58 9 59 10 60 11 61 12 62 13 63 23 64
REMARK SMILES IDX 14 65 21 66 15 67 22 68 16 69 17 70 18 71 19 72 20 73
REMARK H PARENT 65 25 43 36
REMARK Flexibility Score: inf
ROOT
ATOM      1  C   UNL A   1      33.230  35.408  29.573  1.00  0.00     0.202 C 
ENDROOT
BRANCH   1   2
ATOM      2  O   UNL A   1      33.687  34.147  30.078  1.00  0.00    -0.374 OA
BRANCH   2   3
ATOM      3  C   UNL A   1      34.968  33.713  29.621  1.00  0.00     0.202 C 
BRANCH   3   4
ATOM      4  C   UNL A   1      34.988  33.112  28.214  1.00  0.00     0.261 C 
BRANCH   4   5
ATOM      5  O   UNL A   1      34.157  31.941  28.161  1.00  0.00    -0.460 OA
BRANCH   5   6
ATOM      6  C   UNL A   1      34.531  30.679  27.846  1.00  0.00     0.338 C 
ATOM      7  O   UNL A   1      33.731  29.945  27.269  1.00  0.00    -0.246 OA
BRANCH   6   8
ATOM      8  C   UNL A   1      35.874  30.124  28.174  1.00  0.00     0.060 A 
ATOM      9  C   UNL A   1      36.971  30.159  27.310  1.00  0.00     0.016 A 
ATOM     10  C   UNL A   1      36.071  29.644  29.477  1.00  0.00     0.016 A 
ATOM     11  C   UNL A   1      38.214  29.690  27.695  1.00  0.00     0.010 A 
ATOM     12  C   UNL A   1      37.335  29.218  29.895  1.00  0.00     0.010 A 
ATOM     13  C   UNL A   1      38.408  29.242  28.996  1.00  0.00    -0.014 A 
BRANCH  13  14
ATOM     14  C   UNL A   1      39.747  28.764  29.365  1.00  0.00     0.031 A 
ATOM     15  C   UNL A   1      40.581  29.606  30.273  1.00  0.00     0.074 A 
ATOM     16  C   UNL A   1      40.140  27.542  28.960  1.00  0.00     0.049 A 
ATOM     17  N   UNL A   1      41.811  29.426  30.665  1.00  0.00    -0.248 NA
ATOM     18  C   UNL A   1      39.935  30.810  30.826  1.00  0.00     0.031 C 
ATOM     19  C   UNL A   1      39.322  26.607  28.181  1.00  0.00     0.029 A 
ATOM     20  N   UNL A   1      41.310  26.866  29.170  1.00  0.00    -0.354 N 
ATOM     21  C   UNL A   1      42.104  30.514  31.474  1.00  0.00     0.074 A 
ATOM     22  C   UNL A   1      40.922  31.344  31.529  1.00  0.00     0.031 C 
ATOM     23  C   UNL A   1      40.013  25.472  27.991  1.00  0.00     0.029 A 
ATOM     24  C   UNL A   1      41.343  25.633  28.562  1.00  0.00     0.049 A 
ATOM     25  H   UNL A   1      42.054  27.225  29.703  1.00  0.00     0.167 HD
ATOM     26  C   UNL A   1      43.272  30.794  32.093  1.00  0.00     0.031 A 
ATOM     27  C   UNL A   1      42.362  24.763  28.441  1.00  0.00     0.031 A 
ATOM     28  C   UNL A   1      44.427  29.945  32.003  1.00  0.00     0.049 A 
ATOM     29  C   UNL A   1      43.681  25.151  29.052  1.00  0.00     0.074 A 
ATOM     30  C   UNL A   1      45.684  30.133  32.542  1.00  0.00     0.029 A 
ATOM     31  N   UNL A   1      44.454  28.737  31.317  1.00  0.00    -0.354 N 
ATOM     32  N   UNL A   1      43.976  26.208  29.773  1.00  0.00    -0.248 NA
ATOM     33  C   UNL A   1      44.811  24.246  28.815  1.00  0.00     0.031 C 
ATOM     34  C   UNL A   1      46.491  29.066  32.131  1.00  0.00     0.029 A 
ATOM     35  C   UNL A   1      45.718  28.183  31.388  1.00  0.00     0.049 A 
ATOM     36  H   UNL A   1      43.687  28.336  30.849  1.00  0.00     0.167 HD
ATOM     37  C   UNL A   1      45.322  26.091  30.086  1.00  0.00     0.074 A 
ATOM     38  C   UNL A   1      45.777  24.846  29.497  1.00  0.00     0.031 C 
ATOM     39  C   UNL A   1      46.118  26.937  30.786  1.00  0.00     0.031 A 
BRANCH  26  40
ATOM     40  C   UNL A   1      43.367  32.106  32.817  1.00  0.00    -0.014 A 
ATOM     41  C   UNL A   1      43.064  32.226  34.182  1.00  0.00     0.009 A 
ATOM     42  C   UNL A   1      43.738  33.254  32.100  1.00  0.00     0.009 A 
ATOM     43  C   UNL A   1      43.095  33.477  34.804  1.00  0.00     0.001 A 
ATOM     44  C   UNL A   1      43.793  34.498  32.730  1.00  0.00     0.001 A 
ATOM     45  C   UNL A   1      43.461  34.611  34.079  1.00  0.00     0.000 A 
ENDBRANCH  26  40
BRANCH  27  46
ATOM     46  C   UNL A   1      42.205  23.514  27.648  1.00  0.00    -0.014 A 
ATOM     47  C   UNL A   1      41.722  22.335  28.235  1.00  0.00     0.009 A 
ATOM     48  C   UNL A   1      42.562  23.489  26.288  1.00  0.00     0.009 A 
ATOM     49  C   UNL A   1      41.627  21.157  27.487  1.00  0.00     0.001 A 
ATOM     50  C   UNL A   1      42.434  22.320  25.534  1.00  0.00     0.001 A 
ATOM     51  C   UNL A   1      41.978  21.152  26.137  1.00  0.00     0.000 A 
ENDBRANCH  27  46
BRANCH  39  52
ATOM     52  C   UNL A   1      47.547  26.520  30.968  1.00  0.00    -0.014 A 
ATOM     53  C   UNL A   1      47.949  25.790  32.096  1.00  0.00     0.009 A 
ATOM     54  C   UNL A   1      48.483  26.804  29.963  1.00  0.00     0.009 A 
ATOM     55  C   UNL A   1      49.273  25.371  32.223  1.00  0.00     0.001 A 
ATOM     56  C   UNL A   1      49.797  26.357  30.078  1.00  0.00     0.001 A 
ATOM     57  C   UNL A   1      50.193  25.646  31.211  1.00  0.00     0.000 A 
ENDBRANCH  39  52
ENDBRANCH  13  14
ENDBRANCH   6   8
ENDBRANCH   5   6
ENDBRANCH   4   5
ENDBRANCH   3   4
ENDBRANCH   2   3
ENDBRANCH   1   2
BRANCH   1  58
ATOM     58  C   UNL A   1      33.131  36.406  30.732  1.00  0.00     0.261 C 
BRANCH  58  59
ATOM     59  O   UNL A   1      33.248  35.691  31.975  1.00  0.00    -0.460 OA
BRANCH  59  60
ATOM     60  C   UNL A   1      34.104  36.241  32.878  1.00  0.00     0.339 C 
ATOM     61  O   UNL A   1      34.004  37.291  33.475  1.00  0.00    -0.246 OA
BRANCH  60  62
ATOM     62  C   UNL A   1      35.072  35.190  33.198  1.00  0.00     0.080 A 
ATOM     63  C   UNL A   1      34.661  34.129  33.975  1.00  0.00     0.131 A 
ATOM     64  C   UNL A   1      36.342  35.155  32.641  1.00  0.00     0.043 A 
ATOM     65  N   UNL A   1      35.382  32.995  34.106  1.00  0.00    -0.220 NA
ATOM     66  C   UNL A   1      37.141  34.022  32.822  1.00  0.00     0.104 A 
ATOM     67  C   UNL A   1      36.595  32.918  33.490  1.00  0.00     0.232 A 
ATOM     68  Cl  UNL A   1      38.729  34.135  32.159  1.00  0.00    -0.078 Cl
BRANCH  67  69
ATOM     69  O   UNL A   1      37.061  31.651  33.587  1.00  0.00    -0.476 OA
BRANCH  69  70
ATOM     70  C   UNL A   1      38.304  31.315  34.186  1.00  0.00     0.235 C 
BRANCH  70  71
ATOM     71  C   UNL A   1      38.592  31.947  35.519  1.00  0.00     0.027 C 
ATOM     72  C   UNL A   1      39.954  31.843  36.164  1.00  0.00     0.007 C 
ATOM     73  C   UNL A   1      39.415  33.191  35.779  1.00  0.00     0.007 C 
ENDBRANCH  70  71
ENDBRANCH  69  70
ENDBRANCH  67  69
ENDBRANCH  60  62
ENDBRANCH  59  60
ENDBRANCH  58  59
ENDBRANCH   1  58
TORSDOF 17
ENDMDL
MODEL 2
REMARK VINA RESULT:      -8.7      4.712     11.189
REMARK SMILES O=C(OCCOCCOC(=O)c1cnc(OCC2CC2)c(Cl)c1)c1ccc(-c2c3nc(c(-c4ccccc4)c4ccc([nH]4)c(-c4ccccc4)c4nc(c(-c5ccccc5)c5ccc2[nH]5)C=C4)C=C3)cc1
REMARK SMILES IDX 7 1 6 2 5 3 4 4 3 5 2 6 1 7 24 8 25 9 71 10 26 11 70 12
REMARK SMILES IDX 27 13 28 14 29 15 64 16 30 17 69 18 63 19 65 20 31 21 68 22
REMARK SMILES IDX 62 23 61 24 32 26 54 27 39 28 53 29 40 30 43 31 52 32 66 33
REMARK SMILES IDX 41 34 42 35 51 37 67 38 44 39 33 40 34 41 38 42 35 43 37 44
REMARK SMILES IDX 36 45 55 46 56 47 60 48 57 49 59 50 58 51 45 52 46 53 50 54
REMARK SMILES IDX 47 55 49 56 48 57 8 58 9 59 10 60 11 61 12 62 13 63 23 64
REMARK SMILES IDX 14 65 21 66 15 67 22 68 16 69 17 70 18 71 19 72 20 73
REMARK H PARENT 65 25 43 36
REMARK Flexibility Score: inf
ROOT
ATOM      1  C   UNL A   1      43.731  18.870  25.249  1.00  0.00     0.202 C 
ENDROOT
BRANCH   1   2
ATOM      2  O   UNL A   1      43.936  20.159  24.657  1.00  0.00    -0.374 OA
BRANCH   2   3
ATOM      3  C   UNL A   1      45.273  20.658  24.680  1.00  0.00     0.202 C 
BRANCH   3   4
ATOM      4  C   UNL A   1      45.500  21.869  25.587  1.00  0.00     0.261 C 
BRANCH   4   5
ATOM      5  O   UNL A   1      44.316  22.681  25.639  1.00  0.00    -0.460 OA
BRANCH   5   6
ATOM      6  C   UNL A   1      44.234  24.027  25.528  1.00  0.00     0.338 C 
ATOM      7  O   UNL A   1      44.696  24.573  24.528  1.00  0.00    -0.246 OA
BRANCH   6   8
ATOM      8  C   UNL A   1      43.613  24.893  26.570  1.00  0.00     0.060 A 
ATOM      9  C   UNL A   1      42.916  24.409  27.680  1.00  0.00     0.016 A 
ATOM     10  C   UNL A   1      43.851  26.272  26.485  1.00  0.00     0.016 A 
ATOM     11  C   UNL A   1      42.421  25.258  28.653  1.00  0.00     0.010 A 
ATOM     12  C   UNL A   1      43.402  27.134  27.490  1.00  0.00     0.010 A 
ATOM     13  C   UNL A   1      42.684  26.620  28.576  1.00  0.00    -0.014 A 
BRANCH  13  14
ATOM     14  C   UNL A   1      42.149  27.483  29.638  1.00  0.00     0.031 A 
ATOM     15  C   UNL A   1      42.908  27.593  30.918  1.00  0.00     0.074 A 
ATOM     16  C   UNL A   1      41.054  28.225  29.388  1.00  0.00     0.049 A 
ATOM     17  N   UNL A   1      42.588  28.225  32.013  1.00  0.00    -0.248 NA
ATOM     18  C   UNL A   1      44.211  26.906  30.969  1.00  0.00     0.031 C 
ATOM     19  C   UNL A   1      40.338  28.269  28.109  1.00  0.00     0.029 A 
ATOM     20  N   UNL A   1      40.370  29.102  30.183  1.00  0.00    -0.354 N 
ATOM     21  C   UNL A   1      43.627  27.978  32.899  1.00  0.00     0.074 A 
ATOM     22  C   UNL A   1      44.593  27.149  32.213  1.00  0.00     0.031 C 
ATOM     23  C   UNL A   1      39.322  29.142  28.205  1.00  0.00     0.029 A 
ATOM     24  C   UNL A   1      39.270  29.651  29.568  1.00  0.00     0.049 A 
ATOM     25  H   UNL A   1      40.638  29.320  31.104  1.00  0.00     0.167 HD
ATOM     26  C   UNL A   1      43.740  28.394  34.179  1.00  0.00     0.031 A 
ATOM     27  C   UNL A   1      38.303  30.435  30.079  1.00  0.00     0.031 A 
ATOM     28  C   UNL A   1      42.750  29.210  34.825  1.00  0.00     0.049 A 
ATOM     29  C   UNL A   1      38.401  30.797  31.536  1.00  0.00     0.074 A 
ATOM     30  C   UNL A   1      42.717  29.663  36.129  1.00  0.00     0.029 A 
ATOM     31  N   UNL A   1      41.606  29.689  34.199  1.00  0.00    -0.354 N 
ATOM     32  N   UNL A   1      39.357  30.518  32.392  1.00  0.00    -0.248 NA
ATOM     33  C   UNL A   1      37.282  31.556  32.105  1.00  0.00     0.031 C 
ATOM     34  C   UNL A   1      41.523  30.369  36.308  1.00  0.00     0.029 A 
ATOM     35  C   UNL A   1      40.841  30.407  35.099  1.00  0.00     0.049 A 
ATOM     36  H   UNL A   1      41.374  29.539  33.254  1.00  0.00     0.167 HD
ATOM     37  C   UNL A   1      38.962  31.076  33.598  1.00  0.00     0.074 A 
ATOM     38  C   UNL A   1      37.692  31.731  33.354  1.00  0.00     0.031 C 
ATOM     39  C   UNL A   1      39.583  31.044  34.803  1.00  0.00     0.031 A 
BRANCH  26  40
ATOM     40  C   UNL A   1      44.914  27.885  34.965  1.00  0.00    -0.014 A 
ATOM     41  C   UNL A   1      44.859  26.684  35.689  1.00  0.00     0.009 A 
ATOM     42  C   UNL A   1      46.090  28.650  35.004  1.00  0.00     0.009 A 
ATOM     43  C   UNL A   1      45.948  26.280  36.467  1.00  0.00     0.001 A 
ATOM     44  C   UNL A   1      47.185  28.230  35.761  1.00  0.00     0.001 A 
ATOM     45  C   UNL A   1      47.110  27.052  36.501  1.00  0.00     0.000 A 
ENDBRANCH  26  40
BRANCH  27  46
ATOM     46  C   UNL A   1      37.136  30.840  29.250  1.00  0.00    -0.014 A 
ATOM     47  C   UNL A   1      36.136  29.920  28.901  1.00  0.00     0.009 A 
ATOM     48  C   UNL A   1      37.025  32.161  28.780  1.00  0.00     0.009 A 
ATOM     49  C   UNL A   1      35.071  30.305  28.081  1.00  0.00     0.001 A 
ATOM     50  C   UNL A   1      35.943  32.552  27.988  1.00  0.00     0.001 A 
ATOM     51  C   UNL A   1      34.973  31.621  27.629  1.00  0.00     0.000 A 
ENDBRANCH  27  46
BRANCH  39  52
ATOM     52  C   UNL A   1      38.902  31.761  35.930  1.00  0.00    -0.014 A 
ATOM     53  C   UNL A   1      38.989  33.155  36.057  1.00  0.00     0.009 A 
ATOM     54  C   UNL A   1      38.110  31.036  36.832  1.00  0.00     0.009 A 
ATOM     55  C   UNL A   1      38.308  33.808  37.084  1.00  0.00     0.001 A 
ATOM     56  C   UNL A   1      37.406  31.695  37.838  1.00  0.00     0.001 A 
ATOM     57  C   UNL A   1      37.511  33.080  37.967  1.00  0.00     0.000 A 
ENDBRANCH  39  52
ENDBRANCH  13  14
ENDBRANCH   6   8
ENDBRANCH   5   6
ENDBRANCH   4   5
ENDBRANCH   3   4
ENDBRANCH   2   3
ENDBRANCH   1   2
BRANCH   1  58
ATOM     58  C   UNL A   1      42.298  18.787  25.787  1.00  0.00     0.261 C 
BRANCH  58  59
ATOM     59  O   UNL A   1      41.746  20.114  25.848  1.00  0.00    -0.460 OA
BRANCH  59  60
ATOM     60  C   UNL A   1      40.908  20.341  26.896  1.00  0.00     0.339 C 
ATOM     61  O   UNL A   1      41.005  19.957  28.042  1.00  0.00    -0.246 OA
BRANCH  60  62
ATOM     62  C   UNL A   1      39.973  21.372  26.440  1.00  0.00     0.080 A 
ATOM     63  C   UNL A   1      38.896  20.991  25.671  1.00  0.00     0.131 A 
ATOM     64  C   UNL A   1      40.058  22.691  26.861  1.00  0.00     0.043 A 
ATOM     65  N   UNL A   1      37.847  21.807  25.424  1.00  0.00    -0.220 NA
ATOM     66  C   UNL A   1      39.021  23.578  26.558  1.00  0.00     0.104 A 
ATOM     67  C   UNL A   1      37.883  23.079  25.910  1.00  0.00     0.232 A 
ATOM     68  Cl  UNL A   1      39.284  25.207  27.058  1.00  0.00    -0.078 Cl
BRANCH  67  69
ATOM     69  O   UNL A   1      36.675  23.659  25.719  1.00  0.00    -0.476 OA
BRANCH  69  70
ATOM     70  C   UNL A   1      35.465  22.929  25.584  1.00  0.00     0.235 C 
BRANCH  70  71
ATOM     71  C   UNL A   1      34.384  23.244  26.579  1.00  0.00     0.027 C 
ATOM     72  C   UNL A   1      33.198  24.103  26.212  1.00  0.00     0.007 C 
ATOM     73  C   UNL A   1      32.982  22.671  26.613  1.00  0.00     0.007 C 
ENDBRANCH  70  71
ENDBRANCH  69  70
ENDBRANCH  67  69
ENDBRANCH  60  62
ENDBRANCH  59  60
ENDBRANCH  58  59
ENDBRANCH   1  58
TORSDOF 17
ENDMDL
MODEL 3
REMARK VINA RESULT:      -8.7      4.103      6.732
REMARK SMILES O=C(OCCOCCOC(=O)c1cnc(OCC2CC2)c(Cl)c1)c1ccc(-c2c3nc(c(-c4ccccc4)c4ccc([nH]4)c(-c4ccccc4)c4nc(c(-c5ccccc5)c5ccc2[nH]5)C=C4)C=C3)cc1
REMARK SMILES IDX 7 1 6 2 5 3 4 4 3 5 2 6 1 7 24 8 25 9 71 10 26 11 70 12
REMARK SMILES IDX 27 13 28 14 29 15 64 16 30 17 69 18 63 19 65 20 31 21 68 22
REMARK SMILES IDX 62 23 61 24 32 26 54 27 39 28 53 29 40 30 43 31 52 32 66 33
REMARK SMILES IDX 41 34 42 35 51 37 67 38 44 39 33 40 34 41 38 42 35 43 37 44
REMARK SMILES IDX 36 45 55 46 56 47 60 48 57 49 59 50 58 51 45 52 46 53 50 54
REMARK SMILES IDX 47 55 49 56 48 57 8 58 9 59 10 60 11 61 12 62 13 63 23 64
REMARK SMILES IDX 14 65 21 66 15 67 22 68 16 69 17 70 18 71 19 72 20 73
REMARK H PARENT 65 25 43 36
REMARK Flexibility Score: inf
ROOT
ATOM      1  C   UNL A   1      33.326  33.313  27.623  1.00  0.00     0.202 C 
ENDROOT
BRANCH   1   2
ATOM      2  O   UNL A   1      33.148  34.167  28.759  1.00  0.00    -0.374 OA
BRANCH   2   3
ATOM      3  C   UNL A   1      34.327  34.483  29.500  1.00  0.00     0.202 C 
BRANCH   3   4
ATOM      4  C   UNL A   1      34.186  34.381  31.021  1.00  0.00     0.261 C 
BRANCH   4   5
ATOM      5  O   UNL A   1      34.384  33.024  31.449  1.00  0.00    -0.460 OA
BRANCH   5   6
ATOM      6  C   UNL A   1      35.444  32.518  32.120  1.00  0.00     0.338 C 
ATOM      7  O   UNL A   1      35.460  32.580  33.348  1.00  0.00    -0.246 OA
BRANCH   6   8
ATOM      8  C   UNL A   1      36.613  31.892  31.439  1.00  0.00     0.060 A 
ATOM      9  C   UNL A   1      36.971  32.133  30.111  1.00  0.00     0.016 A 
ATOM     10  C   UNL A   1      37.468  31.104  32.224  1.00  0.00     0.016 A 
ATOM     11  C   UNL A   1      38.108  31.577  29.553  1.00  0.00     0.010 A 
ATOM     12  C   UNL A   1      38.647  30.581  31.686  1.00  0.00     0.010 A 
ATOM     13  C   UNL A   1      38.964  30.821  30.344  1.00  0.00    -0.014 A 
BRANCH  13  14
ATOM     14  C   UNL A   1      40.165  30.259  29.712  1.00  0.00     0.031 A 
ATOM     15  C   UNL A   1      41.405  31.089  29.674  1.00  0.00     0.074 A 
ATOM     16  C   UNL A   1      40.143  28.983  29.283  1.00  0.00     0.049 A 
ATOM     17  N   UNL A   1      42.549  30.834  29.102  1.00  0.00    -0.248 NA
ATOM     18  C   UNL A   1      41.353  32.378  30.386  1.00  0.00     0.031 C 
ATOM     19  C   UNL A   1      39.004  28.069  29.411  1.00  0.00     0.029 A 
ATOM     20  N   UNL A   1      41.110  28.228  28.680  1.00  0.00    -0.354 N 
ATOM     21  C   UNL A   1      43.340  31.947  29.348  1.00  0.00     0.074 A 
ATOM     22  C   UNL A   1      42.553  32.874  30.128  1.00  0.00     0.031 C 
ATOM     23  C   UNL A   1      39.346  26.869  28.914  1.00  0.00     0.029 A 
ATOM     24  C   UNL A   1      40.691  26.958  28.362  1.00  0.00     0.049 A 
ATOM     25  H   UNL A   1      42.017  28.560  28.492  1.00  0.00     0.167 HD
ATOM     26  C   UNL A   1      44.606  32.171  28.931  1.00  0.00     0.031 A 
ATOM     27  C   UNL A   1      41.315  26.000  27.654  1.00  0.00     0.031 A 
ATOM     28  C   UNL A   1      45.349  31.224  28.146  1.00  0.00     0.049 A 
ATOM     29  C   UNL A   1      42.683  26.317  27.113  1.00  0.00     0.074 A 
ATOM     30  C   UNL A   1      46.620  31.343  27.619  1.00  0.00     0.029 A 
ATOM     31  N   UNL A   1      44.870  29.974  27.775  1.00  0.00    -0.354 N 
ATOM     32  N   UNL A   1      43.412  27.393  27.298  1.00  0.00    -0.248 NA
ATOM     33  C   UNL A   1      43.303  25.307  26.249  1.00  0.00     0.031 C 
ATOM     34  C   UNL A   1      46.886  30.187  26.878  1.00  0.00     0.029 A 
ATOM     35  C   UNL A   1      45.806  29.322  26.995  1.00  0.00     0.049 A 
ATOM     36  H   UNL A   1      43.992  29.607  28.029  1.00  0.00     0.167 HD
ATOM     37  C   UNL A   1      44.582  27.186  26.584  1.00  0.00     0.074 A 
ATOM     38  C   UNL A   1      44.473  25.870  25.984  1.00  0.00     0.031 C 
ATOM     39  C   UNL A   1      45.648  28.009  26.424  1.00  0.00     0.031 A 
BRANCH  26  40
ATOM     40  C   UNL A   1      45.199  33.517  29.231  1.00  0.00    -0.014 A 
ATOM     41  C   UNL A   1      45.822  33.798  30.457  1.00  0.00     0.009 A 
ATOM     42  C   UNL A   1      45.099  34.535  28.270  1.00  0.00     0.009 A 
ATOM     43  C   UNL A   1      46.299  35.084  30.727  1.00  0.00     0.001 A 
ATOM     44  C   UNL A   1      45.599  35.811  28.533  1.00  0.00     0.001 A 
ATOM     45  C   UNL A   1      46.188  36.088  29.765  1.00  0.00     0.000 A 
ENDBRANCH  26  40
BRANCH  27  46
ATOM     46  C   UNL A   1      40.629  24.717  27.341  1.00  0.00    -0.014 A 
ATOM     47  C   UNL A   1      41.053  23.508  27.913  1.00  0.00     0.009 A 
ATOM     48  C   UNL A   1      39.548  24.692  26.442  1.00  0.00     0.009 A 
ATOM     49  C   UNL A   1      40.429  22.304  27.571  1.00  0.00     0.001 A 
ATOM     50  C   UNL A   1      38.904  23.493  26.128  1.00  0.00     0.001 A 
ATOM     51  C   UNL A   1      39.353  22.298  26.683  1.00  0.00     0.000 A 
ENDBRANCH  27  46
BRANCH  39  52
ATOM     52  C   UNL A   1      46.782  27.488  25.592  1.00  0.00    -0.014 A 
ATOM     53  C   UNL A   1      46.868  27.781  24.223  1.00  0.00     0.009 A 
ATOM     54  C   UNL A   1      47.810  26.756  26.204  1.00  0.00     0.009 A 
ATOM     55  C   UNL A   1      47.955  27.328  23.477  1.00  0.00     0.001 A 
ATOM     56  C   UNL A   1      48.911  26.332  25.463  1.00  0.00     0.001 A 
ATOM     57  C   UNL A   1      48.979  26.613  24.099  1.00  0.00     0.000 A 
ENDBRANCH  39  52
ENDBRANCH  13  14
ENDBRANCH   6   8
ENDBRANCH   5   6
ENDBRANCH   4   5
ENDBRANCH   3   4
ENDBRANCH   2   3
ENDBRANCH   1   2
BRANCH   1  58
ATOM     58  C   UNL A   1      34.177  32.105  28.032  1.00  0.00     0.261 C 
BRANCH  58  59
ATOM     59  O   UNL A   1      33.375  30.915  27.935  1.00  0.00    -0.460 OA
BRANCH  59  60
ATOM     60  C   UNL A   1      33.896  29.931  27.153  1.00  0.00     0.339 C 
ATOM     61  O   UNL A   1      35.014  29.463  27.168  1.00  0.00    -0.246 OA
BRANCH  60  62
ATOM     62  C   UNL A   1      32.759  29.347  26.440  1.00  0.00     0.080 A 
ATOM     63  C   UNL A   1      32.101  30.117  25.506  1.00  0.00     0.131 A 
ATOM     64  C   UNL A   1      32.404  28.013  26.572  1.00  0.00     0.043 A 
ATOM     65  N   UNL A   1      31.224  29.600  24.617  1.00  0.00    -0.220 NA
ATOM     66  C   UNL A   1      31.445  27.467  25.713  1.00  0.00     0.104 A 
ATOM     67  C   UNL A   1      30.936  28.270  24.685  1.00  0.00     0.232 A 
ATOM     68  Cl  UNL A   1      31.027  25.826  26.035  1.00  0.00    -0.078 Cl
BRANCH  67  69
ATOM     69  O   UNL A   1      30.195  27.923  23.606  1.00  0.00    -0.476 OA
BRANCH  69  70
ATOM     70  C   UNL A   1      29.923  28.801  22.524  1.00  0.00     0.235 C 
BRANCH  70  71
ATOM     71  C   UNL A   1      28.498  29.262  22.384  1.00  0.00     0.027 C 
ATOM     72  C   UNL A   1      27.918  30.321  23.290  1.00  0.00     0.007 C 
ATOM     73  C   UNL A   1      28.019  30.580  21.813  1.00  0.00     0.007 C 
ENDBRANCH  70  71
ENDBRANCH  69  70
ENDBRANCH  67  69
ENDBRANCH  60  62
ENDBRANCH  59  60
ENDBRANCH  58  59
ENDBRANCH   1  58
TORSDOF 17
ENDMDL
