MODEL 1
REMARK VINA RESULT:     -10.7      0.000      0.000
REMARK SMILES CC(C)CCc1cc2c(cc1Cl)C=C(C(=O)OCCOCCOC(=O)c1ccc(-c3c4nc(c(-c5ccccc5)c5ccc([nH]5)c(-c5ccccc5)c5nc(c(-c6ccccc6)c6ccc3[nH]6)C=C5)C=C4)cc1)[C@@H](C(F)(F)F)O2
REMARK SMILES IDX 19 1 18 2 17 3 15 4 16 5 14 6 6 7 7 8 11 9 8 10 10 11 12 12
REMARK SMILES IDX 9 13 79 14 13 15 74 16 5 17 4 18 2 19 1 20 3 21 75 22 76 23
REMARK SMILES IDX 77 24 78 25 20 26 21 27 22 28 23 29 24 30 25 31 26 32 27 33
REMARK SMILES IDX 73 34 28 35 72 36 29 37 30 38 31 39 66 40 32 41 71 42 65 43
REMARK SMILES IDX 67 44 33 45 70 46 64 47 63 48 34 50 56 51 41 52 55 53 42 54
REMARK SMILES IDX 45 55 54 56 68 57 43 58 44 59 53 61 69 62 46 63 35 64 36 65
REMARK SMILES IDX 40 66 37 67 39 68 38 69 57 70 58 71 62 72 59 73 61 74 60 75
REMARK SMILES IDX 47 76 48 77 52 78 49 79 51 80 50 81
REMARK H PARENT 67 49 45 60
REMARK Flexibility Score: inf
ROOT
ATOM      1  C   UNL A   1      38.779  21.974  25.753  1.00  0.00     0.202 C 
ENDROOT
BRANCH   1   2
ATOM      2  C   UNL A   1      37.402  21.314  25.637  1.00  0.00     0.261 C 
BRANCH   2   3
ATOM      3  O   UNL A   1      36.525  22.060  24.783  1.00  0.00    -0.460 OA
BRANCH   3   4
ATOM      4  C   UNL A   1      35.316  22.335  25.326  1.00  0.00     0.338 C 
ATOM      5  O   UNL A   1      34.851  21.870  26.355  1.00  0.00    -0.246 OA
BRANCH   4   6
ATOM      6  C   UNL A   1      34.666  23.411  24.557  1.00  0.00     0.087 C 
ATOM      7  C   UNL A   1      32.291  27.624  23.261  1.00  0.00    -0.026 A 
ATOM      8  C   UNL A   1      32.611  26.432  22.591  1.00  0.00     0.052 A 
ATOM      9  C   UNL A   1      32.937  27.875  24.488  1.00  0.00     0.045 A 
ATOM     10  C   UNL A   1      33.397  25.451  23.198  1.00  0.00     0.128 A 
ATOM     11  C   UNL A   1      33.778  26.921  25.067  1.00  0.00     0.032 A 
ATOM     12  Cl  UNL A   1      32.708  29.353  25.356  1.00  0.00    -0.084 Cl
ATOM     13  C   UNL A   1      33.964  25.686  24.447  1.00  0.00     0.019 A 
ATOM     14  O   UNL A   1      33.553  24.284  22.504  1.00  0.00    -0.475 OA
ATOM     15  C   UNL A   1      34.692  24.628  25.116  1.00  0.00     0.027 C 
ATOM     16  C   UNL A   1      34.022  23.113  23.230  1.00  0.00     0.316 C 
BRANCH   7  17
ATOM     17  C   UNL A   1      31.258  28.602  22.733  1.00  0.00     0.037 C 
BRANCH  17  18
ATOM     18  C   UNL A   1      29.783  28.412  23.121  1.00  0.00     0.008 C 
BRANCH  18  19
ATOM     19  C   UNL A   1      28.749  29.291  22.382  1.00  0.00    -0.017 C 
ATOM     20  C   UNL A   1      27.648  29.824  23.298  1.00  0.00     0.007 C 
ATOM     21  C   UNL A   1      29.475  30.452  21.696  1.00  0.00     0.007 C 
ENDBRANCH  18  19
ENDBRANCH  17  18
ENDBRANCH   7  17
BRANCH  16  22
ATOM     22  C   UNL A   1      32.880  22.094  23.360  1.00  0.00     0.430 C 
ATOM     23  F   UNL A   1      32.111  22.350  24.446  1.00  0.00    -0.167 F 
ATOM     24  F   UNL A   1      32.055  22.135  22.286  1.00  0.00    -0.167 F 
ATOM     25  F   UNL A   1      33.334  20.827  23.473  1.00  0.00    -0.167 F 
ENDBRANCH  16  22
ENDBRANCH   4   6
ENDBRANCH   3   4
ENDBRANCH   2   3
ENDBRANCH   1   2
BRANCH   1  26
ATOM     26  O   UNL A   1      39.703  21.426  26.689  1.00  0.00    -0.374 OA
BRANCH  26  27
ATOM     27  C   UNL A   1      40.860  20.752  26.197  1.00  0.00     0.202 C 
BRANCH  27  28
ATOM     28  C   UNL A   1      42.187  21.519  26.139  1.00  0.00     0.261 C 
BRANCH  28  29
ATOM     29  O   UNL A   1      42.142  22.647  25.249  1.00  0.00    -0.460 OA
BRANCH  29  30
ATOM     30  C   UNL A   1      43.106  23.577  25.457  1.00  0.00     0.338 C 
ATOM     31  O   UNL A   1      44.169  23.690  24.867  1.00  0.00    -0.246 OA
BRANCH  30  32
ATOM     32  C   UNL A   1      42.596  24.598  26.390  1.00  0.00     0.060 A 
ATOM     33  C   UNL A   1      41.503  24.337  27.217  1.00  0.00     0.016 A 
ATOM     34  C   UNL A   1      43.264  25.828  26.456  1.00  0.00     0.016 A 
ATOM     35  C   UNL A   1      41.092  25.311  28.129  1.00  0.00     0.010 A 
ATOM     36  C   UNL A   1      42.850  26.799  27.368  1.00  0.00     0.010 A 
ATOM     37  C   UNL A   1      41.773  26.540  28.224  1.00  0.00    -0.014 A 
BRANCH  37  38
ATOM     38  C   UNL A   1      41.436  27.494  29.309  1.00  0.00     0.031 A 
ATOM     39  C   UNL A   1      40.307  28.470  29.175  1.00  0.00     0.074 A 
ATOM     40  C   UNL A   1      42.179  27.471  30.432  1.00  0.00     0.049 A 
ATOM     41  N   UNL A   1      39.834  29.299  30.071  1.00  0.00    -0.248 NA
ATOM     42  C   UNL A   1      39.623  28.531  27.875  1.00  0.00     0.031 C 
ATOM     43  C   UNL A   1      43.323  26.586  30.660  1.00  0.00     0.029 A 
ATOM     44  N   UNL A   1      42.080  28.195  31.594  1.00  0.00    -0.354 N 
ATOM     45  C   UNL A   1      38.786  29.968  29.453  1.00  0.00     0.074 A 
ATOM     46  C   UNL A   1      38.723  29.485  28.090  1.00  0.00     0.031 C 
ATOM     47  C   UNL A   1      43.790  26.786  31.901  1.00  0.00     0.029 A 
ATOM     48  C   UNL A   1      43.008  27.840  32.542  1.00  0.00     0.049 A 
ATOM     49  H   UNL A   1      41.407  28.901  31.734  1.00  0.00     0.167 HD
ATOM     50  C   UNL A   1      37.942  30.883  29.987  1.00  0.00     0.031 A 
ATOM     51  C   UNL A   1      43.208  28.299  33.793  1.00  0.00     0.031 A 
ATOM     52  C   UNL A   1      38.028  31.372  31.340  1.00  0.00     0.049 A 
ATOM     53  C   UNL A   1      42.286  29.351  34.345  1.00  0.00     0.074 A 
ATOM     54  C   UNL A   1      37.190  32.271  31.979  1.00  0.00     0.029 A 
ATOM     55  N   UNL A   1      39.009  31.021  32.256  1.00  0.00    -0.354 N 
ATOM     56  N   UNL A   1      41.243  29.908  33.780  1.00  0.00    -0.248 NA
ATOM     57  C   UNL A   1      42.555  29.825  35.710  1.00  0.00     0.031 C 
ATOM     58  C   UNL A   1      37.710  32.527  33.248  1.00  0.00     0.029 A 
ATOM     59  C   UNL A   1      38.818  31.717  33.439  1.00  0.00     0.049 A 
ATOM     60  H   UNL A   1      39.732  30.375  32.090  1.00  0.00     0.167 HD
ATOM     61  C   UNL A   1      40.715  30.778  34.726  1.00  0.00     0.074 A 
ATOM     62  C   UNL A   1      41.542  30.660  35.909  1.00  0.00     0.031 C 
ATOM     63  C   UNL A   1      39.642  31.599  34.617  1.00  0.00     0.031 A 
BRANCH  50  64
ATOM     64  C   UNL A   1      36.835  31.425  29.123  1.00  0.00    -0.014 A 
ATOM     65  C   UNL A   1      36.886  32.752  28.665  1.00  0.00     0.009 A 
ATOM     66  C   UNL A   1      35.678  30.669  28.875  1.00  0.00     0.009 A 
ATOM     67  C   UNL A   1      35.796  33.318  28.001  1.00  0.00     0.001 A 
ATOM     68  C   UNL A   1      34.602  31.227  28.181  1.00  0.00     0.001 A 
ATOM     69  C   UNL A   1      34.655  32.555  27.758  1.00  0.00     0.000 A 
ENDBRANCH  50  64
BRANCH  51  70
ATOM     70  C   UNL A   1      44.307  27.720  34.613  1.00  0.00    -0.014 A 
ATOM     71  C   UNL A   1      45.606  28.250  34.543  1.00  0.00     0.009 A 
ATOM     72  C   UNL A   1      44.080  26.597  35.421  1.00  0.00     0.009 A 
ATOM     73  C   UNL A   1      46.659  27.648  35.235  1.00  0.00     0.001 A 
ATOM     74  C   UNL A   1      45.128  26.018  36.142  1.00  0.00     0.001 A 
ATOM     75  C   UNL A   1      46.418  26.536  36.038  1.00  0.00     0.000 A 
ENDBRANCH  51  70
BRANCH  63  76
ATOM     76  C   UNL A   1      39.266  32.442  35.808  1.00  0.00    -0.014 A 
ATOM     77  C   UNL A   1      38.341  31.951  36.745  1.00  0.00     0.009 A 
ATOM     78  C   UNL A   1      39.723  33.763  35.938  1.00  0.00     0.009 A 
ATOM     79  C   UNL A   1      37.861  32.770  37.768  1.00  0.00     0.001 A 
ATOM     80  C   UNL A   1      39.269  34.569  36.985  1.00  0.00     0.001 A 
ATOM     81  C   UNL A   1      38.328  34.076  37.890  1.00  0.00     0.000 A 
ENDBRANCH  63  76
ENDBRANCH  37  38
ENDBRANCH  30  32
ENDBRANCH  29  30
ENDBRANCH  28  29
ENDBRANCH  27  28
ENDBRANCH  26  27
ENDBRANCH   1  26
TORSDOF 18
ENDMDL
MODEL 2
REMARK VINA RESULT:     -10.6      3.331      8.764
REMARK SMILES CC(C)CCc1cc2c(cc1Cl)C=C(C(=O)OCCOCCOC(=O)c1ccc(-c3c4nc(c(-c5ccccc5)c5ccc([nH]5)c(-c5ccccc5)c5nc(c(-c6ccccc6)c6ccc3[nH]6)C=C5)C=C4)cc1)[C@@H](C(F)(F)F)O2
REMARK SMILES IDX 19 1 18 2 17 3 15 4 16 5 14 6 6 7 7 8 11 9 8 10 10 11 12 12
REMARK SMILES IDX 9 13 79 14 13 15 74 16 5 17 4 18 2 19 1 20 3 21 75 22 76 23
REMARK SMILES IDX 77 24 78 25 20 26 21 27 22 28 23 29 24 30 25 31 26 32 27 33
REMARK SMILES IDX 73 34 28 35 72 36 29 37 30 38 31 39 66 40 32 41 71 42 65 43
REMARK SMILES IDX 67 44 33 45 70 46 64 47 63 48 34 50 56 51 41 52 55 53 42 54
REMARK SMILES IDX 45 55 54 56 68 57 43 58 44 59 53 61 69 62 46 63 35 64 36 65
REMARK SMILES IDX 40 66 37 67 39 68 38 69 57 70 58 71 62 72 59 73 61 74 60 75
REMARK SMILES IDX 47 76 48 77 52 78 49 79 51 80 50 81
REMARK H PARENT 67 49 45 60
REMARK Flexibility Score: inf
ROOT
ATOM      1  C   UNL A   1      33.411  30.439  27.434  1.00  0.00     0.202 C 
ENDROOT
BRANCH   1   2
ATOM      2  C   UNL A   1      34.305  29.348  26.835  1.00  0.00     0.261 C 
BRANCH   2   3
ATOM      3  O   UNL A   1      33.591  28.119  26.648  1.00  0.00    -0.460 OA
BRANCH   3   4
ATOM      4  C   UNL A   1      33.601  27.656  25.376  1.00  0.00     0.338 C 
ATOM      5  O   UNL A   1      33.997  28.246  24.384  1.00  0.00    -0.246 OA
BRANCH   4   6
ATOM      6  C   UNL A   1      33.180  26.243  25.366  1.00  0.00     0.087 C 
ATOM      7  C   UNL A   1      33.065  21.274  24.762  1.00  0.00    -0.026 A 
ATOM      8  C   UNL A   1      32.098  22.251  25.053  1.00  0.00     0.052 A 
ATOM      9  C   UNL A   1      34.419  21.644  24.879  1.00  0.00     0.045 A 
ATOM     10  C   UNL A   1      32.458  23.581  25.272  1.00  0.00     0.128 A 
ATOM     11  C   UNL A   1      34.782  22.964  25.164  1.00  0.00     0.032 A 
ATOM     12  Cl  UNL A   1      35.701  20.506  24.651  1.00  0.00    -0.084 Cl
ATOM     13  C   UNL A   1      33.801  23.943  25.307  1.00  0.00     0.019 A 
ATOM     14  O   UNL A   1      31.431  24.469  25.433  1.00  0.00    -0.475 OA
ATOM     15  C   UNL A   1      34.166  25.339  25.431  1.00  0.00     0.027 C 
ATOM     16  C   UNL A   1      31.721  25.886  25.281  1.00  0.00     0.316 C 
BRANCH   7  17
ATOM     17  C   UNL A   1      32.696  19.880  24.291  1.00  0.00     0.037 C 
BRANCH  17  18
ATOM     18  C   UNL A   1      32.847  18.698  25.264  1.00  0.00     0.008 C 
BRANCH  18  19
ATOM     19  C   UNL A   1      32.956  17.290  24.637  1.00  0.00    -0.017 C 
ATOM     20  C   UNL A   1      34.215  17.103  23.792  1.00  0.00     0.007 C 
ATOM     21  C   UNL A   1      32.905  16.239  25.750  1.00  0.00     0.007 C 
ENDBRANCH  18  19
ENDBRANCH  17  18
ENDBRANCH   7  17
BRANCH  16  22
ATOM     22  C   UNL A   1      31.074  26.410  23.990  1.00  0.00     0.430 C 
ATOM     23  F   UNL A   1      29.963  25.703  23.672  1.00  0.00    -0.167 F 
ATOM     24  F   UNL A   1      30.684  27.701  24.121  1.00  0.00    -0.167 F 
ATOM     25  F   UNL A   1      31.913  26.347  22.933  1.00  0.00    -0.167 F 
ENDBRANCH  16  22
ENDBRANCH   4   6
ENDBRANCH   3   4
ENDBRANCH   2   3
ENDBRANCH   1   2
BRANCH   1  26
ATOM     26  O   UNL A   1      32.217  30.777  26.735  1.00  0.00    -0.374 OA
BRANCH  26  27
ATOM     27  C   UNL A   1      31.728  32.115  26.818  1.00  0.00     0.202 C 
BRANCH  27  28
ATOM     28  C   UNL A   1      32.681  33.215  27.305  1.00  0.00     0.261 C 
BRANCH  28  29
ATOM     29  O   UNL A   1      32.156  33.955  28.420  1.00  0.00    -0.460 OA
BRANCH  29  30
ATOM     30  C   UNL A   1      32.904  35.019  28.802  1.00  0.00     0.338 C 
ATOM     31  O   UNL A   1      32.596  36.200  28.751  1.00  0.00    -0.246 OA
BRANCH  30  32
ATOM     32  C   UNL A   1      34.107  34.535  29.501  1.00  0.00     0.060 A 
ATOM     33  C   UNL A   1      34.027  33.992  30.784  1.00  0.00     0.016 A 
ATOM     34  C   UNL A   1      35.334  34.597  28.828  1.00  0.00     0.016 A 
ATOM     35  C   UNL A   1      35.183  33.490  31.384  1.00  0.00     0.010 A 
ATOM     36  C   UNL A   1      36.488  34.094  29.431  1.00  0.00     0.010 A 
ATOM     37  C   UNL A   1      36.417  33.520  30.706  1.00  0.00    -0.014 A 
BRANCH  37  38
ATOM     38  C   UNL A   1      37.598  32.832  31.282  1.00  0.00     0.031 A 
ATOM     39  C   UNL A   1      38.201  33.263  32.584  1.00  0.00     0.074 A 
ATOM     40  C   UNL A   1      38.132  31.802  30.598  1.00  0.00     0.049 A 
ATOM     41  N   UNL A   1      39.173  32.702  33.258  1.00  0.00    -0.248 NA
ATOM     42  C   UNL A   1      37.652  34.474  33.210  1.00  0.00     0.031 C 
ATOM     43  C   UNL A   1      37.648  31.316  29.304  1.00  0.00     0.029 A 
ATOM     44  N   UNL A   1      39.181  30.969  30.897  1.00  0.00    -0.354 N 
ATOM     45  C   UNL A   1      39.342  33.479  34.397  1.00  0.00     0.074 A 
ATOM     46  C   UNL A   1      38.407  34.579  34.298  1.00  0.00     0.031 C 
ATOM     47  C   UNL A   1      38.368  30.245  28.943  1.00  0.00     0.029 A 
ATOM     48  C   UNL A   1      39.389  29.990  29.955  1.00  0.00     0.049 A 
ATOM     49  H   UNL A   1      39.731  31.063  31.708  1.00  0.00     0.167 HD
ATOM     50  C   UNL A   1      40.186  33.274  35.436  1.00  0.00     0.031 A 
ATOM     51  C   UNL A   1      40.293  28.991  29.909  1.00  0.00     0.031 A 
ATOM     52  C   UNL A   1      41.128  32.185  35.512  1.00  0.00     0.049 A 
ATOM     53  C   UNL A   1      41.251  28.815  31.054  1.00  0.00     0.074 A 
ATOM     54  C   UNL A   1      41.996  31.876  36.547  1.00  0.00     0.029 A 
ATOM     55  N   UNL A   1      41.340  31.240  34.519  1.00  0.00    -0.354 N 
ATOM     56  N   UNL A   1      41.338  29.503  32.167  1.00  0.00    -0.248 NA
ATOM     57  C   UNL A   1      42.223  27.717  30.949  1.00  0.00     0.031 C 
ATOM     58  C   UNL A   1      42.788  30.800  36.146  1.00  0.00     0.029 A 
ATOM     59  C   UNL A   1      42.352  30.374  34.902  1.00  0.00     0.049 A 
ATOM     60  H   UNL A   1      40.846  31.193  33.669  1.00  0.00     0.167 HD
ATOM     61  C   UNL A   1      42.353  28.908  32.905  1.00  0.00     0.074 A 
ATOM     62  C   UNL A   1      42.839  27.790  32.122  1.00  0.00     0.031 C 
ATOM     63  C   UNL A   1      42.835  29.261  34.121  1.00  0.00     0.031 A 
BRANCH  50  64
ATOM     64  C   UNL A   1      40.140  34.233  36.595  1.00  0.00    -0.014 A 
ATOM     65  C   UNL A   1      41.041  35.309  36.654  1.00  0.00     0.009 A 
ATOM     66  C   UNL A   1      39.298  33.997  37.694  1.00  0.00     0.009 A 
ATOM     67  C   UNL A   1      41.120  36.110  37.794  1.00  0.00     0.001 A 
ATOM     68  C   UNL A   1      39.355  34.820  38.820  1.00  0.00     0.001 A 
ATOM     69  C   UNL A   1      40.276  35.867  38.876  1.00  0.00     0.000 A 
ENDBRANCH  50  64
BRANCH  51  70
ATOM     70  C   UNL A   1      40.288  28.059  28.749  1.00  0.00    -0.014 A 
ATOM     71  C   UNL A   1      39.652  26.810  28.839  1.00  0.00     0.009 A 
ATOM     72  C   UNL A   1      40.972  28.384  27.568  1.00  0.00     0.009 A 
ATOM     73  C   UNL A   1      39.729  25.893  27.788  1.00  0.00     0.001 A 
ATOM     74  C   UNL A   1      41.018  27.480  26.504  1.00  0.00     0.001 A 
ATOM     75  C   UNL A   1      40.408  26.232  26.620  1.00  0.00     0.000 A 
ENDBRANCH  51  70
BRANCH  63  76
ATOM     76  C   UNL A   1      43.945  28.434  34.716  1.00  0.00    -0.014 A 
ATOM     77  C   UNL A   1      43.634  27.360  35.567  1.00  0.00     0.009 A 
ATOM     78  C   UNL A   1      45.292  28.789  34.542  1.00  0.00     0.009 A 
ATOM     79  C   UNL A   1      44.641  26.678  36.251  1.00  0.00     0.001 A 
ATOM     80  C   UNL A   1      46.301  28.081  35.198  1.00  0.00     0.001 A 
ATOM     81  C   UNL A   1      45.974  27.037  36.063  1.00  0.00     0.000 A 
ENDBRANCH  63  76
ENDBRANCH  37  38
ENDBRANCH  30  32
ENDBRANCH  29  30
ENDBRANCH  28  29
ENDBRANCH  27  28
ENDBRANCH  26  27
ENDBRANCH   1  26
TORSDOF 18
ENDMDL
MODEL 3
REMARK VINA RESULT:     -10.5      3.341      8.472
REMARK SMILES CC(C)CCc1cc2c(cc1Cl)C=C(C(=O)OCCOCCOC(=O)c1ccc(-c3c4nc(c(-c5ccccc5)c5ccc([nH]5)c(-c5ccccc5)c5nc(c(-c6ccccc6)c6ccc3[nH]6)C=C5)C=C4)cc1)[C@@H](C(F)(F)F)O2
REMARK SMILES IDX 19 1 18 2 17 3 15 4 16 5 14 6 6 7 7 8 11 9 8 10 10 11 12 12
REMARK SMILES IDX 9 13 79 14 13 15 74 16 5 17 4 18 2 19 1 20 3 21 75 22 76 23
REMARK SMILES IDX 77 24 78 25 20 26 21 27 22 28 23 29 24 30 25 31 26 32 27 33
REMARK SMILES IDX 73 34 28 35 72 36 29 37 30 38 31 39 66 40 32 41 71 42 65 43
REMARK SMILES IDX 67 44 33 45 70 46 64 47 63 48 34 50 56 51 41 52 55 53 42 54
REMARK SMILES IDX 45 55 54 56 68 57 43 58 44 59 53 61 69 62 46 63 35 64 36 65
REMARK SMILES IDX 40 66 37 67 39 68 38 69 57 70 58 71 62 72 59 73 61 74 60 75
REMARK SMILES IDX 47 76 48 77 52 78 49 79 51 80 50 81
REMARK H PARENT 67 49 45 60
REMARK Flexibility Score: inf
ROOT
ATOM      1  C   UNL A   1      33.273  30.403  27.458  1.00  0.00     0.202 C 
ENDROOT
BRANCH   1   2
ATOM      2  C   UNL A   1      34.048  29.201  26.912  1.00  0.00     0.261 C 
BRANCH   2   3
ATOM      3  O   UNL A   1      33.172  28.127  26.543  1.00  0.00    -0.460 OA
BRANCH   3   4
ATOM      4  C   UNL A   1      33.425  27.594  25.324  1.00  0.00     0.338 C 
ATOM      5  O   UNL A   1      34.003  28.133  24.394  1.00  0.00    -0.246 OA
BRANCH   4   6
ATOM      6  C   UNL A   1      33.012  26.179  25.313  1.00  0.00     0.087 C 
ATOM      7  C   UNL A   1      32.955  21.201  24.781  1.00  0.00    -0.026 A 
ATOM      8  C   UNL A   1      31.968  22.176  25.003  1.00  0.00     0.052 A 
ATOM      9  C   UNL A   1      34.299  21.581  24.965  1.00  0.00     0.045 A 
ATOM     10  C   UNL A   1      32.309  23.512  25.222  1.00  0.00     0.128 A 
ATOM     11  C   UNL A   1      34.640  22.906  25.250  1.00  0.00     0.032 A 
ATOM     12  Cl  UNL A   1      35.597  20.447  24.825  1.00  0.00    -0.084 Cl
ATOM     13  C   UNL A   1      33.647  23.882  25.323  1.00  0.00     0.019 A 
ATOM     14  O   UNL A   1      31.271  24.396  25.312  1.00  0.00    -0.475 OA
ATOM     15  C   UNL A   1      33.998  25.282  25.446  1.00  0.00     0.027 C 
ATOM     16  C   UNL A   1      31.562  25.812  25.154  1.00  0.00     0.316 C 
BRANCH   7  17
ATOM     17  C   UNL A   1      32.620  19.797  24.313  1.00  0.00     0.037 C 
BRANCH  17  18
ATOM     18  C   UNL A   1      32.839  18.617  25.273  1.00  0.00     0.008 C 
BRANCH  18  19
ATOM     19  C   UNL A   1      33.039  17.225  24.632  1.00  0.00    -0.017 C 
ATOM     20  C   UNL A   1      34.448  17.014  24.080  1.00  0.00     0.007 C 
ATOM     21  C   UNL A   1      32.707  16.143  25.664  1.00  0.00     0.007 C 
ENDBRANCH  18  19
ENDBRANCH  17  18
ENDBRANCH   7  17
BRANCH  16  22
ATOM     22  C   UNL A   1      30.983  26.313  23.822  1.00  0.00     0.430 C 
ATOM     23  F   UNL A   1      29.969  25.522  23.396  1.00  0.00    -0.167 F 
ATOM     24  F   UNL A   1      30.473  27.562  23.942  1.00  0.00    -0.167 F 
ATOM     25  F   UNL A   1      31.911  26.348  22.841  1.00  0.00    -0.167 F 
ENDBRANCH  16  22
ENDBRANCH   4   6
ENDBRANCH   3   4
ENDBRANCH   2   3
ENDBRANCH   1   2
BRANCH   1  26
ATOM     26  O   UNL A   1      32.120  30.834  26.739  1.00  0.00    -0.374 OA
BRANCH  26  27
ATOM     27  C   UNL A   1      31.690  32.186  26.880  1.00  0.00     0.202 C 
BRANCH  27  28
ATOM     28  C   UNL A   1      32.729  33.253  27.250  1.00  0.00     0.261 C 
BRANCH  28  29
ATOM     29  O   UNL A   1      32.315  34.077  28.353  1.00  0.00    -0.460 OA
BRANCH  29  30
ATOM     30  C   UNL A   1      33.170  35.080  28.669  1.00  0.00     0.338 C 
ATOM     31  O   UNL A   1      33.015  36.276  28.477  1.00  0.00    -0.246 OA
BRANCH  30  32
ATOM     32  C   UNL A   1      34.268  34.536  29.487  1.00  0.00     0.060 A 
ATOM     33  C   UNL A   1      34.020  33.950  30.729  1.00  0.00     0.016 A 
ATOM     34  C   UNL A   1      35.569  34.586  28.968  1.00  0.00     0.016 A 
ATOM     35  C   UNL A   1      35.083  33.393  31.443  1.00  0.00     0.010 A 
ATOM     36  C   UNL A   1      36.628  34.029  29.683  1.00  0.00     0.010 A 
ATOM     37  C   UNL A   1      36.390  33.411  30.918  1.00  0.00    -0.014 A 
BRANCH  37  38
ATOM     38  C   UNL A   1      37.476  32.669  31.603  1.00  0.00     0.031 A 
ATOM     39  C   UNL A   1      38.107  31.456  30.990  1.00  0.00     0.074 A 
ATOM     40  C   UNL A   1      37.885  33.106  32.810  1.00  0.00     0.049 A 
ATOM     41  N   UNL A   1      39.126  30.759  31.423  1.00  0.00    -0.248 NA
ATOM     42  C   UNL A   1      37.524  30.957  29.735  1.00  0.00     0.031 C 
ATOM     43  C   UNL A   1      37.320  34.255  33.518  1.00  0.00     0.029 A 
ATOM     44  N   UNL A   1      38.875  32.651  33.645  1.00  0.00    -0.354 N 
ATOM     45  C   UNL A   1      39.321  29.750  30.489  1.00  0.00     0.074 A 
ATOM     46  C   UNL A   1      38.283  29.895  29.491  1.00  0.00     0.031 C 
ATOM     47  C   UNL A   1      38.001  34.444  34.658  1.00  0.00     0.029 A 
ATOM     48  C   UNL A   1      39.022  33.408  34.782  1.00  0.00     0.049 A 
ATOM     49  H   UNL A   1      39.426  31.860  33.447  1.00  0.00     0.167 HD
ATOM     50  C   UNL A   1      40.293  28.807  30.461  1.00  0.00     0.031 A 
ATOM     51  C   UNL A   1      39.886  33.292  35.810  1.00  0.00     0.031 A 
ATOM     52  C   UNL A   1      41.309  28.660  31.473  1.00  0.00     0.049 A 
ATOM     53  C   UNL A   1      40.924  32.206  35.777  1.00  0.00     0.074 A 
ATOM     54  C   UNL A   1      42.359  27.757  31.505  1.00  0.00     0.029 A 
ATOM     55  N   UNL A   1      41.398  29.417  32.632  1.00  0.00    -0.354 N 
ATOM     56  N   UNL A   1      41.154  31.316  34.842  1.00  0.00    -0.248 NA
ATOM     57  C   UNL A   1      41.835  32.117  36.928  1.00  0.00     0.031 C 
ATOM     58  C   UNL A   1      43.030  27.911  32.719  1.00  0.00     0.029 A 
ATOM     59  C   UNL A   1      42.461  28.973  33.402  1.00  0.00     0.049 A 
ATOM     60  H   UNL A   1      40.796  30.158  32.871  1.00  0.00     0.167 HD
ATOM     61  C   UNL A   1      42.248  30.578  35.277  1.00  0.00     0.074 A 
ATOM     62  C   UNL A   1      42.649  31.139  36.552  1.00  0.00     0.031 C 
ATOM     63  C   UNL A   1      42.860  29.532  34.671  1.00  0.00     0.031 A 
BRANCH  50  64
ATOM     64  C   UNL A   1      40.329  27.852  29.298  1.00  0.00    -0.014 A 
ATOM     65  C   UNL A   1      41.014  28.203  28.122  1.00  0.00     0.009 A 
ATOM     66  C   UNL A   1      39.575  26.668  29.313  1.00  0.00     0.009 A 
ATOM     67  C   UNL A   1      40.924  27.404  26.981  1.00  0.00     0.001 A 
ATOM     68  C   UNL A   1      39.513  25.853  28.180  1.00  0.00     0.001 A 
ATOM     69  C   UNL A   1      40.175  26.229  27.011  1.00  0.00     0.000 A 
ENDBRANCH  50  64
BRANCH  51  70
ATOM     70  C   UNL A   1      39.820  34.272  36.929  1.00  0.00    -0.014 A 
ATOM     71  C   UNL A   1      39.106  33.970  38.101  1.00  0.00     0.009 A 
ATOM     72  C   UNL A   1      40.414  35.536  36.808  1.00  0.00     0.009 A 
ATOM     73  C   UNL A   1      38.960  34.924  39.111  1.00  0.00     0.001 A 
ATOM     74  C   UNL A   1      40.298  36.476  37.835  1.00  0.00     0.001 A 
ATOM     75  C   UNL A   1      39.560  36.173  38.979  1.00  0.00     0.000 A 
ENDBRANCH  51  70
BRANCH  63  76
ATOM     76  C   UNL A   1      44.049  28.908  35.355  1.00  0.00    -0.014 A 
ATOM     77  C   UNL A   1      45.346  29.346  35.036  1.00  0.00     0.009 A 
ATOM     78  C   UNL A   1      43.900  27.808  36.214  1.00  0.00     0.009 A 
ATOM     79  C   UNL A   1      46.465  28.682  35.537  1.00  0.00     0.001 A 
ATOM     80  C   UNL A   1      45.023  27.167  36.744  1.00  0.00     0.001 A 
ATOM     81  C   UNL A   1      46.304  27.595  36.393  1.00  0.00     0.000 A 
ENDBRANCH  63  76
ENDBRANCH  37  38
ENDBRANCH  30  32
ENDBRANCH  29  30
ENDBRANCH  28  29
ENDBRANCH  27  28
ENDBRANCH  26  27
ENDBRANCH   1  26
TORSDOF 18
ENDMDL
