MODEL 1
REMARK VINA RESULT:      -9.5      0.000      0.000
REMARK SMILES C[N@H+]1CCO[C@](C)(C(=O)OCCOCCOC(=O)c2ccc(-c3c4nc(c(-c5ccccc5)c5ccc([nH]5)c(-c5ccccc5)c5nc(c(-c6ccccc6)c6ccc3[nH]6)C=C5)C=C4)cc2)C1
REMARK SMILES IDX 14 1 13 2 12 3 11 4 10 5 8 6 9 7 6 8 1 9 2 10 3 11 67 12
REMARK SMILES IDX 4 14 5 15 7 16 15 17 16 18 17 19 18 20 19 21 20 22 66 23
REMARK SMILES IDX 21 24 65 25 22 26 23 27 24 28 59 29 25 30 64 31 58 32 60 33
REMARK SMILES IDX 26 34 63 35 57 36 56 37 27 39 49 40 34 41 48 42 35 43 38 44
REMARK SMILES IDX 47 45 61 46 36 47 37 48 46 50 62 51 39 52 28 53 29 54 33 55
REMARK SMILES IDX 30 56 32 57 31 58 50 59 51 60 55 61 52 62 54 63 53 64 40 65
REMARK SMILES IDX 41 66 45 67 42 68 44 69 43 70
REMARK H PARENT 2 13 60 38 38 49
REMARK Flexibility Score: inf
ROOT
ATOM      1  C   UNL A   1      38.408  21.523  25.617  1.00  0.00     0.202 C 
ENDROOT
BRANCH   1   2
ATOM      2  O   UNL A   1      37.088  21.687  25.101  1.00  0.00    -0.374 OA
BRANCH   2   3
ATOM      3  C   UNL A   1      36.009  21.148  25.857  1.00  0.00     0.202 C 
BRANCH   3   4
ATOM      4  C   UNL A   1      34.584  21.524  25.436  1.00  0.00     0.261 C 
BRANCH   4   5
ATOM      5  O   UNL A   1      34.059  20.695  24.383  1.00  0.00    -0.461 OA
BRANCH   5   6
ATOM      6  C   UNL A   1      32.911  20.027  24.702  1.00  0.00     0.344 C 
ATOM      7  O   UNL A   1      31.889  20.586  25.091  1.00  0.00    -0.249 OA
BRANCH   6   8
ATOM      8  C   UNL A   1      33.033  18.491  24.569  1.00  0.00     0.211 C 
ATOM      9  C   UNL A   1      32.417  15.328  25.337  1.00  0.00     0.332 C 
ATOM     10  N   UNL A   1      33.214  16.340  26.017  1.00  0.00    -0.333 N 
ATOM     11  C   UNL A   1      34.626  16.307  25.598  1.00  0.00     0.290 C 
ATOM     12  C   UNL A   1      32.694  17.719  25.878  1.00  0.00     0.310 C 
ATOM     13  H   UNL A   1      33.144  16.090  27.002  1.00  0.00     0.348 HD
ATOM     14  C   UNL A   1      34.868  16.950  24.228  1.00  0.00     0.223 C 
ATOM     15  O   UNL A   1      34.421  18.302  24.196  1.00  0.00    -0.353 OA
ATOM     16  C   UNL A   1      32.109  18.105  23.408  1.00  0.00     0.061 C 
ENDBRANCH   6   8
ENDBRANCH   5   6
ENDBRANCH   4   5
ENDBRANCH   3   4
ENDBRANCH   2   3
ENDBRANCH   1   2
BRANCH   1  17
ATOM     17  C   UNL A   1      39.106  20.184  25.339  1.00  0.00     0.261 C 
BRANCH  17  18
ATOM     18  O   UNL A   1      39.966  19.769  26.420  1.00  0.00    -0.460 OA
BRANCH  18  19
ATOM     19  C   UNL A   1      41.289  19.771  26.129  1.00  0.00     0.338 C 
ATOM     20  O   UNL A   1      41.905  18.953  25.463  1.00  0.00    -0.246 OA
BRANCH  19  21
ATOM     21  C   UNL A   1      41.908  21.029  26.587  1.00  0.00     0.060 A 
ATOM     22  C   UNL A   1      41.869  21.314  27.960  1.00  0.00     0.016 A 
ATOM     23  C   UNL A   1      42.435  21.955  25.686  1.00  0.00     0.016 A 
ATOM     24  C   UNL A   1      42.314  22.548  28.432  1.00  0.00     0.010 A 
ATOM     25  C   UNL A   1      42.867  23.198  26.160  1.00  0.00     0.010 A 
ATOM     26  C   UNL A   1      42.774  23.513  27.529  1.00  0.00    -0.014 A 
BRANCH  26  27
ATOM     27  C   UNL A   1      43.000  24.907  27.979  1.00  0.00     0.031 A 
ATOM     28  C   UNL A   1      44.396  25.327  28.354  1.00  0.00     0.074 A 
ATOM     29  C   UNL A   1      41.988  25.788  28.059  1.00  0.00     0.049 A 
ATOM     30  N   UNL A   1      44.812  26.452  28.874  1.00  0.00    -0.248 NA
ATOM     31  C   UNL A   1      45.464  24.344  28.107  1.00  0.00     0.031 C 
ATOM     32  C   UNL A   1      40.605  25.528  27.666  1.00  0.00     0.029 A 
ATOM     33  N   UNL A   1      41.974  27.083  28.513  1.00  0.00    -0.354 N 
ATOM     34  C   UNL A   1      46.184  26.307  29.034  1.00  0.00     0.074 A 
ATOM     35  C   UNL A   1      46.530  24.981  28.569  1.00  0.00     0.031 C 
ATOM     36  C   UNL A   1      39.869  26.626  27.915  1.00  0.00     0.029 A 
ATOM     37  C   UNL A   1      40.722  27.648  28.520  1.00  0.00     0.049 A 
ATOM     38  H   UNL A   1      42.783  27.560  28.808  1.00  0.00     0.167 HD
ATOM     39  C   UNL A   1      47.079  27.197  29.524  1.00  0.00     0.031 A 
ATOM     40  C   UNL A   1      40.308  28.840  28.991  1.00  0.00     0.031 A 
ATOM     41  C   UNL A   1      46.738  28.511  29.997  1.00  0.00     0.049 A 
ATOM     42  C   UNL A   1      41.305  29.778  29.618  1.00  0.00     0.074 A 
ATOM     43  C   UNL A   1      47.574  29.487  30.509  1.00  0.00     0.029 A 
ATOM     44  N   UNL A   1      45.454  29.030  30.017  1.00  0.00    -0.354 N 
ATOM     45  N   UNL A   1      42.601  29.631  29.763  1.00  0.00    -0.248 NA
ATOM     46  C   UNL A   1      40.783  31.047  30.148  1.00  0.00     0.031 C 
ATOM     47  C   UNL A   1      46.788  30.581  30.885  1.00  0.00     0.029 A 
ATOM     48  C   UNL A   1      45.471  30.305  30.555  1.00  0.00     0.049 A 
ATOM     49  H   UNL A   1      44.649  28.563  29.696  1.00  0.00     0.167 HD
ATOM     50  C   UNL A   1      43.050  30.798  30.368  1.00  0.00     0.074 A 
ATOM     51  C   UNL A   1      41.892  31.645  30.561  1.00  0.00     0.031 C 
ATOM     52  C   UNL A   1      44.311  31.139  30.729  1.00  0.00     0.031 A 
BRANCH  39  53
ATOM     53  C   UNL A   1      48.512  26.759  29.611  1.00  0.00    -0.014 A 
ATOM     54  C   UNL A   1      49.417  27.016  28.568  1.00  0.00     0.009 A 
ATOM     55  C   UNL A   1      48.971  26.108  30.766  1.00  0.00     0.009 A 
ATOM     56  C   UNL A   1      50.747  26.601  28.671  1.00  0.00     0.001 A 
ATOM     57  C   UNL A   1      50.306  25.716  30.876  1.00  0.00     0.001 A 
ATOM     58  C   UNL A   1      51.191  25.956  29.825  1.00  0.00     0.000 A 
ENDBRANCH  39  53
BRANCH  40  59
ATOM     59  C   UNL A   1      38.870  29.209  28.924  1.00  0.00    -0.014 A 
ATOM     60  C   UNL A   1      38.033  29.026  30.035  1.00  0.00     0.009 A 
ATOM     61  C   UNL A   1      38.324  29.726  27.739  1.00  0.00     0.009 A 
ATOM     62  C   UNL A   1      36.672  29.331  29.952  1.00  0.00     0.001 A 
ATOM     63  C   UNL A   1      36.968  30.055  27.667  1.00  0.00     0.001 A 
ATOM     64  C   UNL A   1      36.142  29.849  28.770  1.00  0.00     0.000 A 
ENDBRANCH  40  59
BRANCH  52  65
ATOM     65  C   UNL A   1      44.520  32.503  31.321  1.00  0.00    -0.014 A 
ATOM     66  C   UNL A   1      44.499  32.708  32.708  1.00  0.00     0.009 A 
ATOM     67  C   UNL A   1      44.814  33.586  30.475  1.00  0.00     0.009 A 
ATOM     68  C   UNL A   1      44.748  33.976  33.236  1.00  0.00     0.001 A 
ATOM     69  C   UNL A   1      45.085  34.847  31.007  1.00  0.00     0.001 A 
ATOM     70  C   UNL A   1      45.047  35.042  32.387  1.00  0.00     0.000 A 
ENDBRANCH  52  65
ENDBRANCH  26  27
ENDBRANCH  19  21
ENDBRANCH  18  19
ENDBRANCH  17  18
ENDBRANCH   1  17
TORSDOF 14
ENDMDL
MODEL 2
REMARK VINA RESULT:      -9.5      3.233      7.442
REMARK SMILES C[N@H+]1CCO[C@](C)(C(=O)OCCOCCOC(=O)c2ccc(-c3c4nc(c(-c5ccccc5)c5ccc([nH]5)c(-c5ccccc5)c5nc(c(-c6ccccc6)c6ccc3[nH]6)C=C5)C=C4)cc2)C1
REMARK SMILES IDX 14 1 13 2 12 3 11 4 10 5 8 6 9 7 6 8 1 9 2 10 3 11 67 12
REMARK SMILES IDX 4 14 5 15 7 16 15 17 16 18 17 19 18 20 19 21 20 22 66 23
REMARK SMILES IDX 21 24 65 25 22 26 23 27 24 28 59 29 25 30 64 31 58 32 60 33
REMARK SMILES IDX 26 34 63 35 57 36 56 37 27 39 49 40 34 41 48 42 35 43 38 44
REMARK SMILES IDX 47 45 61 46 36 47 37 48 46 50 62 51 39 52 28 53 29 54 33 55
REMARK SMILES IDX 30 56 32 57 31 58 50 59 51 60 55 61 52 62 54 63 53 64 40 65
REMARK SMILES IDX 41 66 45 67 42 68 44 69 43 70
REMARK H PARENT 2 13 60 38 38 49
REMARK Flexibility Score: inf
ROOT
ATOM      1  C   UNL A   1      35.183  21.329  24.643  1.00  0.00     0.202 C 
ENDROOT
BRANCH   1   2
ATOM      2  O   UNL A   1      34.261  22.414  24.746  1.00  0.00    -0.374 OA
BRANCH   2   3
ATOM      3  C   UNL A   1      33.319  22.584  23.693  1.00  0.00     0.202 C 
BRANCH   3   4
ATOM      4  C   UNL A   1      33.722  23.474  22.512  1.00  0.00     0.261 C 
BRANCH   4   5
ATOM      5  O   UNL A   1      34.296  24.732  22.912  1.00  0.00    -0.461 OA
BRANCH   5   6
ATOM      6  C   UNL A   1      33.624  25.834  22.465  1.00  0.00     0.344 C 
ATOM      7  O   UNL A   1      33.470  26.096  21.275  1.00  0.00    -0.249 OA
BRANCH   6   8
ATOM      8  C   UNL A   1      33.111  26.748  23.602  1.00  0.00     0.211 C 
ATOM      9  C   UNL A   1      32.561  29.616  25.165  1.00  0.00     0.332 C 
ATOM     10  N   UNL A   1      33.786  28.853  24.969  1.00  0.00    -0.333 N 
ATOM     11  C   UNL A   1      34.039  27.918  26.080  1.00  0.00     0.290 C 
ATOM     12  C   UNL A   1      33.846  28.117  23.686  1.00  0.00     0.310 C 
ATOM     13  H   UNL A   1      34.518  29.562  24.945  1.00  0.00     0.348 HD
ATOM     14  C   UNL A   1      33.172  26.656  26.020  1.00  0.00     0.223 C 
ATOM     15  O   UNL A   1      33.348  25.955  24.793  1.00  0.00    -0.353 OA
ATOM     16  C   UNL A   1      31.607  26.907  23.354  1.00  0.00     0.061 C 
ENDBRANCH   6   8
ENDBRANCH   5   6
ENDBRANCH   4   5
ENDBRANCH   3   4
ENDBRANCH   2   3
ENDBRANCH   1   2
BRANCH   1  17
ATOM     17  C   UNL A   1      36.345  21.301  25.646  1.00  0.00     0.261 C 
BRANCH  17  18
ATOM     18  O   UNL A   1      37.616  21.603  25.037  1.00  0.00    -0.460 OA
BRANCH  18  19
ATOM     19  C   UNL A   1      38.699  21.253  25.772  1.00  0.00     0.338 C 
ATOM     20  O   UNL A   1      39.254  20.165  25.806  1.00  0.00    -0.246 OA
BRANCH  19  21
ATOM     21  C   UNL A   1      39.269  22.441  26.435  1.00  0.00     0.060 A 
ATOM     22  C   UNL A   1      38.720  23.692  26.118  1.00  0.00     0.016 A 
ATOM     23  C   UNL A   1      40.376  22.346  27.279  1.00  0.00     0.016 A 
ATOM     24  C   UNL A   1      39.307  24.858  26.606  1.00  0.00     0.010 A 
ATOM     25  C   UNL A   1      40.972  23.518  27.756  1.00  0.00     0.010 A 
ATOM     26  C   UNL A   1      40.463  24.779  27.392  1.00  0.00    -0.014 A 
BRANCH  26  27
ATOM     27  C   UNL A   1      41.242  26.002  27.697  1.00  0.00     0.031 A 
ATOM     28  C   UNL A   1      40.619  27.054  28.575  1.00  0.00     0.074 A 
ATOM     29  C   UNL A   1      42.479  26.183  27.205  1.00  0.00     0.049 A 
ATOM     30  N   UNL A   1      41.063  28.244  28.886  1.00  0.00    -0.248 NA
ATOM     31  C   UNL A   1      39.321  26.715  29.183  1.00  0.00     0.031 C 
ATOM     32  C   UNL A   1      43.220  25.217  26.396  1.00  0.00     0.029 A 
ATOM     33  N   UNL A   1      43.325  27.259  27.306  1.00  0.00    -0.354 N 
ATOM     34  C   UNL A   1      40.093  28.803  29.709  1.00  0.00     0.074 A 
ATOM     35  C   UNL A   1      39.031  27.829  29.838  1.00  0.00     0.031 C 
ATOM     36  C   UNL A   1      44.406  25.752  26.059  1.00  0.00     0.029 A 
ATOM     37  C   UNL A   1      44.489  27.111  26.593  1.00  0.00     0.049 A 
ATOM     38  H   UNL A   1      43.117  28.061  27.838  1.00  0.00     0.167 HD
ATOM     39  C   UNL A   1      40.087  30.018  30.306  1.00  0.00     0.031 A 
ATOM     40  C   UNL A   1      45.490  27.984  26.370  1.00  0.00     0.031 A 
ATOM     41  C   UNL A   1      41.135  30.992  30.171  1.00  0.00     0.049 A 
ATOM     42  C   UNL A   1      45.418  29.365  26.966  1.00  0.00     0.074 A 
ATOM     43  C   UNL A   1      41.220  32.251  30.738  1.00  0.00     0.029 A 
ATOM     44  N   UNL A   1      42.280  30.814  29.412  1.00  0.00    -0.354 N 
ATOM     45  N   UNL A   1      44.497  29.882  27.744  1.00  0.00    -0.248 NA
ATOM     46  C   UNL A   1      46.524  30.283  26.653  1.00  0.00     0.031 C 
ATOM     47  C   UNL A   1      42.396  32.856  30.283  1.00  0.00     0.029 A 
ATOM     48  C   UNL A   1      43.068  31.951  29.476  1.00  0.00     0.049 A 
ATOM     49  H   UNL A   1      42.501  30.001  28.903  1.00  0.00     0.167 HD
ATOM     50  C   UNL A   1      44.928  31.170  28.038  1.00  0.00     0.074 A 
ATOM     51  C   UNL A   1      46.193  31.356  27.359  1.00  0.00     0.031 C 
ATOM     52  C   UNL A   1      44.330  32.114  28.805  1.00  0.00     0.031 A 
BRANCH  39  53
ATOM     53  C   UNL A   1      38.882  30.377  31.127  1.00  0.00    -0.014 A 
ATOM     54  C   UNL A   1      38.811  30.061  32.493  1.00  0.00     0.009 A 
ATOM     55  C   UNL A   1      37.817  31.071  30.532  1.00  0.00     0.009 A 
ATOM     56  C   UNL A   1      37.683  30.406  33.239  1.00  0.00     0.001 A 
ATOM     57  C   UNL A   1      36.701  31.437  31.286  1.00  0.00     0.001 A 
ATOM     58  C   UNL A   1      36.631  31.097  32.637  1.00  0.00     0.000 A 
ENDBRANCH  39  53
BRANCH  40  59
ATOM     59  C   UNL A   1      46.639  27.597  25.511  1.00  0.00    -0.014 A 
ATOM     60  C   UNL A   1      46.653  27.922  24.146  1.00  0.00     0.009 A 
ATOM     61  C   UNL A   1      47.719  26.879  26.050  1.00  0.00     0.009 A 
ATOM     62  C   UNL A   1      47.715  27.515  23.334  1.00  0.00     0.001 A 
ATOM     63  C   UNL A   1      48.791  26.497  25.240  1.00  0.00     0.001 A 
ATOM     64  C   UNL A   1      48.783  26.807  23.882  1.00  0.00     0.000 A 
ENDBRANCH  40  59
BRANCH  52  65
ATOM     65  C   UNL A   1      45.055  33.415  28.998  1.00  0.00    -0.014 A 
ATOM     66  C   UNL A   1      44.818  34.514  28.160  1.00  0.00     0.009 A 
ATOM     67  C   UNL A   1      45.936  33.559  30.083  1.00  0.00     0.009 A 
ATOM     68  C   UNL A   1      45.467  35.728  28.393  1.00  0.00     0.001 A 
ATOM     69  C   UNL A   1      46.564  34.781  30.327  1.00  0.00     0.001 A 
ATOM     70  C   UNL A   1      46.333  35.863  29.479  1.00  0.00     0.000 A 
ENDBRANCH  52  65
ENDBRANCH  26  27
ENDBRANCH  19  21
ENDBRANCH  18  19
ENDBRANCH  17  18
ENDBRANCH   1  17
TORSDOF 14
ENDMDL
MODEL 3
REMARK VINA RESULT:      -9.5      4.736      9.281
REMARK SMILES C[N@H+]1CCO[C@](C)(C(=O)OCCOCCOC(=O)c2ccc(-c3c4nc(c(-c5ccccc5)c5ccc([nH]5)c(-c5ccccc5)c5nc(c(-c6ccccc6)c6ccc3[nH]6)C=C5)C=C4)cc2)C1
REMARK SMILES IDX 14 1 13 2 12 3 11 4 10 5 8 6 9 7 6 8 1 9 2 10 3 11 67 12
REMARK SMILES IDX 4 14 5 15 7 16 15 17 16 18 17 19 18 20 19 21 20 22 66 23
REMARK SMILES IDX 21 24 65 25 22 26 23 27 24 28 59 29 25 30 64 31 58 32 60 33
REMARK SMILES IDX 26 34 63 35 57 36 56 37 27 39 49 40 34 41 48 42 35 43 38 44
REMARK SMILES IDX 47 45 61 46 36 47 37 48 46 50 62 51 39 52 28 53 29 54 33 55
REMARK SMILES IDX 30 56 32 57 31 58 50 59 51 60 55 61 52 62 54 63 53 64 40 65
REMARK SMILES IDX 41 66 45 67 42 68 44 69 43 70
REMARK H PARENT 2 13 60 38 38 49
REMARK Flexibility Score: inf
ROOT
ATOM      1  C   UNL A   1      34.588  34.043  29.454  1.00  0.00     0.202 C 
ENDROOT
BRANCH   1   2
ATOM      2  O   UNL A   1      33.674  33.402  28.564  1.00  0.00    -0.374 OA
BRANCH   2   3
ATOM      3  C   UNL A   1      34.199  32.441  27.655  1.00  0.00     0.202 C 
BRANCH   3   4
ATOM      4  C   UNL A   1      33.583  31.037  27.667  1.00  0.00     0.261 C 
BRANCH   4   5
ATOM      5  O   UNL A   1      33.510  30.432  26.362  1.00  0.00    -0.461 OA
BRANCH   5   6
ATOM      6  C   UNL A   1      33.934  29.134  26.312  1.00  0.00     0.344 C 
ATOM      7  O   UNL A   1      34.763  28.662  27.086  1.00  0.00    -0.249 OA
BRANCH   6   8
ATOM      8  C   UNL A   1      33.303  28.323  25.156  1.00  0.00     0.211 C 
ATOM      9  C   UNL A   1      33.077  27.106  22.084  1.00  0.00     0.332 C 
ATOM     10  N   UNL A   1      32.859  28.451  22.598  1.00  0.00    -0.333 N 
ATOM     11  C   UNL A   1      31.451  28.684  22.962  1.00  0.00     0.290 C 
ATOM     12  C   UNL A   1      33.728  28.814  23.741  1.00  0.00     0.310 C 
ATOM     13  H   UNL A   1      33.116  29.058  21.820  1.00  0.00     0.348 HD
ATOM     14  C   UNL A   1      31.057  28.045  24.298  1.00  0.00     0.223 C 
ATOM     15  O   UNL A   1      31.880  28.506  25.365  1.00  0.00    -0.353 OA
ATOM     16  C   UNL A   1      33.700  26.866  25.412  1.00  0.00     0.061 C 
ENDBRANCH   6   8
ENDBRANCH   5   6
ENDBRANCH   4   5
ENDBRANCH   3   4
ENDBRANCH   2   3
ENDBRANCH   1   2
BRANCH   1  17
ATOM     17  C   UNL A   1      34.365  33.830  30.958  1.00  0.00     0.261 C 
BRANCH  17  18
ATOM     18  O   UNL A   1      34.515  32.452  31.354  1.00  0.00    -0.460 OA
BRANCH  18  19
ATOM     19  C   UNL A   1      35.522  32.216  32.229  1.00  0.00     0.338 C 
ATOM     20  O   UNL A   1      35.559  32.508  33.416  1.00  0.00    -0.246 OA
BRANCH  19  21
ATOM     21  C   UNL A   1      36.556  31.374  31.601  1.00  0.00     0.060 A 
ATOM     22  C   UNL A   1      37.545  30.825  32.430  1.00  0.00     0.016 A 
ATOM     23  C   UNL A   1      36.613  31.196  30.218  1.00  0.00     0.016 A 
ATOM     24  C   UNL A   1      38.623  30.138  31.875  1.00  0.00     0.010 A 
ATOM     25  C   UNL A   1      37.702  30.518  29.661  1.00  0.00     0.010 A 
ATOM     26  C   UNL A   1      38.730  30.018  30.484  1.00  0.00    -0.014 A 
BRANCH  26  27
ATOM     27  C   UNL A   1      39.987  29.527  29.873  1.00  0.00     0.031 A 
ATOM     28  C   UNL A   1      41.138  30.485  29.721  1.00  0.00     0.074 A 
ATOM     29  C   UNL A   1      40.111  28.255  29.456  1.00  0.00     0.049 A 
ATOM     30  N   UNL A   1      42.287  30.311  29.122  1.00  0.00    -0.248 NA
ATOM     31  C   UNL A   1      40.967  31.816  30.326  1.00  0.00     0.031 C 
ATOM     32  C   UNL A   1      39.097  27.212  29.603  1.00  0.00     0.029 A 
ATOM     33  N   UNL A   1      41.147  27.630  28.810  1.00  0.00    -0.354 N 
ATOM     34  C   UNL A   1      42.969  31.514  29.262  1.00  0.00     0.074 A 
ATOM     35  C   UNL A   1      42.100  32.414  29.989  1.00  0.00     0.031 C 
ATOM     36  C   UNL A   1      39.556  26.079  29.044  1.00  0.00     0.029 A 
ATOM     37  C   UNL A   1      40.876  26.329  28.466  1.00  0.00     0.049 A 
ATOM     38  H   UNL A   1      42.004  28.074  28.609  1.00  0.00     0.167 HD
ATOM     39  C   UNL A   1      44.207  31.842  28.825  1.00  0.00     0.031 A 
ATOM     40  C   UNL A   1      41.596  25.452  27.740  1.00  0.00     0.031 A 
ATOM     41  C   UNL A   1      45.068  30.954  28.093  1.00  0.00     0.049 A 
ATOM     42  C   UNL A   1      42.931  25.868  27.184  1.00  0.00     0.074 A 
ATOM     43  C   UNL A   1      46.343  31.194  27.609  1.00  0.00     0.029 A 
ATOM     44  N   UNL A   1      44.740  29.656  27.738  1.00  0.00    -0.354 N 
ATOM     45  N   UNL A   1      43.567  27.008  27.324  1.00  0.00    -0.248 NA
ATOM     46  C   UNL A   1      43.650  24.878  26.368  1.00  0.00     0.031 C 
ATOM     47  C   UNL A   1      46.767  30.055  26.917  1.00  0.00     0.029 A 
ATOM     48  C   UNL A   1      45.779  29.089  27.019  1.00  0.00     0.049 A 
ATOM     49  H   UNL A   1      43.896  29.204  27.962  1.00  0.00     0.167 HD
ATOM     50  C   UNL A   1      44.768  26.858  26.642  1.00  0.00     0.074 A 
ATOM     51  C   UNL A   1      44.777  25.519  26.093  1.00  0.00     0.031 C 
ATOM     52  C   UNL A   1      45.777  27.751  26.490  1.00  0.00     0.031 A 
BRANCH  39  53
ATOM     53  C   UNL A   1      44.687  33.239  29.094  1.00  0.00    -0.014 A 
ATOM     54  C   UNL A   1      45.452  33.540  30.232  1.00  0.00     0.009 A 
ATOM     55  C   UNL A   1      44.395  34.262  28.178  1.00  0.00     0.009 A 
ATOM     56  C   UNL A   1      45.890  34.846  30.462  1.00  0.00     0.001 A 
ATOM     57  C   UNL A   1      44.855  35.561  28.398  1.00  0.00     0.001 A 
ATOM     58  C   UNL A   1      45.595  35.854  29.543  1.00  0.00     0.000 A 
ENDBRANCH  39  53
BRANCH  40  59
ATOM     59  C   UNL A   1      41.057  24.095  27.463  1.00  0.00    -0.014 A 
ATOM     60  C   UNL A   1      40.021  23.914  26.534  1.00  0.00     0.009 A 
ATOM     61  C   UNL A   1      41.563  22.976  28.142  1.00  0.00     0.009 A 
ATOM     62  C   UNL A   1      39.486  22.643  26.310  1.00  0.00     0.001 A 
ATOM     63  C   UNL A   1      41.044  21.703  27.897  1.00  0.00     0.001 A 
ATOM     64  C   UNL A   1      40.001  21.538  26.989  1.00  0.00     0.000 A 
ENDBRANCH  40  59
BRANCH  52  65
ATOM     65  C   UNL A   1      46.999  27.298  25.743  1.00  0.00    -0.014 A 
ATOM     66  C   UNL A   1      47.151  27.549  24.372  1.00  0.00     0.009 A 
ATOM     67  C   UNL A   1      48.044  26.673  26.444  1.00  0.00     0.009 A 
ATOM     68  C   UNL A   1      48.319  27.165  23.712  1.00  0.00     0.001 A 
ATOM     69  C   UNL A   1      49.219  26.311  25.786  1.00  0.00     0.001 A 
ATOM     70  C   UNL A   1      49.354  26.552  24.419  1.00  0.00     0.000 A 
ENDBRANCH  52  65
ENDBRANCH  26  27
ENDBRANCH  19  21
ENDBRANCH  18  19
ENDBRANCH  17  18
ENDBRANCH   1  17
TORSDOF 14
ENDMDL
