MODEL 1
REMARK VINA RESULT:     -10.2      0.000      0.000
REMARK SMILES O=C(OCCOCCOC(=O)[C@]12COc3ccccc3[C@H]1C[N@H+](CCO)C2)c1ccc(-c2c3nc(c(-c4ccccc4)c4ccc([nH]4)c(-c4ccccc4)c4nc(c(-c5ccccc5)c5ccc2[nH]5)C=C4)C=C3)cc1
REMARK SMILES IDX 7 1 6 2 5 3 4 4 3 5 2 6 1 7 28 8 29 9 75 10 30 11 74 12
REMARK SMILES IDX 31 13 32 14 33 15 68 16 34 17 73 18 67 19 69 20 35 21 72 22
REMARK SMILES IDX 66 23 65 24 36 26 58 27 43 28 57 29 44 30 47 31 56 32 70 33
REMARK SMILES IDX 45 34 46 35 55 37 71 38 48 39 37 40 38 41 42 42 39 43 41 44
REMARK SMILES IDX 40 45 59 46 60 47 64 48 61 49 63 50 62 51 49 52 50 53 54 54
REMARK SMILES IDX 51 55 53 56 52 57 8 58 9 59 10 60 11 61 12 62 13 63 21 64
REMARK SMILES IDX 27 65 14 66 20 67 22 68 23 69 15 70 19 71 16 73 18 74 17 75
REMARK SMILES IDX 24 76 25 77 26 78
REMARK H PARENT 69 25 47 36 23 72 26 79
REMARK Flexibility Score: inf
ROOT
ATOM      1  C   UNL A   1      31.944  26.255  25.591  1.00  0.00     0.202 C 
ENDROOT
BRANCH   1   2
ATOM      2  O   UNL A   1      31.303  27.430  26.093  1.00  0.00    -0.374 OA
BRANCH   2   3
ATOM      3  C   UNL A   1      31.872  28.721  25.868  1.00  0.00     0.202 C 
BRANCH   3   4
ATOM      4  C   UNL A   1      32.411  29.554  27.059  1.00  0.00     0.261 C 
BRANCH   4   5
ATOM      5  O   UNL A   1      33.805  29.878  26.981  1.00  0.00    -0.460 OA
BRANCH   5   6
ATOM      6  C   UNL A   1      34.499  30.545  27.941  1.00  0.00     0.338 C 
ATOM      7  O   UNL A   1      34.077  31.616  28.367  1.00  0.00    -0.246 OA
BRANCH   6   8
ATOM      8  C   UNL A   1      35.876  30.102  28.335  1.00  0.00     0.060 A 
ATOM      9  C   UNL A   1      36.888  30.080  27.360  1.00  0.00     0.016 A 
ATOM     10  C   UNL A   1      36.209  29.663  29.609  1.00  0.00     0.016 A 
ATOM     11  C   UNL A   1      38.170  29.590  27.660  1.00  0.00     0.010 A 
ATOM     12  C   UNL A   1      37.434  29.123  29.906  1.00  0.00     0.010 A 
ATOM     13  C   UNL A   1      38.426  29.090  28.937  1.00  0.00    -0.014 A 
BRANCH  13  14
ATOM     14  C   UNL A   1      39.729  28.671  29.468  1.00  0.00     0.031 A 
ATOM     15  C   UNL A   1      40.681  29.707  29.980  1.00  0.00     0.074 A 
ATOM     16  C   UNL A   1      40.156  27.468  29.043  1.00  0.00     0.049 A 
ATOM     17  N   UNL A   1      41.943  29.580  30.284  1.00  0.00    -0.248 NA
ATOM     18  C   UNL A   1      40.167  31.085  30.096  1.00  0.00     0.031 C 
ATOM     19  C   UNL A   1      39.336  26.511  28.288  1.00  0.00     0.029 A 
ATOM     20  N   UNL A   1      41.397  26.898  29.070  1.00  0.00    -0.354 N 
ATOM     21  C   UNL A   1      42.375  30.853  30.633  1.00  0.00     0.074 A 
ATOM     22  C   UNL A   1      41.260  31.752  30.441  1.00  0.00     0.031 C 
ATOM     23  C   UNL A   1      40.106  25.491  27.893  1.00  0.00     0.029 A 
ATOM     24  C   UNL A   1      41.460  25.710  28.387  1.00  0.00     0.049 A 
ATOM     25  H   UNL A   1      42.167  27.299  29.533  1.00  0.00     0.167 HD
ATOM     26  C   UNL A   1      43.596  31.212  31.092  1.00  0.00     0.031 A 
ATOM     27  C   UNL A   1      42.495  24.874  28.199  1.00  0.00     0.031 A 
ATOM     28  C   UNL A   1      44.671  30.268  31.243  1.00  0.00     0.049 A 
ATOM     29  C   UNL A   1      43.798  25.223  28.841  1.00  0.00     0.074 A 
ATOM     30  C   UNL A   1      45.879  30.431  31.893  1.00  0.00     0.029 A 
ATOM     31  N   UNL A   1      44.666  28.987  30.708  1.00  0.00    -0.354 N 
ATOM     32  N   UNL A   1      44.139  26.348  29.425  1.00  0.00    -0.248 NA
ATOM     33  C   UNL A   1      44.838  24.191  28.853  1.00  0.00     0.031 C 
ATOM     34  C   UNL A   1      46.629  29.266  31.704  1.00  0.00     0.029 A 
ATOM     35  C   UNL A   1      45.866  28.357  30.984  1.00  0.00     0.049 A 
ATOM     36  H   UNL A   1      43.920  28.586  30.206  1.00  0.00     0.167 HD
ATOM     37  C   UNL A   1      45.425  26.155  29.900  1.00  0.00     0.074 A 
ATOM     38  C   UNL A   1      45.801  24.801  29.536  1.00  0.00     0.031 C 
ATOM     39  C   UNL A   1      46.216  27.017  30.583  1.00  0.00     0.031 A 
BRANCH  26  40
ATOM     40  C   UNL A   1      43.822  32.639  31.512  1.00  0.00    -0.014 A 
ATOM     41  C   UNL A   1      43.462  33.066  32.801  1.00  0.00     0.009 A 
ATOM     42  C   UNL A   1      44.292  33.597  30.597  1.00  0.00     0.009 A 
ATOM     43  C   UNL A   1      43.560  34.413  33.161  1.00  0.00     0.001 A 
ATOM     44  C   UNL A   1      44.417  34.939  30.967  1.00  0.00     0.001 A 
ATOM     45  C   UNL A   1      44.042  35.348  32.245  1.00  0.00     0.000 A 
ENDBRANCH  26  40
BRANCH  27  46
ATOM     46  C   UNL A   1      42.228  23.581  27.523  1.00  0.00    -0.014 A 
ATOM     47  C   UNL A   1      41.847  22.444  28.251  1.00  0.00     0.009 A 
ATOM     48  C   UNL A   1      42.571  23.440  26.168  1.00  0.00     0.009 A 
ATOM     49  C   UNL A   1      41.845  21.186  27.642  1.00  0.00     0.001 A 
ATOM     50  C   UNL A   1      42.557  22.183  25.561  1.00  0.00     0.001 A 
ATOM     51  C   UNL A   1      42.207  21.056  26.301  1.00  0.00     0.000 A 
ENDBRANCH  27  46
BRANCH  39  52
ATOM     52  C   UNL A   1      47.584  26.539  30.967  1.00  0.00    -0.014 A 
ATOM     53  C   UNL A   1      48.634  26.618  30.040  1.00  0.00     0.009 A 
ATOM     54  C   UNL A   1      47.794  25.896  32.195  1.00  0.00     0.009 A 
ATOM     55  C   UNL A   1      49.869  26.038  30.328  1.00  0.00     0.001 A 
ATOM     56  C   UNL A   1      49.037  25.339  32.489  1.00  0.00     0.001 A 
ATOM     57  C   UNL A   1      50.069  25.400  31.552  1.00  0.00     0.000 A 
ENDBRANCH  39  52
ENDBRANCH  13  14
ENDBRANCH   6   8
ENDBRANCH   5   6
ENDBRANCH   4   5
ENDBRANCH   3   4
ENDBRANCH   2   3
ENDBRANCH   1   2
BRANCH   1  58
ATOM     58  C   UNL A   1      31.737  26.015  24.082  1.00  0.00     0.261 C 
BRANCH  58  59
ATOM     59  O   UNL A   1      31.958  24.639  23.691  1.00  0.00    -0.463 OA
BRANCH  59  60
ATOM     60  C   UNL A   1      33.228  24.304  23.277  1.00  0.00     0.322 C 
ATOM     61  O   UNL A   1      33.773  24.796  22.294  1.00  0.00    -0.251 OA
BRANCH  60  62
ATOM     62  C   UNL A   1      33.856  23.242  24.291  1.00  0.00     0.162 C 
ATOM     63  C   UNL A   1      34.948  24.354  24.421  1.00  0.00     0.255 C 
ATOM     64  C   UNL A   1      34.906  22.044  24.150  1.00  0.00     0.105 C 
ATOM     65  C   UNL A   1      32.719  22.351  23.640  1.00  0.00     0.285 C 
ATOM     66  O   UNL A   1      35.616  24.289  25.683  1.00  0.00    -0.492 OA
ATOM     67  C   UNL A   1      36.238  22.138  24.896  1.00  0.00     0.004 A 
ATOM     68  C   UNL A   1      34.146  20.820  24.665  1.00  0.00     0.272 C 
ATOM     69  N   UNL A   1      32.786  20.998  24.201  1.00  0.00    -0.331 N 
ATOM     70  C   UNL A   1      36.544  23.303  25.599  1.00  0.00     0.123 A 
ATOM     71  C   UNL A   1      37.213  21.139  24.848  1.00  0.00     0.008 A 
ATOM     72  H   UNL A   1      32.137  20.906  24.983  1.00  0.00     0.348 HD
ATOM     73  C   UNL A   1      37.784  23.530  26.185  1.00  0.00     0.047 A 
ATOM     74  C   UNL A   1      38.464  21.343  25.449  1.00  0.00     0.001 A 
ATOM     75  C   UNL A   1      38.757  22.545  26.094  1.00  0.00     0.004 A 
BRANCH  69  76
ATOM     76  C   UNL A   1      32.290  19.934  23.303  1.00  0.00     0.290 C 
BRANCH  76  77
ATOM     77  C   UNL A   1      32.530  18.441  23.639  1.00  0.00     0.217 C 
BRANCH  77  78
ATOM     78  O   UNL A   1      32.305  17.579  22.530  1.00  0.00    -0.391 OA
ATOM     79  H   UNL A   1      32.134  18.111  21.736  1.00  0.00     0.210 HD
ENDBRANCH  77  78
ENDBRANCH  76  77
ENDBRANCH  69  76
ENDBRANCH  60  62
ENDBRANCH  59  60
ENDBRANCH  58  59
ENDBRANCH   1  58
TORSDOF 17
ENDMDL
MODEL 2
REMARK VINA RESULT:     -10.1      3.609      7.800
REMARK SMILES O=C(OCCOCCOC(=O)[C@]12COc3ccccc3[C@H]1C[N@H+](CCO)C2)c1ccc(-c2c3nc(c(-c4ccccc4)c4ccc([nH]4)c(-c4ccccc4)c4nc(c(-c5ccccc5)c5ccc2[nH]5)C=C4)C=C3)cc1
REMARK SMILES IDX 7 1 6 2 5 3 4 4 3 5 2 6 1 7 28 8 29 9 75 10 30 11 74 12
REMARK SMILES IDX 31 13 32 14 33 15 68 16 34 17 73 18 67 19 69 20 35 21 72 22
REMARK SMILES IDX 66 23 65 24 36 26 58 27 43 28 57 29 44 30 47 31 56 32 70 33
REMARK SMILES IDX 45 34 46 35 55 37 71 38 48 39 37 40 38 41 42 42 39 43 41 44
REMARK SMILES IDX 40 45 59 46 60 47 64 48 61 49 63 50 62 51 49 52 50 53 54 54
REMARK SMILES IDX 51 55 53 56 52 57 8 58 9 59 10 60 11 61 12 62 13 63 21 64
REMARK SMILES IDX 27 65 14 66 20 67 22 68 23 69 15 70 19 71 16 73 18 74 17 75
REMARK SMILES IDX 24 76 25 77 26 78
REMARK H PARENT 69 25 47 36 23 72 26 79
REMARK Flexibility Score: inf
ROOT
ATOM      1  C   UNL A   1      33.988  30.105  27.144  1.00  0.00     0.202 C 
ENDROOT
BRANCH   1   2
ATOM      2  O   UNL A   1      32.565  30.189  27.259  1.00  0.00    -0.374 OA
BRANCH   2   3
ATOM      3  C   UNL A   1      31.835  31.180  26.534  1.00  0.00     0.202 C 
BRANCH   3   4
ATOM      4  C   UNL A   1      31.383  32.485  27.237  1.00  0.00     0.261 C 
BRANCH   4   5
ATOM      5  O   UNL A   1      32.337  33.554  27.188  1.00  0.00    -0.460 OA
BRANCH   5   6
ATOM      6  C   UNL A   1      32.909  34.131  28.278  1.00  0.00     0.338 C 
ATOM      7  O   UNL A   1      32.437  35.165  28.739  1.00  0.00    -0.246 OA
BRANCH   6   8
ATOM      8  C   UNL A   1      34.229  33.645  28.795  1.00  0.00     0.060 A 
ATOM      9  C   UNL A   1      35.406  34.271  28.349  1.00  0.00     0.016 A 
ATOM     10  C   UNL A   1      34.367  32.571  29.664  1.00  0.00     0.016 A 
ATOM     11  C   UNL A   1      36.669  33.794  28.737  1.00  0.00     0.010 A 
ATOM     12  C   UNL A   1      35.590  32.052  30.005  1.00  0.00     0.010 A 
ATOM     13  C   UNL A   1      36.750  32.663  29.552  1.00  0.00    -0.014 A 
BRANCH  13  14
ATOM     14  C   UNL A   1      37.963  32.111  30.164  1.00  0.00     0.031 A 
ATOM     15  C   UNL A   1      38.627  30.924  29.538  1.00  0.00     0.074 A 
ATOM     16  C   UNL A   1      38.128  32.406  31.467  1.00  0.00     0.049 A 
ATOM     17  N   UNL A   1      39.563  30.157  30.026  1.00  0.00    -0.248 NA
ATOM     18  C   UNL A   1      38.121  30.497  28.219  1.00  0.00     0.031 C 
ATOM     19  C   UNL A   1      37.315  33.377  32.211  1.00  0.00     0.029 A 
ATOM     20  N   UNL A   1      38.934  31.845  32.416  1.00  0.00    -0.354 N 
ATOM     21  C   UNL A   1      39.764  29.162  29.077  1.00  0.00     0.074 A 
ATOM     22  C   UNL A   1      38.810  29.382  28.015  1.00  0.00     0.031 C 
ATOM     23  C   UNL A   1      37.639  33.316  33.508  1.00  0.00     0.029 A 
ATOM     24  C   UNL A   1      38.694  32.325  33.680  1.00  0.00     0.049 A 
ATOM     25  H   UNL A   1      39.616  31.165  32.216  1.00  0.00     0.167 HD
ATOM     26  C   UNL A   1      40.688  28.174  29.103  1.00  0.00     0.031 A 
ATOM     27  C   UNL A   1      39.281  32.017  34.848  1.00  0.00     0.031 A 
ATOM     28  C   UNL A   1      41.600  27.999  30.202  1.00  0.00     0.049 A 
ATOM     29  C   UNL A   1      40.400  31.026  34.826  1.00  0.00     0.074 A 
ATOM     30  C   UNL A   1      42.721  27.195  30.276  1.00  0.00     0.029 A 
ATOM     31  N   UNL A   1      41.469  28.630  31.433  1.00  0.00    -0.354 N 
ATOM     32  N   UNL A   1      40.783  30.257  33.834  1.00  0.00    -0.248 NA
ATOM     33  C   UNL A   1      41.200  30.892  36.046  1.00  0.00     0.031 C 
ATOM     34  C   UNL A   1      43.238  27.297  31.571  1.00  0.00     0.029 A 
ATOM     35  C   UNL A   1      42.472  28.208  32.286  1.00  0.00     0.049 A 
ATOM     36  H   UNL A   1      40.767  29.280  31.663  1.00  0.00     0.167 HD
ATOM     37  C   UNL A   1      41.888  29.562  34.297  1.00  0.00     0.074 A 
ATOM     38  C   UNL A   1      42.113  30.006  35.661  1.00  0.00     0.031 C 
ATOM     39  C   UNL A   1      42.650  28.650  33.647  1.00  0.00     0.031 A 
BRANCH  26  40
ATOM     40  C   UNL A   1      40.805  27.258  27.914  1.00  0.00    -0.014 A 
ATOM     41  C   UNL A   1      40.159  26.012  27.911  1.00  0.00     0.009 A 
ATOM     42  C   UNL A   1      41.646  27.579  26.834  1.00  0.00     0.009 A 
ATOM     43  C   UNL A   1      40.356  25.108  26.864  1.00  0.00     0.001 A 
ATOM     44  C   UNL A   1      41.820  26.685  25.774  1.00  0.00     0.001 A 
ATOM     45  C   UNL A   1      41.182  25.447  25.794  1.00  0.00     0.000 A 
ENDBRANCH  26  40
BRANCH  27  46
ATOM     46  C   UNL A   1      38.901  32.806  36.045  1.00  0.00    -0.014 A 
ATOM     47  C   UNL A   1      39.552  34.009  36.359  1.00  0.00     0.009 A 
ATOM     48  C   UNL A   1      38.032  32.235  36.988  1.00  0.00     0.009 A 
ATOM     49  C   UNL A   1      39.363  34.607  37.609  1.00  0.00     0.001 A 
ATOM     50  C   UNL A   1      37.836  32.841  38.230  1.00  0.00     0.001 A 
ATOM     51  C   UNL A   1      38.512  34.019  38.544  1.00  0.00     0.000 A 
ENDBRANCH  27  46
BRANCH  39  52
ATOM     52  C   UNL A   1      43.791  28.042  34.405  1.00  0.00    -0.014 A 
ATOM     53  C   UNL A   1      43.558  26.953  35.259  1.00  0.00     0.009 A 
ATOM     54  C   UNL A   1      45.062  28.631  34.369  1.00  0.00     0.009 A 
ATOM     55  C   UNL A   1      44.576  26.479  36.084  1.00  0.00     0.001 A 
ATOM     56  C   UNL A   1      46.085  28.138  35.178  1.00  0.00     0.001 A 
ATOM     57  C   UNL A   1      45.839  27.071  36.042  1.00  0.00     0.000 A 
ENDBRANCH  39  52
ENDBRANCH  13  14
ENDBRANCH   6   8
ENDBRANCH   5   6
ENDBRANCH   4   5
ENDBRANCH   3   4
ENDBRANCH   2   3
ENDBRANCH   1   2
BRANCH   1  58
ATOM     58  C   UNL A   1      34.494  28.823  26.453  1.00  0.00     0.261 C 
BRANCH  58  59
ATOM     59  O   UNL A   1      33.625  28.374  25.385  1.00  0.00    -0.463 OA
BRANCH  59  60
ATOM     60  C   UNL A   1      33.428  27.015  25.271  1.00  0.00     0.322 C 
ATOM     61  O   UNL A   1      34.039  26.183  25.933  1.00  0.00    -0.251 OA
BRANCH  60  62
ATOM     62  C   UNL A   1      32.274  26.735  24.203  1.00  0.00     0.162 C 
ATOM     63  C   UNL A   1      32.379  28.285  24.023  1.00  0.00     0.255 C 
ATOM     64  C   UNL A   1      30.675  26.718  24.260  1.00  0.00     0.105 C 
ATOM     65  C   UNL A   1      32.335  25.318  24.910  1.00  0.00     0.285 C 
ATOM     66  O   UNL A   1      31.952  28.691  22.721  1.00  0.00    -0.492 OA
ATOM     67  C   UNL A   1      29.897  27.743  23.434  1.00  0.00     0.004 A 
ATOM     68  C   UNL A   1      30.299  25.316  23.775  1.00  0.00     0.272 C 
ATOM     69  N   UNL A   1      31.314  24.443  24.325  1.00  0.00    -0.331 N 
ATOM     70  C   UNL A   1      30.595  28.724  22.731  1.00  0.00     0.123 A 
ATOM     71  C   UNL A   1      28.501  27.801  23.406  1.00  0.00     0.008 A 
ATOM     72  H   UNL A   1      31.720  23.870  23.584  1.00  0.00     0.348 HD
ATOM     73  C   UNL A   1      29.969  29.776  22.073  1.00  0.00     0.047 A 
ATOM     74  C   UNL A   1      27.851  28.845  22.731  1.00  0.00     0.001 A 
ATOM     75  C   UNL A   1      28.583  29.843  22.087  1.00  0.00     0.004 A 
BRANCH  69  76
ATOM     76  C   UNL A   1      30.806  23.396  25.237  1.00  0.00     0.290 C 
BRANCH  76  77
ATOM     77  C   UNL A   1      31.521  23.103  26.580  1.00  0.00     0.217 C 
BRANCH  77  78
ATOM     78  O   UNL A   1      30.616  22.892  27.656  1.00  0.00    -0.391 OA
ATOM     79  H   UNL A   1      30.511  23.717  28.157  1.00  0.00     0.210 HD
ENDBRANCH  77  78
ENDBRANCH  76  77
ENDBRANCH  69  76
ENDBRANCH  60  62
ENDBRANCH  59  60
ENDBRANCH  58  59
ENDBRANCH   1  58
TORSDOF 17
ENDMDL
MODEL 3
REMARK VINA RESULT:      -9.9      4.844      8.820
REMARK SMILES O=C(OCCOCCOC(=O)[C@]12COc3ccccc3[C@H]1C[N@H+](CCO)C2)c1ccc(-c2c3nc(c(-c4ccccc4)c4ccc([nH]4)c(-c4ccccc4)c4nc(c(-c5ccccc5)c5ccc2[nH]5)C=C4)C=C3)cc1
REMARK SMILES IDX 7 1 6 2 5 3 4 4 3 5 2 6 1 7 28 8 29 9 75 10 30 11 74 12
REMARK SMILES IDX 31 13 32 14 33 15 68 16 34 17 73 18 67 19 69 20 35 21 72 22
REMARK SMILES IDX 66 23 65 24 36 26 58 27 43 28 57 29 44 30 47 31 56 32 70 33
REMARK SMILES IDX 45 34 46 35 55 37 71 38 48 39 37 40 38 41 42 42 39 43 41 44
REMARK SMILES IDX 40 45 59 46 60 47 64 48 61 49 63 50 62 51 49 52 50 53 54 54
REMARK SMILES IDX 51 55 53 56 52 57 8 58 9 59 10 60 11 61 12 62 13 63 21 64
REMARK SMILES IDX 27 65 14 66 20 67 22 68 23 69 15 70 19 71 16 73 18 74 17 75
REMARK SMILES IDX 24 76 25 77 26 78
REMARK H PARENT 69 25 47 36 23 72 26 79
REMARK Flexibility Score: inf
ROOT
ATOM      1  C   UNL A   1      35.389  35.267  33.025  1.00  0.00     0.202 C 
ENDROOT
BRANCH   1   2
ATOM      2  O   UNL A   1      34.420  36.247  32.645  1.00  0.00    -0.374 OA
BRANCH   2   3
ATOM      3  C   UNL A   1      33.190  35.855  32.033  1.00  0.00     0.202 C 
BRANCH   3   4
ATOM      4  C   UNL A   1      32.927  36.173  30.540  1.00  0.00     0.261 C 
BRANCH   4   5
ATOM      5  O   UNL A   1      32.406  35.077  29.776  1.00  0.00    -0.460 OA
BRANCH   5   6
ATOM      6  C   UNL A   1      33.133  34.324  28.908  1.00  0.00     0.338 C 
ATOM      7  O   UNL A   1      32.643  33.987  27.835  1.00  0.00    -0.246 OA
BRANCH   6   8
ATOM      8  C   UNL A   1      34.440  33.723  29.328  1.00  0.00     0.060 A 
ATOM      9  C   UNL A   1      35.584  33.972  28.549  1.00  0.00     0.016 A 
ATOM     10  C   UNL A   1      34.586  32.887  30.427  1.00  0.00     0.016 A 
ATOM     11  C   UNL A   1      36.811  33.360  28.853  1.00  0.00     0.010 A 
ATOM     12  C   UNL A   1      35.758  32.231  30.703  1.00  0.00     0.010 A 
ATOM     13  C   UNL A   1      36.882  32.469  29.925  1.00  0.00    -0.014 A 
BRANCH  13  14
ATOM     14  C   UNL A   1      38.095  31.849  30.470  1.00  0.00     0.031 A 
ATOM     15  C   UNL A   1      39.102  32.704  31.176  1.00  0.00     0.074 A 
ATOM     16  C   UNL A   1      38.435  30.675  29.909  1.00  0.00     0.049 A 
ATOM     17  N   UNL A   1      40.320  32.406  31.534  1.00  0.00    -0.248 NA
ATOM     18  C   UNL A   1      38.715  34.101  31.450  1.00  0.00     0.031 C 
ATOM     19  C   UNL A   1      37.585  29.916  28.982  1.00  0.00     0.029 A 
ATOM     20  N   UNL A   1      39.611  29.979  29.932  1.00  0.00    -0.354 N 
ATOM     21  C   UNL A   1      40.845  33.570  32.081  1.00  0.00     0.074 A 
ATOM     22  C   UNL A   1      39.839  34.599  31.948  1.00  0.00     0.031 C 
ATOM     23  C   UNL A   1      38.281  28.881  28.497  1.00  0.00     0.029 A 
ATOM     24  C   UNL A   1      39.610  28.890  29.096  1.00  0.00     0.049 A 
ATOM     25  H   UNL A   1      40.380  30.233  30.491  1.00  0.00     0.167 HD
ATOM     26  C   UNL A   1      42.058  33.737  32.657  1.00  0.00     0.031 A 
ATOM     27  C   UNL A   1      40.571  27.982  28.858  1.00  0.00     0.031 A 
ATOM     28  C   UNL A   1      43.024  32.673  32.741  1.00  0.00     0.049 A 
ATOM     29  C   UNL A   1      41.851  28.106  29.619  1.00  0.00     0.074 A 
ATOM     30  C   UNL A   1      44.191  32.622  33.479  1.00  0.00     0.029 A 
ATOM     31  N   UNL A   1      42.936  31.481  32.035  1.00  0.00    -0.354 N 
ATOM     32  N   UNL A   1      42.254  29.103  30.372  1.00  0.00    -0.248 NA
ATOM     33  C   UNL A   1      42.783  26.978  29.551  1.00  0.00     0.031 C 
ATOM     34  C   UNL A   1      44.837  31.420  33.176  1.00  0.00     0.029 A 
ATOM     35  C   UNL A   1      44.046  30.698  32.294  1.00  0.00     0.049 A 
ATOM     36  H   UNL A   1      42.193  31.230  31.439  1.00  0.00     0.167 HD
ATOM     37  C   UNL A   1      43.478  28.715  30.892  1.00  0.00     0.074 A 
ATOM     38  C   UNL A   1      43.748  27.389  30.368  1.00  0.00     0.031 C 
ATOM     39  C   UNL A   1      44.295  29.393  31.733  1.00  0.00     0.031 A 
BRANCH  26  40
ATOM     40  C   UNL A   1      42.388  35.065  33.283  1.00  0.00    -0.014 A 
ATOM     41  C   UNL A   1      43.196  35.990  32.603  1.00  0.00     0.009 A 
ATOM     42  C   UNL A   1      41.990  35.364  34.598  1.00  0.00     0.009 A 
ATOM     43  C   UNL A   1      43.603  37.174  33.223  1.00  0.00     0.001 A 
ATOM     44  C   UNL A   1      42.374  36.561  35.207  1.00  0.00     0.001 A 
ATOM     45  C   UNL A   1      43.188  37.461  34.523  1.00  0.00     0.000 A 
ENDBRANCH  26  40
BRANCH  27  46
ATOM     46  C   UNL A   1      40.232  26.825  27.995  1.00  0.00    -0.014 A 
ATOM     47  C   UNL A   1      39.600  25.687  28.519  1.00  0.00     0.009 A 
ATOM     48  C   UNL A   1      40.745  26.779  26.688  1.00  0.00     0.009 A 
ATOM     49  C   UNL A   1      39.516  24.516  27.761  1.00  0.00     0.001 A 
ATOM     50  C   UNL A   1      40.649  25.611  25.930  1.00  0.00     0.001 A 
ATOM     51  C   UNL A   1      40.046  24.477  26.471  1.00  0.00     0.000 A 
ENDBRANCH  27  46
BRANCH  39  52
ATOM     52  C   UNL A   1      45.579  28.728  32.129  1.00  0.00    -0.014 A 
ATOM     53  C   UNL A   1      46.716  28.872  31.320  1.00  0.00     0.009 A 
ATOM     54  C   UNL A   1      45.620  27.860  33.228  1.00  0.00     0.009 A 
ATOM     55  C   UNL A   1      47.868  28.138  31.591  1.00  0.00     0.001 A 
ATOM     56  C   UNL A   1      46.783  27.145  33.512  1.00  0.00     0.001 A 
ATOM     57  C   UNL A   1      47.901  27.275  32.688  1.00  0.00     0.000 A 
ENDBRANCH  39  52
ENDBRANCH  13  14
ENDBRANCH   6   8
ENDBRANCH   5   6
ENDBRANCH   4   5
ENDBRANCH   3   4
ENDBRANCH   2   3
ENDBRANCH   1   2
BRANCH   1  58
ATOM     58  C   UNL A   1      34.840  34.154  33.940  1.00  0.00     0.261 C 
BRANCH  58  59
ATOM     59  O   UNL A   1      35.866  33.247  34.408  1.00  0.00    -0.463 OA
BRANCH  59  60
ATOM     60  C   UNL A   1      37.089  33.798  34.723  1.00  0.00     0.322 C 
ATOM     61  O   UNL A   1      37.386  34.966  34.495  1.00  0.00    -0.251 OA
BRANCH  60  62
ATOM     62  C   UNL A   1      37.993  32.702  35.452  1.00  0.00     0.162 C 
ATOM     63  C   UNL A   1      38.604  33.980  36.117  1.00  0.00     0.255 C 
ATOM     64  C   UNL A   1      39.410  32.030  35.137  1.00  0.00     0.105 C 
ATOM     65  C   UNL A   1      37.294  31.789  34.362  1.00  0.00     0.285 C 
ATOM     66  O   UNL A   1      39.173  33.686  37.394  1.00  0.00    -0.492 OA
ATOM     67  C   UNL A   1      40.572  32.269  36.103  1.00  0.00     0.004 A 
ATOM     68  C   UNL A   1      39.111  30.530  35.099  1.00  0.00     0.272 C 
ATOM     69  N   UNL A   1      37.809  30.421  34.476  1.00  0.00    -0.331 N 
ATOM     70  C   UNL A   1      40.397  33.141  37.177  1.00  0.00     0.123 A 
ATOM     71  C   UNL A   1      41.842  31.716  35.923  1.00  0.00     0.008 A 
ATOM     72  H   UNL A   1      37.189  29.857  35.060  1.00  0.00     0.348 HD
ATOM     73  C   UNL A   1      41.434  33.525  38.018  1.00  0.00     0.047 A 
ATOM     74  C   UNL A   1      42.897  32.077  36.773  1.00  0.00     0.001 A 
ATOM     75  C   UNL A   1      42.700  32.999  37.802  1.00  0.00     0.004 A 
BRANCH  69  76
ATOM     76  C   UNL A   1      37.783  29.647  33.217  1.00  0.00     0.290 C 
BRANCH  76  77
ATOM     77  C   UNL A   1      38.854  28.565  32.933  1.00  0.00     0.217 C 
BRANCH  77  78
ATOM     78  O   UNL A   1      38.306  27.257  32.820  1.00  0.00    -0.391 OA
ATOM     79  H   UNL A   1      38.604  26.852  31.990  1.00  0.00     0.210 HD
ENDBRANCH  77  78
ENDBRANCH  76  77
ENDBRANCH  69  76
ENDBRANCH  60  62
ENDBRANCH  59  60
ENDBRANCH  58  59
ENDBRANCH   1  58
TORSDOF 17
ENDMDL
