MODEL 1
REMARK VINA RESULT:      -9.8      0.000      0.000
REMARK SMILES Cc1nc(C[N@@H+]2CCC[C@H]2C(=O)OCCOCCOC(=O)c2ccc(-c3c4nc(c(-c5ccccc5)c5ccc([nH]5)c(-c5ccccc5)c5nc(c(-c6ccccc6)c6ccc3[nH]6)C=C5)C=C4)cc2)cs1
REMARK SMILES IDX 16 1 15 2 14 3 13 4 11 5 12 6 10 7 6 8 7 9 8 11 9 12 5 13
REMARK SMILES IDX 4 14 1 15 2 16 3 17 71 18 70 19 17 20 18 21 19 22 20 23
REMARK SMILES IDX 21 24 22 25 23 26 69 27 24 28 68 29 25 30 26 31 27 32 62 33
REMARK SMILES IDX 28 34 67 35 61 36 63 37 29 38 66 39 60 40 59 41 30 43 52 44
REMARK SMILES IDX 37 45 51 46 38 47 41 48 50 49 64 50 39 51 40 52 49 54 65 55
REMARK SMILES IDX 42 56 31 57 32 58 36 59 33 60 35 61 34 62 53 63 54 64 58 65
REMARK SMILES IDX 55 66 57 67 56 68 43 69 44 70 48 71 45 72 47 73 46 74
REMARK H PARENT 6 10 63 42 41 53
REMARK Flexibility Score: inf
ROOT
ATOM      1  O   UNL A   1      37.597  20.246  25.028  1.00  0.00    -0.374 OA
ENDROOT
BRANCH   1   2
ATOM      2  C   UNL A   1      37.826  21.641  25.245  1.00  0.00     0.202 C 
BRANCH   2   3
ATOM      3  C   UNL A   1      36.703  22.597  24.829  1.00  0.00     0.261 C 
BRANCH   3   4
ATOM      4  O   UNL A   1      35.570  21.859  24.346  1.00  0.00    -0.459 OA
BRANCH   4   5
ATOM      5  C   UNL A   1      34.699  22.565  23.565  1.00  0.00     0.365 C 
ATOM      6  O   UNL A   1      35.034  23.420  22.753  1.00  0.00    -0.245 OA
BRANCH   5   7
ATOM      7  C   UNL A   1      33.252  22.078  23.791  1.00  0.00     0.295 C 
ATOM      8  N   UNL A   1      33.175  21.306  25.045  1.00  0.00    -0.318 N 
ATOM      9  C   UNL A   1      32.941  22.280  26.109  1.00  0.00     0.263 C 
ATOM     10  H   UNL A   1      34.050  20.815  25.226  1.00  0.00     0.349 HD
ATOM     11  C   UNL A   1      32.240  23.478  25.478  1.00  0.00     0.068 C 
ATOM     12  C   UNL A   1      32.309  23.262  23.974  1.00  0.00     0.083 C 
BRANCH   8  13
ATOM     13  C   UNL A   1      32.245  20.168  25.000  1.00  0.00     0.321 C 
BRANCH  13  14
ATOM     14  C   UNL A   1      32.876  18.802  24.971  1.00  0.00     0.106 A 
ATOM     15  C   UNL A   1      32.390  15.245  25.694  1.00  0.00     0.079 C 
ATOM     16  C   UNL A   1      32.861  16.604  25.308  1.00  0.00     0.090 A 
ATOM     17  N   UNL A   1      32.162  17.711  25.460  1.00  0.00    -0.241 NA
ATOM     18  S   UNL A   1      34.420  16.805  24.615  1.00  0.00    -0.127 S 
ATOM     19  C   UNL A   1      34.118  18.480  24.452  1.00  0.00     0.096 A 
ENDBRANCH  13  14
ENDBRANCH   8  13
ENDBRANCH   5   7
ENDBRANCH   4   5
ENDBRANCH   3   4
ENDBRANCH   2   3
ENDBRANCH   1   2
BRANCH   1  20
ATOM     20  C   UNL A   1      38.686  19.352  25.254  1.00  0.00     0.202 C 
BRANCH  20  21
ATOM     21  C   UNL A   1      39.893  19.886  26.036  1.00  0.00     0.261 C 
BRANCH  21  22
ATOM     22  O   UNL A   1      41.028  19.007  26.008  1.00  0.00    -0.460 OA
BRANCH  22  23
ATOM     23  C   UNL A   1      42.202  19.625  25.744  1.00  0.00     0.338 C 
ATOM     24  O   UNL A   1      43.117  19.212  25.039  1.00  0.00    -0.246 OA
BRANCH  23  25
ATOM     25  C   UNL A   1      42.206  20.990  26.295  1.00  0.00     0.060 A 
ATOM     26  C   UNL A   1      42.434  22.038  25.395  1.00  0.00     0.016 A 
ATOM     27  C   UNL A   1      42.079  21.243  27.663  1.00  0.00     0.016 A 
ATOM     28  C   UNL A   1      42.594  23.338  25.867  1.00  0.00     0.010 A 
ATOM     29  C   UNL A   1      42.248  22.551  28.137  1.00  0.00     0.010 A 
ATOM     30  C   UNL A   1      42.545  23.597  27.243  1.00  0.00    -0.014 A 
BRANCH  30  31
ATOM     31  C   UNL A   1      42.949  24.940  27.725  1.00  0.00     0.031 A 
ATOM     32  C   UNL A   1      41.889  25.979  27.978  1.00  0.00     0.074 A 
ATOM     33  C   UNL A   1      44.233  25.200  28.030  1.00  0.00     0.049 A 
ATOM     34  N   UNL A   1      42.009  27.175  28.498  1.00  0.00    -0.248 NA
ATOM     35  C   UNL A   1      40.510  25.619  27.607  1.00  0.00     0.031 C 
ATOM     36  C   UNL A   1      45.347  24.266  27.871  1.00  0.00     0.029 A 
ATOM     37  N   UNL A   1      44.811  26.326  28.562  1.00  0.00    -0.354 N 
ATOM     38  C   UNL A   1      40.724  27.701  28.533  1.00  0.00     0.074 A 
ATOM     39  C   UNL A   1      39.845  26.716  27.943  1.00  0.00     0.031 C 
ATOM     40  C   UNL A   1      46.474  24.853  28.310  1.00  0.00     0.029 A 
ATOM     41  C   UNL A   1      46.163  26.208  28.763  1.00  0.00     0.049 A 
ATOM     42  H   UNL A   1      44.302  27.142  28.777  1.00  0.00     0.167 HD
ATOM     43  C   UNL A   1      40.307  28.891  29.026  1.00  0.00     0.031 A 
ATOM     44  C   UNL A   1      47.051  27.091  29.259  1.00  0.00     0.031 A 
ATOM     45  C   UNL A   1      41.177  29.887  29.595  1.00  0.00     0.049 A 
ATOM     46  C   UNL A   1      46.569  28.440  29.725  1.00  0.00     0.074 A 
ATOM     47  C   UNL A   1      40.848  31.130  30.107  1.00  0.00     0.029 A 
ATOM     48  N   UNL A   1      42.550  29.752  29.723  1.00  0.00    -0.354 N 
ATOM     49  N   UNL A   1      45.348  28.913  29.773  1.00  0.00    -0.248 NA
ATOM     50  C   UNL A   1      47.595  29.369  30.222  1.00  0.00     0.031 C 
ATOM     51  C   UNL A   1      42.029  31.764  30.508  1.00  0.00     0.029 A 
ATOM     52  C   UNL A   1      43.085  30.896  30.290  1.00  0.00     0.049 A 
ATOM     53  H   UNL A   1      43.068  28.960  29.451  1.00  0.00     0.167 HD
ATOM     54  C   UNL A   1      45.455  30.181  30.329  1.00  0.00     0.074 A 
ATOM     55  C   UNL A   1      46.857  30.395  30.623  1.00  0.00     0.031 C 
ATOM     56  C   UNL A   1      44.481  31.091  30.575  1.00  0.00     0.031 A 
BRANCH  43  57
ATOM     57  C   UNL A   1      38.837  29.191  28.962  1.00  0.00    -0.014 A 
ATOM     58  C   UNL A   1      38.016  29.022  30.089  1.00  0.00     0.009 A 
ATOM     59  C   UNL A   1      38.273  29.693  27.779  1.00  0.00     0.009 A 
ATOM     60  C   UNL A   1      36.657  29.330  30.026  1.00  0.00     0.001 A 
ATOM     61  C   UNL A   1      36.917  30.022  27.726  1.00  0.00     0.001 A 
ATOM     62  C   UNL A   1      36.110  29.835  28.847  1.00  0.00     0.000 A 
ENDBRANCH  43  57
BRANCH  44  63
ATOM     63  C   UNL A   1      48.494  26.746  29.339  1.00  0.00    -0.014 A 
ATOM     64  C   UNL A   1      49.365  27.048  28.281  1.00  0.00     0.009 A 
ATOM     65  C   UNL A   1      48.996  26.059  30.456  1.00  0.00     0.009 A 
ATOM     66  C   UNL A   1      50.699  26.636  28.323  1.00  0.00     0.001 A 
ATOM     67  C   UNL A   1      50.338  25.676  30.508  1.00  0.00     0.001 A 
ATOM     68  C   UNL A   1      51.184  25.953  29.437  1.00  0.00     0.000 A 
ENDBRANCH  44  63
BRANCH  56  69
ATOM     69  C   UNL A   1      44.900  32.382  31.222  1.00  0.00    -0.014 A 
ATOM     70  C   UNL A   1      44.943  32.517  32.618  1.00  0.00     0.009 A 
ATOM     71  C   UNL A   1      45.271  33.473  30.421  1.00  0.00     0.009 A 
ATOM     72  C   UNL A   1      45.306  33.733  33.199  1.00  0.00     0.001 A 
ATOM     73  C   UNL A   1      45.661  34.680  31.004  1.00  0.00     0.001 A 
ATOM     74  C   UNL A   1      45.666  34.812  32.393  1.00  0.00     0.000 A 
ENDBRANCH  56  69
ENDBRANCH  30  31
ENDBRANCH  23  25
ENDBRANCH  22  23
ENDBRANCH  21  22
ENDBRANCH  20  21
ENDBRANCH   1  20
TORSDOF 16
ENDMDL
MODEL 2
REMARK VINA RESULT:      -9.8      3.281      7.381
REMARK SMILES Cc1nc(C[N@@H+]2CCC[C@H]2C(=O)OCCOCCOC(=O)c2ccc(-c3c4nc(c(-c5ccccc5)c5ccc([nH]5)c(-c5ccccc5)c5nc(c(-c6ccccc6)c6ccc3[nH]6)C=C5)C=C4)cc2)cs1
REMARK SMILES IDX 16 1 15 2 14 3 13 4 11 5 12 6 10 7 6 8 7 9 8 11 9 12 5 13
REMARK SMILES IDX 4 14 1 15 2 16 3 17 71 18 70 19 17 20 18 21 19 22 20 23
REMARK SMILES IDX 21 24 22 25 23 26 69 27 24 28 68 29 25 30 26 31 27 32 62 33
REMARK SMILES IDX 28 34 67 35 61 36 63 37 29 38 66 39 60 40 59 41 30 43 52 44
REMARK SMILES IDX 37 45 51 46 38 47 41 48 50 49 64 50 39 51 40 52 49 54 65 55
REMARK SMILES IDX 42 56 31 57 32 58 36 59 33 60 35 61 34 62 53 63 54 64 58 65
REMARK SMILES IDX 55 66 57 67 56 68 43 69 44 70 48 71 45 72 47 73 46 74
REMARK H PARENT 6 10 63 42 41 53
REMARK Flexibility Score: inf
ROOT
ATOM      1  O   UNL A   1      35.458  21.544  26.014  1.00  0.00    -0.374 OA
ENDROOT
BRANCH   1   2
ATOM      2  C   UNL A   1      34.318  22.338  25.674  1.00  0.00     0.202 C 
BRANCH   2   3
ATOM      3  C   UNL A   1      34.138  22.688  24.194  1.00  0.00     0.261 C 
BRANCH   3   4
ATOM      4  O   UNL A   1      33.132  23.700  24.037  1.00  0.00    -0.459 OA
BRANCH   4   5
ATOM      5  C   UNL A   1      33.523  24.970  24.356  1.00  0.00     0.365 C 
ATOM      6  O   UNL A   1      34.620  25.263  24.818  1.00  0.00    -0.245 OA
BRANCH   5   7
ATOM      7  C   UNL A   1      32.423  25.985  23.978  1.00  0.00     0.295 C 
ATOM      8  N   UNL A   1      33.041  27.225  23.472  1.00  0.00    -0.318 N 
ATOM      9  C   UNL A   1      33.250  27.022  22.040  1.00  0.00     0.263 C 
ATOM     10  H   UNL A   1      33.940  27.396  23.922  1.00  0.00     0.349 HD
ATOM     11  C   UNL A   1      32.213  26.008  21.572  1.00  0.00     0.068 C 
ATOM     12  C   UNL A   1      31.570  25.451  22.833  1.00  0.00     0.083 C 
BRANCH   8  13
ATOM     13  C   UNL A   1      32.326  28.455  23.848  1.00  0.00     0.321 C 
BRANCH  13  14
ATOM     14  C   UNL A   1      32.786  29.121  25.117  1.00  0.00     0.106 A 
ATOM     15  C   UNL A   1      35.479  29.356  27.587  1.00  0.00     0.079 C 
ATOM     16  C   UNL A   1      34.251  29.470  26.753  1.00  0.00     0.090 A 
ATOM     17  N   UNL A   1      34.004  28.747  25.680  1.00  0.00    -0.241 NA
ATOM     18  S   UNL A   1      33.031  30.602  27.177  1.00  0.00    -0.127 S 
ATOM     19  C   UNL A   1      32.136  30.137  25.796  1.00  0.00     0.096 A 
ENDBRANCH  13  14
ENDBRANCH   8  13
ENDBRANCH   5   7
ENDBRANCH   4   5
ENDBRANCH   3   4
ENDBRANCH   2   3
ENDBRANCH   1   2
BRANCH   1  20
ATOM     20  C   UNL A   1      35.897  20.573  25.066  1.00  0.00     0.202 C 
BRANCH  20  21
ATOM     21  C   UNL A   1      37.409  20.369  24.905  1.00  0.00     0.261 C 
BRANCH  21  22
ATOM     22  O   UNL A   1      38.184  21.526  25.255  1.00  0.00    -0.460 OA
BRANCH  22  23
ATOM     23  C   UNL A   1      39.263  21.259  26.025  1.00  0.00     0.338 C 
ATOM     24  O   UNL A   1      39.901  20.213  26.074  1.00  0.00    -0.246 OA
BRANCH  23  25
ATOM     25  C   UNL A   1      39.714  22.473  26.726  1.00  0.00     0.060 A 
ATOM     26  C   UNL A   1      39.087  23.676  26.381  1.00  0.00     0.016 A 
ATOM     27  C   UNL A   1      40.777  22.461  27.633  1.00  0.00     0.016 A 
ATOM     28  C   UNL A   1      39.559  24.881  26.896  1.00  0.00     0.010 A 
ATOM     29  C   UNL A   1      41.255  23.674  28.145  1.00  0.00     0.010 A 
ATOM     30  C   UNL A   1      40.672  24.892  27.748  1.00  0.00    -0.014 A 
BRANCH  30  31
ATOM     31  C   UNL A   1      41.288  26.197  28.089  1.00  0.00     0.031 A 
ATOM     32  C   UNL A   1      42.639  26.542  27.524  1.00  0.00     0.074 A 
ATOM     33  C   UNL A   1      40.607  27.106  28.810  1.00  0.00     0.049 A 
ATOM     34  N   UNL A   1      43.309  27.664  27.606  1.00  0.00    -0.248 NA
ATOM     35  C   UNL A   1      43.321  25.489  26.754  1.00  0.00     0.031 C 
ATOM     36  C   UNL A   1      39.273  26.911  29.380  1.00  0.00     0.029 A 
ATOM     37  N   UNL A   1      40.941  28.389  29.167  1.00  0.00    -0.354 N 
ATOM     38  C   UNL A   1      44.479  27.458  26.886  1.00  0.00     0.074 A 
ATOM     39  C   UNL A   1      44.450  26.092  26.411  1.00  0.00     0.031 C 
ATOM     40  C   UNL A   1      38.896  28.041  30.003  1.00  0.00     0.029 A 
ATOM     41  C   UNL A   1      39.967  29.030  29.892  1.00  0.00     0.049 A 
ATOM     42  H   UNL A   1      41.799  28.809  28.927  1.00  0.00     0.167 HD
ATOM     43  C   UNL A   1      45.482  28.330  26.628  1.00  0.00     0.031 A 
ATOM     44  C   UNL A   1      39.941  30.275  30.406  1.00  0.00     0.031 A 
ATOM     45  C   UNL A   1      45.530  29.684  27.115  1.00  0.00     0.049 A 
ATOM     46  C   UNL A   1      41.108  31.196  30.171  1.00  0.00     0.074 A 
ATOM     47  C   UNL A   1      46.513  30.638  26.918  1.00  0.00     0.029 A 
ATOM     48  N   UNL A   1      44.551  30.273  27.898  1.00  0.00    -0.354 N 
ATOM     49  N   UNL A   1      42.197  30.994  29.469  1.00  0.00    -0.248 NA
ATOM     50  C   UNL A   1      41.031  32.527  30.791  1.00  0.00     0.031 C 
ATOM     51  C   UNL A   1      46.148  31.793  27.617  1.00  0.00     0.029 A 
ATOM     52  C   UNL A   1      44.915  31.573  28.207  1.00  0.00     0.049 A 
ATOM     53  H   UNL A   1      43.720  29.833  28.190  1.00  0.00     0.167 HD
ATOM     54  C   UNL A   1      42.918  32.178  29.540  1.00  0.00     0.074 A 
ATOM     55  C   UNL A   1      42.135  33.101  30.334  1.00  0.00     0.031 C 
ATOM     56  C   UNL A   1      44.124  32.477  28.998  1.00  0.00     0.031 A 
BRANCH  43  57
ATOM     57  C   UNL A   1      46.625  27.841  25.786  1.00  0.00    -0.014 A 
ATOM     58  C   UNL A   1      46.615  28.005  24.391  1.00  0.00     0.009 A 
ATOM     59  C   UNL A   1      47.746  27.254  26.394  1.00  0.00     0.009 A 
ATOM     60  C   UNL A   1      47.696  27.572  23.621  1.00  0.00     0.001 A 
ATOM     61  C   UNL A   1      48.835  26.843  25.623  1.00  0.00     0.001 A 
ATOM     62  C   UNL A   1      48.807  26.997  24.238  1.00  0.00     0.000 A 
ENDBRANCH  43  57
BRANCH  44  63
ATOM     63  C   UNL A   1      38.776  30.735  31.206  1.00  0.00    -0.014 A 
ATOM     64  C   UNL A   1      38.735  30.538  32.595  1.00  0.00     0.009 A 
ATOM     65  C   UNL A   1      37.672  31.325  30.572  1.00  0.00     0.009 A 
ATOM     66  C   UNL A   1      37.597  30.888  33.326  1.00  0.00     0.001 A 
ATOM     67  C   UNL A   1      36.548  31.702  31.310  1.00  0.00     0.001 A 
ATOM     68  C   UNL A   1      36.506  31.471  32.684  1.00  0.00     0.000 A 
ENDBRANCH  44  63
BRANCH  56  69
ATOM     69  C   UNL A   1      44.646  33.869  29.220  1.00  0.00    -0.014 A 
ATOM     70  C   UNL A   1      45.446  34.179  30.331  1.00  0.00     0.009 A 
ATOM     71  C   UNL A   1      44.345  34.881  28.295  1.00  0.00     0.009 A 
ATOM     72  C   UNL A   1      45.896  35.485  30.534  1.00  0.00     0.001 A 
ATOM     73  C   UNL A   1      44.820  36.179  28.485  1.00  0.00     0.001 A 
ATOM     74  C   UNL A   1      45.585  36.482  29.611  1.00  0.00     0.000 A 
ENDBRANCH  56  69
ENDBRANCH  30  31
ENDBRANCH  23  25
ENDBRANCH  22  23
ENDBRANCH  21  22
ENDBRANCH  20  21
ENDBRANCH   1  20
TORSDOF 16
ENDMDL
MODEL 3
REMARK VINA RESULT:      -9.8      0.840      6.103
REMARK SMILES Cc1nc(C[N@@H+]2CCC[C@H]2C(=O)OCCOCCOC(=O)c2ccc(-c3c4nc(c(-c5ccccc5)c5ccc([nH]5)c(-c5ccccc5)c5nc(c(-c6ccccc6)c6ccc3[nH]6)C=C5)C=C4)cc2)cs1
REMARK SMILES IDX 16 1 15 2 14 3 13 4 11 5 12 6 10 7 6 8 7 9 8 11 9 12 5 13
REMARK SMILES IDX 4 14 1 15 2 16 3 17 71 18 70 19 17 20 18 21 19 22 20 23
REMARK SMILES IDX 21 24 22 25 23 26 69 27 24 28 68 29 25 30 26 31 27 32 62 33
REMARK SMILES IDX 28 34 67 35 61 36 63 37 29 38 66 39 60 40 59 41 30 43 52 44
REMARK SMILES IDX 37 45 51 46 38 47 41 48 50 49 64 50 39 51 40 52 49 54 65 55
REMARK SMILES IDX 42 56 31 57 32 58 36 59 33 60 35 61 34 62 53 63 54 64 58 65
REMARK SMILES IDX 55 66 57 67 56 68 43 69 44 70 48 71 45 72 47 73 46 74
REMARK H PARENT 6 10 63 42 41 53
REMARK Flexibility Score: inf
ROOT
ATOM      1  O   UNL A   1      38.800  21.412  25.544  1.00  0.00    -0.374 OA
ENDROOT
BRANCH   1   2
ATOM      2  C   UNL A   1      37.457  21.767  25.207  1.00  0.00     0.202 C 
BRANCH   2   3
ATOM      3  C   UNL A   1      36.942  23.106  25.745  1.00  0.00     0.261 C 
BRANCH   3   4
ATOM      4  O   UNL A   1      35.518  23.197  25.583  1.00  0.00    -0.459 OA
BRANCH   4   5
ATOM      5  C   UNL A   1      34.825  22.045  25.825  1.00  0.00     0.365 C 
ATOM      6  O   UNL A   1      34.778  21.480  26.912  1.00  0.00    -0.245 OA
BRANCH   5   7
ATOM      7  C   UNL A   1      34.047  21.606  24.566  1.00  0.00     0.295 C 
ATOM      8  N   UNL A   1      32.856  20.831  24.959  1.00  0.00    -0.318 N 
ATOM      9  C   UNL A   1      31.793  21.805  25.192  1.00  0.00     0.263 C 
ATOM     10  H   UNL A   1      33.028  20.308  25.818  1.00  0.00     0.349 HD
ATOM     11  C   UNL A   1      32.110  23.030  24.342  1.00  0.00     0.068 C 
ATOM     12  C   UNL A   1      33.519  22.821  23.810  1.00  0.00     0.083 C 
BRANCH   8  13
ATOM     13  C   UNL A   1      32.525  19.725  24.047  1.00  0.00     0.321 C 
BRANCH  13  14
ATOM     14  C   UNL A   1      33.050  18.370  24.437  1.00  0.00     0.106 A 
ATOM     15  C   UNL A   1      32.182  15.083  25.799  1.00  0.00     0.079 C 
ATOM     16  C   UNL A   1      32.814  16.306  25.229  1.00  0.00     0.090 A 
ATOM     17  N   UNL A   1      32.181  17.438  25.000  1.00  0.00    -0.241 NA
ATOM     18  S   UNL A   1      34.484  16.299  24.830  1.00  0.00    -0.127 S 
ATOM     19  C   UNL A   1      34.340  17.903  24.254  1.00  0.00     0.096 A 
ENDBRANCH  13  14
ENDBRANCH   8  13
ENDBRANCH   5   7
ENDBRANCH   4   5
ENDBRANCH   3   4
ENDBRANCH   2   3
ENDBRANCH   1   2
BRANCH   1  20
ATOM     20  C   UNL A   1      39.185  20.048  25.383  1.00  0.00     0.202 C 
BRANCH  20  21
ATOM     21  C   UNL A   1      40.308  19.514  26.283  1.00  0.00     0.261 C 
BRANCH  21  22
ATOM     22  O   UNL A   1      41.369  18.874  25.557  1.00  0.00    -0.460 OA
BRANCH  22  23
ATOM     23  C   UNL A   1      42.586  19.433  25.747  1.00  0.00     0.338 C 
ATOM     24  O   UNL A   1      43.670  18.995  25.377  1.00  0.00    -0.246 OA
BRANCH  23  25
ATOM     25  C   UNL A   1      42.456  20.774  26.342  1.00  0.00     0.060 A 
ATOM     26  C   UNL A   1      42.607  21.867  25.481  1.00  0.00     0.016 A 
ATOM     27  C   UNL A   1      42.278  20.968  27.714  1.00  0.00     0.016 A 
ATOM     28  C   UNL A   1      42.639  23.160  25.997  1.00  0.00     0.010 A 
ATOM     29  C   UNL A   1      42.318  22.269  28.232  1.00  0.00     0.010 A 
ATOM     30  C   UNL A   1      42.538  23.367  27.380  1.00  0.00    -0.014 A 
BRANCH  30  31
ATOM     31  C   UNL A   1      42.809  24.724  27.913  1.00  0.00     0.031 A 
ATOM     32  C   UNL A   1      44.235  25.172  28.090  1.00  0.00     0.074 A 
ATOM     33  C   UNL A   1      41.799  25.583  28.140  1.00  0.00     0.049 A 
ATOM     34  N   UNL A   1      44.696  26.348  28.438  1.00  0.00    -0.248 NA
ATOM     35  C   UNL A   1      45.280  24.168  27.830  1.00  0.00     0.031 C 
ATOM     36  C   UNL A   1      40.377  25.285  27.968  1.00  0.00     0.029 A 
ATOM     37  N   UNL A   1      41.822  26.895  28.546  1.00  0.00    -0.354 N 
ATOM     38  C   UNL A   1      46.080  26.229  28.421  1.00  0.00     0.074 A 
ATOM     39  C   UNL A   1      46.385  24.859  28.072  1.00  0.00     0.031 C 
ATOM     40  C   UNL A   1      39.663  26.389  28.252  1.00  0.00     0.029 A 
ATOM     41  C   UNL A   1      40.575  27.462  28.643  1.00  0.00     0.049 A 
ATOM     42  H   UNL A   1      42.653  27.381  28.750  1.00  0.00     0.167 HD
ATOM     43  C   UNL A   1      47.016  27.179  28.658  1.00  0.00     0.031 A 
ATOM     44  C   UNL A   1      40.211  28.708  29.004  1.00  0.00     0.031 A 
ATOM     45  C   UNL A   1      46.722  28.538  29.027  1.00  0.00     0.049 A 
ATOM     46  C   UNL A   1      41.274  29.720  29.341  1.00  0.00     0.074 A 
ATOM     47  C   UNL A   1      47.605  29.568  29.302  1.00  0.00     0.029 A 
ATOM     48  N   UNL A   1      45.446  29.055  29.174  1.00  0.00    -0.354 N 
ATOM     49  N   UNL A   1      42.578  29.599  29.298  1.00  0.00    -0.248 NA
ATOM     50  C   UNL A   1      40.806  31.049  29.763  1.00  0.00     0.031 C 
ATOM     51  C   UNL A   1      46.861  30.699  29.656  1.00  0.00     0.029 A 
ATOM     52  C   UNL A   1      45.517  30.385  29.553  1.00  0.00     0.049 A 
ATOM     53  H   UNL A   1      44.612  28.551  29.031  1.00  0.00     0.167 HD
ATOM     54  C   UNL A   1      43.085  30.840  29.659  1.00  0.00     0.074 A 
ATOM     55  C   UNL A   1      41.950  31.706  29.896  1.00  0.00     0.031 C 
ATOM     56  C   UNL A   1      44.377  31.231  29.785  1.00  0.00     0.031 A 
BRANCH  43  57
ATOM     57  C   UNL A   1      48.458  26.774  28.537  1.00  0.00    -0.014 A 
ATOM     58  C   UNL A   1      49.148  26.228  29.632  1.00  0.00     0.009 A 
ATOM     59  C   UNL A   1      49.120  26.893  27.306  1.00  0.00     0.009 A 
ATOM     60  C   UNL A   1      50.479  25.829  29.499  1.00  0.00     0.001 A 
ATOM     61  C   UNL A   1      50.444  26.473  27.171  1.00  0.00     0.001 A 
ATOM     62  C   UNL A   1      51.124  25.946  28.269  1.00  0.00     0.000 A 
ENDBRANCH  43  57
BRANCH  44  63
ATOM     63  C   UNL A   1      38.775  29.080  29.079  1.00  0.00    -0.014 A 
ATOM     64  C   UNL A   1      38.118  29.641  27.973  1.00  0.00     0.009 A 
ATOM     65  C   UNL A   1      38.066  28.927  30.281  1.00  0.00     0.009 A 
ATOM     66  C   UNL A   1      36.795  30.076  28.080  1.00  0.00     0.001 A 
ATOM     67  C   UNL A   1      36.734  29.334  30.376  1.00  0.00     0.001 A 
ATOM     68  C   UNL A   1      36.104  29.920  29.280  1.00  0.00     0.000 A 
ENDBRANCH  44  63
BRANCH  56  69
ATOM     69  C   UNL A   1      44.623  32.665  30.163  1.00  0.00    -0.014 A 
ATOM     70  C   UNL A   1      44.757  33.052  31.506  1.00  0.00     0.009 A 
ATOM     71  C   UNL A   1      44.736  33.640  29.160  1.00  0.00     0.009 A 
ATOM     72  C   UNL A   1      44.956  34.393  31.838  1.00  0.00     0.001 A 
ATOM     73  C   UNL A   1      44.963  34.976  29.493  1.00  0.00     0.001 A 
ATOM     74  C   UNL A   1      45.061  35.353  30.832  1.00  0.00     0.000 A 
ENDBRANCH  56  69
ENDBRANCH  30  31
ENDBRANCH  23  25
ENDBRANCH  22  23
ENDBRANCH  21  22
ENDBRANCH  20  21
ENDBRANCH   1  20
TORSDOF 16
ENDMDL
