MODEL 1
REMARK VINA RESULT:     -10.6      0.000      0.000
REMARK SMILES C=Cc1cccc(-c2ccc([C@@H](C)C(=O)OCCOCCOC(=O)c3ccc(-c4c5nc(c(-c6ccccc6)c6ccc([nH]6)c(-c6ccccc6)c6nc(c(-c7ccccc7)c7ccc4[nH]7)C=C6)C=C5)cc3)cc2)c1
REMARK SMILES IDX 18 1 17 2 16 3 14 4 15 5 12 6 13 7 11 8 8 9 9 10 74 11 10 12
REMARK SMILES IDX 73 13 7 14 3 15 4 16 75 17 5 18 6 19 2 20 1 21 19 22 20 23
REMARK SMILES IDX 21 24 22 25 23 26 24 27 25 28 26 29 72 30 27 31 71 32 28 33
REMARK SMILES IDX 29 34 30 35 65 36 31 37 70 38 64 39 66 40 32 41 69 42 63 43
REMARK SMILES IDX 62 44 33 46 55 47 40 48 54 49 41 50 44 51 53 52 67 53 42 54
REMARK SMILES IDX 43 55 52 57 68 58 45 59 34 60 35 61 39 62 36 63 38 64 37 65
REMARK SMILES IDX 56 66 57 67 61 68 58 69 60 70 59 71 46 72 47 73 51 74 48 75
REMARK SMILES IDX 50 76 49 77
REMARK H PARENT 66 45 44 56
REMARK Flexibility Score: inf
ROOT
ATOM      1  C   UNL A   1      33.066  35.853  31.349  1.00  0.00     0.202 C 
ENDROOT
BRANCH   1   2
ATOM      2  C   UNL A   1      32.981  35.794  29.823  1.00  0.00     0.261 C 
BRANCH   2   3
ATOM      3  O   UNL A   1      33.186  34.452  29.344  1.00  0.00    -0.463 OA
BRANCH   3   4
ATOM      4  C   UNL A   1      34.210  34.284  28.467  1.00  0.00     0.313 C 
ATOM      5  O   UNL A   1      34.419  35.010  27.498  1.00  0.00    -0.252 OA
BRANCH   4   6
ATOM      6  C   UNL A   1      35.072  33.064  28.751  1.00  0.00     0.126 C 
ATOM      7  C   UNL A   1      36.537  33.418  28.507  1.00  0.00     0.025 C 
BRANCH   6   8
ATOM      8  C   UNL A   1      34.684  31.746  28.085  1.00  0.00    -0.034 A 
ATOM      9  C   UNL A   1      33.801  29.240  27.052  1.00  0.00    -0.018 A 
ATOM     10  C   UNL A   1      35.116  29.417  27.511  1.00  0.00     0.009 A 
ATOM     11  C   UNL A   1      32.951  30.353  27.074  1.00  0.00     0.009 A 
ATOM     12  C   UNL A   1      35.552  30.648  28.019  1.00  0.00     0.005 A 
ATOM     13  C   UNL A   1      33.383  31.585  27.580  1.00  0.00     0.005 A 
BRANCH   9  14
ATOM     14  C   UNL A   1      33.306  27.915  26.634  1.00  0.00    -0.018 A 
ATOM     15  C   UNL A   1      33.614  25.781  25.465  1.00  0.00    -0.026 A 
ATOM     16  C   UNL A   1      32.286  25.441  25.748  1.00  0.00     0.008 A 
ATOM     17  C   UNL A   1      34.109  27.021  25.901  1.00  0.00     0.016 A 
ATOM     18  C   UNL A   1      31.477  26.308  26.478  1.00  0.00     0.001 A 
ATOM     19  C   UNL A   1      31.984  27.532  26.917  1.00  0.00     0.009 A 
BRANCH  15  20
ATOM     20  C   UNL A   1      34.418  24.850  24.664  1.00  0.00     0.000 C 
ATOM     21  C   UNL A   1      35.359  24.041  25.169  1.00  0.00     0.009 C 
ENDBRANCH  15  20
ENDBRANCH   9  14
ENDBRANCH   6   8
ENDBRANCH   4   6
ENDBRANCH   3   4
ENDBRANCH   2   3
ENDBRANCH   1   2
BRANCH   1  22
ATOM     22  O   UNL A   1      33.148  34.595  32.016  1.00  0.00    -0.374 OA
BRANCH  22  23
ATOM     23  C   UNL A   1      34.112  34.476  33.064  1.00  0.00     0.202 C 
BRANCH  23  24
ATOM     24  C   UNL A   1      35.475  33.902  32.663  1.00  0.00     0.261 C 
BRANCH  24  25
ATOM     25  O   UNL A   1      35.566  32.491  32.932  1.00  0.00    -0.460 OA
BRANCH  25  26
ATOM     26  C   UNL A   1      36.679  32.098  33.592  1.00  0.00     0.338 C 
ATOM     27  O   UNL A   1      36.859  32.072  34.802  1.00  0.00    -0.246 OA
BRANCH  26  28
ATOM     28  C   UNL A   1      37.637  31.508  32.640  1.00  0.00     0.060 A 
ATOM     29  C   UNL A   1      38.874  31.081  33.142  1.00  0.00     0.016 A 
ATOM     30  C   UNL A   1      37.356  31.419  31.276  1.00  0.00     0.016 A 
ATOM     31  C   UNL A   1      39.847  30.587  32.275  1.00  0.00     0.010 A 
ATOM     32  C   UNL A   1      38.339  30.938  30.405  1.00  0.00     0.010 A 
ATOM     33  C   UNL A   1      39.596  30.539  30.898  1.00  0.00    -0.014 A 
BRANCH  33  34
ATOM     34  C   UNL A   1      40.680  30.161  29.961  1.00  0.00     0.031 A 
ATOM     35  C   UNL A   1      40.647  28.813  29.297  1.00  0.00     0.074 A 
ATOM     36  C   UNL A   1      41.684  31.016  29.698  1.00  0.00     0.049 A 
ATOM     37  N   UNL A   1      41.523  28.267  28.493  1.00  0.00    -0.248 NA
ATOM     38  C   UNL A   1      39.473  27.972  29.575  1.00  0.00     0.031 C 
ATOM     39  C   UNL A   1      41.806  32.370  30.238  1.00  0.00     0.029 A 
ATOM     40  N   UNL A   1      42.801  30.863  28.914  1.00  0.00    -0.354 N 
ATOM     41  C   UNL A   1      41.009  27.016  28.171  1.00  0.00     0.074 A 
ATOM     42  C   UNL A   1      39.756  26.877  28.884  1.00  0.00     0.031 C 
ATOM     43  C   UNL A   1      42.945  32.919  29.779  1.00  0.00     0.029 A 
ATOM     44  C   UNL A   1      43.646  31.944  28.946  1.00  0.00     0.049 A 
ATOM     45  H   UNL A   1      42.978  30.056  28.380  1.00  0.00     0.167 HD
ATOM     46  C   UNL A   1      41.532  26.070  27.356  1.00  0.00     0.031 A 
ATOM     47  C   UNL A   1      44.861  32.117  28.393  1.00  0.00     0.031 A 
ATOM     48  C   UNL A   1      42.785  26.199  26.659  1.00  0.00     0.049 A 
ATOM     49  C   UNL A   1      45.469  31.009  27.576  1.00  0.00     0.074 A 
ATOM     50  C   UNL A   1      43.384  25.303  25.792  1.00  0.00     0.029 A 
ATOM     51  N   UNL A   1      43.636  27.286  26.766  1.00  0.00    -0.354 N 
ATOM     52  N   UNL A   1      44.960  29.844  27.256  1.00  0.00    -0.248 NA
ATOM     53  C   UNL A   1      46.823  31.240  27.048  1.00  0.00     0.031 C 
ATOM     54  C   UNL A   1      44.627  25.823  25.417  1.00  0.00     0.029 A 
ATOM     55  C   UNL A   1      44.776  27.065  26.010  1.00  0.00     0.049 A 
ATOM     56  H   UNL A   1      43.459  28.094  27.298  1.00  0.00     0.167 HD
ATOM     57  C   UNL A   1      45.921  29.212  26.477  1.00  0.00     0.074 A 
ATOM     58  C   UNL A   1      47.037  30.127  26.359  1.00  0.00     0.031 C 
ATOM     59  C   UNL A   1      45.884  27.981  25.910  1.00  0.00     0.031 A 
BRANCH  46  60
ATOM     60  C   UNL A   1      40.765  24.789  27.200  1.00  0.00    -0.014 A 
ATOM     61  C   UNL A   1      39.569  24.741  26.468  1.00  0.00     0.009 A 
ATOM     62  C   UNL A   1      41.270  23.605  27.759  1.00  0.00     0.009 A 
ATOM     63  C   UNL A   1      38.880  23.535  26.321  1.00  0.00     0.001 A 
ATOM     64  C   UNL A   1      40.591  22.397  27.590  1.00  0.00     0.001 A 
ATOM     65  C   UNL A   1      39.394  22.364  26.878  1.00  0.00     0.000 A 
ENDBRANCH  46  60
BRANCH  47  66
ATOM     66  C   UNL A   1      45.614  33.376  28.629  1.00  0.00    -0.014 A 
ATOM     67  C   UNL A   1      46.409  33.532  29.774  1.00  0.00     0.009 A 
ATOM     68  C   UNL A   1      45.522  34.438  27.716  1.00  0.00     0.009 A 
ATOM     69  C   UNL A   1      47.079  34.735  30.009  1.00  0.00     0.001 A 
ATOM     70  C   UNL A   1      46.215  35.630  27.941  1.00  0.00     0.001 A 
ATOM     71  C   UNL A   1      46.985  35.780  29.091  1.00  0.00     0.000 A 
ENDBRANCH  47  66
BRANCH  59  72
ATOM     72  C   UNL A   1      47.075  27.556  25.101  1.00  0.00    -0.014 A 
ATOM     73  C   UNL A   1      48.101  26.788  25.671  1.00  0.00     0.009 A 
ATOM     74  C   UNL A   1      47.148  27.886  23.739  1.00  0.00     0.009 A 
ATOM     75  C   UNL A   1      49.189  26.378  24.897  1.00  0.00     0.001 A 
ATOM     76  C   UNL A   1      48.223  27.454  22.962  1.00  0.00     0.001 A 
ATOM     77  C   UNL A   1      49.246  26.706  23.543  1.00  0.00     0.000 A 
ENDBRANCH  59  72
ENDBRANCH  33  34
ENDBRANCH  26  28
ENDBRANCH  25  26
ENDBRANCH  24  25
ENDBRANCH  23  24
ENDBRANCH  22  23
ENDBRANCH   1  22
TORSDOF 17
ENDMDL
MODEL 2
REMARK VINA RESULT:     -10.4      4.835     11.508
REMARK SMILES C=Cc1cccc(-c2ccc([C@@H](C)C(=O)OCCOCCOC(=O)c3ccc(-c4c5nc(c(-c6ccccc6)c6ccc([nH]6)c(-c6ccccc6)c6nc(c(-c7ccccc7)c7ccc4[nH]7)C=C6)C=C5)cc3)cc2)c1
REMARK SMILES IDX 18 1 17 2 16 3 14 4 15 5 12 6 13 7 11 8 8 9 9 10 74 11 10 12
REMARK SMILES IDX 73 13 7 14 3 15 4 16 75 17 5 18 6 19 2 20 1 21 19 22 20 23
REMARK SMILES IDX 21 24 22 25 23 26 24 27 25 28 26 29 72 30 27 31 71 32 28 33
REMARK SMILES IDX 29 34 30 35 65 36 31 37 70 38 64 39 66 40 32 41 69 42 63 43
REMARK SMILES IDX 62 44 33 46 55 47 40 48 54 49 41 50 44 51 53 52 67 53 42 54
REMARK SMILES IDX 43 55 52 57 68 58 45 59 34 60 35 61 39 62 36 63 38 64 37 65
REMARK SMILES IDX 56 66 57 67 61 68 58 69 60 70 59 71 46 72 47 73 51 74 48 75
REMARK SMILES IDX 50 76 49 77
REMARK H PARENT 66 45 44 56
REMARK Flexibility Score: inf
ROOT
ATOM      1  C   UNL A   1      46.342  24.118  27.315  1.00  0.00     0.202 C 
ENDROOT
BRANCH   1   2
ATOM      2  C   UNL A   1      46.528  25.628  27.158  1.00  0.00     0.261 C 
BRANCH   2   3
ATOM      3  O   UNL A   1      46.080  26.330  28.332  1.00  0.00    -0.463 OA
BRANCH   3   4
ATOM      4  C   UNL A   1      46.620  27.561  28.533  1.00  0.00     0.313 C 
ATOM      5  O   UNL A   1      47.627  27.774  29.202  1.00  0.00    -0.252 OA
BRANCH   4   6
ATOM      6  C   UNL A   1      45.832  28.693  27.893  1.00  0.00     0.126 C 
ATOM      7  C   UNL A   1      46.777  29.548  27.052  1.00  0.00     0.025 C 
BRANCH   6   8
ATOM      8  C   UNL A   1      44.943  29.543  28.797  1.00  0.00    -0.034 A 
ATOM      9  C   UNL A   1      43.356  31.342  30.337  1.00  0.00    -0.018 A 
ATOM     10  C   UNL A   1      44.516  30.756  30.868  1.00  0.00     0.009 A 
ATOM     11  C   UNL A   1      42.979  30.974  29.039  1.00  0.00     0.009 A 
ATOM     12  C   UNL A   1      45.298  29.871  30.112  1.00  0.00     0.005 A 
ATOM     13  C   UNL A   1      43.757  30.090  28.281  1.00  0.00     0.005 A 
BRANCH   9  14
ATOM     14  C   UNL A   1      42.603  32.367  31.083  1.00  0.00    -0.018 A 
ATOM     15  C   UNL A   1      40.815  34.041  31.219  1.00  0.00    -0.026 A 
ATOM     16  C   UNL A   1      41.260  34.405  32.495  1.00  0.00     0.008 A 
ATOM     17  C   UNL A   1      41.498  33.032  30.519  1.00  0.00     0.016 A 
ATOM     18  C   UNL A   1      42.348  33.754  33.074  1.00  0.00     0.001 A 
ATOM     19  C   UNL A   1      43.010  32.744  32.374  1.00  0.00     0.009 A 
BRANCH  15  20
ATOM     20  C   UNL A   1      39.687  34.778  30.636  1.00  0.00     0.000 C 
ATOM     21  C   UNL A   1      39.182  34.540  29.418  1.00  0.00     0.009 C 
ENDBRANCH  15  20
ENDBRANCH   9  14
ENDBRANCH   6   8
ENDBRANCH   4   6
ENDBRANCH   3   4
ENDBRANCH   2   3
ENDBRANCH   1   2
BRANCH   1  22
ATOM     22  O   UNL A   1      46.808  23.319  26.230  1.00  0.00    -0.374 OA
BRANCH  22  23
ATOM     23  C   UNL A   1      45.840  22.521  25.546  1.00  0.00     0.202 C 
BRANCH  23  24
ATOM     24  C   UNL A   1      45.257  23.123  24.263  1.00  0.00     0.261 C 
BRANCH  24  25
ATOM     25  O   UNL A   1      44.249  24.112  24.539  1.00  0.00    -0.460 OA
BRANCH  25  26
ATOM     26  C   UNL A   1      43.102  23.636  25.074  1.00  0.00     0.338 C 
ATOM     27  O   UNL A   1      42.627  22.515  24.944  1.00  0.00    -0.246 OA
BRANCH  26  28
ATOM     28  C   UNL A   1      42.552  24.619  26.023  1.00  0.00     0.060 A 
ATOM     29  C   UNL A   1      43.091  25.913  26.006  1.00  0.00     0.016 A 
ATOM     30  C   UNL A   1      41.564  24.273  26.947  1.00  0.00     0.016 A 
ATOM     31  C   UNL A   1      42.662  26.860  26.934  1.00  0.00     0.010 A 
ATOM     32  C   UNL A   1      41.146  25.221  27.887  1.00  0.00     0.010 A 
ATOM     33  C   UNL A   1      41.707  26.512  27.898  1.00  0.00    -0.014 A 
BRANCH  33  34
ATOM     34  C   UNL A   1      41.364  27.467  28.978  1.00  0.00     0.031 A 
ATOM     35  C   UNL A   1      42.173  27.473  30.245  1.00  0.00     0.074 A 
ATOM     36  C   UNL A   1      40.344  28.330  28.828  1.00  0.00     0.049 A 
ATOM     37  N   UNL A   1      42.005  28.186  31.329  1.00  0.00    -0.248 NA
ATOM     38  C   UNL A   1      43.323  26.556  30.295  1.00  0.00     0.031 C 
ATOM     39  C   UNL A   1      39.513  28.459  27.630  1.00  0.00     0.029 A 
ATOM     40  N   UNL A   1      39.826  29.256  29.700  1.00  0.00    -0.354 N 
ATOM     41  C   UNL A   1      43.024  27.802  32.193  1.00  0.00     0.074 A 
ATOM     42  C   UNL A   1      43.791  26.779  31.514  1.00  0.00     0.031 C 
ATOM     43  C   UNL A   1      38.579  29.401  27.850  1.00  0.00     0.029 A 
ATOM     44  C   UNL A   1      38.724  29.912  29.212  1.00  0.00     0.049 A 
ATOM     45  H   UNL A   1      40.208  29.432  30.589  1.00  0.00     0.167 HD
ATOM     46  C   UNL A   1      43.296  28.260  33.438  1.00  0.00     0.031 A 
ATOM     47  C   UNL A   1      37.904  30.801  29.805  1.00  0.00     0.031 A 
ATOM     48  C   UNL A   1      42.525  29.265  34.121  1.00  0.00     0.049 A 
ATOM     49  C   UNL A   1      38.167  31.217  31.227  1.00  0.00     0.074 A 
ATOM     50  C   UNL A   1      42.739  29.810  35.375  1.00  0.00     0.029 A 
ATOM     51  N   UNL A   1      41.383  29.861  33.613  1.00  0.00    -0.354 N 
ATOM     52  N   UNL A   1      39.149  30.868  32.022  1.00  0.00    -0.248 NA
ATOM     53  C   UNL A   1      37.202  32.146  31.835  1.00  0.00     0.031 C 
ATOM     54  C   UNL A   1      41.693  30.697  35.649  1.00  0.00     0.029 A 
ATOM     55  C   UNL A   1      40.858  30.740  34.546  1.00  0.00     0.049 A 
ATOM     56  H   UNL A   1      41.001  29.687  32.724  1.00  0.00     0.167 HD
ATOM     57  C   UNL A   1      38.931  31.547  33.214  1.00  0.00     0.074 A 
ATOM     58  C   UNL A   1      37.733  32.340  33.035  1.00  0.00     0.031 C 
ATOM     59  C   UNL A   1      39.659  31.515  34.357  1.00  0.00     0.031 A 
BRANCH  46  60
ATOM     60  C   UNL A   1      44.461  27.649  34.162  1.00  0.00    -0.014 A 
ATOM     61  C   UNL A   1      44.304  26.505  34.959  1.00  0.00     0.009 A 
ATOM     62  C   UNL A   1      45.742  28.201  34.007  1.00  0.00     0.009 A 
ATOM     63  C   UNL A   1      45.404  25.943  35.610  1.00  0.00     0.001 A 
ATOM     64  C   UNL A   1      46.844  27.623  34.639  1.00  0.00     0.001 A 
ATOM     65  C   UNL A   1      46.673  26.498  35.446  1.00  0.00     0.000 A 
ENDBRANCH  46  60
BRANCH  47  66
ATOM     66  C   UNL A   1      36.724  31.329  29.073  1.00  0.00    -0.014 A 
ATOM     67  C   UNL A   1      35.639  30.495  28.765  1.00  0.00     0.009 A 
ATOM     68  C   UNL A   1      36.688  32.670  28.661  1.00  0.00     0.009 A 
ATOM     69  C   UNL A   1      34.553  30.989  28.040  1.00  0.00     0.001 A 
ATOM     70  C   UNL A   1      35.588  33.168  27.959  1.00  0.00     0.001 A 
ATOM     71  C   UNL A   1      34.526  32.324  27.642  1.00  0.00     0.000 A 
ENDBRANCH  47  66
BRANCH  59  72
ATOM     72  C   UNL A   1      39.189  32.371  35.499  1.00  0.00    -0.014 A 
ATOM     73  C   UNL A   1      38.288  31.875  36.452  1.00  0.00     0.009 A 
ATOM     74  C   UNL A   1      39.693  33.672  35.650  1.00  0.00     0.009 A 
ATOM     75  C   UNL A   1      37.882  32.675  37.524  1.00  0.00     0.001 A 
ATOM     76  C   UNL A   1      39.306  34.460  36.735  1.00  0.00     0.001 A 
ATOM     77  C   UNL A   1      38.396  33.963  37.666  1.00  0.00     0.000 A 
ENDBRANCH  59  72
ENDBRANCH  33  34
ENDBRANCH  26  28
ENDBRANCH  25  26
ENDBRANCH  24  25
ENDBRANCH  23  24
ENDBRANCH  22  23
ENDBRANCH   1  22
TORSDOF 17
ENDMDL
MODEL 3
REMARK VINA RESULT:     -10.1      1.202      6.210
REMARK SMILES C=Cc1cccc(-c2ccc([C@@H](C)C(=O)OCCOCCOC(=O)c3ccc(-c4c5nc(c(-c6ccccc6)c6ccc([nH]6)c(-c6ccccc6)c6nc(c(-c7ccccc7)c7ccc4[nH]7)C=C6)C=C5)cc3)cc2)c1
REMARK SMILES IDX 18 1 17 2 16 3 14 4 15 5 12 6 13 7 11 8 8 9 9 10 74 11 10 12
REMARK SMILES IDX 73 13 7 14 3 15 4 16 75 17 5 18 6 19 2 20 1 21 19 22 20 23
REMARK SMILES IDX 21 24 22 25 23 26 24 27 25 28 26 29 72 30 27 31 71 32 28 33
REMARK SMILES IDX 29 34 30 35 65 36 31 37 70 38 64 39 66 40 32 41 69 42 63 43
REMARK SMILES IDX 62 44 33 46 55 47 40 48 54 49 41 50 44 51 53 52 67 53 42 54
REMARK SMILES IDX 43 55 52 57 68 58 45 59 34 60 35 61 39 62 36 63 38 64 37 65
REMARK SMILES IDX 56 66 57 67 61 68 58 69 60 70 59 71 46 72 47 73 51 74 48 75
REMARK SMILES IDX 50 76 49 77
REMARK H PARENT 66 45 44 56
REMARK Flexibility Score: inf
ROOT
ATOM      1  C   UNL A   1      35.291  34.216  29.127  1.00  0.00     0.202 C 
ENDROOT
BRANCH   1   2
ATOM      2  C   UNL A   1      35.434  33.006  28.203  1.00  0.00     0.261 C 
BRANCH   2   3
ATOM      3  O   UNL A   1      34.239  32.204  28.209  1.00  0.00    -0.463 OA
BRANCH   3   4
ATOM      4  C   UNL A   1      34.351  30.963  27.666  1.00  0.00     0.313 C 
ATOM      5  O   UNL A   1      35.263  30.179  27.914  1.00  0.00    -0.252 OA
BRANCH   4   6
ATOM      6  C   UNL A   1      33.262  30.629  26.660  1.00  0.00     0.126 C 
ATOM      7  C   UNL A   1      31.999  31.415  27.008  1.00  0.00     0.025 C 
BRANCH   6   8
ATOM      8  C   UNL A   1      32.963  29.155  26.396  1.00  0.00    -0.034 A 
ATOM      9  C   UNL A   1      32.506  26.352  26.148  1.00  0.00    -0.018 A 
ATOM     10  C   UNL A   1      33.486  27.002  25.381  1.00  0.00     0.009 A 
ATOM     11  C   UNL A   1      31.726  27.139  27.005  1.00  0.00     0.009 A 
ATOM     12  C   UNL A   1      33.712  28.380  25.502  1.00  0.00     0.005 A 
ATOM     13  C   UNL A   1      31.948  28.516  27.128  1.00  0.00     0.005 A 
BRANCH   9  14
ATOM     14  C   UNL A   1      32.352  24.886  26.113  1.00  0.00    -0.018 A 
ATOM     15  C   UNL A   1      33.265  22.641  25.733  1.00  0.00    -0.026 A 
ATOM     16  C   UNL A   1      31.993  22.095  25.938  1.00  0.00     0.008 A 
ATOM     17  C   UNL A   1      33.431  24.034  25.811  1.00  0.00     0.016 A 
ATOM     18  C   UNL A   1      30.913  22.920  26.244  1.00  0.00     0.001 A 
ATOM     19  C   UNL A   1      31.093  24.301  26.332  1.00  0.00     0.009 A 
BRANCH  15  20
ATOM     20  C   UNL A   1      34.366  21.736  25.379  1.00  0.00     0.000 C 
ATOM     21  C   UNL A   1      35.502  21.624  26.079  1.00  0.00     0.009 C 
ENDBRANCH  15  20
ENDBRANCH   9  14
ENDBRANCH   6   8
ENDBRANCH   4   6
ENDBRANCH   3   4
ENDBRANCH   2   3
ENDBRANCH   1   2
BRANCH   1  22
ATOM     22  O   UNL A   1      34.303  34.103  30.150  1.00  0.00    -0.374 OA
BRANCH  22  23
ATOM     23  C   UNL A   1      34.698  34.458  31.477  1.00  0.00     0.202 C 
BRANCH  23  24
ATOM     24  C   UNL A   1      34.267  33.493  32.587  1.00  0.00     0.261 C 
BRANCH  24  25
ATOM     25  O   UNL A   1      34.959  32.234  32.507  1.00  0.00    -0.460 OA
BRANCH  25  26
ATOM     26  C   UNL A   1      36.143  32.182  33.157  1.00  0.00     0.338 C 
ATOM     27  O   UNL A   1      36.374  32.504  34.316  1.00  0.00    -0.246 OA
BRANCH  26  28
ATOM     28  C   UNL A   1      37.140  31.493  32.318  1.00  0.00     0.060 A 
ATOM     29  C   UNL A   1      38.216  30.871  32.964  1.00  0.00     0.016 A 
ATOM     30  C   UNL A   1      37.053  31.497  30.925  1.00  0.00     0.016 A 
ATOM     31  C   UNL A   1      39.228  30.272  32.216  1.00  0.00     0.010 A 
ATOM     32  C   UNL A   1      38.078  30.908  30.176  1.00  0.00     0.010 A 
ATOM     33  C   UNL A   1      39.179  30.311  30.817  1.00  0.00    -0.014 A 
BRANCH  33  34
ATOM     34  C   UNL A   1      40.327  29.813  30.023  1.00  0.00     0.031 A 
ATOM     35  C   UNL A   1      41.490  30.724  29.751  1.00  0.00     0.074 A 
ATOM     36  C   UNL A   1      40.336  28.553  29.553  1.00  0.00     0.049 A 
ATOM     37  N   UNL A   1      42.563  30.504  29.035  1.00  0.00    -0.248 NA
ATOM     38  C   UNL A   1      41.439  32.058  30.371  1.00  0.00     0.031 C 
ATOM     39  C   UNL A   1      39.293  27.554  29.788  1.00  0.00     0.029 A 
ATOM     40  N   UNL A   1      41.256  27.902  28.768  1.00  0.00    -0.354 N 
ATOM     41  C   UNL A   1      43.312  31.672  29.111  1.00  0.00     0.074 A 
ATOM     42  C   UNL A   1      42.563  32.604  29.928  1.00  0.00     0.031 C 
ATOM     43  C   UNL A   1      39.626  26.420  29.147  1.00  0.00     0.029 A 
ATOM     44  C   UNL A   1      40.882  26.626  28.429  1.00  0.00     0.049 A 
ATOM     45  H   UNL A   1      42.101  28.312  28.477  1.00  0.00     0.167 HD
ATOM     46  C   UNL A   1      44.517  31.943  28.555  1.00  0.00     0.031 A 
ATOM     47  C   UNL A   1      41.470  25.734  27.608  1.00  0.00     0.031 A 
ATOM     48  C   UNL A   1      45.256  31.025  27.730  1.00  0.00     0.049 A 
ATOM     49  C   UNL A   1      42.756  26.098  26.917  1.00  0.00     0.074 A 
ATOM     50  C   UNL A   1      46.497  31.202  27.142  1.00  0.00     0.029 A 
ATOM     51  N   UNL A   1      44.815  29.764  27.364  1.00  0.00    -0.354 N 
ATOM     52  N   UNL A   1      43.469  27.194  27.022  1.00  0.00    -0.248 NA
ATOM     53  C   UNL A   1      43.316  25.103  25.990  1.00  0.00     0.031 C 
ATOM     54  C   UNL A   1      46.781  30.070  26.373  1.00  0.00     0.029 A 
ATOM     55  C   UNL A   1      45.741  29.167  26.524  1.00  0.00     0.049 A 
ATOM     56  H   UNL A   1      43.971  29.353  27.657  1.00  0.00     0.167 HD
ATOM     57  C   UNL A   1      44.567  27.012  26.190  1.00  0.00     0.074 A 
ATOM     58  C   UNL A   1      44.436  25.697  25.600  1.00  0.00     0.031 C 
ATOM     59  C   UNL A   1      45.593  27.861  25.936  1.00  0.00     0.031 A 
BRANCH  46  60
ATOM     60  C   UNL A   1      45.097  33.308  28.789  1.00  0.00    -0.014 A 
ATOM     61  C   UNL A   1      44.870  34.359  27.887  1.00  0.00     0.009 A 
ATOM     62  C   UNL A   1      45.843  33.556  29.951  1.00  0.00     0.009 A 
ATOM     63  C   UNL A   1      45.405  35.626  28.133  1.00  0.00     0.001 A 
ATOM     64  C   UNL A   1      46.355  34.829  30.206  1.00  0.00     0.001 A 
ATOM     65  C   UNL A   1      46.142  35.861  29.294  1.00  0.00     0.000 A 
ENDBRANCH  46  60
BRANCH  47  66
ATOM     66  C   UNL A   1      40.826  24.420  27.353  1.00  0.00    -0.014 A 
ATOM     67  C   UNL A   1      41.348  23.244  27.910  1.00  0.00     0.009 A 
ATOM     68  C   UNL A   1      39.692  24.336  26.530  1.00  0.00     0.009 A 
ATOM     69  C   UNL A   1      40.760  22.009  27.631  1.00  0.00     0.001 A 
ATOM     70  C   UNL A   1      39.090  23.102  26.273  1.00  0.00     0.001 A 
ATOM     71  C   UNL A   1      39.630  21.939  26.817  1.00  0.00     0.000 A 
ENDBRANCH  47  66
BRANCH  59  72
ATOM     72  C   UNL A   1      46.661  27.391  24.992  1.00  0.00    -0.014 A 
ATOM     73  C   UNL A   1      46.884  28.043  23.770  1.00  0.00     0.009 A 
ATOM     74  C   UNL A   1      47.487  26.314  25.351  1.00  0.00     0.009 A 
ATOM     75  C   UNL A   1      47.901  27.610  22.914  1.00  0.00     0.001 A 
ATOM     76  C   UNL A   1      48.518  25.900  24.506  1.00  0.00     0.001 A 
ATOM     77  C   UNL A   1      48.719  26.544  23.286  1.00  0.00     0.000 A 
ENDBRANCH  59  72
ENDBRANCH  33  34
ENDBRANCH  26  28
ENDBRANCH  25  26
ENDBRANCH  24  25
ENDBRANCH  23  24
ENDBRANCH  22  23
ENDBRANCH   1  22
TORSDOF 17
ENDMDL
