MODEL 1
REMARK VINA RESULT:     -11.0      0.000      0.000
REMARK SMILES O=C(Cc1cccn1-c1ccc2c(c1)OCCO2)OCCOCCOC(=O)c1ccc(-c2c3nc(c(-c4ccccc4)c4ccc([nH]4)c(-c4ccccc4)c4nc(c(-c5ccccc5)c5ccc2[nH]5)C=C4)C=C3)cc1
REMARK SMILES IDX 22 1 21 2 20 3 19 4 2 5 1 6 3 7 4 8 5 9 8 10 6 11 7 12 9 13
REMARK SMILES IDX 10 14 14 15 11 16 13 17 12 18 15 19 18 20 16 21 17 22 23 23
REMARK SMILES IDX 24 24 25 25 26 26 27 27 28 28 29 29 75 30 30 31 74 32 31 33
REMARK SMILES IDX 32 34 33 35 68 36 34 37 73 38 67 39 69 40 35 41 72 42 66 43
REMARK SMILES IDX 65 44 36 46 58 47 43 48 57 49 44 50 47 51 56 52 70 53 45 54
REMARK SMILES IDX 46 55 55 57 71 58 48 59 37 60 38 61 42 62 39 63 41 64 40 65
REMARK SMILES IDX 59 66 60 67 64 68 61 69 63 70 62 71 49 72 50 73 54 74 51 75
REMARK SMILES IDX 53 76 52 77
REMARK H PARENT 69 45 47 56
REMARK Flexibility Score: inf
ROOT
ATOM      1  O   UNL A   1      40.118  22.332  26.798  1.00  0.00    -0.374 OA
ENDROOT
BRANCH   1   2
ATOM      2  C   UNL A   1      39.193  21.640  25.963  1.00  0.00     0.202 C 
BRANCH   2   3
ATOM      3  C   UNL A   1      37.811  22.234  25.668  1.00  0.00     0.261 C 
BRANCH   3   4
ATOM      4  O   UNL A   1      37.195  21.839  24.436  1.00  0.00    -0.463 OA
BRANCH   4   5
ATOM      5  C   UNL A   1      36.455  22.756  23.766  1.00  0.00     0.311 C 
ATOM      6  O   UNL A   1      36.763  23.116  22.635  1.00  0.00    -0.252 OA
BRANCH   5   7
ATOM      7  C   UNL A   1      35.434  23.449  24.635  1.00  0.00     0.177 C 
BRANCH   7   8
ATOM      8  C   UNL A   1      34.014  23.210  24.232  1.00  0.00     0.034 A 
ATOM      9  C   UNL A   1      33.487  22.017  23.765  1.00  0.00     0.024 A 
ATOM     10  N   UNL A   1      33.022  24.175  24.128  1.00  0.00    -0.320 N 
ATOM     11  C   UNL A   1      32.165  22.261  23.343  1.00  0.00     0.020 A 
ATOM     12  C   UNL A   1      31.911  23.595  23.557  1.00  0.00     0.091 A 
BRANCH  10  13
ATOM     13  C   UNL A   1      33.095  25.546  24.453  1.00  0.00     0.049 A 
ATOM     14  C   UNL A   1      33.590  26.452  23.511  1.00  0.00     0.031 A 
ATOM     15  C   UNL A   1      32.714  25.970  25.730  1.00  0.00     0.077 A 
ATOM     16  C   UNL A   1      33.662  27.810  23.835  1.00  0.00     0.052 A 
ATOM     17  C   UNL A   1      32.749  27.334  26.028  1.00  0.00     0.163 A 
ATOM     18  C   UNL A   1      33.233  28.253  25.087  1.00  0.00     0.161 A 
ATOM     19  O   UNL A   1      32.265  27.709  27.255  1.00  0.00    -0.486 OA
ATOM     20  O   UNL A   1      33.272  29.606  25.308  1.00  0.00    -0.486 OA
ATOM     21  C   UNL A   1      31.927  29.100  27.274  1.00  0.00     0.271 C 
ATOM     22  C   UNL A   1      33.050  29.936  26.684  1.00  0.00     0.271 C 
ENDBRANCH  10  13
ENDBRANCH   7   8
ENDBRANCH   5   7
ENDBRANCH   4   5
ENDBRANCH   3   4
ENDBRANCH   2   3
ENDBRANCH   1   2
BRANCH   1  23
ATOM     23  C   UNL A   1      41.487  22.476  26.443  1.00  0.00     0.202 C 
BRANCH  23  24
ATOM     24  C   UNL A   1      42.027  23.896  26.324  1.00  0.00     0.261 C 
BRANCH  24  25
ATOM     25  O   UNL A   1      41.030  24.883  26.576  1.00  0.00    -0.460 OA
BRANCH  25  26
ATOM     26  C   UNL A   1      41.551  25.993  27.126  1.00  0.00     0.338 C 
ATOM     27  O   UNL A   1      42.721  26.207  27.426  1.00  0.00    -0.246 OA
BRANCH  26  28
ATOM     28  C   UNL A   1      40.511  26.964  27.441  1.00  0.00     0.060 A 
ATOM     29  C   UNL A   1      40.887  28.305  27.309  1.00  0.00     0.016 A 
ATOM     30  C   UNL A   1      39.484  26.543  28.289  1.00  0.00     0.016 A 
ATOM     31  C   UNL A   1      40.410  29.205  28.232  1.00  0.00     0.010 A 
ATOM     32  C   UNL A   1      39.019  27.443  29.222  1.00  0.00     0.010 A 
ATOM     33  C   UNL A   1      39.563  28.736  29.240  1.00  0.00    -0.014 A 
BRANCH  33  34
ATOM     34  C   UNL A   1      39.252  29.638  30.352  1.00  0.00     0.031 A 
ATOM     35  C   UNL A   1      40.011  29.294  31.609  1.00  0.00     0.074 A 
ATOM     36  C   UNL A   1      38.341  30.618  30.090  1.00  0.00     0.049 A 
ATOM     37  N   UNL A   1      39.814  29.694  32.825  1.00  0.00    -0.248 NA
ATOM     38  C   UNL A   1      41.135  28.326  31.508  1.00  0.00     0.031 C 
ATOM     39  C   UNL A   1      37.645  30.780  28.795  1.00  0.00     0.029 A 
ATOM     40  N   UNL A   1      37.819  31.657  30.826  1.00  0.00    -0.354 N 
ATOM     41  C   UNL A   1      40.869  29.181  33.587  1.00  0.00     0.074 A 
ATOM     42  C   UNL A   1      41.577  28.250  32.759  1.00  0.00     0.031 C 
ATOM     43  C   UNL A   1      36.785  31.816  28.845  1.00  0.00     0.029 A 
ATOM     44  C   UNL A   1      36.849  32.434  30.155  1.00  0.00     0.049 A 
ATOM     45  H   UNL A   1      38.101  31.845  31.750  1.00  0.00     0.167 HD
ATOM     46  C   UNL A   1      41.213  29.651  34.815  1.00  0.00     0.031 A 
ATOM     47  C   UNL A   1      36.130  33.500  30.613  1.00  0.00     0.031 A 
ATOM     48  C   UNL A   1      40.282  30.608  35.311  1.00  0.00     0.049 A 
ATOM     49  C   UNL A   1      36.668  33.849  31.942  1.00  0.00     0.074 A 
ATOM     50  C   UNL A   1      39.010  30.520  35.819  1.00  0.00     0.029 A 
ATOM     51  N   UNL A   1      40.541  31.932  35.047  1.00  0.00    -0.354 N 
ATOM     52  N   UNL A   1      37.835  34.377  32.147  1.00  0.00    -0.248 NA
ATOM     53  C   UNL A   1      35.891  33.543  33.147  1.00  0.00     0.031 C 
ATOM     54  C   UNL A   1      38.397  31.759  35.499  1.00  0.00     0.029 A 
ATOM     55  C   UNL A   1      39.328  32.549  34.823  1.00  0.00     0.049 A 
ATOM     56  H   UNL A   1      41.428  32.359  35.021  1.00  0.00     0.167 HD
ATOM     57  C   UNL A   1      38.079  34.098  33.471  1.00  0.00     0.074 A 
ATOM     58  C   UNL A   1      36.789  33.859  34.078  1.00  0.00     0.031 C 
ATOM     59  C   UNL A   1      39.293  33.619  33.847  1.00  0.00     0.031 A 
BRANCH  46  60
ATOM     60  C   UNL A   1      42.505  29.425  35.532  1.00  0.00    -0.014 A 
ATOM     61  C   UNL A   1      42.818  28.118  35.950  1.00  0.00     0.009 A 
ATOM     62  C   UNL A   1      43.310  30.470  36.013  1.00  0.00     0.009 A 
ATOM     63  C   UNL A   1      43.868  27.869  36.836  1.00  0.00     0.001 A 
ATOM     64  C   UNL A   1      44.387  30.217  36.871  1.00  0.00     0.001 A 
ATOM     65  C   UNL A   1      44.652  28.920  37.297  1.00  0.00     0.000 A 
ENDBRANCH  46  60
BRANCH  47  66
ATOM     66  C   UNL A   1      34.983  34.328  30.102  1.00  0.00    -0.014 A 
ATOM     67  C   UNL A   1      33.961  34.870  30.888  1.00  0.00     0.009 A 
ATOM     68  C   UNL A   1      34.946  34.672  28.725  1.00  0.00     0.009 A 
ATOM     69  C   UNL A   1      32.995  35.740  30.346  1.00  0.00     0.001 A 
ATOM     70  C   UNL A   1      34.012  35.565  28.188  1.00  0.00     0.001 A 
ATOM     71  C   UNL A   1      33.035  36.107  29.005  1.00  0.00     0.000 A 
ENDBRANCH  47  66
BRANCH  59  72
ATOM     72  C   UNL A   1      40.401  33.887  32.839  1.00  0.00    -0.014 A 
ATOM     73  C   UNL A   1      40.584  33.058  31.724  1.00  0.00     0.009 A 
ATOM     74  C   UNL A   1      41.363  34.889  33.057  1.00  0.00     0.009 A 
ATOM     75  C   UNL A   1      41.692  33.219  30.879  1.00  0.00     0.001 A 
ATOM     76  C   UNL A   1      42.463  35.063  32.213  1.00  0.00     0.001 A 
ATOM     77  C   UNL A   1      42.631  34.220  31.124  1.00  0.00     0.000 A 
ENDBRANCH  59  72
ENDBRANCH  33  34
ENDBRANCH  26  28
ENDBRANCH  25  26
ENDBRANCH  24  25
ENDBRANCH  23  24
ENDBRANCH   1  23
TORSDOF 16
ENDMDL
MODEL 2
REMARK VINA RESULT:     -11.0      4.564      9.925
REMARK SMILES O=C(Cc1cccn1-c1ccc2c(c1)OCCO2)OCCOCCOC(=O)c1ccc(-c2c3nc(c(-c4ccccc4)c4ccc([nH]4)c(-c4ccccc4)c4nc(c(-c5ccccc5)c5ccc2[nH]5)C=C4)C=C3)cc1
REMARK SMILES IDX 22 1 21 2 20 3 19 4 2 5 1 6 3 7 4 8 5 9 8 10 6 11 7 12 9 13
REMARK SMILES IDX 10 14 14 15 11 16 13 17 12 18 15 19 18 20 16 21 17 22 23 23
REMARK SMILES IDX 24 24 25 25 26 26 27 27 28 28 29 29 75 30 30 31 74 32 31 33
REMARK SMILES IDX 32 34 33 35 68 36 34 37 73 38 67 39 69 40 35 41 72 42 66 43
REMARK SMILES IDX 65 44 36 46 58 47 43 48 57 49 44 50 47 51 56 52 70 53 45 54
REMARK SMILES IDX 46 55 55 57 71 58 48 59 37 60 38 61 42 62 39 63 41 64 40 65
REMARK SMILES IDX 59 66 60 67 64 68 61 69 63 70 62 71 49 72 50 73 54 74 51 75
REMARK SMILES IDX 53 76 52 77
REMARK H PARENT 69 45 47 56
REMARK Flexibility Score: inf
ROOT
ATOM      1  O   UNL A   1      34.492  30.582  27.851  1.00  0.00    -0.374 OA
ENDROOT
BRANCH   1   2
ATOM      2  C   UNL A   1      34.583  29.281  27.276  1.00  0.00     0.202 C 
BRANCH   2   3
ATOM      3  C   UNL A   1      33.339  28.392  27.154  1.00  0.00     0.261 C 
BRANCH   3   4
ATOM      4  O   UNL A   1      32.926  28.052  25.824  1.00  0.00    -0.463 OA
BRANCH   4   5
ATOM      5  C   UNL A   1      33.081  26.769  25.414  1.00  0.00     0.311 C 
ATOM      6  O   UNL A   1      33.875  26.479  24.526  1.00  0.00    -0.252 OA
BRANCH   5   7
ATOM      7  C   UNL A   1      32.020  25.839  25.948  1.00  0.00     0.177 C 
BRANCH   7   8
ATOM      8  C   UNL A   1      31.575  24.787  24.982  1.00  0.00     0.034 A 
ATOM      9  C   UNL A   1      32.117  23.519  24.848  1.00  0.00     0.024 A 
ATOM     10  N   UNL A   1      30.639  24.952  23.971  1.00  0.00    -0.320 N 
ATOM     11  C   UNL A   1      31.527  22.911  23.723  1.00  0.00     0.020 A 
ATOM     12  C   UNL A   1      30.640  23.817  23.191  1.00  0.00     0.091 A 
BRANCH  10  13
ATOM     13  C   UNL A   1      29.850  26.085  23.682  1.00  0.00     0.049 A 
ATOM     14  C   UNL A   1      28.541  26.156  24.170  1.00  0.00     0.031 A 
ATOM     15  C   UNL A   1      30.373  27.098  22.873  1.00  0.00     0.077 A 
ATOM     16  C   UNL A   1      27.761  27.279  23.881  1.00  0.00     0.052 A 
ATOM     17  C   UNL A   1      29.600  28.235  22.628  1.00  0.00     0.163 A 
ATOM     18  C   UNL A   1      28.292  28.322  23.121  1.00  0.00     0.161 A 
ATOM     19  O   UNL A   1      30.199  29.244  21.919  1.00  0.00    -0.486 OA
ATOM     20  O   UNL A   1      27.489  29.419  22.936  1.00  0.00    -0.486 OA
ATOM     21  C   UNL A   1      29.518  30.489  22.119  1.00  0.00     0.271 C 
ATOM     22  C   UNL A   1      28.018  30.316  21.952  1.00  0.00     0.271 C 
ENDBRANCH  10  13
ENDBRANCH   7   8
ENDBRANCH   5   7
ENDBRANCH   4   5
ENDBRANCH   3   4
ENDBRANCH   2   3
ENDBRANCH   1   2
BRANCH   1  23
ATOM     23  C   UNL A   1      35.649  31.338  28.182  1.00  0.00     0.202 C 
BRANCH  23  24
ATOM     24  C   UNL A   1      36.107  31.307  29.635  1.00  0.00     0.261 C 
BRANCH  24  25
ATOM     25  O   UNL A   1      36.711  30.066  29.991  1.00  0.00    -0.460 OA
BRANCH  25  26
ATOM     26  C   UNL A   1      38.049  30.109  29.877  1.00  0.00     0.338 C 
ATOM     27  O   UNL A   1      38.801  31.032  30.174  1.00  0.00    -0.246 OA
BRANCH  26  28
ATOM     28  C   UNL A   1      38.564  28.905  29.239  1.00  0.00     0.060 A 
ATOM     29  C   UNL A   1      39.372  28.098  30.048  1.00  0.00     0.016 A 
ATOM     30  C   UNL A   1      38.654  28.913  27.844  1.00  0.00     0.016 A 
ATOM     31  C   UNL A   1      40.462  27.490  29.474  1.00  0.00     0.010 A 
ATOM     32  C   UNL A   1      39.755  28.315  27.273  1.00  0.00     0.010 A 
ATOM     33  C   UNL A   1      40.695  27.695  28.110  1.00  0.00    -0.014 A 
BRANCH  33  34
ATOM     34  C   UNL A   1      41.977  27.249  27.558  1.00  0.00     0.031 A 
ATOM     35  C   UNL A   1      42.936  28.388  27.322  1.00  0.00     0.074 A 
ATOM     36  C   UNL A   1      42.098  25.909  27.337  1.00  0.00     0.049 A 
ATOM     37  N   UNL A   1      44.030  28.413  26.630  1.00  0.00    -0.248 NA
ATOM     38  C   UNL A   1      42.609  29.715  27.911  1.00  0.00     0.031 C 
ATOM     39  C   UNL A   1      41.021  24.926  27.581  1.00  0.00     0.029 A 
ATOM     40  N   UNL A   1      43.118  25.107  26.878  1.00  0.00    -0.354 N 
ATOM     41  C   UNL A   1      44.603  29.673  26.838  1.00  0.00     0.074 A 
ATOM     42  C   UNL A   1      43.632  30.472  27.527  1.00  0.00     0.031 C 
ATOM     43  C   UNL A   1      41.425  23.686  27.245  1.00  0.00     0.029 A 
ATOM     44  C   UNL A   1      42.795  23.735  26.772  1.00  0.00     0.049 A 
ATOM     45  H   UNL A   1      44.005  25.461  26.642  1.00  0.00     0.167 HD
ATOM     46  C   UNL A   1      45.904  29.965  26.575  1.00  0.00     0.031 A 
ATOM     47  C   UNL A   1      43.564  22.700  26.326  1.00  0.00     0.031 A 
ATOM     48  C   UNL A   1      46.576  28.900  25.910  1.00  0.00     0.049 A 
ATOM     49  C   UNL A   1      44.925  23.229  26.114  1.00  0.00     0.074 A 
ATOM     50  C   UNL A   1      46.538  28.405  24.631  1.00  0.00     0.029 A 
ATOM     51  N   UNL A   1      47.237  27.986  26.697  1.00  0.00    -0.354 N 
ATOM     52  N   UNL A   1      45.729  23.594  27.065  1.00  0.00    -0.248 NA
ATOM     53  C   UNL A   1      45.425  23.430  24.751  1.00  0.00     0.031 C 
ATOM     54  C   UNL A   1      46.857  27.029  24.755  1.00  0.00     0.029 A 
ATOM     55  C   UNL A   1      47.085  26.751  26.104  1.00  0.00     0.049 A 
ATOM     56  H   UNL A   1      47.728  28.180  27.529  1.00  0.00     0.167 HD
ATOM     57  C   UNL A   1      46.629  24.410  26.422  1.00  0.00     0.074 A 
ATOM     58  C   UNL A   1      46.571  24.052  25.022  1.00  0.00     0.031 C 
ATOM     59  C   UNL A   1      46.977  25.600  26.977  1.00  0.00     0.031 A 
BRANCH  46  60
ATOM     60  C   UNL A   1      46.680  31.136  27.085  1.00  0.00    -0.014 A 
ATOM     61  C   UNL A   1      47.315  31.023  28.336  1.00  0.00     0.009 A 
ATOM     62  C   UNL A   1      46.620  32.411  26.500  1.00  0.00     0.009 A 
ATOM     63  C   UNL A   1      47.839  32.141  28.989  1.00  0.00     0.001 A 
ATOM     64  C   UNL A   1      47.179  33.525  27.137  1.00  0.00     0.001 A 
ATOM     65  C   UNL A   1      47.769  33.392  28.389  1.00  0.00     0.000 A 
ENDBRANCH  46  60
BRANCH  47  66
ATOM     66  C   UNL A   1      43.341  21.246  26.014  1.00  0.00    -0.014 A 
ATOM     67  C   UNL A   1      44.247  20.410  25.352  1.00  0.00     0.009 A 
ATOM     68  C   UNL A   1      42.157  20.618  26.482  1.00  0.00     0.009 A 
ATOM     69  C   UNL A   1      44.011  19.029  25.213  1.00  0.00     0.001 A 
ATOM     70  C   UNL A   1      41.934  19.240  26.381  1.00  0.00     0.001 A 
ATOM     71  C   UNL A   1      42.870  18.440  25.749  1.00  0.00     0.000 A 
ENDBRANCH  47  66
BRANCH  59  72
ATOM     72  C   UNL A   1      46.698  25.689  28.471  1.00  0.00    -0.014 A 
ATOM     73  C   UNL A   1      45.412  25.969  28.953  1.00  0.00     0.009 A 
ATOM     74  C   UNL A   1      47.737  25.629  29.415  1.00  0.00     0.009 A 
ATOM     75  C   UNL A   1      45.187  26.195  30.319  1.00  0.00     0.001 A 
ATOM     76  C   UNL A   1      47.520  25.842  30.778  1.00  0.00     0.001 A 
ATOM     77  C   UNL A   1      46.240  26.133  31.231  1.00  0.00     0.000 A 
ENDBRANCH  59  72
ENDBRANCH  33  34
ENDBRANCH  26  28
ENDBRANCH  25  26
ENDBRANCH  24  25
ENDBRANCH  23  24
ENDBRANCH   1  23
TORSDOF 16
ENDMDL
MODEL 3
REMARK VINA RESULT:     -10.7      2.162      7.023
REMARK SMILES O=C(Cc1cccn1-c1ccc2c(c1)OCCO2)OCCOCCOC(=O)c1ccc(-c2c3nc(c(-c4ccccc4)c4ccc([nH]4)c(-c4ccccc4)c4nc(c(-c5ccccc5)c5ccc2[nH]5)C=C4)C=C3)cc1
REMARK SMILES IDX 22 1 21 2 20 3 19 4 2 5 1 6 3 7 4 8 5 9 8 10 6 11 7 12 9 13
REMARK SMILES IDX 10 14 14 15 11 16 13 17 12 18 15 19 18 20 16 21 17 22 23 23
REMARK SMILES IDX 24 24 25 25 26 26 27 27 28 28 29 29 75 30 30 31 74 32 31 33
REMARK SMILES IDX 32 34 33 35 68 36 34 37 73 38 67 39 69 40 35 41 72 42 66 43
REMARK SMILES IDX 65 44 36 46 58 47 43 48 57 49 44 50 47 51 56 52 70 53 45 54
REMARK SMILES IDX 46 55 55 57 71 58 48 59 37 60 38 61 42 62 39 63 41 64 40 65
REMARK SMILES IDX 59 66 60 67 64 68 61 69 63 70 62 71 49 72 50 73 54 74 51 75
REMARK SMILES IDX 53 76 52 77
REMARK H PARENT 69 45 47 56
REMARK Flexibility Score: inf
ROOT
ATOM      1  O   UNL A   1      33.529  29.159  25.780  1.00  0.00    -0.374 OA
ENDROOT
BRANCH   1   2
ATOM      2  C   UNL A   1      33.609  27.762  25.505  1.00  0.00     0.202 C 
BRANCH   2   3
ATOM      3  C   UNL A   1      33.638  27.250  24.060  1.00  0.00     0.261 C 
BRANCH   3   4
ATOM      4  O   UNL A   1      33.882  25.849  23.884  1.00  0.00    -0.463 OA
BRANCH   4   5
ATOM      5  C   UNL A   1      33.779  25.333  22.635  1.00  0.00     0.311 C 
ATOM      6  O   UNL A   1      33.504  26.044  21.675  1.00  0.00    -0.252 OA
BRANCH   5   7
ATOM      7  C   UNL A   1      33.764  23.824  22.611  1.00  0.00     0.177 C 
BRANCH   7   8
ATOM      8  C   UNL A   1      33.015  23.195  23.743  1.00  0.00     0.034 A 
ATOM      9  C   UNL A   1      31.644  23.236  23.937  1.00  0.00     0.024 A 
ATOM     10  N   UNL A   1      33.578  22.583  24.854  1.00  0.00    -0.320 N 
ATOM     11  C   UNL A   1      31.366  22.669  25.197  1.00  0.00     0.020 A 
ATOM     12  C   UNL A   1      32.570  22.296  25.747  1.00  0.00     0.091 A 
BRANCH  10  13
ATOM     13  C   UNL A   1      34.941  22.342  25.126  1.00  0.00     0.049 A 
ATOM     14  C   UNL A   1      35.516  21.127  24.740  1.00  0.00     0.031 A 
ATOM     15  C   UNL A   1      35.684  23.302  25.818  1.00  0.00     0.077 A 
ATOM     16  C   UNL A   1      36.866  20.889  25.011  1.00  0.00     0.052 A 
ATOM     17  C   UNL A   1      37.043  23.073  26.045  1.00  0.00     0.163 A 
ATOM     18  C   UNL A   1      37.632  21.864  25.653  1.00  0.00     0.161 A 
ATOM     19  O   UNL A   1      37.749  24.091  26.632  1.00  0.00    -0.486 OA
ATOM     20  O   UNL A   1      38.964  21.585  25.824  1.00  0.00    -0.486 OA
ATOM     21  C   UNL A   1      39.155  23.943  26.402  1.00  0.00     0.271 C 
ATOM     22  C   UNL A   1      39.604  22.522  26.699  1.00  0.00     0.271 C 
ENDBRANCH  10  13
ENDBRANCH   7   8
ENDBRANCH   5   7
ENDBRANCH   4   5
ENDBRANCH   3   4
ENDBRANCH   2   3
ENDBRANCH   1   2
BRANCH   1  23
ATOM     23  C   UNL A   1      33.009  29.654  27.006  1.00  0.00     0.202 C 
BRANCH  23  24
ATOM     24  C   UNL A   1      32.644  31.132  27.059  1.00  0.00     0.261 C 
BRANCH  24  25
ATOM     25  O   UNL A   1      33.741  31.953  27.452  1.00  0.00    -0.460 OA
BRANCH  25  26
ATOM     26  C   UNL A   1      33.332  33.120  27.978  1.00  0.00     0.338 C 
ATOM     27  O   UNL A   1      32.377  33.808  27.632  1.00  0.00    -0.246 OA
BRANCH  26  28
ATOM     28  C   UNL A   1      34.241  33.577  29.020  1.00  0.00     0.060 A 
ATOM     29  C   UNL A   1      35.452  34.110  28.565  1.00  0.00     0.016 A 
ATOM     30  C   UNL A   1      34.089  33.012  30.289  1.00  0.00     0.016 A 
ATOM     31  C   UNL A   1      36.591  33.838  29.284  1.00  0.00     0.010 A 
ATOM     32  C   UNL A   1      35.233  32.727  31.001  1.00  0.00     0.010 A 
ATOM     33  C   UNL A   1      36.476  33.058  30.440  1.00  0.00    -0.014 A 
BRANCH  33  34
ATOM     34  C   UNL A   1      37.708  32.571  31.065  1.00  0.00     0.031 A 
ATOM     35  C   UNL A   1      38.334  31.430  30.303  1.00  0.00     0.074 A 
ATOM     36  C   UNL A   1      38.083  33.199  32.215  1.00  0.00     0.049 A 
ATOM     37  N   UNL A   1      39.257  30.602  30.675  1.00  0.00    -0.248 NA
ATOM     38  C   UNL A   1      37.829  31.138  28.935  1.00  0.00     0.031 C 
ATOM     39  C   UNL A   1      37.310  34.282  32.860  1.00  0.00     0.029 A 
ATOM     40  N   UNL A   1      39.159  33.073  33.064  1.00  0.00    -0.354 N 
ATOM     41  C   UNL A   1      39.564  29.821  29.554  1.00  0.00     0.074 A 
ATOM     42  C   UNL A   1      38.576  30.106  28.556  1.00  0.00     0.031 C 
ATOM     43  C   UNL A   1      37.915  34.686  33.994  1.00  0.00     0.029 A 
ATOM     44  C   UNL A   1      39.135  33.928  34.188  1.00  0.00     0.049 A 
ATOM     45  H   UNL A   1      39.890  32.435  32.900  1.00  0.00     0.167 HD
ATOM     46  C   UNL A   1      40.702  29.088  29.432  1.00  0.00     0.031 A 
ATOM     47  C   UNL A   1      40.024  34.024  35.219  1.00  0.00     0.031 A 
ATOM     48  C   UNL A   1      41.467  29.067  30.633  1.00  0.00     0.049 A 
ATOM     49  C   UNL A   1      41.176  33.165  34.880  1.00  0.00     0.074 A 
ATOM     50  C   UNL A   1      41.317  28.437  31.843  1.00  0.00     0.029 A 
ATOM     51  N   UNL A   1      42.441  30.027  30.773  1.00  0.00    -0.354 N 
ATOM     52  N   UNL A   1      42.032  33.421  33.939  1.00  0.00    -0.248 NA
ATOM     53  C   UNL A   1      41.374  31.898  35.589  1.00  0.00     0.031 C 
ATOM     54  C   UNL A   1      41.950  29.289  32.785  1.00  0.00     0.029 A 
ATOM     55  C   UNL A   1      42.466  30.393  32.103  1.00  0.00     0.049 A 
ATOM     56  H   UNL A   1      43.014  30.386  30.057  1.00  0.00     0.167 HD
ATOM     57  C   UNL A   1      42.602  32.194  33.691  1.00  0.00     0.074 A 
ATOM     58  C   UNL A   1      42.382  31.398  34.878  1.00  0.00     0.031 C 
ATOM     59  C   UNL A   1      42.770  31.775  32.410  1.00  0.00     0.031 A 
BRANCH  46  60
ATOM     60  C   UNL A   1      41.276  28.528  28.170  1.00  0.00    -0.014 A 
ATOM     61  C   UNL A   1      42.116  29.350  27.396  1.00  0.00     0.009 A 
ATOM     62  C   UNL A   1      40.844  27.320  27.599  1.00  0.00     0.009 A 
ATOM     63  C   UNL A   1      42.483  28.996  26.096  1.00  0.00     0.001 A 
ATOM     64  C   UNL A   1      41.241  26.948  26.310  1.00  0.00     0.001 A 
ATOM     65  C   UNL A   1      42.043  27.795  25.553  1.00  0.00     0.000 A 
ENDBRANCH  46  60
BRANCH  47  66
ATOM     66  C   UNL A   1      40.078  34.751  36.534  1.00  0.00    -0.014 A 
ATOM     67  C   UNL A   1      40.749  35.956  36.768  1.00  0.00     0.009 A 
ATOM     68  C   UNL A   1      39.334  34.241  37.630  1.00  0.00     0.009 A 
ATOM     69  C   UNL A   1      40.642  36.633  37.998  1.00  0.00     0.001 A 
ATOM     70  C   UNL A   1      39.193  34.927  38.841  1.00  0.00     0.001 A 
ATOM     71  C   UNL A   1      39.846  36.134  39.023  1.00  0.00     0.000 A 
ENDBRANCH  47  66
BRANCH  59  72
ATOM     72  C   UNL A   1      42.742  32.899  31.384  1.00  0.00    -0.014 A 
ATOM     73  C   UNL A   1      41.546  33.288  30.764  1.00  0.00     0.009 A 
ATOM     74  C   UNL A   1      43.927  33.497  30.922  1.00  0.00     0.009 A 
ATOM     75  C   UNL A   1      41.547  34.220  29.717  1.00  0.00     0.001 A 
ATOM     76  C   UNL A   1      43.935  34.435  29.886  1.00  0.00     0.001 A 
ATOM     77  C   UNL A   1      42.739  34.793  29.277  1.00  0.00     0.000 A 
ENDBRANCH  59  72
ENDBRANCH  33  34
ENDBRANCH  26  28
ENDBRANCH  25  26
ENDBRANCH  24  25
ENDBRANCH  23  24
ENDBRANCH   1  23
TORSDOF 16
ENDMDL
