MODEL 1
REMARK VINA RESULT:     -10.3      0.000      0.000
REMARK SMILES CCc1cccc(-c2ccc([C@@H](C)C(=O)OCCOCCOC(=O)c3ccc(-c4c5nc(c(-c6ccccc6)c6ccc([nH]6)c(-c6ccccc6)c6nc(c(-c7ccccc7)c7ccc4[nH]7)C=C6)C=C5)cc3)cc2)c1
REMARK SMILES IDX 18 1 17 2 16 3 14 4 15 5 12 6 13 7 11 8 8 9 9 10 74 11 10 12
REMARK SMILES IDX 73 13 7 14 3 15 4 16 75 17 5 18 6 19 2 20 1 21 19 22 20 23
REMARK SMILES IDX 21 24 22 25 23 26 24 27 25 28 26 29 72 30 27 31 71 32 28 33
REMARK SMILES IDX 29 34 30 35 65 36 31 37 70 38 64 39 66 40 32 41 69 42 63 43
REMARK SMILES IDX 62 44 33 46 55 47 40 48 54 49 41 50 44 51 53 52 67 53 42 54
REMARK SMILES IDX 43 55 52 57 68 58 45 59 34 60 35 61 39 62 36 63 38 64 37 65
REMARK SMILES IDX 56 66 57 67 61 68 58 69 60 70 59 71 46 72 47 73 51 74 48 75
REMARK SMILES IDX 50 76 49 77
REMARK H PARENT 66 45 44 56
REMARK Flexibility Score: inf
ROOT
ATOM      1  C   UNL A   1      33.217  21.705  24.341  1.00  0.00     0.202 C 
ENDROOT
BRANCH   1   2
ATOM      2  C   UNL A   1      32.194  21.576  25.471  1.00  0.00     0.261 C 
BRANCH   2   3
ATOM      3  O   UNL A   1      31.210  22.625  25.391  1.00  0.00    -0.463 OA
BRANCH   3   4
ATOM      4  C   UNL A   1      31.373  23.661  26.253  1.00  0.00     0.313 C 
ATOM      5  O   UNL A   1      31.879  23.561  27.366  1.00  0.00    -0.252 OA
BRANCH   4   6
ATOM      6  C   UNL A   1      30.822  24.983  25.740  1.00  0.00     0.126 C 
ATOM      7  C   UNL A   1      30.503  24.845  24.253  1.00  0.00     0.025 C 
BRANCH   6   8
ATOM      8  C   UNL A   1      31.610  26.257  26.031  1.00  0.00    -0.034 A 
ATOM      9  C   UNL A   1      33.302  28.437  26.758  1.00  0.00    -0.018 A 
ATOM     10  C   UNL A   1      32.036  28.267  27.341  1.00  0.00     0.009 A 
ATOM     11  C   UNL A   1      33.674  27.535  25.752  1.00  0.00     0.009 A 
ATOM     12  C   UNL A   1      31.204  27.194  26.989  1.00  0.00     0.005 A 
ATOM     13  C   UNL A   1      32.845  26.464  25.394  1.00  0.00     0.005 A 
BRANCH   9  14
ATOM     14  C   UNL A   1      34.246  29.464  27.249  1.00  0.00    -0.018 A 
ATOM     15  C   UNL A   1      34.769  31.779  27.899  1.00  0.00    -0.048 A 
ATOM     16  C   UNL A   1      36.116  31.417  28.044  1.00  0.00     0.004 A 
ATOM     17  C   UNL A   1      33.848  30.793  27.495  1.00  0.00     0.012 A 
ATOM     18  C   UNL A   1      36.531  30.109  27.812  1.00  0.00     0.001 A 
ATOM     19  C   UNL A   1      35.605  29.144  27.419  1.00  0.00     0.009 A 
BRANCH  15  20
ATOM     20  C   UNL A   1      34.400  33.230  28.114  1.00  0.00     0.032 C 
ATOM     21  C   UNL A   1      34.567  33.775  29.525  1.00  0.00     0.009 C 
ENDBRANCH  15  20
ENDBRANCH   9  14
ENDBRANCH   6   8
ENDBRANCH   4   6
ENDBRANCH   3   4
ENDBRANCH   2   3
ENDBRANCH   1   2
BRANCH   1  22
ATOM     22  O   UNL A   1      34.577  21.849  24.752  1.00  0.00    -0.374 OA
BRANCH  22  23
ATOM     23  C   UNL A   1      35.307  20.652  25.022  1.00  0.00     0.202 C 
BRANCH  23  24
ATOM     24  C   UNL A   1      36.829  20.744  24.865  1.00  0.00     0.261 C 
BRANCH  24  25
ATOM     25  O   UNL A   1      37.415  21.661  25.806  1.00  0.00    -0.460 OA
BRANCH  25  26
ATOM     26  C   UNL A   1      38.734  21.476  26.038  1.00  0.00     0.338 C 
ATOM     27  O   UNL A   1      39.421  20.520  25.702  1.00  0.00    -0.246 OA
BRANCH  26  28
ATOM     28  C   UNL A   1      39.322  22.691  26.629  1.00  0.00     0.060 A 
ATOM     29  C   UNL A   1      38.820  23.925  26.196  1.00  0.00     0.016 A 
ATOM     30  C   UNL A   1      40.394  22.637  27.524  1.00  0.00     0.016 A 
ATOM     31  C   UNL A   1      39.423  25.110  26.612  1.00  0.00     0.010 A 
ATOM     32  C   UNL A   1      41.005  23.828  27.932  1.00  0.00     0.010 A 
ATOM     33  C   UNL A   1      40.546  25.067  27.448  1.00  0.00    -0.014 A 
BRANCH  33  34
ATOM     34  C   UNL A   1      41.320  26.310  27.685  1.00  0.00     0.031 A 
ATOM     35  C   UNL A   1      40.749  27.365  28.593  1.00  0.00     0.074 A 
ATOM     36  C   UNL A   1      42.538  26.481  27.139  1.00  0.00     0.049 A 
ATOM     37  N   UNL A   1      41.256  28.521  28.943  1.00  0.00    -0.248 NA
ATOM     38  C   UNL A   1      39.435  27.078  29.191  1.00  0.00     0.031 C 
ATOM     39  C   UNL A   1      43.225  25.517  26.281  1.00  0.00     0.029 A 
ATOM     40  N   UNL A   1      43.413  27.535  27.233  1.00  0.00    -0.354 N 
ATOM     41  C   UNL A   1      40.324  29.099  29.795  1.00  0.00     0.074 A 
ATOM     42  C   UNL A   1      39.208  28.180  29.891  1.00  0.00     0.031 C 
ATOM     43  C   UNL A   1      44.417  26.027  25.924  1.00  0.00     0.029 A 
ATOM     44  C   UNL A   1      44.563  27.361  26.503  1.00  0.00     0.049 A 
ATOM     45  H   UNL A   1      43.233  28.338  27.773  1.00  0.00     0.167 HD
ATOM     46  C   UNL A   1      40.389  30.284  30.446  1.00  0.00     0.031 A 
ATOM     47  C   UNL A   1      45.607  28.190  26.313  1.00  0.00     0.031 A 
ATOM     48  C   UNL A   1      41.489  31.205  30.350  1.00  0.00     0.049 A 
ATOM     49  C   UNL A   1      45.620  29.536  26.985  1.00  0.00     0.074 A 
ATOM     50  C   UNL A   1      41.650  32.424  30.985  1.00  0.00     0.029 A 
ATOM     51  N   UNL A   1      42.613  31.010  29.565  1.00  0.00    -0.354 N 
ATOM     52  N   UNL A   1      44.743  30.058  27.809  1.00  0.00    -0.248 NA
ATOM     53  C   UNL A   1      46.772  30.406  26.705  1.00  0.00     0.031 C 
ATOM     54  C   UNL A   1      42.852  32.991  30.546  1.00  0.00     0.029 A 
ATOM     55  C   UNL A   1      43.460  32.100  29.677  1.00  0.00     0.049 A 
ATOM     56  H   UNL A   1      42.785  30.216  29.009  1.00  0.00     0.167 HD
ATOM     57  C   UNL A   1      45.252  31.301  28.168  1.00  0.00     0.074 A 
ATOM     58  C   UNL A   1      46.518  31.450  27.481  1.00  0.00     0.031 C 
ATOM     59  C   UNL A   1      44.719  32.234  28.992  1.00  0.00     0.031 A 
BRANCH  46  60
ATOM     60  C   UNL A   1      39.217  30.671  31.301  1.00  0.00    -0.014 A 
ATOM     61  C   UNL A   1      39.092  30.202  32.618  1.00  0.00     0.009 A 
ATOM     62  C   UNL A   1      38.250  31.554  30.797  1.00  0.00     0.009 A 
ATOM     63  C   UNL A   1      38.007  30.594  33.406  1.00  0.00     0.001 A 
ATOM     64  C   UNL A   1      37.177  31.960  31.594  1.00  0.00     0.001 A 
ATOM     65  C   UNL A   1      37.054  31.475  32.895  1.00  0.00     0.000 A 
ENDBRANCH  46  60
BRANCH  47  66
ATOM     66  C   UNL A   1      46.728  27.788  25.423  1.00  0.00    -0.014 A 
ATOM     67  C   UNL A   1      46.678  28.048  24.045  1.00  0.00     0.009 A 
ATOM     68  C   UNL A   1      47.838  27.106  25.946  1.00  0.00     0.009 A 
ATOM     69  C   UNL A   1      47.705  27.609  23.206  1.00  0.00     0.001 A 
ATOM     70  C   UNL A   1      48.875  26.692  25.109  1.00  0.00     0.001 A 
ATOM     71  C   UNL A   1      48.803  26.935  23.738  1.00  0.00     0.000 A 
ENDBRANCH  47  66
BRANCH  59  72
ATOM     72  C   UNL A   1      45.518  33.483  29.230  1.00  0.00    -0.014 A 
ATOM     73  C   UNL A   1      46.476  33.550  30.253  1.00  0.00     0.009 A 
ATOM     74  C   UNL A   1      45.339  34.593  28.390  1.00  0.00     0.009 A 
ATOM     75  C   UNL A   1      47.218  34.717  30.448  1.00  0.00     0.001 A 
ATOM     76  C   UNL A   1      46.100  35.749  28.571  1.00  0.00     0.001 A 
ATOM     77  C   UNL A   1      47.033  35.813  29.605  1.00  0.00     0.000 A 
ENDBRANCH  59  72
ENDBRANCH  33  34
ENDBRANCH  26  28
ENDBRANCH  25  26
ENDBRANCH  24  25
ENDBRANCH  23  24
ENDBRANCH  22  23
ENDBRANCH   1  22
TORSDOF 17
ENDMDL
MODEL 2
REMARK VINA RESULT:     -10.2      3.356      8.512
REMARK SMILES CCc1cccc(-c2ccc([C@@H](C)C(=O)OCCOCCOC(=O)c3ccc(-c4c5nc(c(-c6ccccc6)c6ccc([nH]6)c(-c6ccccc6)c6nc(c(-c7ccccc7)c7ccc4[nH]7)C=C6)C=C5)cc3)cc2)c1
REMARK SMILES IDX 18 1 17 2 16 3 14 4 15 5 12 6 13 7 11 8 8 9 9 10 74 11 10 12
REMARK SMILES IDX 73 13 7 14 3 15 4 16 75 17 5 18 6 19 2 20 1 21 19 22 20 23
REMARK SMILES IDX 21 24 22 25 23 26 24 27 25 28 26 29 72 30 27 31 71 32 28 33
REMARK SMILES IDX 29 34 30 35 65 36 31 37 70 38 64 39 66 40 32 41 69 42 63 43
REMARK SMILES IDX 62 44 33 46 55 47 40 48 54 49 41 50 44 51 53 52 67 53 42 54
REMARK SMILES IDX 43 55 52 57 68 58 45 59 34 60 35 61 39 62 36 63 38 64 37 65
REMARK SMILES IDX 56 66 57 67 61 68 58 69 60 70 59 71 46 72 47 73 51 74 48 75
REMARK SMILES IDX 50 76 49 77
REMARK H PARENT 66 45 44 56
REMARK Flexibility Score: inf
ROOT
ATOM      1  C   UNL A   1      33.914  35.257  30.362  1.00  0.00     0.202 C 
ENDROOT
BRANCH   1   2
ATOM      2  C   UNL A   1      33.892  34.554  29.003  1.00  0.00     0.261 C 
BRANCH   2   3
ATOM      3  O   UNL A   1      34.121  33.140  29.155  1.00  0.00    -0.463 OA
BRANCH   3   4
ATOM      4  C   UNL A   1      35.067  32.599  28.345  1.00  0.00     0.313 C 
ATOM      5  O   UNL A   1      35.889  33.252  27.710  1.00  0.00    -0.252 OA
BRANCH   4   6
ATOM      6  C   UNL A   1      34.999  31.083  28.243  1.00  0.00     0.126 C 
ATOM      7  C   UNL A   1      36.416  30.528  28.125  1.00  0.00     0.025 C 
BRANCH   6   8
ATOM      8  C   UNL A   1      34.065  30.469  27.204  1.00  0.00    -0.034 A 
ATOM      9  C   UNL A   1      32.135  29.196  25.530  1.00  0.00    -0.018 A 
ATOM     10  C   UNL A   1      33.434  28.681  25.672  1.00  0.00     0.009 A 
ATOM     11  C   UNL A   1      31.844  30.400  26.186  1.00  0.00     0.009 A 
ATOM     12  C   UNL A   1      34.383  29.302  26.498  1.00  0.00     0.005 A 
ATOM     13  C   UNL A   1      32.791  31.026  27.008  1.00  0.00     0.005 A 
BRANCH   9  14
ATOM     14  C   UNL A   1      31.086  28.453  24.799  1.00  0.00    -0.018 A 
ATOM     15  C   UNL A   1      29.126  28.389  23.314  1.00  0.00    -0.048 A 
ATOM     16  C   UNL A   1      29.016  27.010  23.543  1.00  0.00     0.004 A 
ATOM     17  C   UNL A   1      30.161  29.098  23.954  1.00  0.00     0.012 A 
ATOM     18  C   UNL A   1      29.923  26.352  24.369  1.00  0.00     0.001 A 
ATOM     19  C   UNL A   1      30.946  27.067  24.989  1.00  0.00     0.009 A 
BRANCH  15  20
ATOM     20  C   UNL A   1      28.073  29.048  22.450  1.00  0.00     0.032 C 
ATOM     21  C   UNL A   1      27.714  30.488  22.790  1.00  0.00     0.009 C 
ENDBRANCH  15  20
ENDBRANCH   9  14
ENDBRANCH   6   8
ENDBRANCH   4   6
ENDBRANCH   3   4
ENDBRANCH   2   3
ENDBRANCH   1   2
BRANCH   1  22
ATOM     22  O   UNL A   1      34.676  34.608  31.380  1.00  0.00    -0.374 OA
BRANCH  22  23
ATOM     23  C   UNL A   1      33.982  34.218  32.565  1.00  0.00     0.202 C 
BRANCH  23  24
ATOM     24  C   UNL A   1      34.788  33.393  33.574  1.00  0.00     0.261 C 
BRANCH  24  25
ATOM     25  O   UNL A   1      36.203  33.619  33.452  1.00  0.00    -0.460 OA
BRANCH  25  26
ATOM     26  C   UNL A   1      36.984  32.666  34.006  1.00  0.00     0.338 C 
ATOM     27  O   UNL A   1      36.997  32.302  35.174  1.00  0.00    -0.246 OA
BRANCH  26  28
ATOM     28  C   UNL A   1      37.746  31.960  32.960  1.00  0.00     0.060 A 
ATOM     29  C   UNL A   1      38.578  30.910  33.369  1.00  0.00     0.016 A 
ATOM     30  C   UNL A   1      37.714  32.360  31.621  1.00  0.00     0.016 A 
ATOM     31  C   UNL A   1      39.427  30.293  32.452  1.00  0.00     0.010 A 
ATOM     32  C   UNL A   1      38.575  31.745  30.704  1.00  0.00     0.010 A 
ATOM     33  C   UNL A   1      39.462  30.736  31.123  1.00  0.00    -0.014 A 
BRANCH  33  34
ATOM     34  C   UNL A   1      40.531  30.241  30.223  1.00  0.00     0.031 A 
ATOM     35  C   UNL A   1      41.730  31.113  29.965  1.00  0.00     0.074 A 
ATOM     36  C   UNL A   1      40.462  29.013  29.678  1.00  0.00     0.049 A 
ATOM     37  N   UNL A   1      42.781  30.877  29.219  1.00  0.00    -0.248 NA
ATOM     38  C   UNL A   1      41.752  32.421  30.640  1.00  0.00     0.031 C 
ATOM     39  C   UNL A   1      39.381  28.053  29.886  1.00  0.00     0.029 A 
ATOM     40  N   UNL A   1      41.332  28.366  28.835  1.00  0.00    -0.354 N 
ATOM     41  C   UNL A   1      43.584  32.005  29.331  1.00  0.00     0.074 A 
ATOM     42  C   UNL A   1      42.889  32.937  30.196  1.00  0.00     0.031 C 
ATOM     43  C   UNL A   1      39.651  26.937  29.185  1.00  0.00     0.029 A 
ATOM     44  C   UNL A   1      40.906  27.116  28.459  1.00  0.00     0.049 A 
ATOM     45  H   UNL A   1      42.182  28.761  28.531  1.00  0.00     0.167 HD
ATOM     46  C   UNL A   1      44.792  32.246  28.772  1.00  0.00     0.031 A 
ATOM     47  C   UNL A   1      41.459  26.225  27.614  1.00  0.00     0.031 A 
ATOM     48  C   UNL A   1      45.485  31.330  27.907  1.00  0.00     0.049 A 
ATOM     49  C   UNL A   1      42.767  26.550  26.943  1.00  0.00     0.074 A 
ATOM     50  C   UNL A   1      46.723  31.482  27.305  1.00  0.00     0.029 A 
ATOM     51  N   UNL A   1      44.998  30.094  27.516  1.00  0.00    -0.354 N 
ATOM     52  N   UNL A   1      43.527  27.610  27.080  1.00  0.00    -0.248 NA
ATOM     53  C   UNL A   1      43.296  25.549  26.004  1.00  0.00     0.031 C 
ATOM     54  C   UNL A   1      46.962  30.356  26.509  1.00  0.00     0.029 A 
ATOM     55  C   UNL A   1      45.896  29.484  26.658  1.00  0.00     0.049 A 
ATOM     56  H   UNL A   1      44.139  29.707  27.804  1.00  0.00     0.167 HD
ATOM     57  C   UNL A   1      44.635  27.390  26.270  1.00  0.00     0.074 A 
ATOM     58  C   UNL A   1      44.454  26.092  25.654  1.00  0.00     0.031 C 
ATOM     59  C   UNL A   1      45.706  28.190  26.056  1.00  0.00     0.031 A 
BRANCH  46  60
ATOM     60  C   UNL A   1      45.436  33.573  29.055  1.00  0.00    -0.014 A 
ATOM     61  C   UNL A   1      46.297  33.745  30.149  1.00  0.00     0.009 A 
ATOM     62  C   UNL A   1      45.212  34.653  28.187  1.00  0.00     0.009 A 
ATOM     63  C   UNL A   1      46.905  34.981  30.381  1.00  0.00     0.001 A 
ATOM     64  C   UNL A   1      45.837  35.881  28.410  1.00  0.00     0.001 A 
ATOM     65  C   UNL A   1      46.678  36.046  29.509  1.00  0.00     0.000 A 
ENDBRANCH  46  60
BRANCH  47  66
ATOM     66  C   UNL A   1      40.769  24.941  27.326  1.00  0.00    -0.014 A 
ATOM     67  C   UNL A   1      39.613  24.911  26.532  1.00  0.00     0.009 A 
ATOM     68  C   UNL A   1      41.246  23.742  27.878  1.00  0.00     0.009 A 
ATOM     69  C   UNL A   1      38.933  23.708  26.320  1.00  0.00     0.001 A 
ATOM     70  C   UNL A   1      40.580  22.538  27.642  1.00  0.00     0.001 A 
ATOM     71  C   UNL A   1      39.418  22.524  26.872  1.00  0.00     0.000 A 
ENDBRANCH  47  66
BRANCH  59  72
ATOM     72  C   UNL A   1      46.786  27.672  25.149  1.00  0.00    -0.014 A 
ATOM     73  C   UNL A   1      46.839  28.041  23.796  1.00  0.00     0.009 A 
ATOM     74  C   UNL A   1      47.788  26.838  25.669  1.00  0.00     0.009 A 
ATOM     75  C   UNL A   1      47.860  27.558  22.975  1.00  0.00     0.001 A 
ATOM     76  C   UNL A   1      48.821  26.378  24.851  1.00  0.00     0.001 A 
ATOM     77  C   UNL A   1      48.852  26.732  23.503  1.00  0.00     0.000 A 
ENDBRANCH  59  72
ENDBRANCH  33  34
ENDBRANCH  26  28
ENDBRANCH  25  26
ENDBRANCH  24  25
ENDBRANCH  23  24
ENDBRANCH  22  23
ENDBRANCH   1  22
TORSDOF 17
ENDMDL
MODEL 3
REMARK VINA RESULT:     -10.1      3.585      7.000
REMARK SMILES CCc1cccc(-c2ccc([C@@H](C)C(=O)OCCOCCOC(=O)c3ccc(-c4c5nc(c(-c6ccccc6)c6ccc([nH]6)c(-c6ccccc6)c6nc(c(-c7ccccc7)c7ccc4[nH]7)C=C6)C=C5)cc3)cc2)c1
REMARK SMILES IDX 18 1 17 2 16 3 14 4 15 5 12 6 13 7 11 8 8 9 9 10 74 11 10 12
REMARK SMILES IDX 73 13 7 14 3 15 4 16 75 17 5 18 6 19 2 20 1 21 19 22 20 23
REMARK SMILES IDX 21 24 22 25 23 26 24 27 25 28 26 29 72 30 27 31 71 32 28 33
REMARK SMILES IDX 29 34 30 35 65 36 31 37 70 38 64 39 66 40 32 41 69 42 63 43
REMARK SMILES IDX 62 44 33 46 55 47 40 48 54 49 41 50 44 51 53 52 67 53 42 54
REMARK SMILES IDX 43 55 52 57 68 58 45 59 34 60 35 61 39 62 36 63 38 64 37 65
REMARK SMILES IDX 56 66 57 67 61 68 58 69 60 70 59 71 46 72 47 73 51 74 48 75
REMARK SMILES IDX 50 76 49 77
REMARK H PARENT 66 45 44 56
REMARK Flexibility Score: inf
ROOT
ATOM      1  C   UNL A   1      33.199  27.166  25.380  1.00  0.00     0.202 C 
ENDROOT
BRANCH   1   2
ATOM      2  C   UNL A   1      32.686  27.218  23.940  1.00  0.00     0.261 C 
BRANCH   2   3
ATOM      3  O   UNL A   1      32.429  25.891  23.441  1.00  0.00    -0.463 OA
BRANCH   3   4
ATOM      4  C   UNL A   1      33.271  25.445  22.474  1.00  0.00     0.313 C 
ATOM      5  O   UNL A   1      33.662  26.126  21.531  1.00  0.00    -0.252 OA
BRANCH   4   6
ATOM      6  C   UNL A   1      33.665  23.984  22.624  1.00  0.00     0.126 C 
ATOM      7  C   UNL A   1      32.414  23.160  22.923  1.00  0.00     0.025 C 
BRANCH   6   8
ATOM      8  C   UNL A   1      34.809  23.637  23.572  1.00  0.00    -0.034 A 
ATOM      9  C   UNL A   1      37.068  23.310  25.286  1.00  0.00    -0.018 A 
ATOM     10  C   UNL A   1      37.002  22.678  24.033  1.00  0.00     0.009 A 
ATOM     11  C   UNL A   1      35.950  24.050  25.694  1.00  0.00     0.009 A 
ATOM     12  C   UNL A   1      35.894  22.840  23.187  1.00  0.00     0.005 A 
ATOM     13  C   UNL A   1      34.840  24.212  24.853  1.00  0.00     0.005 A 
BRANCH   9  14
ATOM     14  C   UNL A   1      38.300  23.278  26.102  1.00  0.00    -0.018 A 
ATOM     15  C   UNL A   1      40.196  22.069  27.100  1.00  0.00    -0.048 A 
ATOM     16  C   UNL A   1      40.561  23.237  27.785  1.00  0.00     0.004 A 
ATOM     17  C   UNL A   1      39.060  22.103  26.269  1.00  0.00     0.012 A 
ATOM     18  C   UNL A   1      39.828  24.411  27.630  1.00  0.00     0.001 A 
ATOM     19  C   UNL A   1      38.711  24.429  26.797  1.00  0.00     0.009 A 
BRANCH  15  20
ATOM     20  C   UNL A   1      41.004  20.816  27.359  1.00  0.00     0.032 C 
ATOM     21  C   UNL A   1      41.159  19.851  26.192  1.00  0.00     0.009 C 
ENDBRANCH  15  20
ENDBRANCH   9  14
ENDBRANCH   6   8
ENDBRANCH   4   6
ENDBRANCH   3   4
ENDBRANCH   2   3
ENDBRANCH   1   2
BRANCH   1  22
ATOM     22  O   UNL A   1      32.525  28.019  26.306  1.00  0.00    -0.374 OA
BRANCH  22  23
ATOM     23  C   UNL A   1      31.726  29.070  25.762  1.00  0.00     0.202 C 
BRANCH  23  24
ATOM     24  C   UNL A   1      32.164  30.496  26.113  1.00  0.00     0.261 C 
BRANCH  24  25
ATOM     25  O   UNL A   1      32.845  30.558  27.378  1.00  0.00    -0.460 OA
BRANCH  25  26
ATOM     26  C   UNL A   1      33.604  31.660  27.566  1.00  0.00     0.338 C 
ATOM     27  O   UNL A   1      33.229  32.825  27.590  1.00  0.00    -0.246 OA
BRANCH  26  28
ATOM     28  C   UNL A   1      34.982  31.276  27.921  1.00  0.00     0.060 A 
ATOM     29  C   UNL A   1      35.225  29.921  28.180  1.00  0.00     0.016 A 
ATOM     30  C   UNL A   1      35.998  32.222  28.079  1.00  0.00     0.016 A 
ATOM     31  C   UNL A   1      36.471  29.512  28.652  1.00  0.00     0.010 A 
ATOM     32  C   UNL A   1      37.245  31.810  28.564  1.00  0.00     0.010 A 
ATOM     33  C   UNL A   1      37.475  30.460  28.888  1.00  0.00    -0.014 A 
BRANCH  33  34
ATOM     34  C   UNL A   1      38.702  30.050  29.613  1.00  0.00     0.031 A 
ATOM     35  C   UNL A   1      38.866  30.448  31.055  1.00  0.00     0.074 A 
ATOM     36  C   UNL A   1      39.638  29.292  29.014  1.00  0.00     0.049 A 
ATOM     37  N   UNL A   1      39.853  30.193  31.878  1.00  0.00    -0.248 NA
ATOM     38  C   UNL A   1      37.773  31.234  31.650  1.00  0.00     0.031 C 
ATOM     39  C   UNL A   1      39.577  28.799  27.640  1.00  0.00     0.029 A 
ATOM     40  N   UNL A   1      40.827  28.803  29.497  1.00  0.00    -0.354 N 
ATOM     41  C   UNL A   1      39.502  30.789  33.083  1.00  0.00     0.074 A 
ATOM     42  C   UNL A   1      38.225  31.440  32.879  1.00  0.00     0.031 C 
ATOM     43  C   UNL A   1      40.684  28.078  27.388  1.00  0.00     0.029 A 
ATOM     44  C   UNL A   1      41.542  28.084  28.571  1.00  0.00     0.049 A 
ATOM     45  H   UNL A   1      41.137  28.953  30.419  1.00  0.00     0.167 HD
ATOM     46  C   UNL A   1      40.177  30.792  34.256  1.00  0.00     0.031 A 
ATOM     47  C   UNL A   1      42.756  27.508  28.664  1.00  0.00     0.031 A 
ATOM     48  C   UNL A   1      41.449  30.153  34.465  1.00  0.00     0.049 A 
ATOM     49  C   UNL A   1      43.521  27.592  29.958  1.00  0.00     0.074 A 
ATOM     50  C   UNL A   1      42.201  30.090  35.625  1.00  0.00     0.029 A 
ATOM     51  N   UNL A   1      42.158  29.474  33.489  1.00  0.00    -0.354 N 
ATOM     52  N   UNL A   1      43.164  28.137  31.096  1.00  0.00    -0.248 NA
ATOM     53  C   UNL A   1      44.856  26.975  29.979  1.00  0.00     0.031 C 
ATOM     54  C   UNL A   1      43.391  29.413  35.337  1.00  0.00     0.029 A 
ATOM     55  C   UNL A   1      43.354  29.012  34.012  1.00  0.00     0.049 A 
ATOM     56  H   UNL A   1      41.858  29.341  32.560  1.00  0.00     0.167 HD
ATOM     57  C   UNL A   1      44.216  27.901  31.975  1.00  0.00     0.074 A 
ATOM     58  C   UNL A   1      45.217  27.156  31.242  1.00  0.00     0.031 C 
ATOM     59  C   UNL A   1      44.339  28.268  33.272  1.00  0.00     0.031 A 
BRANCH  46  60
ATOM     60  C   UNL A   1      39.563  31.536  35.407  1.00  0.00    -0.014 A 
ATOM     61  C   UNL A   1      39.978  32.836  35.736  1.00  0.00     0.009 A 
ATOM     62  C   UNL A   1      38.524  30.945  36.141  1.00  0.00     0.009 A 
ATOM     63  C   UNL A   1      39.377  33.520  36.795  1.00  0.00     0.001 A 
ATOM     64  C   UNL A   1      37.910  31.640  37.186  1.00  0.00     0.001 A 
ATOM     65  C   UNL A   1      38.342  32.924  37.515  1.00  0.00     0.000 A 
ENDBRANCH  46  60
BRANCH  47  66
ATOM     66  C   UNL A   1      43.348  26.818  27.488  1.00  0.00    -0.014 A 
ATOM     67  C   UNL A   1      43.368  25.418  27.415  1.00  0.00     0.009 A 
ATOM     68  C   UNL A   1      43.930  27.562  26.450  1.00  0.00     0.009 A 
ATOM     69  C   UNL A   1      43.985  24.776  26.337  1.00  0.00     0.001 A 
ATOM     70  C   UNL A   1      44.522  26.918  25.362  1.00  0.00     0.001 A 
ATOM     71  C   UNL A   1      44.558  25.526  25.312  1.00  0.00     0.000 A 
ENDBRANCH  47  66
BRANCH  59  72
ATOM     72  C   UNL A   1      45.583  27.838  33.997  1.00  0.00    -0.014 A 
ATOM     73  C   UNL A   1      46.720  28.660  34.044  1.00  0.00     0.009 A 
ATOM     74  C   UNL A   1      45.601  26.611  34.678  1.00  0.00     0.009 A 
ATOM     75  C   UNL A   1      47.860  28.246  34.734  1.00  0.00     0.001 A 
ATOM     76  C   UNL A   1      46.733  26.211  35.389  1.00  0.00     0.001 A 
ATOM     77  C   UNL A   1      47.865  27.025  35.410  1.00  0.00     0.000 A 
ENDBRANCH  59  72
ENDBRANCH  33  34
ENDBRANCH  26  28
ENDBRANCH  25  26
ENDBRANCH  24  25
ENDBRANCH  23  24
ENDBRANCH  22  23
ENDBRANCH   1  22
TORSDOF 17
ENDMDL
