MODEL 1
REMARK VINA RESULT:     -11.5      0.000      0.000
REMARK SMILES Cc1ccccc1[C@@H]1[NH2+][C@@H](C(=O)OCCOCCOC(=O)c2ccc(-c3c4nc(c(-c5ccccc5)c5ccc([nH]5)c(-c5ccccc5)c5nc(c(-c6ccccc6)c6ccc3[nH]6)C=C5)C=C4)cc2)CC2=c3ccccc3=N[C@H]21
REMARK SMILES IDX 17 1 16 2 15 3 14 4 13 5 11 6 12 7 10 8 8 9 9 10 79 11 71 14
REMARK SMILES IDX 78 15 70 16 72 17 77 18 73 19 76 20 74 21 75 22 7 23 1 24
REMARK SMILES IDX 2 25 3 26 4 27 6 28 5 29 18 30 19 31 20 32 21 33 22 34 23 35
REMARK SMILES IDX 69 36 24 37 68 38 25 39 26 40 27 41 62 42 28 43 67 44 61 45
REMARK SMILES IDX 63 46 29 47 66 48 60 49 59 50 30 52 52 53 37 54 51 55 38 56
REMARK SMILES IDX 41 57 50 58 64 59 39 60 40 61 49 63 65 64 42 65 31 66 32 67
REMARK SMILES IDX 36 68 33 69 35 70 34 71 53 72 54 73 58 74 55 75 57 76 56 77
REMARK SMILES IDX 43 78 44 79 48 80 45 81 47 82 46 83
REMARK H PARENT 9 12 9 13 63 51 41 62
REMARK Flexibility Score: inf
ROOT
ATOM      1  C   UNL A   1      33.723  27.287  25.387  1.00  0.00     0.202 C 
ENDROOT
BRANCH   1   2
ATOM      2  O   UNL A   1      32.876  26.513  26.228  1.00  0.00    -0.374 OA
BRANCH   2   3
ATOM      3  C   UNL A   1      31.514  26.900  26.210  1.00  0.00     0.202 C 
BRANCH   3   4
ATOM      4  C   UNL A   1      30.707  25.689  26.549  1.00  0.00     0.261 C 
BRANCH   4   5
ATOM      5  O   UNL A   1      31.314  24.586  27.262  1.00  0.00    -0.459 OA
BRANCH   5   6
ATOM      6  C   UNL A   1      31.142  23.289  26.911  1.00  0.00     0.365 C 
ATOM      7  O   UNL A   1      30.282  22.590  27.431  1.00  0.00    -0.245 OA
BRANCH   6   8
ATOM      8  C   UNL A   1      32.246  22.781  25.968  1.00  0.00     0.298 C 
ATOM      9  C   UNL A   1      34.435  23.543  24.989  1.00  0.00     0.243 C 
ATOM     10  N   UNL A   1      33.471  23.613  26.117  1.00  0.00    -0.326 N 
ATOM     11  C   UNL A   1      33.864  23.414  23.532  1.00  0.00     0.196 C 
ATOM     12  H   UNL A   1      33.180  24.584  26.221  1.00  0.00     0.347 HD
ATOM     13  H   UNL A   1      33.964  23.240  26.929  1.00  0.00     0.347 HD
ATOM     14  C   UNL A   1      32.386  23.587  23.622  1.00  0.00    -0.024 C 
ATOM     15  N   UNL A   1      34.313  24.541  22.665  1.00  0.00    -0.270 NA
ATOM     16  C   UNL A   1      31.703  22.640  24.518  1.00  0.00     0.111 C 
ATOM     17  C   UNL A   1      31.976  24.715  23.061  1.00  0.00     0.002 A 
ATOM     18  C   UNL A   1      33.225  25.224  22.474  1.00  0.00     0.066 A 
ATOM     19  C   UNL A   1      30.771  25.474  23.067  1.00  0.00     0.010 A 
ATOM     20  C   UNL A   1      33.124  26.498  21.739  1.00  0.00     0.028 A 
ATOM     21  C   UNL A   1      30.776  26.670  22.459  1.00  0.00     0.001 A 
ATOM     22  C   UNL A   1      31.956  27.163  21.761  1.00  0.00     0.002 A 
BRANCH   9  23
ATOM     23  C   UNL A   1      35.623  22.626  25.281  1.00  0.00     0.015 A 
ATOM     24  C   UNL A   1      34.501  20.341  24.812  1.00  0.00     0.045 C 
ATOM     25  C   UNL A   1      35.681  21.231  25.073  1.00  0.00    -0.042 A 
ATOM     26  C   UNL A   1      36.939  20.600  25.074  1.00  0.00     0.004 A 
ATOM     27  C   UNL A   1      38.103  21.298  25.385  1.00  0.00     0.000 A 
ATOM     28  C   UNL A   1      36.798  23.283  25.713  1.00  0.00     0.010 A 
ATOM     29  C   UNL A   1      38.026  22.630  25.757  1.00  0.00     0.001 A 
ENDBRANCH   9  23
ENDBRANCH   6   8
ENDBRANCH   5   6
ENDBRANCH   4   5
ENDBRANCH   3   4
ENDBRANCH   2   3
ENDBRANCH   1   2
BRANCH   1  30
ATOM     30  C   UNL A   1      34.033  28.687  25.942  1.00  0.00     0.261 C 
BRANCH  30  31
ATOM     31  O   UNL A   1      34.927  28.578  27.068  1.00  0.00    -0.460 OA
BRANCH  31  32
ATOM     32  C   UNL A   1      35.009  29.655  27.887  1.00  0.00     0.338 C 
ATOM     33  O   UNL A   1      34.133  30.513  28.030  1.00  0.00    -0.246 OA
BRANCH  32  34
ATOM     34  C   UNL A   1      36.414  29.839  28.338  1.00  0.00     0.060 A 
ATOM     35  C   UNL A   1      37.433  30.096  27.400  1.00  0.00     0.016 A 
ATOM     36  C   UNL A   1      36.744  29.396  29.619  1.00  0.00     0.016 A 
ATOM     37  C   UNL A   1      38.759  29.753  27.692  1.00  0.00     0.010 A 
ATOM     38  C   UNL A   1      38.022  28.942  29.850  1.00  0.00     0.010 A 
ATOM     39  C   UNL A   1      39.032  29.092  28.887  1.00  0.00    -0.014 A 
BRANCH  39  40
ATOM     40  C   UNL A   1      40.284  28.423  29.237  1.00  0.00     0.031 A 
ATOM     41  C   UNL A   1      40.526  27.083  28.676  1.00  0.00     0.074 A 
ATOM     42  C   UNL A   1      41.309  29.113  29.792  1.00  0.00     0.049 A 
ATOM     43  N   UNL A   1      41.495  26.329  29.053  1.00  0.00    -0.248 NA
ATOM     44  C   UNL A   1      39.672  26.440  27.676  1.00  0.00     0.031 C 
ATOM     45  C   UNL A   1      42.748  28.851  29.728  1.00  0.00     0.029 A 
ATOM     46  N   UNL A   1      41.255  30.268  30.573  1.00  0.00    -0.354 N 
ATOM     47  C   UNL A   1      41.631  25.352  28.102  1.00  0.00     0.074 A 
ATOM     48  C   UNL A   1      40.385  25.348  27.383  1.00  0.00     0.031 C 
ATOM     49  C   UNL A   1      43.385  29.597  30.652  1.00  0.00     0.029 A 
ATOM     50  C   UNL A   1      42.365  30.286  31.426  1.00  0.00     0.049 A 
ATOM     51  H   UNL A   1      40.552  30.956  30.529  1.00  0.00     0.167 HD
ATOM     52  C   UNL A   1      42.858  24.787  27.938  1.00  0.00     0.031 A 
ATOM     53  C   UNL A   1      42.192  30.320  32.773  1.00  0.00     0.031 A 
ATOM     54  C   UNL A   1      43.800  25.261  28.967  1.00  0.00     0.049 A 
ATOM     55  C   UNL A   1      42.717  29.021  33.314  1.00  0.00     0.074 A 
ATOM     56  C   UNL A   1      44.919  26.075  28.934  1.00  0.00     0.029 A 
ATOM     57  N   UNL A   1      43.434  25.162  30.311  1.00  0.00    -0.354 N 
ATOM     58  N   UNL A   1      42.832  27.956  32.566  1.00  0.00    -0.248 NA
ATOM     59  C   UNL A   1      43.277  28.834  34.645  1.00  0.00     0.031 C 
ATOM     60  C   UNL A   1      45.172  26.523  30.269  1.00  0.00     0.029 A 
ATOM     61  C   UNL A   1      44.232  25.953  31.116  1.00  0.00     0.049 A 
ATOM     62  H   UNL A   1      42.698  24.600  30.645  1.00  0.00     0.167 HD
ATOM     63  C   UNL A   1      43.606  27.038  33.199  1.00  0.00     0.074 A 
ATOM     64  C   UNL A   1      43.799  27.597  34.530  1.00  0.00     0.031 C 
ATOM     65  C   UNL A   1      44.071  25.920  32.572  1.00  0.00     0.031 A 
BRANCH  52  66
ATOM     66  C   UNL A   1      43.264  23.962  26.737  1.00  0.00    -0.014 A 
ATOM     67  C   UNL A   1      43.008  22.580  26.732  1.00  0.00     0.009 A 
ATOM     68  C   UNL A   1      43.949  24.457  25.609  1.00  0.00     0.009 A 
ATOM     69  C   UNL A   1      43.395  21.755  25.665  1.00  0.00     0.001 A 
ATOM     70  C   UNL A   1      44.314  23.646  24.526  1.00  0.00     0.001 A 
ATOM     71  C   UNL A   1      44.036  22.290  24.555  1.00  0.00     0.000 A 
ENDBRANCH  52  66
BRANCH  53  72
ATOM     72  C   UNL A   1      40.982  31.117  33.156  1.00  0.00    -0.014 A 
ATOM     73  C   UNL A   1      40.993  32.496  32.823  1.00  0.00     0.009 A 
ATOM     74  C   UNL A   1      39.734  30.505  33.339  1.00  0.00     0.009 A 
ATOM     75  C   UNL A   1      39.807  33.190  32.539  1.00  0.00     0.001 A 
ATOM     76  C   UNL A   1      38.548  31.207  33.052  1.00  0.00     0.001 A 
ATOM     77  C   UNL A   1      38.587  32.529  32.610  1.00  0.00     0.000 A 
ENDBRANCH  53  72
BRANCH  65  78
ATOM     78  C   UNL A   1      44.441  24.655  33.295  1.00  0.00    -0.014 A 
ATOM     79  C   UNL A   1      45.760  24.264  33.547  1.00  0.00     0.009 A 
ATOM     80  C   UNL A   1      43.422  23.919  33.938  1.00  0.00     0.009 A 
ATOM     81  C   UNL A   1      46.047  23.176  34.376  1.00  0.00     0.001 A 
ATOM     82  C   UNL A   1      43.706  22.878  34.818  1.00  0.00     0.001 A 
ATOM     83  C   UNL A   1      45.022  22.498  35.026  1.00  0.00     0.000 A 
ENDBRANCH  65  78
ENDBRANCH  39  40
ENDBRANCH  32  34
ENDBRANCH  31  32
ENDBRANCH  30  31
ENDBRANCH   1  30
TORSDOF 15
ENDMDL
MODEL 2
REMARK VINA RESULT:     -11.2      2.639      5.325
REMARK SMILES Cc1ccccc1[C@@H]1[NH2+][C@@H](C(=O)OCCOCCOC(=O)c2ccc(-c3c4nc(c(-c5ccccc5)c5ccc([nH]5)c(-c5ccccc5)c5nc(c(-c6ccccc6)c6ccc3[nH]6)C=C5)C=C4)cc2)CC2=c3ccccc3=N[C@H]21
REMARK SMILES IDX 17 1 16 2 15 3 14 4 13 5 11 6 12 7 10 8 8 9 9 10 79 11 71 14
REMARK SMILES IDX 78 15 70 16 72 17 77 18 73 19 76 20 74 21 75 22 7 23 1 24
REMARK SMILES IDX 2 25 3 26 4 27 6 28 5 29 18 30 19 31 20 32 21 33 22 34 23 35
REMARK SMILES IDX 69 36 24 37 68 38 25 39 26 40 27 41 62 42 28 43 67 44 61 45
REMARK SMILES IDX 63 46 29 47 66 48 60 49 59 50 30 52 52 53 37 54 51 55 38 56
REMARK SMILES IDX 41 57 50 58 64 59 39 60 40 61 49 63 65 64 42 65 31 66 32 67
REMARK SMILES IDX 36 68 33 69 35 70 34 71 53 72 54 73 58 74 55 75 57 76 56 77
REMARK SMILES IDX 43 78 44 79 48 80 45 81 47 82 46 83
REMARK H PARENT 9 12 9 13 63 51 41 62
REMARK Flexibility Score: inf
ROOT
ATOM      1  C   UNL A   1      35.124  31.994  28.274  1.00  0.00     0.202 C 
ENDROOT
BRANCH   1   2
ATOM      2  O   UNL A   1      34.994  30.926  27.344  1.00  0.00    -0.374 OA
BRANCH   2   3
ATOM      3  C   UNL A   1      33.664  30.496  27.121  1.00  0.00     0.202 C 
BRANCH   3   4
ATOM      4  C   UNL A   1      33.609  29.040  27.454  1.00  0.00     0.261 C 
BRANCH   4   5
ATOM      5  O   UNL A   1      32.333  28.383  27.642  1.00  0.00    -0.459 OA
BRANCH   5   6
ATOM      6  C   UNL A   1      31.858  27.430  26.805  1.00  0.00     0.365 C 
ATOM      7  O   UNL A   1      31.773  26.257  27.149  1.00  0.00    -0.245 OA
BRANCH   6   8
ATOM      8  C   UNL A   1      31.643  27.952  25.375  1.00  0.00     0.298 C 
ATOM      9  C   UNL A   1      30.394  27.343  23.277  1.00  0.00     0.243 C 
ATOM     10  N   UNL A   1      30.460  27.290  24.760  1.00  0.00    -0.326 N 
ATOM     11  C   UNL A   1      31.738  27.238  22.471  1.00  0.00     0.196 C 
ATOM     12  H   UNL A   1      30.468  26.310  25.040  1.00  0.00     0.347 HD
ATOM     13  H   UNL A   1      29.646  27.807  25.095  1.00  0.00     0.347 HD
ATOM     14  C   UNL A   1      32.813  26.905  23.449  1.00  0.00    -0.024 C 
ATOM     15  N   UNL A   1      31.725  26.079  21.532  1.00  0.00    -0.270 NA
ATOM     16  C   UNL A   1      32.962  27.863  24.558  1.00  0.00     0.111 C 
ATOM     17  C   UNL A   1      33.288  25.681  23.278  1.00  0.00     0.002 A 
ATOM     18  C   UNL A   1      32.582  25.257  22.059  1.00  0.00     0.066 A 
ATOM     19  C   UNL A   1      34.106  24.793  24.034  1.00  0.00     0.010 A 
ATOM     20  C   UNL A   1      32.897  23.905  21.564  1.00  0.00     0.028 A 
ATOM     21  C   UNL A   1      34.274  23.544  23.572  1.00  0.00     0.001 A 
ATOM     22  C   UNL A   1      33.690  23.116  22.308  1.00  0.00     0.002 A 
BRANCH   9  23
ATOM     23  C   UNL A   1      29.437  28.419  22.764  1.00  0.00     0.015 A 
ATOM     24  C   UNL A   1      27.214  27.458  23.678  1.00  0.00     0.045 C 
ATOM     25  C   UNL A   1      28.060  28.530  23.058  1.00  0.00    -0.042 A 
ATOM     26  C   UNL A   1      27.409  29.748  22.785  1.00  0.00     0.004 A 
ATOM     27  C   UNL A   1      28.061  30.793  22.134  1.00  0.00     0.000 A 
ATOM     28  C   UNL A   1      30.038  29.443  21.997  1.00  0.00     0.010 A 
ATOM     29  C   UNL A   1      29.362  30.620  21.693  1.00  0.00     0.001 A 
ENDBRANCH   9  23
ENDBRANCH   6   8
ENDBRANCH   5   6
ENDBRANCH   4   5
ENDBRANCH   3   4
ENDBRANCH   2   3
ENDBRANCH   1   2
BRANCH   1  30
ATOM     30  C   UNL A   1      33.866  32.871  28.387  1.00  0.00     0.261 C 
BRANCH  30  31
ATOM     31  O   UNL A   1      34.211  34.146  28.966  1.00  0.00    -0.460 OA
BRANCH  31  32
ATOM     32  C   UNL A   1      34.093  34.255  30.312  1.00  0.00     0.338 C 
ATOM     33  O   UNL A   1      33.132  34.753  30.907  1.00  0.00    -0.246 OA
BRANCH  32  34
ATOM     34  C   UNL A   1      35.407  33.994  30.957  1.00  0.00     0.060 A 
ATOM     35  C   UNL A   1      36.594  34.472  30.368  1.00  0.00     0.016 A 
ATOM     36  C   UNL A   1      35.466  32.984  31.917  1.00  0.00     0.016 A 
ATOM     37  C   UNL A   1      37.812  33.828  30.620  1.00  0.00     0.010 A 
ATOM     38  C   UNL A   1      36.636  32.277  32.060  1.00  0.00     0.010 A 
ATOM     39  C   UNL A   1      37.810  32.673  31.399  1.00  0.00    -0.014 A 
BRANCH  39  40
ATOM     40  C   UNL A   1      38.915  31.727  31.543  1.00  0.00     0.031 A 
ATOM     41  C   UNL A   1      38.841  30.463  30.791  1.00  0.00     0.074 A 
ATOM     42  C   UNL A   1      40.093  32.113  32.090  1.00  0.00     0.049 A 
ATOM     43  N   UNL A   1      39.655  29.487  30.976  1.00  0.00    -0.248 NA
ATOM     44  C   UNL A   1      37.813  30.155  29.795  1.00  0.00     0.031 C 
ATOM     45  C   UNL A   1      41.440  31.587  31.862  1.00  0.00     0.029 A 
ATOM     46  N   UNL A   1      40.327  33.128  33.018  1.00  0.00    -0.354 N 
ATOM     47  C   UNL A   1      39.527  28.654  29.895  1.00  0.00     0.074 A 
ATOM     48  C   UNL A   1      38.265  29.001  29.298  1.00  0.00     0.031 C 
ATOM     49  C   UNL A   1      42.273  32.049  32.816  1.00  0.00     0.029 A 
ATOM     50  C   UNL A   1      41.467  32.803  33.763  1.00  0.00     0.049 A 
ATOM     51  H   UNL A   1      39.780  33.940  33.129  1.00  0.00     0.167 HD
ATOM     52  C   UNL A   1      40.598  27.891  29.549  1.00  0.00     0.031 A 
ATOM     53  C   UNL A   1      41.388  32.671  35.113  1.00  0.00     0.031 A 
ATOM     54  C   UNL A   1      41.679  28.013  30.542  1.00  0.00     0.049 A 
ATOM     55  C   UNL A   1      41.665  31.229  35.427  1.00  0.00     0.074 A 
ATOM     56  C   UNL A   1      42.938  28.587  30.517  1.00  0.00     0.029 A 
ATOM     57  N   UNL A   1      41.383  27.791  31.889  1.00  0.00    -0.354 N 
ATOM     58  N   UNL A   1      41.511  30.284  34.538  1.00  0.00    -0.248 NA
ATOM     59  C   UNL A   1      42.255  30.741  36.666  1.00  0.00     0.031 C 
ATOM     60  C   UNL A   1      43.359  28.776  31.870  1.00  0.00     0.029 A 
ATOM     61  C   UNL A   1      42.376  28.282  32.716  1.00  0.00     0.049 A 
ATOM     62  H   UNL A   1      40.569  27.340  32.210  1.00  0.00     0.167 HD
ATOM     63  C   UNL A   1      42.116  29.149  34.972  1.00  0.00     0.074 A 
ATOM     64  C   UNL A   1      42.502  29.456  36.343  1.00  0.00     0.031 C 
ATOM     65  C   UNL A   1      42.301  28.067  34.164  1.00  0.00     0.031 A 
BRANCH  52  66
ATOM     66  C   UNL A   1      40.750  27.188  28.218  1.00  0.00    -0.014 A 
ATOM     67  C   UNL A   1      40.050  25.992  27.986  1.00  0.00     0.009 A 
ATOM     68  C   UNL A   1      41.601  27.606  27.175  1.00  0.00     0.009 A 
ATOM     69  C   UNL A   1      40.179  25.274  26.787  1.00  0.00     0.001 A 
ATOM     70  C   UNL A   1      41.715  26.911  25.963  1.00  0.00     0.001 A 
ATOM     71  C   UNL A   1      41.002  25.740  25.769  1.00  0.00     0.000 A 
ENDBRANCH  52  66
BRANCH  53  72
ATOM     72  C   UNL A   1      40.395  33.624  35.705  1.00  0.00    -0.014 A 
ATOM     73  C   UNL A   1      39.245  33.054  36.311  1.00  0.00     0.009 A 
ATOM     74  C   UNL A   1      40.773  34.910  36.116  1.00  0.00     0.009 A 
ATOM     75  C   UNL A   1      38.597  33.683  37.385  1.00  0.00     0.001 A 
ATOM     76  C   UNL A   1      40.118  35.535  37.194  1.00  0.00     0.001 A 
ATOM     77  C   UNL A   1      39.065  34.904  37.855  1.00  0.00     0.000 A 
ENDBRANCH  53  72
BRANCH  65  78
ATOM     78  C   UNL A   1      42.445  26.661  34.677  1.00  0.00    -0.014 A 
ATOM     79  C   UNL A   1      41.478  26.016  35.453  1.00  0.00     0.009 A 
ATOM     80  C   UNL A   1      43.507  25.868  34.189  1.00  0.00     0.009 A 
ATOM     81  C   UNL A   1      41.579  24.654  35.752  1.00  0.00     0.001 A 
ATOM     82  C   UNL A   1      43.575  24.498  34.427  1.00  0.00     0.001 A 
ATOM     83  C   UNL A   1      42.614  23.893  35.222  1.00  0.00     0.000 A 
ENDBRANCH  65  78
ENDBRANCH  39  40
ENDBRANCH  32  34
ENDBRANCH  31  32
ENDBRANCH  30  31
ENDBRANCH   1  30
TORSDOF 15
ENDMDL
MODEL 3
REMARK VINA RESULT:     -11.0      3.163      8.276
REMARK SMILES Cc1ccccc1[C@@H]1[NH2+][C@@H](C(=O)OCCOCCOC(=O)c2ccc(-c3c4nc(c(-c5ccccc5)c5ccc([nH]5)c(-c5ccccc5)c5nc(c(-c6ccccc6)c6ccc3[nH]6)C=C5)C=C4)cc2)CC2=c3ccccc3=N[C@H]21
REMARK SMILES IDX 17 1 16 2 15 3 14 4 13 5 11 6 12 7 10 8 8 9 9 10 79 11 71 14
REMARK SMILES IDX 78 15 70 16 72 17 77 18 73 19 76 20 74 21 75 22 7 23 1 24
REMARK SMILES IDX 2 25 3 26 4 27 6 28 5 29 18 30 19 31 20 32 21 33 22 34 23 35
REMARK SMILES IDX 69 36 24 37 68 38 25 39 26 40 27 41 62 42 28 43 67 44 61 45
REMARK SMILES IDX 63 46 29 47 66 48 60 49 59 50 30 52 52 53 37 54 51 55 38 56
REMARK SMILES IDX 41 57 50 58 64 59 39 60 40 61 49 63 65 64 42 65 31 66 32 67
REMARK SMILES IDX 36 68 33 69 35 70 34 71 53 72 54 73 58 74 55 75 57 76 56 77
REMARK SMILES IDX 43 78 44 79 48 80 45 81 47 82 46 83
REMARK H PARENT 9 12 9 13 63 51 41 62
REMARK Flexibility Score: inf
ROOT
ATOM      1  C   UNL A   1      37.162  22.428  25.457  1.00  0.00     0.202 C 
ENDROOT
BRANCH   1   2
ATOM      2  O   UNL A   1      37.015  23.172  24.254  1.00  0.00    -0.374 OA
BRANCH   2   3
ATOM      3  C   UNL A   1      36.098  22.619  23.327  1.00  0.00     0.202 C 
BRANCH   3   4
ATOM      4  C   UNL A   1      35.006  23.622  23.137  1.00  0.00     0.261 C 
BRANCH   4   5
ATOM      5  O   UNL A   1      33.900  23.335  22.248  1.00  0.00    -0.459 OA
BRANCH   5   6
ATOM      6  C   UNL A   1      33.108  24.294  21.713  1.00  0.00     0.365 C 
ATOM      7  O   UNL A   1      33.278  24.706  20.573  1.00  0.00    -0.245 OA
BRANCH   6   8
ATOM      8  C   UNL A   1      32.147  24.910  22.744  1.00  0.00     0.298 C 
ATOM      9  C   UNL A   1      32.211  26.061  24.980  1.00  0.00     0.243 C 
ATOM     10  N   UNL A   1      32.899  25.772  23.696  1.00  0.00    -0.326 N 
ATOM     11  C   UNL A   1      31.333  24.928  25.623  1.00  0.00     0.196 C 
ATOM     12  H   UNL A   1      33.781  25.309  23.909  1.00  0.00     0.347 HD
ATOM     13  H   UNL A   1      33.009  26.673  23.229  1.00  0.00     0.347 HD
ATOM     14  C   UNL A   1      31.565  23.689  24.828  1.00  0.00    -0.024 C 
ATOM     15  N   UNL A   1      31.809  24.579  26.993  1.00  0.00    -0.270 NA
ATOM     16  C   UNL A   1      31.263  23.807  23.391  1.00  0.00     0.111 C 
ATOM     17  C   UNL A   1      32.225  22.767  25.512  1.00  0.00     0.002 A 
ATOM     18  C   UNL A   1      32.308  23.389  26.842  1.00  0.00     0.066 A 
ATOM     19  C   UNL A   1      32.897  21.552  25.195  1.00  0.00     0.010 A 
ATOM     20  C   UNL A   1      32.991  22.601  27.885  1.00  0.00     0.028 A 
ATOM     21  C   UNL A   1      33.580  20.935  26.172  1.00  0.00     0.001 A 
ATOM     22  C   UNL A   1      33.592  21.452  27.534  1.00  0.00     0.002 A 
BRANCH   9  23
ATOM     23  C   UNL A   1      31.565  27.447  25.008  1.00  0.00     0.015 A 
ATOM     24  C   UNL A   1      32.536  28.306  27.249  1.00  0.00     0.045 C 
ATOM     25  C   UNL A   1      31.818  28.475  25.942  1.00  0.00    -0.042 A 
ATOM     26  C   UNL A   1      31.402  29.784  25.633  1.00  0.00     0.004 A 
ATOM     27  C   UNL A   1      30.653  30.060  24.492  1.00  0.00     0.000 A 
ATOM     28  C   UNL A   1      30.702  27.730  23.925  1.00  0.00     0.010 A 
ATOM     29  C   UNL A   1      30.258  29.022  23.663  1.00  0.00     0.001 A 
ENDBRANCH   9  23
ENDBRANCH   6   8
ENDBRANCH   5   6
ENDBRANCH   4   5
ENDBRANCH   3   4
ENDBRANCH   2   3
ENDBRANCH   1   2
BRANCH   1  30
ATOM     30  C   UNL A   1      38.560  21.814  25.638  1.00  0.00     0.261 C 
BRANCH  30  31
ATOM     31  O   UNL A   1      39.137  22.273  26.876  1.00  0.00    -0.460 OA
BRANCH  31  32
ATOM     32  C   UNL A   1      40.254  23.036  26.781  1.00  0.00     0.338 C 
ATOM     33  O   UNL A   1      41.414  22.614  26.829  1.00  0.00    -0.246 OA
BRANCH  32  34
ATOM     34  C   UNL A   1      39.900  24.472  26.939  1.00  0.00     0.060 A 
ATOM     35  C   UNL A   1      40.467  25.440  26.088  1.00  0.00     0.016 A 
ATOM     36  C   UNL A   1      39.310  24.862  28.141  1.00  0.00     0.016 A 
ATOM     37  C   UNL A   1      40.587  26.768  26.518  1.00  0.00     0.010 A 
ATOM     38  C   UNL A   1      39.546  26.133  28.609  1.00  0.00     0.010 A 
ATOM     39  C   UNL A   1      40.204  27.088  27.818  1.00  0.00    -0.014 A 
BRANCH  39  40
ATOM     40  C   UNL A   1      40.503  28.333  28.524  1.00  0.00     0.031 A 
ATOM     41  C   UNL A   1      39.411  29.307  28.692  1.00  0.00     0.074 A 
ATOM     42  C   UNL A   1      41.634  28.461  29.259  1.00  0.00     0.049 A 
ATOM     43  N   UNL A   1      39.595  30.500  29.130  1.00  0.00    -0.248 NA
ATOM     44  C   UNL A   1      38.014  29.051  28.334  1.00  0.00     0.031 C 
ATOM     45  C   UNL A   1      41.893  29.307  30.426  1.00  0.00     0.029 A 
ATOM     46  N   UNL A   1      42.854  27.806  29.094  1.00  0.00    -0.354 N 
ATOM     47  C   UNL A   1      38.366  30.985  29.491  1.00  0.00     0.074 A 
ATOM     48  C   UNL A   1      37.414  30.143  28.817  1.00  0.00     0.031 C 
ATOM     49  C   UNL A   1      43.219  29.352  30.666  1.00  0.00     0.029 A 
ATOM     50  C   UNL A   1      43.875  28.625  29.591  1.00  0.00     0.049 A 
ATOM     51  H   UNL A   1      42.976  26.914  28.694  1.00  0.00     0.167 HD
ATOM     52  C   UNL A   1      38.316  31.938  30.460  1.00  0.00     0.031 A 
ATOM     53  C   UNL A   1      44.884  29.031  28.777  1.00  0.00     0.031 A 
ATOM     54  C   UNL A   1      39.669  32.381  30.837  1.00  0.00     0.049 A 
ATOM     55  C   UNL A   1      44.757  30.521  28.634  1.00  0.00     0.074 A 
ATOM     56  C   UNL A   1      40.441  32.229  31.975  1.00  0.00     0.029 A 
ATOM     57  N   UNL A   1      40.543  32.805  29.832  1.00  0.00    -0.354 N 
ATOM     58  N   UNL A   1      43.631  31.144  28.855  1.00  0.00    -0.248 NA
ATOM     59  C   UNL A   1      45.864  31.434  28.385  1.00  0.00     0.031 C 
ATOM     60  C   UNL A   1      41.801  32.493  31.618  1.00  0.00     0.029 A 
ATOM     61  C   UNL A   1      41.850  32.842  30.276  1.00  0.00     0.049 A 
ATOM     62  H   UNL A   1      40.262  33.046  28.920  1.00  0.00     0.167 HD
ATOM     63  C   UNL A   1      43.863  32.477  28.963  1.00  0.00     0.074 A 
ATOM     64  C   UNL A   1      45.262  32.623  28.584  1.00  0.00     0.031 C 
ATOM     65  C   UNL A   1      42.911  33.349  29.401  1.00  0.00     0.031 A 
BRANCH  52  66
ATOM     66  C   UNL A   1      37.061  32.330  31.208  1.00  0.00    -0.014 A 
ATOM     67  C   UNL A   1      35.967  32.850  30.494  1.00  0.00     0.009 A 
ATOM     68  C   UNL A   1      36.900  32.272  32.606  1.00  0.00     0.009 A 
ATOM     69  C   UNL A   1      34.790  33.268  31.134  1.00  0.00     0.001 A 
ATOM     70  C   UNL A   1      35.718  32.659  33.253  1.00  0.00     0.001 A 
ATOM     71  C   UNL A   1      34.660  33.160  32.513  1.00  0.00     0.000 A 
ENDBRANCH  52  66
BRANCH  53  72
ATOM     72  C   UNL A   1      45.237  27.982  27.766  1.00  0.00    -0.014 A 
ATOM     73  C   UNL A   1      45.765  26.764  28.267  1.00  0.00     0.009 A 
ATOM     74  C   UNL A   1      44.630  27.954  26.503  1.00  0.00     0.009 A 
ATOM     75  C   UNL A   1      45.559  25.548  27.598  1.00  0.00     0.001 A 
ATOM     76  C   UNL A   1      44.427  26.730  25.837  1.00  0.00     0.001 A 
ATOM     77  C   UNL A   1      44.849  25.528  26.404  1.00  0.00     0.000 A 
ENDBRANCH  53  72
BRANCH  65  78
ATOM     78  C   UNL A   1      42.896  34.810  29.047  1.00  0.00    -0.014 A 
ATOM     79  C   UNL A   1      42.089  35.355  28.043  1.00  0.00     0.009 A 
ATOM     80  C   UNL A   1      43.565  35.720  29.894  1.00  0.00     0.009 A 
ATOM     81  C   UNL A   1      41.979  36.738  27.874  1.00  0.00     0.001 A 
ATOM     82  C   UNL A   1      43.404  37.098  29.773  1.00  0.00     0.001 A 
ATOM     83  C   UNL A   1      42.618  37.607  28.751  1.00  0.00     0.000 A 
ENDBRANCH  65  78
ENDBRANCH  39  40
ENDBRANCH  32  34
ENDBRANCH  31  32
ENDBRANCH  30  31
ENDBRANCH   1  30
TORSDOF 15
ENDMDL
