MODEL 1
REMARK VINA RESULT:     -10.9      0.000      0.000
REMARK SMILES Cc1c(NC(=O)c2ccc(Br)cc2N)cccc1C(=O)OCCOCCOC(=O)c1ccc(-c2c3nc(c(-c4ccccc4)c4ccc([nH]4)c(-c4ccccc4)c4nc(c(-c5ccccc5)c5ccc2[nH]5)C=C4)C=C3)cc1
REMARK SMILES IDX 23 1 22 2 21 3 19 4 20 5 18 6 1 7 2 8 3 9 15 10 17 11 16 12
REMARK SMILES IDX 4 13 5 14 6 16 7 17 8 18 13 19 9 20 12 21 10 22 11 23 14 24
REMARK SMILES IDX 24 27 25 28 26 29 27 30 28 31 29 32 30 33 31 34 77 35 32 36
REMARK SMILES IDX 76 37 33 38 34 39 35 40 70 41 36 42 75 43 69 44 71 45 37 46
REMARK SMILES IDX 74 47 68 48 67 49 38 51 60 52 45 53 59 54 46 55 49 56 58 57
REMARK SMILES IDX 72 58 47 59 48 60 57 62 73 63 50 64 39 65 40 66 44 67 41 68
REMARK SMILES IDX 43 69 42 70 61 71 62 72 66 73 63 74 65 75 64 76 51 77 52 78
REMARK SMILES IDX 56 79 53 80 55 81 54 82
REMARK H PARENT 4 15 14 25 14 26 71 50 49 61
REMARK Flexibility Score: inf
ROOT
ATOM      1  C   UNL A   1      33.634  32.952  27.966  1.00  0.00     0.202 C 
ENDROOT
BRANCH   1   2
ATOM      2  C   UNL A   1      32.739  31.808  27.650  1.00  0.00     0.261 C 
BRANCH   2   3
ATOM      3  O   UNL A   1      33.301  31.022  26.597  1.00  0.00    -0.460 OA
BRANCH   3   4
ATOM      4  C   UNL A   1      33.908  29.840  26.793  1.00  0.00     0.338 C 
ATOM      5  O   UNL A   1      34.957  29.627  27.358  1.00  0.00    -0.246 OA
BRANCH   4   6
ATOM      6  C   UNL A   1      32.959  28.805  26.287  1.00  0.00     0.065 A 
ATOM      7  C   UNL A   1      33.314  29.205  23.709  1.00  0.00     0.047 C 
ATOM      8  C   UNL A   1      32.680  28.536  24.919  1.00  0.00    -0.013 A 
ATOM      9  C   UNL A   1      31.651  27.607  24.633  1.00  0.00     0.045 A 
ATOM     10  C   UNL A   1      30.922  26.987  25.654  1.00  0.00     0.026 A 
ATOM     11  C   UNL A   1      32.221  28.161  27.300  1.00  0.00     0.016 A 
ATOM     12  C   UNL A   1      31.203  27.267  26.986  1.00  0.00     0.003 A 
BRANCH   9  13
ATOM     13  N   UNL A   1      31.366  27.370  23.278  1.00  0.00    -0.322 N 
ATOM     14  C   UNL A   1      31.667  26.301  22.476  1.00  0.00     0.257 C 
ATOM     15  H   UNL A   1      30.868  28.092  22.832  1.00  0.00     0.170 HD
ATOM     16  O   UNL A   1      31.337  26.336  21.290  1.00  0.00    -0.269 OA
BRANCH  14  17
ATOM     17  C   UNL A   1      32.347  25.100  23.002  1.00  0.00     0.063 A 
ATOM     18  C   UNL A   1      33.736  25.240  23.146  1.00  0.00     0.017 A 
ATOM     19  C   UNL A   1      31.698  23.899  23.363  1.00  0.00     0.045 A 
ATOM     20  C   UNL A   1      34.491  24.208  23.689  1.00  0.00     0.016 A 
ATOM     21  C   UNL A   1      32.480  22.871  23.907  1.00  0.00     0.042 A 
ATOM     22  C   UNL A   1      33.857  23.034  24.079  1.00  0.00     0.020 A 
ATOM     23  Br  UNL A   1      34.876  21.632  24.833  1.00  0.00    -0.051 Br
BRANCH  19  24
ATOM     24  N   UNL A   1      30.360  23.618  23.086  1.00  0.00    -0.398 N 
ATOM     25  H   UNL A   1      29.805  24.280  22.615  1.00  0.00     0.156 HD
ATOM     26  H   UNL A   1      29.970  22.758  23.364  1.00  0.00     0.156 HD
ENDBRANCH  19  24
ENDBRANCH  14  17
ENDBRANCH   9  13
ENDBRANCH   4   6
ENDBRANCH   3   4
ENDBRANCH   2   3
ENDBRANCH   1   2
BRANCH   1  27
ATOM     27  O   UNL A   1      32.813  33.850  28.688  1.00  0.00    -0.374 OA
BRANCH  27  28
ATOM     28  C   UNL A   1      33.273  35.179  28.751  1.00  0.00     0.202 C 
BRANCH  28  29
ATOM     29  C   UNL A   1      33.036  35.814  30.127  1.00  0.00     0.261 C 
BRANCH  29  30
ATOM     30  O   UNL A   1      33.138  34.795  31.149  1.00  0.00    -0.460 OA
BRANCH  30  31
ATOM     31  C   UNL A   1      34.320  34.712  31.826  1.00  0.00     0.338 C 
ATOM     32  O   UNL A   1      34.808  35.598  32.509  1.00  0.00    -0.246 OA
BRANCH  31  33
ATOM     33  C   UNL A   1      35.082  33.507  31.367  1.00  0.00     0.060 A 
ATOM     34  C   UNL A   1      34.986  32.294  32.081  1.00  0.00     0.016 A 
ATOM     35  C   UNL A   1      36.135  33.700  30.480  1.00  0.00     0.016 A 
ATOM     36  C   UNL A   1      36.035  31.357  32.037  1.00  0.00     0.010 A 
ATOM     37  C   UNL A   1      37.206  32.833  30.525  1.00  0.00     0.010 A 
ATOM     38  C   UNL A   1      37.192  31.677  31.330  1.00  0.00    -0.014 A 
BRANCH  38  39
ATOM     39  C   UNL A   1      38.505  31.022  31.443  1.00  0.00     0.031 A 
ATOM     40  C   UNL A   1      38.782  29.884  30.539  1.00  0.00     0.074 A 
ATOM     41  C   UNL A   1      39.543  31.613  32.094  1.00  0.00     0.049 A 
ATOM     42  N   UNL A   1      39.846  29.169  30.607  1.00  0.00    -0.248 NA
ATOM     43  C   UNL A   1      37.868  29.421  29.493  1.00  0.00     0.031 C 
ATOM     44  C   UNL A   1      40.984  31.455  31.869  1.00  0.00     0.029 A 
ATOM     45  N   UNL A   1      39.511  32.533  33.141  1.00  0.00    -0.354 N 
ATOM     46  C   UNL A   1      39.932  28.436  29.452  1.00  0.00     0.074 A 
ATOM     47  C   UNL A   1      38.626  28.525  28.852  1.00  0.00     0.031 C 
ATOM     48  C   UNL A   1      41.672  32.002  32.890  1.00  0.00     0.029 A 
ATOM     49  C   UNL A   1      40.702  32.447  33.875  1.00  0.00     0.049 A 
ATOM     50  H   UNL A   1      38.767  33.148  33.336  1.00  0.00     0.167 HD
ATOM     51  C   UNL A   1      41.151  27.955  29.092  1.00  0.00     0.031 A 
ATOM     52  C   UNL A   1      40.665  32.177  35.207  1.00  0.00     0.031 A 
ATOM     53  C   UNL A   1      42.137  28.184  30.161  1.00  0.00     0.049 A 
ATOM     54  C   UNL A   1      41.242  30.802  35.375  1.00  0.00     0.074 A 
ATOM     55  C   UNL A   1      43.218  29.039  30.296  1.00  0.00     0.029 A 
ATOM     56  N   UNL A   1      41.852  27.714  31.445  1.00  0.00    -0.354 N 
ATOM     57  N   UNL A   1      41.253  29.933  34.397  1.00  0.00    -0.248 NA
ATOM     58  C   UNL A   1      41.986  30.346  36.543  1.00  0.00     0.031 C 
ATOM     59  C   UNL A   1      43.502  29.159  31.694  1.00  0.00     0.029 A 
ATOM     60  C   UNL A   1      42.625  28.347  32.400  1.00  0.00     0.049 A 
ATOM     61  H   UNL A   1      41.184  27.018  31.644  1.00  0.00     0.167 HD
ATOM     62  C   UNL A   1      42.106  28.926  34.709  1.00  0.00     0.074 A 
ATOM     63  C   UNL A   1      42.480  29.179  36.092  1.00  0.00     0.031 C 
ATOM     64  C   UNL A   1      42.505  27.982  33.812  1.00  0.00     0.031 A 
BRANCH  51  65
ATOM     65  C   UNL A   1      41.499  27.431  27.718  1.00  0.00    -0.014 A 
ATOM     66  C   UNL A   1      42.010  28.316  26.752  1.00  0.00     0.009 A 
ATOM     67  C   UNL A   1      41.294  26.107  27.280  1.00  0.00     0.009 A 
ATOM     68  C   UNL A   1      42.307  27.901  25.443  1.00  0.00     0.001 A 
ATOM     69  C   UNL A   1      41.612  25.679  25.983  1.00  0.00     0.001 A 
ATOM     70  C   UNL A   1      42.119  26.579  25.062  1.00  0.00     0.000 A 
ENDBRANCH  51  65
BRANCH  52  71
ATOM     71  C   UNL A   1      39.487  32.833  35.865  1.00  0.00    -0.014 A 
ATOM     72  C   UNL A   1      38.524  31.966  36.439  1.00  0.00     0.009 A 
ATOM     73  C   UNL A   1      39.570  34.139  36.374  1.00  0.00     0.009 A 
ATOM     74  C   UNL A   1      37.784  32.342  37.570  1.00  0.00     0.001 A 
ATOM     75  C   UNL A   1      38.829  34.507  37.513  1.00  0.00     0.001 A 
ATOM     76  C   UNL A   1      37.969  33.600  38.132  1.00  0.00     0.000 A 
ENDBRANCH  52  71
BRANCH  64  77
ATOM     77  C   UNL A   1      42.838  26.588  34.248  1.00  0.00    -0.014 A 
ATOM     78  C   UNL A   1      44.086  25.998  34.000  1.00  0.00     0.009 A 
ATOM     79  C   UNL A   1      41.964  25.909  35.118  1.00  0.00     0.009 A 
ATOM     80  C   UNL A   1      44.423  24.760  34.546  1.00  0.00     0.001 A 
ATOM     81  C   UNL A   1      42.323  24.704  35.717  1.00  0.00     0.001 A 
ATOM     82  C   UNL A   1      43.546  24.120  35.414  1.00  0.00     0.000 A 
ENDBRANCH  64  77
ENDBRANCH  38  39
ENDBRANCH  31  33
ENDBRANCH  30  31
ENDBRANCH  29  30
ENDBRANCH  28  29
ENDBRANCH  27  28
ENDBRANCH   1  27
TORSDOF 17
ENDMDL
MODEL 2
REMARK VINA RESULT:     -10.8      5.310     10.482
REMARK SMILES Cc1c(NC(=O)c2ccc(Br)cc2N)cccc1C(=O)OCCOCCOC(=O)c1ccc(-c2c3nc(c(-c4ccccc4)c4ccc([nH]4)c(-c4ccccc4)c4nc(c(-c5ccccc5)c5ccc2[nH]5)C=C4)C=C3)cc1
REMARK SMILES IDX 23 1 22 2 21 3 19 4 20 5 18 6 1 7 2 8 3 9 15 10 17 11 16 12
REMARK SMILES IDX 4 13 5 14 6 16 7 17 8 18 13 19 9 20 12 21 10 22 11 23 14 24
REMARK SMILES IDX 24 27 25 28 26 29 27 30 28 31 29 32 30 33 31 34 77 35 32 36
REMARK SMILES IDX 76 37 33 38 34 39 35 40 70 41 36 42 75 43 69 44 71 45 37 46
REMARK SMILES IDX 74 47 68 48 67 49 38 51 60 52 45 53 59 54 46 55 49 56 58 57
REMARK SMILES IDX 72 58 47 59 48 60 57 62 73 63 50 64 39 65 40 66 44 67 41 68
REMARK SMILES IDX 43 69 42 70 61 71 62 72 66 73 63 74 65 75 64 76 51 77 52 78
REMARK SMILES IDX 56 79 53 80 55 81 54 82
REMARK H PARENT 4 15 14 25 14 26 71 50 49 61
REMARK Flexibility Score: inf
ROOT
ATOM      1  C   UNL A   1      40.328  21.218  26.598  1.00  0.00     0.202 C 
ENDROOT
BRANCH   1   2
ATOM      2  C   UNL A   1      39.172  21.333  25.670  1.00  0.00     0.261 C 
BRANCH   2   3
ATOM      3  O   UNL A   1      38.114  22.064  26.294  1.00  0.00    -0.460 OA
BRANCH   3   4
ATOM      4  C   UNL A   1      37.858  23.359  26.049  1.00  0.00     0.338 C 
ATOM      5  O   UNL A   1      38.498  24.324  26.401  1.00  0.00    -0.246 OA
BRANCH   4   6
ATOM      6  C   UNL A   1      36.683  23.376  25.129  1.00  0.00     0.065 A 
ATOM      7  C   UNL A   1      34.784  23.418  26.952  1.00  0.00     0.047 C 
ATOM      8  C   UNL A   1      35.319  23.381  25.527  1.00  0.00    -0.013 A 
ATOM      9  C   UNL A   1      34.341  23.263  24.512  1.00  0.00     0.045 A 
ATOM     10  C   UNL A   1      34.698  23.127  23.166  1.00  0.00     0.026 A 
ATOM     11  C   UNL A   1      37.022  23.250  23.766  1.00  0.00     0.016 A 
ATOM     12  C   UNL A   1      36.038  23.117  22.793  1.00  0.00     0.003 A 
BRANCH   9  13
ATOM     13  N   UNL A   1      32.997  23.242  24.921  1.00  0.00    -0.322 N 
ATOM     14  C   UNL A   1      32.106  22.206  25.010  1.00  0.00     0.257 C 
ATOM     15  H   UNL A   1      32.636  24.118  25.188  1.00  0.00     0.170 HD
ATOM     16  O   UNL A   1      30.952  22.442  25.368  1.00  0.00    -0.269 OA
BRANCH  14  17
ATOM     17  C   UNL A   1      32.502  20.812  24.718  1.00  0.00     0.063 A 
ATOM     18  C   UNL A   1      32.191  20.385  23.418  1.00  0.00     0.017 A 
ATOM     19  C   UNL A   1      33.156  19.952  25.627  1.00  0.00     0.045 A 
ATOM     20  C   UNL A   1      32.563  19.117  22.990  1.00  0.00     0.016 A 
ATOM     21  C   UNL A   1      33.520  18.677  25.174  1.00  0.00     0.042 A 
ATOM     22  C   UNL A   1      33.238  18.274  23.866  1.00  0.00     0.020 A 
ATOM     23  Br  UNL A   1      33.761  16.554  23.286  1.00  0.00    -0.051 Br
BRANCH  19  24
ATOM     24  N   UNL A   1      33.338  20.235  26.980  1.00  0.00    -0.398 N 
ATOM     25  H   UNL A   1      32.628  20.024  27.628  1.00  0.00     0.156 HD
ATOM     26  H   UNL A   1      34.177  20.649  27.288  1.00  0.00     0.156 HD
ENDBRANCH  19  24
ENDBRANCH  14  17
ENDBRANCH   9  13
ENDBRANCH   4   6
ENDBRANCH   3   4
ENDBRANCH   2   3
ENDBRANCH   1   2
BRANCH   1  27
ATOM     27  O   UNL A   1      41.054  20.102  26.115  1.00  0.00    -0.374 OA
BRANCH  27  28
ATOM     28  C   UNL A   1      42.409  20.048  26.493  1.00  0.00     0.202 C 
BRANCH  28  29
ATOM     29  C   UNL A   1      43.327  19.680  25.320  1.00  0.00     0.261 C 
BRANCH  29  30
ATOM     30  O   UNL A   1      44.534  20.473  25.389  1.00  0.00    -0.460 OA
BRANCH  30  31
ATOM     31  C   UNL A   1      44.537  21.657  24.709  1.00  0.00     0.338 C 
ATOM     32  O   UNL A   1      44.314  21.789  23.516  1.00  0.00    -0.246 OA
BRANCH  31  33
ATOM     33  C   UNL A   1      45.154  22.725  25.557  1.00  0.00     0.060 A 
ATOM     34  C   UNL A   1      45.013  22.686  26.961  1.00  0.00     0.016 A 
ATOM     35  C   UNL A   1      45.533  23.912  24.939  1.00  0.00     0.016 A 
ATOM     36  C   UNL A   1      45.078  23.871  27.716  1.00  0.00     0.010 A 
ATOM     37  C   UNL A   1      45.489  25.082  25.667  1.00  0.00     0.010 A 
ATOM     38  C   UNL A   1      45.221  25.086  27.050  1.00  0.00    -0.014 A 
BRANCH  38  39
ATOM     39  C   UNL A   1      44.962  26.428  27.597  1.00  0.00     0.031 A 
ATOM     40  C   UNL A   1      43.553  26.864  27.699  1.00  0.00     0.074 A 
ATOM     41  C   UNL A   1      45.916  27.113  28.284  1.00  0.00     0.049 A 
ATOM     42  N   UNL A   1      43.202  28.044  28.064  1.00  0.00    -0.248 NA
ATOM     43  C   UNL A   1      42.402  26.023  27.365  1.00  0.00     0.031 C 
ATOM     44  C   UNL A   1      45.749  28.120  29.338  1.00  0.00     0.029 A 
ATOM     45  N   UNL A   1      47.304  27.033  28.175  1.00  0.00    -0.354 N 
ATOM     46  C   UNL A   1      41.864  28.010  28.359  1.00  0.00     0.074 A 
ATOM     47  C   UNL A   1      41.384  26.779  27.789  1.00  0.00     0.031 C 
ATOM     48  C   UNL A   1      46.920  28.745  29.566  1.00  0.00     0.029 A 
ATOM     49  C   UNL A   1      47.875  28.241  28.595  1.00  0.00     0.049 A 
ATOM     50  H   UNL A   1      47.804  26.250  27.851  1.00  0.00     0.167 HD
ATOM     51  C   UNL A   1      41.365  28.983  29.168  1.00  0.00     0.031 A 
ATOM     52  C   UNL A   1      48.677  28.946  27.754  1.00  0.00     0.031 A 
ATOM     53  C   UNL A   1      42.381  30.016  29.427  1.00  0.00     0.049 A 
ATOM     54  C   UNL A   1      47.922  30.195  27.401  1.00  0.00     0.074 A 
ATOM     55  C   UNL A   1      43.133  30.359  30.538  1.00  0.00     0.029 A 
ATOM     56  N   UNL A   1      42.995  30.638  28.337  1.00  0.00    -0.354 N 
ATOM     57  N   UNL A   1      46.619  30.263  27.485  1.00  0.00    -0.248 NA
ATOM     58  C   UNL A   1      48.536  31.485  27.104  1.00  0.00     0.031 C 
ATOM     59  C   UNL A   1      44.267  31.102  30.079  1.00  0.00     0.029 A 
ATOM     60  C   UNL A   1      44.182  31.246  28.701  1.00  0.00     0.049 A 
ATOM     61  H   UNL A   1      42.627  30.642  27.423  1.00  0.00     0.167 HD
ATOM     62  C   UNL A   1      46.238  31.563  27.435  1.00  0.00     0.074 A 
ATOM     63  C   UNL A   1      47.457  32.289  27.112  1.00  0.00     0.031 C 
ATOM     64  C   UNL A   1      44.972  31.981  27.714  1.00  0.00     0.031 A 
BRANCH  51  65
ATOM     65  C   UNL A   1      40.024  28.921  29.862  1.00  0.00    -0.014 A 
ATOM     66  C   UNL A   1      39.943  28.386  31.159  1.00  0.00     0.009 A 
ATOM     67  C   UNL A   1      38.797  29.307  29.287  1.00  0.00     0.009 A 
ATOM     68  C   UNL A   1      38.721  28.257  31.839  1.00  0.00     0.001 A 
ATOM     69  C   UNL A   1      37.575  29.205  29.968  1.00  0.00     0.001 A 
ATOM     70  C   UNL A   1      37.537  28.678  31.247  1.00  0.00     0.000 A 
ENDBRANCH  51  65
BRANCH  52  71
ATOM     71  C   UNL A   1      49.515  28.037  26.907  1.00  0.00    -0.014 A 
ATOM     72  C   UNL A   1      50.532  27.312  27.578  1.00  0.00     0.009 A 
ATOM     73  C   UNL A   1      49.027  27.505  25.703  1.00  0.00     0.009 A 
ATOM     74  C   UNL A   1      50.931  26.039  27.143  1.00  0.00     0.001 A 
ATOM     75  C   UNL A   1      49.428  26.225  25.275  1.00  0.00     0.001 A 
ATOM     76  C   UNL A   1      50.347  25.478  26.012  1.00  0.00     0.000 A 
ENDBRANCH  52  71
BRANCH  64  77
ATOM     77  C   UNL A   1      44.386  33.185  27.042  1.00  0.00    -0.014 A 
ATOM     78  C   UNL A   1      44.092  33.215  25.671  1.00  0.00     0.009 A 
ATOM     79  C   UNL A   1      43.911  34.252  27.828  1.00  0.00     0.009 A 
ATOM     80  C   UNL A   1      43.410  34.289  25.100  1.00  0.00     0.001 A 
ATOM     81  C   UNL A   1      43.172  35.293  27.272  1.00  0.00     0.001 A 
ATOM     82  C   UNL A   1      42.940  35.321  25.904  1.00  0.00     0.000 A 
ENDBRANCH  64  77
ENDBRANCH  38  39
ENDBRANCH  31  33
ENDBRANCH  30  31
ENDBRANCH  29  30
ENDBRANCH  28  29
ENDBRANCH  27  28
ENDBRANCH   1  27
TORSDOF 17
ENDMDL
MODEL 3
REMARK VINA RESULT:     -10.7      1.202      2.060
REMARK SMILES Cc1c(NC(=O)c2ccc(Br)cc2N)cccc1C(=O)OCCOCCOC(=O)c1ccc(-c2c3nc(c(-c4ccccc4)c4ccc([nH]4)c(-c4ccccc4)c4nc(c(-c5ccccc5)c5ccc2[nH]5)C=C4)C=C3)cc1
REMARK SMILES IDX 23 1 22 2 21 3 19 4 20 5 18 6 1 7 2 8 3 9 15 10 17 11 16 12
REMARK SMILES IDX 4 13 5 14 6 16 7 17 8 18 13 19 9 20 12 21 10 22 11 23 14 24
REMARK SMILES IDX 24 27 25 28 26 29 27 30 28 31 29 32 30 33 31 34 77 35 32 36
REMARK SMILES IDX 76 37 33 38 34 39 35 40 70 41 36 42 75 43 69 44 71 45 37 46
REMARK SMILES IDX 74 47 68 48 67 49 38 51 60 52 45 53 59 54 46 55 49 56 58 57
REMARK SMILES IDX 72 58 47 59 48 60 57 62 73 63 50 64 39 65 40 66 44 67 41 68
REMARK SMILES IDX 43 69 42 70 61 71 62 72 66 73 63 74 65 75 64 76 51 77 52 78
REMARK SMILES IDX 56 79 53 80 55 81 54 82
REMARK H PARENT 4 15 14 25 14 26 71 50 49 61
REMARK Flexibility Score: inf
ROOT
ATOM      1  C   UNL A   1      34.702  29.439  27.601  1.00  0.00     0.202 C 
ENDROOT
BRANCH   1   2
ATOM      2  C   UNL A   1      33.605  28.561  27.117  1.00  0.00     0.261 C 
BRANCH   2   3
ATOM      3  O   UNL A   1      33.346  28.818  25.735  1.00  0.00    -0.460 OA
BRANCH   3   4
ATOM      4  C   UNL A   1      32.125  29.087  25.244  1.00  0.00     0.338 C 
ATOM      5  O   UNL A   1      31.542  30.148  25.236  1.00  0.00    -0.246 OA
BRANCH   4   6
ATOM      6  C   UNL A   1      31.667  27.832  24.579  1.00  0.00     0.065 A 
ATOM      7  C   UNL A   1      33.338  27.859  22.545  1.00  0.00     0.047 C 
ATOM      8  C   UNL A   1      32.190  27.297  23.371  1.00  0.00    -0.013 A 
ATOM      9  C   UNL A   1      31.540  26.167  22.820  1.00  0.00     0.045 A 
ATOM     10  C   UNL A   1      30.413  25.604  23.430  1.00  0.00     0.026 A 
ATOM     11  C   UNL A   1      30.538  27.243  25.183  1.00  0.00     0.016 A 
ATOM     12  C   UNL A   1      29.909  26.144  24.608  1.00  0.00     0.003 A 
BRANCH   9  13
ATOM     13  N   UNL A   1      32.050  25.664  21.612  1.00  0.00    -0.322 N 
ATOM     14  C   UNL A   1      32.903  24.620  21.368  1.00  0.00     0.257 C 
ATOM     15  H   UNL A   1      31.744  26.141  20.808  1.00  0.00     0.170 HD
ATOM     16  O   UNL A   1      33.241  24.387  20.208  1.00  0.00    -0.269 OA
BRANCH  14  17
ATOM     17  C   UNL A   1      33.402  23.752  22.455  1.00  0.00     0.063 A 
ATOM     18  C   UNL A   1      34.468  24.297  23.186  1.00  0.00     0.017 A 
ATOM     19  C   UNL A   1      32.872  22.484  22.782  1.00  0.00     0.045 A 
ATOM     20  C   UNL A   1      34.993  23.614  24.275  1.00  0.00     0.016 A 
ATOM     21  C   UNL A   1      33.418  21.812  23.884  1.00  0.00     0.042 A 
ATOM     22  C   UNL A   1      34.455  22.380  24.627  1.00  0.00     0.020 A 
ATOM     23  Br  UNL A   1      35.153  21.452  26.118  1.00  0.00    -0.051 Br
BRANCH  19  24
ATOM     24  N   UNL A   1      31.941  21.800  22.002  1.00  0.00    -0.398 N 
ATOM     25  H   UNL A   1      31.024  22.147  21.910  1.00  0.00     0.156 HD
ATOM     26  H   UNL A   1      32.200  20.968  21.543  1.00  0.00     0.156 HD
ENDBRANCH  19  24
ENDBRANCH  14  17
ENDBRANCH   9  13
ENDBRANCH   4   6
ENDBRANCH   3   4
ENDBRANCH   2   3
ENDBRANCH   1   2
BRANCH   1  27
ATOM     27  O   UNL A   1      34.481  30.671  26.941  1.00  0.00    -0.374 OA
BRANCH  27  28
ATOM     28  C   UNL A   1      33.681  31.599  27.636  1.00  0.00     0.202 C 
BRANCH  28  29
ATOM     29  C   UNL A   1      34.397  32.184  28.860  1.00  0.00     0.261 C 
BRANCH  29  30
ATOM     30  O   UNL A   1      34.049  33.581  28.997  1.00  0.00    -0.460 OA
BRANCH  30  31
ATOM     31  C   UNL A   1      34.028  34.094  30.261  1.00  0.00     0.338 C 
ATOM     32  O   UNL A   1      33.135  34.781  30.731  1.00  0.00    -0.246 OA
BRANCH  31  33
ATOM     33  C   UNL A   1      35.383  33.962  30.883  1.00  0.00     0.060 A 
ATOM     34  C   UNL A   1      36.529  34.407  30.189  1.00  0.00     0.016 A 
ATOM     35  C   UNL A   1      35.527  33.085  31.954  1.00  0.00     0.016 A 
ATOM     36  C   UNL A   1      37.788  33.838  30.456  1.00  0.00     0.010 A 
ATOM     37  C   UNL A   1      36.739  32.455  32.135  1.00  0.00     0.010 A 
ATOM     38  C   UNL A   1      37.872  32.788  31.367  1.00  0.00    -0.014 A 
BRANCH  38  39
ATOM     39  C   UNL A   1      38.990  31.843  31.524  1.00  0.00     0.031 A 
ATOM     40  C   UNL A   1      38.929  30.579  30.759  1.00  0.00     0.074 A 
ATOM     41  C   UNL A   1      40.176  32.227  32.069  1.00  0.00     0.049 A 
ATOM     42  N   UNL A   1      39.788  29.634  30.885  1.00  0.00    -0.248 NA
ATOM     43  C   UNL A   1      37.872  30.244  29.803  1.00  0.00     0.031 C 
ATOM     44  C   UNL A   1      41.520  31.691  31.826  1.00  0.00     0.029 A 
ATOM     45  N   UNL A   1      40.429  33.238  32.996  1.00  0.00    -0.354 N 
ATOM     46  C   UNL A   1      39.628  28.778  29.826  1.00  0.00     0.074 A 
ATOM     47  C   UNL A   1      38.351  29.121  29.256  1.00  0.00     0.031 C 
ATOM     48  C   UNL A   1      42.377  32.160  32.753  1.00  0.00     0.029 A 
ATOM     49  C   UNL A   1      41.602  32.940  33.702  1.00  0.00     0.049 A 
ATOM     50  H   UNL A   1      39.870  34.036  33.134  1.00  0.00     0.167 HD
ATOM     51  C   UNL A   1      40.671  27.971  29.495  1.00  0.00     0.031 A 
ATOM     52  C   UNL A   1      41.576  32.839  35.057  1.00  0.00     0.031 A 
ATOM     53  C   UNL A   1      41.742  28.067  30.500  1.00  0.00     0.049 A 
ATOM     54  C   UNL A   1      41.809  31.391  35.377  1.00  0.00     0.074 A 
ATOM     55  C   UNL A   1      43.004  28.636  30.500  1.00  0.00     0.029 A 
ATOM     56  N   UNL A   1      41.425  27.829  31.840  1.00  0.00    -0.354 N 
ATOM     57  N   UNL A   1      41.552  30.443  34.513  1.00  0.00    -0.248 NA
ATOM     58  C   UNL A   1      42.485  30.898  36.571  1.00  0.00     0.031 C 
ATOM     59  C   UNL A   1      43.388  28.837  31.864  1.00  0.00     0.029 A 
ATOM     60  C   UNL A   1      42.381  28.352  32.689  1.00  0.00     0.049 A 
ATOM     61  H   UNL A   1      40.619  27.348  32.141  1.00  0.00     0.167 HD
ATOM     62  C   UNL A   1      42.151  29.297  34.922  1.00  0.00     0.074 A 
ATOM     63  C   UNL A   1      42.653  29.602  36.253  1.00  0.00     0.031 C 
ATOM     64  C   UNL A   1      42.256  28.189  34.137  1.00  0.00     0.031 A 
BRANCH  51  65
ATOM     65  C   UNL A   1      40.801  27.227  28.186  1.00  0.00    -0.014 A 
ATOM     66  C   UNL A   1      40.147  25.993  28.027  1.00  0.00     0.009 A 
ATOM     67  C   UNL A   1      41.595  27.638  27.097  1.00  0.00     0.009 A 
ATOM     68  C   UNL A   1      40.267  25.231  26.853  1.00  0.00     0.001 A 
ATOM     69  C   UNL A   1      41.701  26.896  25.912  1.00  0.00     0.001 A 
ATOM     70  C   UNL A   1      41.036  25.688  25.790  1.00  0.00     0.000 A 
ENDBRANCH  51  65
BRANCH  52  71
ATOM     71  C   UNL A   1      40.633  33.836  35.662  1.00  0.00    -0.014 A 
ATOM     72  C   UNL A   1      39.545  33.307  36.399  1.00  0.00     0.009 A 
ATOM     73  C   UNL A   1      41.051  35.142  35.969  1.00  0.00     0.009 A 
ATOM     74  C   UNL A   1      39.000  33.994  37.495  1.00  0.00     0.001 A 
ATOM     75  C   UNL A   1      40.503  35.823  37.072  1.00  0.00     0.001 A 
ATOM     76  C   UNL A   1      39.509  35.237  37.855  1.00  0.00     0.000 A 
ENDBRANCH  52  71
BRANCH  64  77
ATOM     77  C   UNL A   1      42.263  26.814  34.732  1.00  0.00    -0.014 A 
ATOM     78  C   UNL A   1      41.183  26.306  35.468  1.00  0.00     0.009 A 
ATOM     79  C   UNL A   1      43.283  25.912  34.375  1.00  0.00     0.009 A 
ATOM     80  C   UNL A   1      41.152  24.974  35.881  1.00  0.00     0.001 A 
ATOM     81  C   UNL A   1      43.223  24.567  34.729  1.00  0.00     0.001 A 
ATOM     82  C   UNL A   1      42.166  24.103  35.501  1.00  0.00     0.000 A 
ENDBRANCH  64  77
ENDBRANCH  38  39
ENDBRANCH  31  33
ENDBRANCH  30  31
ENDBRANCH  29  30
ENDBRANCH  28  29
ENDBRANCH  27  28
ENDBRANCH   1  27
TORSDOF 17
ENDMDL
