MODEL 1
REMARK VINA RESULT:     -10.6      0.000      0.000
REMARK SMILES Cc1nsc(NC(=O)c2ccc(N)cc2)c1C(=O)OCCOCCOC(=O)c1ccc(-c2c3nc(c(-c4ccccc4)c4ccc([nH]4)c(-c4ccccc4)c4nc(c(-c5ccccc5)c5ccc2[nH]5)C=C4)C=C3)cc1
REMARK SMILES IDX 21 1 20 2 19 3 17 4 18 5 16 6 1 7 2 8 3 9 4 10 5 11 6 12
REMARK SMILES IDX 7 13 8 15 9 16 10 17 15 18 11 19 14 20 12 21 13 22 22 25
REMARK SMILES IDX 23 26 24 27 25 28 26 29 27 30 28 31 29 32 75 33 30 34 74 35
REMARK SMILES IDX 31 36 32 37 33 38 68 39 34 40 73 41 67 42 69 43 35 44 72 45
REMARK SMILES IDX 66 46 65 47 36 49 58 50 43 51 57 52 44 53 47 54 56 55 70 56
REMARK SMILES IDX 45 57 46 58 55 60 71 61 48 62 37 63 38 64 42 65 39 66 41 67
REMARK SMILES IDX 40 68 59 69 60 70 64 71 61 72 63 73 62 74 49 75 50 76 54 77
REMARK SMILES IDX 51 78 53 79 52 80
REMARK H PARENT 6 14 13 23 13 24 69 48 47 59
REMARK Flexibility Score: inf
ROOT
ATOM      1  C   UNL A   1      31.715  28.050  26.974  1.00  0.00     0.202 C 
ENDROOT
BRANCH   1   2
ATOM      2  C   UNL A   1      32.251  27.023  25.967  1.00  0.00     0.261 C 
BRANCH   2   3
ATOM      3  O   UNL A   1      31.773  25.697  26.257  1.00  0.00    -0.460 OA
BRANCH   3   4
ATOM      4  C   UNL A   1      30.881  25.182  25.360  1.00  0.00     0.343 C 
ATOM      5  O   UNL A   1      30.138  25.848  24.659  1.00  0.00    -0.246 OA
BRANCH   4   6
ATOM      6  C   UNL A   1      31.091  23.757  25.147  1.00  0.00     0.117 A 
ATOM      7  C   UNL A   1      29.858  22.749  27.229  1.00  0.00     0.069 C 
ATOM      8  C   UNL A   1      30.683  22.662  25.990  1.00  0.00     0.068 A 
ATOM      9  N   UNL A   1      31.098  21.452  25.613  1.00  0.00    -0.195 NA
ATOM     10  S   UNL A   1      32.043  21.602  24.270  1.00  0.00    -0.017 S 
ATOM     11  C   UNL A   1      31.845  23.280  24.080  1.00  0.00     0.131 A 
BRANCH  11  12
ATOM     12  N   UNL A   1      32.502  24.028  23.113  1.00  0.00    -0.312 N 
ATOM     13  C   UNL A   1      33.764  24.575  23.091  1.00  0.00     0.256 C 
ATOM     14  H   UNL A   1      31.972  24.194  22.299  1.00  0.00     0.171 HD
ATOM     15  O   UNL A   1      33.994  25.545  22.368  1.00  0.00    -0.269 OA
BRANCH  13  16
ATOM     16  C   UNL A   1      34.885  23.976  23.843  1.00  0.00     0.040 A 
ATOM     17  C   UNL A   1      35.683  22.984  23.267  1.00  0.00     0.016 A 
ATOM     18  C   UNL A   1      35.166  24.440  25.130  1.00  0.00     0.016 A 
ATOM     19  C   UNL A   1      36.681  22.373  24.026  1.00  0.00     0.026 A 
ATOM     20  C   UNL A   1      36.186  23.837  25.872  1.00  0.00     0.026 A 
ATOM     21  C   UNL A   1      36.938  22.789  25.334  1.00  0.00     0.031 A 
BRANCH  21  22
ATOM     22  N   UNL A   1      37.873  22.126  26.105  1.00  0.00    -0.399 N 
ATOM     23  H   UNL A   1      37.642  21.267  26.529  1.00  0.00     0.156 HD
ATOM     24  H   UNL A   1      38.769  22.512  26.232  1.00  0.00     0.156 HD
ENDBRANCH  21  22
ENDBRANCH  13  16
ENDBRANCH  11  12
ENDBRANCH   4   6
ENDBRANCH   3   4
ENDBRANCH   2   3
ENDBRANCH   1   2
BRANCH   1  25
ATOM     25  O   UNL A   1      32.560  29.153  27.301  1.00  0.00    -0.374 OA
BRANCH  25  26
ATOM     26  C   UNL A   1      32.257  30.448  26.802  1.00  0.00     0.202 C 
BRANCH  26  27
ATOM     27  C   UNL A   1      33.123  31.620  27.237  1.00  0.00     0.261 C 
BRANCH  27  28
ATOM     28  O   UNL A   1      34.033  31.272  28.270  1.00  0.00    -0.460 OA
BRANCH  28  29
ATOM     29  C   UNL A   1      35.193  31.971  28.225  1.00  0.00     0.338 C 
ATOM     30  O   UNL A   1      35.404  33.007  27.625  1.00  0.00    -0.246 OA
BRANCH  29  31
ATOM     31  C   UNL A   1      36.243  31.170  28.866  1.00  0.00     0.060 A 
ATOM     32  C   UNL A   1      37.406  31.851  29.227  1.00  0.00     0.016 A 
ATOM     33  C   UNL A   1      36.179  29.768  28.846  1.00  0.00     0.016 A 
ATOM     34  C   UNL A   1      38.566  31.123  29.372  1.00  0.00     0.010 A 
ATOM     35  C   UNL A   1      37.340  29.043  28.989  1.00  0.00     0.010 A 
ATOM     36  C   UNL A   1      38.532  29.735  29.167  1.00  0.00    -0.014 A 
BRANCH  36  37
ATOM     37  C   UNL A   1      39.775  29.008  29.289  1.00  0.00     0.031 A 
ATOM     38  C   UNL A   1      40.132  28.753  30.699  1.00  0.00     0.074 A 
ATOM     39  C   UNL A   1      40.508  28.573  28.248  1.00  0.00     0.049 A 
ATOM     40  N   UNL A   1      41.048  29.357  31.376  1.00  0.00    -0.248 NA
ATOM     41  C   UNL A   1      39.251  27.891  31.500  1.00  0.00     0.031 C 
ATOM     42  C   UNL A   1      40.166  28.544  26.825  1.00  0.00     0.029 A 
ATOM     43  N   UNL A   1      41.729  27.975  28.277  1.00  0.00    -0.354 N 
ATOM     44  C   UNL A   1      40.996  28.810  32.647  1.00  0.00     0.074 A 
ATOM     45  C   UNL A   1      39.773  28.050  32.717  1.00  0.00     0.031 C 
ATOM     46  C   UNL A   1      41.049  27.750  26.169  1.00  0.00     0.029 A 
ATOM     47  C   UNL A   1      42.095  27.347  27.095  1.00  0.00     0.049 A 
ATOM     48  H   UNL A   1      42.307  27.987  29.074  1.00  0.00     0.167 HD
ATOM     49  C   UNL A   1      42.093  28.815  33.449  1.00  0.00     0.031 A 
ATOM     50  C   UNL A   1      43.163  26.526  26.920  1.00  0.00     0.031 A 
ATOM     51  C   UNL A   1      43.094  29.736  32.976  1.00  0.00     0.049 A 
ATOM     52  C   UNL A   1      44.129  26.821  28.004  1.00  0.00     0.074 A 
ATOM     53  C   UNL A   1      43.152  31.103  32.790  1.00  0.00     0.029 A 
ATOM     54  N   UNL A   1      44.113  29.204  32.221  1.00  0.00    -0.354 N 
ATOM     55  N   UNL A   1      44.782  27.943  28.089  1.00  0.00    -0.248 NA
ATOM     56  C   UNL A   1      44.023  26.065  29.243  1.00  0.00     0.031 C 
ATOM     57  C   UNL A   1      43.899  31.280  31.588  1.00  0.00     0.029 A 
ATOM     58  C   UNL A   1      44.320  30.025  31.144  1.00  0.00     0.049 A 
ATOM     59  H   UNL A   1      44.607  28.376  32.420  1.00  0.00     0.167 HD
ATOM     60  C   UNL A   1      44.759  28.260  29.438  1.00  0.00     0.074 A 
ATOM     61  C   UNL A   1      44.371  27.020  30.111  1.00  0.00     0.031 C 
ATOM     62  C   UNL A   1      44.773  29.561  29.851  1.00  0.00     0.031 A 
BRANCH  49  63
ATOM     63  C   UNL A   1      42.433  27.671  34.365  1.00  0.00    -0.014 A 
ATOM     64  C   UNL A   1      43.056  26.537  33.821  1.00  0.00     0.009 A 
ATOM     65  C   UNL A   1      41.899  27.544  35.663  1.00  0.00     0.009 A 
ATOM     66  C   UNL A   1      43.077  25.320  34.512  1.00  0.00     0.001 A 
ATOM     67  C   UNL A   1      41.953  26.345  36.371  1.00  0.00     0.001 A 
ATOM     68  C   UNL A   1      42.519  25.223  35.783  1.00  0.00     0.000 A 
ENDBRANCH  49  63
BRANCH  50  69
ATOM     69  C   UNL A   1      43.287  25.310  26.087  1.00  0.00    -0.014 A 
ATOM     70  C   UNL A   1      44.455  25.063  25.343  1.00  0.00     0.009 A 
ATOM     71  C   UNL A   1      42.389  24.243  26.265  1.00  0.00     0.009 A 
ATOM     72  C   UNL A   1      44.734  23.784  24.839  1.00  0.00     0.001 A 
ATOM     73  C   UNL A   1      42.669  22.966  25.761  1.00  0.00     0.001 A 
ATOM     74  C   UNL A   1      43.849  22.733  25.063  1.00  0.00     0.000 A 
ENDBRANCH  50  69
BRANCH  62  75
ATOM     75  C   UNL A   1      45.067  30.622  28.817  1.00  0.00    -0.014 A 
ATOM     76  C   UNL A   1      44.089  31.185  27.976  1.00  0.00     0.009 A 
ATOM     77  C   UNL A   1      46.361  31.164  28.783  1.00  0.00     0.009 A 
ATOM     78  C   UNL A   1      44.409  32.236  27.107  1.00  0.00     0.001 A 
ATOM     79  C   UNL A   1      46.674  32.226  27.932  1.00  0.00     0.001 A 
ATOM     80  C   UNL A   1      45.700  32.757  27.090  1.00  0.00     0.000 A 
ENDBRANCH  62  75
ENDBRANCH  36  37
ENDBRANCH  29  31
ENDBRANCH  28  29
ENDBRANCH  27  28
ENDBRANCH  26  27
ENDBRANCH  25  26
ENDBRANCH   1  25
TORSDOF 17
ENDMDL
MODEL 2
REMARK VINA RESULT:     -10.6      2.748      7.460
REMARK SMILES Cc1nsc(NC(=O)c2ccc(N)cc2)c1C(=O)OCCOCCOC(=O)c1ccc(-c2c3nc(c(-c4ccccc4)c4ccc([nH]4)c(-c4ccccc4)c4nc(c(-c5ccccc5)c5ccc2[nH]5)C=C4)C=C3)cc1
REMARK SMILES IDX 21 1 20 2 19 3 17 4 18 5 16 6 1 7 2 8 3 9 4 10 5 11 6 12
REMARK SMILES IDX 7 13 8 15 9 16 10 17 15 18 11 19 14 20 12 21 13 22 22 25
REMARK SMILES IDX 23 26 24 27 25 28 26 29 27 30 28 31 29 32 75 33 30 34 74 35
REMARK SMILES IDX 31 36 32 37 33 38 68 39 34 40 73 41 67 42 69 43 35 44 72 45
REMARK SMILES IDX 66 46 65 47 36 49 58 50 43 51 57 52 44 53 47 54 56 55 70 56
REMARK SMILES IDX 45 57 46 58 55 60 71 61 48 62 37 63 38 64 42 65 39 66 41 67
REMARK SMILES IDX 40 68 59 69 60 70 64 71 61 72 63 73 62 74 49 75 50 76 54 77
REMARK SMILES IDX 51 78 53 79 52 80
REMARK H PARENT 6 14 13 23 13 24 69 48 47 59
REMARK Flexibility Score: inf
ROOT
ATOM      1  C   UNL A   1      35.277  21.355  25.143  1.00  0.00     0.202 C 
ENDROOT
BRANCH   1   2
ATOM      2  C   UNL A   1      34.321  21.270  26.339  1.00  0.00     0.261 C 
BRANCH   2   3
ATOM      3  O   UNL A   1      33.091  21.973  26.087  1.00  0.00    -0.460 OA
BRANCH   3   4
ATOM      4  C   UNL A   1      32.495  22.530  27.182  1.00  0.00     0.343 C 
ATOM      5  O   UNL A   1      32.741  22.226  28.337  1.00  0.00    -0.246 OA
BRANCH   4   6
ATOM      6  C   UNL A   1      31.714  23.708  26.832  1.00  0.00     0.117 A 
ATOM      7  C   UNL A   1      29.275  22.829  27.222  1.00  0.00     0.069 C 
ATOM      8  C   UNL A   1      30.280  23.847  26.799  1.00  0.00     0.068 A 
ATOM      9  N   UNL A   1      29.819  25.010  26.336  1.00  0.00    -0.195 NA
ATOM     10  S   UNL A   1      31.093  25.945  25.868  1.00  0.00    -0.017 S 
ATOM     11  C   UNL A   1      32.315  24.872  26.366  1.00  0.00     0.131 A 
BRANCH  11  12
ATOM     12  N   UNL A   1      33.667  25.093  26.148  1.00  0.00    -0.312 N 
ATOM     13  C   UNL A   1      34.434  24.977  25.011  1.00  0.00     0.256 C 
ATOM     14  H   UNL A   1      34.165  25.383  26.946  1.00  0.00     0.171 HD
ATOM     15  O   UNL A   1      35.646  24.785  25.112  1.00  0.00    -0.269 OA
BRANCH  13  16
ATOM     16  C   UNL A   1      33.861  25.169  23.663  1.00  0.00     0.040 A 
ATOM     17  C   UNL A   1      33.709  26.451  23.128  1.00  0.00     0.016 A 
ATOM     18  C   UNL A   1      33.507  24.049  22.909  1.00  0.00     0.016 A 
ATOM     19  C   UNL A   1      33.087  26.613  21.890  1.00  0.00     0.026 A 
ATOM     20  C   UNL A   1      32.907  24.223  21.658  1.00  0.00     0.026 A 
ATOM     21  C   UNL A   1      32.676  25.504  21.148  1.00  0.00     0.031 A 
BRANCH  21  22
ATOM     22  N   UNL A   1      31.990  25.675  19.961  1.00  0.00    -0.399 N 
ATOM     23  H   UNL A   1      31.318  26.390  19.879  1.00  0.00     0.156 HD
ATOM     24  H   UNL A   1      32.173  25.081  19.197  1.00  0.00     0.156 HD
ENDBRANCH  21  22
ENDBRANCH  13  16
ENDBRANCH  11  12
ENDBRANCH   4   6
ENDBRANCH   3   4
ENDBRANCH   2   3
ENDBRANCH   1   2
BRANCH   1  25
ATOM     25  O   UNL A   1      36.581  20.796  25.301  1.00  0.00    -0.374 OA
BRANCH  25  26
ATOM     26  C   UNL A   1      37.705  21.653  25.446  1.00  0.00     0.202 C 
BRANCH  26  27
ATOM     27  C   UNL A   1      39.075  21.030  25.665  1.00  0.00     0.261 C 
BRANCH  27  28
ATOM     28  O   UNL A   1      39.726  21.537  26.821  1.00  0.00    -0.460 OA
BRANCH  28  29
ATOM     29  C   UNL A   1      40.725  22.408  26.539  1.00  0.00     0.338 C 
ATOM     30  O   UNL A   1      41.651  22.241  25.770  1.00  0.00    -0.246 OA
BRANCH  29  31
ATOM     31  C   UNL A   1      40.629  23.541  27.467  1.00  0.00     0.060 A 
ATOM     32  C   UNL A   1      39.534  24.389  27.298  1.00  0.00     0.016 A 
ATOM     33  C   UNL A   1      41.724  23.893  28.272  1.00  0.00     0.016 A 
ATOM     34  C   UNL A   1      39.630  25.676  27.776  1.00  0.00     0.010 A 
ATOM     35  C   UNL A   1      41.819  25.182  28.747  1.00  0.00     0.010 A 
ATOM     36  C   UNL A   1      40.809  26.080  28.422  1.00  0.00    -0.014 A 
BRANCH  36  37
ATOM     37  C   UNL A   1      40.891  27.450  28.875  1.00  0.00     0.031 A 
ATOM     38  C   UNL A   1      42.016  28.174  28.249  1.00  0.00     0.074 A 
ATOM     39  C   UNL A   1      40.026  28.022  29.733  1.00  0.00     0.049 A 
ATOM     40  N   UNL A   1      43.130  28.491  28.816  1.00  0.00    -0.248 NA
ATOM     41  C   UNL A   1      41.991  28.385  26.795  1.00  0.00     0.031 C 
ATOM     42  C   UNL A   1      38.752  27.509  30.239  1.00  0.00     0.029 A 
ATOM     43  N   UNL A   1      40.091  29.264  30.281  1.00  0.00    -0.354 N 
ATOM     44  C   UNL A   1      43.880  29.125  27.839  1.00  0.00     0.074 A 
ATOM     45  C   UNL A   1      43.212  28.879  26.586  1.00  0.00     0.031 C 
ATOM     46  C   UNL A   1      38.064  28.521  30.824  1.00  0.00     0.029 A 
ATOM     47  C   UNL A   1      38.911  29.702  30.866  1.00  0.00     0.049 A 
ATOM     48  H   UNL A   1      40.910  29.810  30.265  1.00  0.00     0.167 HD
ATOM     49  C   UNL A   1      44.845  30.020  28.179  1.00  0.00     0.031 A 
ATOM     50  C   UNL A   1      38.654  30.959  31.310  1.00  0.00     0.031 A 
ATOM     51  C   UNL A   1      45.202  29.915  29.570  1.00  0.00     0.049 A 
ATOM     52  C   UNL A   1      39.960  31.620  31.546  1.00  0.00     0.074 A 
ATOM     53  C   UNL A   1      45.753  28.930  30.365  1.00  0.00     0.029 A 
ATOM     54  N   UNL A   1      44.602  30.808  30.428  1.00  0.00    -0.354 N 
ATOM     55  N   UNL A   1      40.776  31.263  32.494  1.00  0.00    -0.248 NA
ATOM     56  C   UNL A   1      40.563  32.362  30.449  1.00  0.00     0.031 C 
ATOM     57  C   UNL A   1      45.068  29.036  31.612  1.00  0.00     0.029 A 
ATOM     58  C   UNL A   1      44.192  30.121  31.540  1.00  0.00     0.049 A 
ATOM     59  H   UNL A   1      44.487  31.773  30.269  1.00  0.00     0.167 HD
ATOM     60  C   UNL A   1      42.032  31.311  31.909  1.00  0.00     0.074 A 
ATOM     61  C   UNL A   1      41.850  32.092  30.686  1.00  0.00     0.031 C 
ATOM     62  C   UNL A   1      43.028  30.474  32.323  1.00  0.00     0.031 A 
BRANCH  49  63
ATOM     63  C   UNL A   1      45.114  31.264  27.378  1.00  0.00    -0.014 A 
ATOM     64  C   UNL A   1      46.438  31.550  27.007  1.00  0.00     0.009 A 
ATOM     65  C   UNL A   1      44.174  32.304  27.238  1.00  0.00     0.009 A 
ATOM     66  C   UNL A   1      46.811  32.832  26.588  1.00  0.00     0.001 A 
ATOM     67  C   UNL A   1      44.535  33.571  26.782  1.00  0.00     0.001 A 
ATOM     68  C   UNL A   1      45.862  33.843  26.483  1.00  0.00     0.000 A 
ENDBRANCH  49  63
BRANCH  50  69
ATOM     69  C   UNL A   1      37.396  31.736  31.258  1.00  0.00    -0.014 A 
ATOM     70  C   UNL A   1      36.789  32.043  30.026  1.00  0.00     0.009 A 
ATOM     71  C   UNL A   1      36.630  31.909  32.423  1.00  0.00     0.009 A 
ATOM     72  C   UNL A   1      35.451  32.460  29.964  1.00  0.00     0.001 A 
ATOM     73  C   UNL A   1      35.293  32.325  32.360  1.00  0.00     0.001 A 
ATOM     74  C   UNL A   1      34.700  32.585  31.129  1.00  0.00     0.000 A 
ENDBRANCH  50  69
BRANCH  62  75
ATOM     75  C   UNL A   1      42.799  29.681  33.589  1.00  0.00    -0.014 A 
ATOM     76  C   UNL A   1      43.158  30.137  34.871  1.00  0.00     0.009 A 
ATOM     77  C   UNL A   1      42.074  28.485  33.490  1.00  0.00     0.009 A 
ATOM     78  C   UNL A   1      42.827  29.398  36.013  1.00  0.00     0.001 A 
ATOM     79  C   UNL A   1      41.725  27.759  34.631  1.00  0.00     0.001 A 
ATOM     80  C   UNL A   1      42.107  28.212  35.891  1.00  0.00     0.000 A 
ENDBRANCH  62  75
ENDBRANCH  36  37
ENDBRANCH  29  31
ENDBRANCH  28  29
ENDBRANCH  27  28
ENDBRANCH  26  27
ENDBRANCH  25  26
ENDBRANCH   1  25
TORSDOF 17
ENDMDL
MODEL 3
REMARK VINA RESULT:     -10.5      2.691      7.592
REMARK SMILES Cc1nsc(NC(=O)c2ccc(N)cc2)c1C(=O)OCCOCCOC(=O)c1ccc(-c2c3nc(c(-c4ccccc4)c4ccc([nH]4)c(-c4ccccc4)c4nc(c(-c5ccccc5)c5ccc2[nH]5)C=C4)C=C3)cc1
REMARK SMILES IDX 21 1 20 2 19 3 17 4 18 5 16 6 1 7 2 8 3 9 4 10 5 11 6 12
REMARK SMILES IDX 7 13 8 15 9 16 10 17 15 18 11 19 14 20 12 21 13 22 22 25
REMARK SMILES IDX 23 26 24 27 25 28 26 29 27 30 28 31 29 32 75 33 30 34 74 35
REMARK SMILES IDX 31 36 32 37 33 38 68 39 34 40 73 41 67 42 69 43 35 44 72 45
REMARK SMILES IDX 66 46 65 47 36 49 58 50 43 51 57 52 44 53 47 54 56 55 70 56
REMARK SMILES IDX 45 57 46 58 55 60 71 61 48 62 37 63 38 64 42 65 39 66 41 67
REMARK SMILES IDX 40 68 59 69 60 70 64 71 61 72 63 73 62 74 49 75 50 76 54 77
REMARK SMILES IDX 51 78 53 79 52 80
REMARK H PARENT 6 14 13 23 13 24 69 48 47 59
REMARK Flexibility Score: inf
ROOT
ATOM      1  C   UNL A   1      35.100  23.183  25.587  1.00  0.00     0.202 C 
ENDROOT
BRANCH   1   2
ATOM      2  C   UNL A   1      33.789  22.994  24.814  1.00  0.00     0.261 C 
BRANCH   2   3
ATOM      3  O   UNL A   1      33.498  24.127  23.976  1.00  0.00    -0.460 OA
BRANCH   3   4
ATOM      4  C   UNL A   1      32.526  23.932  23.037  1.00  0.00     0.343 C 
ATOM      5  O   UNL A   1      32.192  22.845  22.597  1.00  0.00    -0.246 OA
BRANCH   4   6
ATOM      6  C   UNL A   1      31.753  25.144  22.800  1.00  0.00     0.117 A 
ATOM      7  C   UNL A   1      32.517  25.761  20.370  1.00  0.00     0.069 C 
ATOM      8  C   UNL A   1      31.770  25.996  21.638  1.00  0.00     0.068 A 
ATOM      9  N   UNL A   1      31.040  27.109  21.724  1.00  0.00    -0.195 NA
ATOM     10  S   UNL A   1      30.363  27.195  23.225  1.00  0.00    -0.017 S 
ATOM     11  C   UNL A   1      30.935  25.693  23.781  1.00  0.00     0.131 A 
BRANCH  11  12
ATOM     12  N   UNL A   1      30.742  25.228  25.074  1.00  0.00    -0.312 N 
ATOM     13  C   UNL A   1      31.413  25.495  26.245  1.00  0.00     0.256 C 
ATOM     14  H   UNL A   1      29.993  24.596  25.171  1.00  0.00     0.171 HD
ATOM     15  O   UNL A   1      31.384  24.677  27.163  1.00  0.00    -0.269 OA
BRANCH  13  16
ATOM     16  C   UNL A   1      32.098  26.784  26.472  1.00  0.00     0.040 A 
ATOM     17  C   UNL A   1      31.438  27.842  27.102  1.00  0.00     0.016 A 
ATOM     18  C   UNL A   1      33.432  26.924  26.082  1.00  0.00     0.016 A 
ATOM     19  C   UNL A   1      32.076  29.077  27.228  1.00  0.00     0.026 A 
ATOM     20  C   UNL A   1      34.069  28.159  26.237  1.00  0.00     0.026 A 
ATOM     21  C   UNL A   1      33.392  29.248  26.793  1.00  0.00     0.031 A 
BRANCH  21  22
ATOM     22  N   UNL A   1      33.988  30.493  26.848  1.00  0.00    -0.399 N 
ATOM     23  H   UNL A   1      34.790  30.630  27.404  1.00  0.00     0.156 HD
ATOM     24  H   UNL A   1      33.612  31.242  26.333  1.00  0.00     0.156 HD
ENDBRANCH  21  22
ENDBRANCH  13  16
ENDBRANCH  11  12
ENDBRANCH   4   6
ENDBRANCH   3   4
ENDBRANCH   2   3
ENDBRANCH   1   2
BRANCH   1  25
ATOM     25  O   UNL A   1      36.312  22.823  24.925  1.00  0.00    -0.374 OA
BRANCH  25  26
ATOM     26  C   UNL A   1      36.771  21.479  24.969  1.00  0.00     0.202 C 
BRANCH  26  27
ATOM     27  C   UNL A   1      38.189  21.205  25.444  1.00  0.00     0.261 C 
BRANCH  27  28
ATOM     28  O   UNL A   1      38.955  22.393  25.586  1.00  0.00    -0.460 OA
BRANCH  28  29
ATOM     29  C   UNL A   1      40.030  22.247  26.399  1.00  0.00     0.338 C 
ATOM     30  O   UNL A   1      40.771  21.285  26.473  1.00  0.00    -0.246 OA
BRANCH  29  31
ATOM     31  C   UNL A   1      40.057  23.372  27.341  1.00  0.00     0.060 A 
ATOM     32  C   UNL A   1      38.985  24.263  27.271  1.00  0.00     0.016 A 
ATOM     33  C   UNL A   1      41.228  23.673  28.054  1.00  0.00     0.016 A 
ATOM     34  C   UNL A   1      39.172  25.541  27.749  1.00  0.00     0.010 A 
ATOM     35  C   UNL A   1      41.413  24.952  28.529  1.00  0.00     0.010 A 
ATOM     36  C   UNL A   1      40.415  25.892  28.296  1.00  0.00    -0.014 A 
BRANCH  36  37
ATOM     37  C   UNL A   1      40.588  27.253  28.752  1.00  0.00     0.031 A 
ATOM     38  C   UNL A   1      41.712  27.926  28.070  1.00  0.00     0.074 A 
ATOM     39  C   UNL A   1      39.800  27.858  29.658  1.00  0.00     0.049 A 
ATOM     40  N   UNL A   1      42.869  28.184  28.577  1.00  0.00    -0.248 NA
ATOM     41  C   UNL A   1      41.618  28.149  26.620  1.00  0.00     0.031 C 
ATOM     42  C   UNL A   1      38.532  27.404  30.230  1.00  0.00     0.029 A 
ATOM     43  N   UNL A   1      39.955  29.092  30.209  1.00  0.00    -0.354 N 
ATOM     44  C   UNL A   1      43.595  28.789  27.564  1.00  0.00     0.074 A 
ATOM     45  C   UNL A   1      42.849  28.585  26.347  1.00  0.00     0.031 C 
ATOM     46  C   UNL A   1      37.927  28.443  30.857  1.00  0.00     0.029 A 
ATOM     47  C   UNL A   1      38.831  29.582  30.859  1.00  0.00     0.049 A 
ATOM     48  H   UNL A   1      40.798  29.597  30.151  1.00  0.00     0.167 HD
ATOM     49  C   UNL A   1      44.619  29.632  27.855  1.00  0.00     0.031 A 
ATOM     50  C   UNL A   1      38.660  30.846  31.323  1.00  0.00     0.031 A 
ATOM     51  C   UNL A   1      45.046  29.500  29.225  1.00  0.00     0.049 A 
ATOM     52  C   UNL A   1      40.008  31.441  31.491  1.00  0.00     0.074 A 
ATOM     53  C   UNL A   1      45.590  28.483  29.983  1.00  0.00     0.029 A 
ATOM     54  N   UNL A   1      44.538  30.413  30.118  1.00  0.00    -0.354 N 
ATOM     55  N   UNL A   1      40.855  31.037  32.392  1.00  0.00    -0.248 NA
ATOM     56  C   UNL A   1      40.586  32.161  30.368  1.00  0.00     0.031 C 
ATOM     57  C   UNL A   1      44.980  28.612  31.266  1.00  0.00     0.029 A 
ATOM     58  C   UNL A   1      44.155  29.739  31.247  1.00  0.00     0.049 A 
ATOM     59  H   UNL A   1      44.461  31.384  29.971  1.00  0.00     0.167 HD
ATOM     60  C   UNL A   1      42.079  31.029  31.740  1.00  0.00     0.074 A 
ATOM     61  C   UNL A   1      41.870  31.828  30.532  1.00  0.00     0.031 C 
ATOM     62  C   UNL A   1      43.054  30.142  32.095  1.00  0.00     0.031 A 
BRANCH  49  63
ATOM     63  C   UNL A   1      44.906  30.869  27.048  1.00  0.00    -0.014 A 
ATOM     64  C   UNL A   1      46.240  31.279  26.899  1.00  0.00     0.009 A 
ATOM     65  C   UNL A   1      43.909  31.798  26.689  1.00  0.00     0.009 A 
ATOM     66  C   UNL A   1      46.557  32.577  26.483  1.00  0.00     0.001 A 
ATOM     67  C   UNL A   1      44.221  33.079  26.236  1.00  0.00     0.001 A 
ATOM     68  C   UNL A   1      45.547  33.478  26.159  1.00  0.00     0.000 A 
ENDBRANCH  49  63
BRANCH  50  69
ATOM     69  C   UNL A   1      37.441  31.684  31.344  1.00  0.00    -0.014 A 
ATOM     70  C   UNL A   1      36.684  31.882  30.175  1.00  0.00     0.009 A 
ATOM     71  C   UNL A   1      36.850  32.032  32.571  1.00  0.00     0.009 A 
ATOM     72  C   UNL A   1      35.369  32.367  30.240  1.00  0.00     0.001 A 
ATOM     73  C   UNL A   1      35.536  32.515  32.634  1.00  0.00     0.001 A 
ATOM     74  C   UNL A   1      34.791  32.667  31.470  1.00  0.00     0.000 A 
ENDBRANCH  50  69
BRANCH  62  75
ATOM     75  C   UNL A   1      42.855  29.351  33.367  1.00  0.00    -0.014 A 
ATOM     76  C   UNL A   1      43.304  29.779  34.630  1.00  0.00     0.009 A 
ATOM     77  C   UNL A   1      42.068  28.191  33.301  1.00  0.00     0.009 A 
ATOM     78  C   UNL A   1      43.000  29.047  35.785  1.00  0.00     0.001 A 
ATOM     79  C   UNL A   1      41.747  27.474  34.455  1.00  0.00     0.001 A 
ATOM     80  C   UNL A   1      42.218  27.898  35.695  1.00  0.00     0.000 A 
ENDBRANCH  62  75
ENDBRANCH  36  37
ENDBRANCH  29  31
ENDBRANCH  28  29
ENDBRANCH  27  28
ENDBRANCH  26  27
ENDBRANCH  25  26
ENDBRANCH   1  25
TORSDOF 17
ENDMDL
