MODEL 1
REMARK VINA RESULT:     -10.6      0.000      0.000
REMARK SMILES O=C(Cc1ccccc1C(=O)OCCOCCOC(=O)c1ccc(-c2c3nc(c(-c4ccccc4)c4ccc([nH]4)c(-c4ccccc4)c4nc(c(-c5ccccc5)c5ccc2[nH]5)C=C4)C=C3)cc1)Nc1cccc(OC[C@@H]2CCCO2)c1
REMARK SMILES IDX 13 1 12 2 10 3 11 4 9 5 4 6 5 7 6 8 8 9 7 10 3 11 2 12 1 13
REMARK SMILES IDX 69 14 70 16 71 17 82 18 72 19 74 20 73 21 75 22 76 23 77 24
REMARK SMILES IDX 78 25 81 26 79 27 80 28 14 29 15 30 16 31 17 32 18 33 19 34
REMARK SMILES IDX 20 35 21 36 22 37 68 38 23 39 67 40 24 41 25 42 26 43 61 44
REMARK SMILES IDX 27 45 66 46 60 47 62 48 28 49 65 50 59 51 58 52 29 54 51 55
REMARK SMILES IDX 36 56 50 57 37 58 40 59 49 60 63 61 38 62 39 63 48 65 64 66
REMARK SMILES IDX 41 67 30 68 31 69 35 70 32 71 34 72 33 73 52 74 53 75 57 76
REMARK SMILES IDX 54 77 56 78 55 79 42 80 43 81 47 82 44 83 46 84 45 85
REMARK H PARENT 69 15 62 53 40 64
REMARK Flexibility Score: inf
ROOT
ATOM      1  C   UNL A   1      33.107  29.359  25.592  1.00  0.00     0.261 C 
ENDROOT
BRANCH   1   2
ATOM      2  O   UNL A   1      31.696  29.392  25.239  1.00  0.00    -0.460 OA
BRANCH   2   3
ATOM      3  C   UNL A   1      31.425  29.200  23.912  1.00  0.00     0.338 C 
ATOM      4  O   UNL A   1      32.252  28.910  23.063  1.00  0.00    -0.246 OA
BRANCH   3   5
ATOM      5  C   UNL A   1      29.975  29.333  23.577  1.00  0.00     0.063 A 
ATOM      6  C   UNL A   1      29.061  28.291  23.291  1.00  0.00    -0.024 A 
ATOM      7  C   UNL A   1      27.705  28.634  23.084  1.00  0.00     0.005 A 
ATOM      8  C   UNL A   1      27.263  29.954  23.164  1.00  0.00     0.000 A 
ATOM      9  C   UNL A   1      29.506  30.659  23.657  1.00  0.00     0.016 A 
ATOM     10  C   UNL A   1      28.163  30.969  23.450  1.00  0.00     0.001 A 
BRANCH   6  11
ATOM     11  C   UNL A   1      29.401  26.820  23.194  1.00  0.00     0.136 C 
BRANCH  11  12
ATOM     12  C   UNL A   1      30.246  26.283  24.335  1.00  0.00     0.228 C 
ATOM     13  O   UNL A   1      29.846  26.234  25.491  1.00  0.00    -0.274 OA
ATOM     14  N   UNL A   1      31.476  25.877  23.885  1.00  0.00    -0.326 N 
ATOM     15  H   UNL A   1      31.727  26.194  22.986  1.00  0.00     0.169 HD
BRANCH  14  16
ATOM     16  C   UNL A   1      32.415  25.081  24.525  1.00  0.00     0.044 A 
ATOM     17  C   UNL A   1      33.498  25.671  25.167  1.00  0.00     0.026 A 
ATOM     18  C   UNL A   1      32.438  23.731  24.205  1.00  0.00     0.072 A 
ATOM     19  C   UNL A   1      34.577  24.879  25.557  1.00  0.00     0.006 A 
ATOM     20  C   UNL A   1      33.507  22.926  24.594  1.00  0.00     0.121 A 
ATOM     21  C   UNL A   1      34.580  23.510  25.270  1.00  0.00     0.046 A 
BRANCH  20  22
ATOM     22  O   UNL A   1      33.596  21.577  24.365  1.00  0.00    -0.491 OA
BRANCH  22  23
ATOM     23  C   UNL A   1      32.622  20.756  25.017  1.00  0.00     0.261 C 
BRANCH  23  24
ATOM     24  C   UNL A   1      33.046  19.280  25.219  1.00  0.00     0.156 C 
ATOM     25  C   UNL A   1      34.424  18.977  24.633  1.00  0.00     0.038 C 
ATOM     26  O   UNL A   1      32.148  18.333  24.614  1.00  0.00    -0.375 OA
ATOM     27  C   UNL A   1      34.315  17.537  24.205  1.00  0.00     0.031 C 
ATOM     28  C   UNL A   1      32.883  17.465  23.747  1.00  0.00     0.161 C 
ENDBRANCH  23  24
ENDBRANCH  22  23
ENDBRANCH  20  22
ENDBRANCH  14  16
ENDBRANCH  11  12
ENDBRANCH   6  11
ENDBRANCH   3   5
ENDBRANCH   2   3
ENDBRANCH   1   2
BRANCH   1  29
ATOM     29  C   UNL A   1      33.383  29.381  27.094  1.00  0.00     0.202 C 
BRANCH  29  30
ATOM     30  O   UNL A   1      34.614  29.950  27.513  1.00  0.00    -0.374 OA
BRANCH  30  31
ATOM     31  C   UNL A   1      34.707  31.369  27.549  1.00  0.00     0.202 C 
BRANCH  31  32
ATOM     32  C   UNL A   1      33.437  32.156  27.902  1.00  0.00     0.261 C 
BRANCH  32  33
ATOM     33  O   UNL A   1      33.573  33.593  27.877  1.00  0.00    -0.460 OA
BRANCH  33  34
ATOM     34  C   UNL A   1      33.610  34.168  29.107  1.00  0.00     0.338 C 
ATOM     35  O   UNL A   1      32.740  34.843  29.631  1.00  0.00    -0.246 OA
BRANCH  34  36
ATOM     36  C   UNL A   1      34.851  33.841  29.836  1.00  0.00     0.060 A 
ATOM     37  C   UNL A   1      36.076  34.178  29.246  1.00  0.00     0.016 A 
ATOM     38  C   UNL A   1      34.811  32.995  30.946  1.00  0.00     0.016 A 
ATOM     39  C   UNL A   1      37.262  33.615  29.728  1.00  0.00     0.010 A 
ATOM     40  C   UNL A   1      36.003  32.433  31.426  1.00  0.00     0.010 A 
ATOM     41  C   UNL A   1      37.230  32.701  30.791  1.00  0.00    -0.014 A 
BRANCH  41  42
ATOM     42  C   UNL A   1      38.445  31.923  31.153  1.00  0.00     0.031 A 
ATOM     43  C   UNL A   1      39.367  32.424  32.230  1.00  0.00     0.074 A 
ATOM     44  C   UNL A   1      38.731  30.750  30.560  1.00  0.00     0.049 A 
ATOM     45  N   UNL A   1      40.497  31.913  32.650  1.00  0.00    -0.248 NA
ATOM     46  C   UNL A   1      38.954  33.646  32.935  1.00  0.00     0.031 C 
ATOM     47  C   UNL A   1      37.890  30.085  29.573  1.00  0.00     0.029 A 
ATOM     48  N   UNL A   1      39.814  29.914  30.704  1.00  0.00    -0.354 N 
ATOM     49  C   UNL A   1      40.925  32.739  33.680  1.00  0.00     0.074 A 
ATOM     50  C   UNL A   1      39.954  33.809  33.791  1.00  0.00     0.031 C 
ATOM     51  C   UNL A   1      38.498  28.950  29.190  1.00  0.00     0.029 A 
ATOM     52  C   UNL A   1      39.794  28.846  29.844  1.00  0.00     0.049 A 
ATOM     53  H   UNL A   1      40.532  30.068  31.359  1.00  0.00     0.167 HD
ATOM     54  C   UNL A   1      42.014  32.612  34.476  1.00  0.00     0.031 A 
ATOM     55  C   UNL A   1      40.714  27.902  29.571  1.00  0.00     0.031 A 
ATOM     56  C   UNL A   1      42.994  31.563  34.370  1.00  0.00     0.049 A 
ATOM     57  C   UNL A   1      41.993  27.870  30.347  1.00  0.00     0.074 A 
ATOM     58  C   UNL A   1      44.115  31.351  35.156  1.00  0.00     0.029 A 
ATOM     59  N   UNL A   1      42.981  30.557  33.418  1.00  0.00    -0.354 N 
ATOM     60  N   UNL A   1      42.379  28.655  31.320  1.00  0.00    -0.248 NA
ATOM     61  C   UNL A   1      42.951  26.809  30.006  1.00  0.00     0.031 C 
ATOM     62  C   UNL A   1      44.806  30.245  34.647  1.00  0.00     0.029 A 
ATOM     63  C   UNL A   1      44.090  29.743  33.575  1.00  0.00     0.049 A 
ATOM     64  H   UNL A   1      42.285  30.439  32.732  1.00  0.00     0.167 HD
ATOM     65  C   UNL A   1      43.603  28.158  31.740  1.00  0.00     0.074 A 
ATOM     66  C   UNL A   1      43.901  27.010  30.909  1.00  0.00     0.031 C 
ATOM     67  C   UNL A   1      44.394  28.608  32.743  1.00  0.00     0.031 A 
BRANCH  54  68
ATOM     68  C   UNL A   1      42.210  33.661  35.529  1.00  0.00    -0.014 A 
ATOM     69  C   UNL A   1      42.908  34.846  35.249  1.00  0.00     0.009 A 
ATOM     70  C   UNL A   1      41.669  33.473  36.810  1.00  0.00     0.009 A 
ATOM     71  C   UNL A   1      43.088  35.810  36.243  1.00  0.00     0.001 A 
ATOM     72  C   UNL A   1      41.832  34.448  37.795  1.00  0.00     0.001 A 
ATOM     73  C   UNL A   1      42.547  35.611  37.513  1.00  0.00     0.000 A 
ENDBRANCH  54  68
BRANCH  55  74
ATOM     74  C   UNL A   1      40.475  26.931  28.472  1.00  0.00    -0.014 A 
ATOM     75  C   UNL A   1      39.770  25.742  28.696  1.00  0.00     0.009 A 
ATOM     76  C   UNL A   1      40.967  27.200  27.184  1.00  0.00     0.009 A 
ATOM     77  C   UNL A   1      39.571  24.833  27.654  1.00  0.00     0.001 A 
ATOM     78  C   UNL A   1      40.749  26.299  26.138  1.00  0.00     0.001 A 
ATOM     79  C   UNL A   1      40.055  25.115  26.376  1.00  0.00     0.000 A 
ENDBRANCH  55  74
BRANCH  67  80
ATOM     80  C   UNL A   1      45.643  27.825  33.027  1.00  0.00    -0.014 A 
ATOM     81  C   UNL A   1      46.866  28.160  32.428  1.00  0.00     0.009 A 
ATOM     82  C   UNL A   1      45.592  26.739  33.915  1.00  0.00     0.009 A 
ATOM     83  C   UNL A   1      48.010  27.402  32.692  1.00  0.00     0.001 A 
ATOM     84  C   UNL A   1      46.740  25.998  34.194  1.00  0.00     0.001 A 
ATOM     85  C   UNL A   1      47.946  26.325  33.576  1.00  0.00     0.000 A 
ENDBRANCH  67  80
ENDBRANCH  41  42
ENDBRANCH  34  36
ENDBRANCH  33  34
ENDBRANCH  32  33
ENDBRANCH  31  32
ENDBRANCH  30  31
ENDBRANCH  29  30
ENDBRANCH   1  29
TORSDOF 20
ENDMDL
MODEL 2
REMARK VINA RESULT:     -10.5      0.452      5.622
REMARK SMILES O=C(Cc1ccccc1C(=O)OCCOCCOC(=O)c1ccc(-c2c3nc(c(-c4ccccc4)c4ccc([nH]4)c(-c4ccccc4)c4nc(c(-c5ccccc5)c5ccc2[nH]5)C=C4)C=C3)cc1)Nc1cccc(OC[C@@H]2CCCO2)c1
REMARK SMILES IDX 13 1 12 2 10 3 11 4 9 5 4 6 5 7 6 8 8 9 7 10 3 11 2 12 1 13
REMARK SMILES IDX 69 14 70 16 71 17 82 18 72 19 74 20 73 21 75 22 76 23 77 24
REMARK SMILES IDX 78 25 81 26 79 27 80 28 14 29 15 30 16 31 17 32 18 33 19 34
REMARK SMILES IDX 20 35 21 36 22 37 68 38 23 39 67 40 24 41 25 42 26 43 61 44
REMARK SMILES IDX 27 45 66 46 60 47 62 48 28 49 65 50 59 51 58 52 29 54 51 55
REMARK SMILES IDX 36 56 50 57 37 58 40 59 49 60 63 61 38 62 39 63 48 65 64 66
REMARK SMILES IDX 41 67 30 68 31 69 35 70 32 71 34 72 33 73 52 74 53 75 57 76
REMARK SMILES IDX 54 77 56 78 55 79 42 80 43 81 47 82 44 83 46 84 45 85
REMARK H PARENT 69 15 62 53 40 64
REMARK Flexibility Score: inf
ROOT
ATOM      1  C   UNL A   1      33.097  29.239  25.637  1.00  0.00     0.261 C 
ENDROOT
BRANCH   1   2
ATOM      2  O   UNL A   1      31.690  29.225  25.269  1.00  0.00    -0.460 OA
BRANCH   2   3
ATOM      3  C   UNL A   1      31.440  29.115  23.929  1.00  0.00     0.338 C 
ATOM      4  O   UNL A   1      32.281  28.875  23.078  1.00  0.00    -0.246 OA
BRANCH   3   5
ATOM      5  C   UNL A   1      29.997  29.270  23.579  1.00  0.00     0.063 A 
ATOM      6  C   UNL A   1      29.062  28.241  23.315  1.00  0.00    -0.024 A 
ATOM      7  C   UNL A   1      27.715  28.609  23.088  1.00  0.00     0.005 A 
ATOM      8  C   UNL A   1      27.302  29.940  23.126  1.00  0.00     0.000 A 
ATOM      9  C   UNL A   1      29.557  30.608  23.617  1.00  0.00     0.016 A 
ATOM     10  C   UNL A   1      28.224  30.943  23.390  1.00  0.00     0.001 A 
BRANCH   6  11
ATOM     11  C   UNL A   1      29.369  26.762  23.263  1.00  0.00     0.136 C 
BRANCH  11  12
ATOM     12  C   UNL A   1      30.272  26.257  24.374  1.00  0.00     0.228 C 
ATOM     13  O   UNL A   1      29.940  26.262  25.552  1.00  0.00    -0.274 OA
ATOM     14  N   UNL A   1      31.466  25.811  23.870  1.00  0.00    -0.326 N 
ATOM     15  H   UNL A   1      31.668  26.085  22.946  1.00  0.00     0.169 HD
BRANCH  14  16
ATOM     16  C   UNL A   1      32.429  25.024  24.487  1.00  0.00     0.044 A 
ATOM     17  C   UNL A   1      33.529  25.625  25.089  1.00  0.00     0.026 A 
ATOM     18  C   UNL A   1      32.449  23.672  24.178  1.00  0.00     0.072 A 
ATOM     19  C   UNL A   1      34.623  24.842  25.452  1.00  0.00     0.006 A 
ATOM     20  C   UNL A   1      33.534  22.875  24.540  1.00  0.00     0.121 A 
ATOM     21  C   UNL A   1      34.624  23.470  25.177  1.00  0.00     0.046 A 
BRANCH  20  22
ATOM     22  O   UNL A   1      33.622  21.525  24.320  1.00  0.00    -0.491 OA
BRANCH  22  23
ATOM     23  C   UNL A   1      32.617  20.713  24.937  1.00  0.00     0.261 C 
BRANCH  23  24
ATOM     24  C   UNL A   1      33.020  19.233  25.153  1.00  0.00     0.156 C 
ATOM     25  C   UNL A   1      34.428  18.925  24.647  1.00  0.00     0.038 C 
ATOM     26  O   UNL A   1      32.153  18.296  24.491  1.00  0.00    -0.375 OA
ATOM     27  C   UNL A   1      34.335  17.488  24.204  1.00  0.00     0.031 C 
ATOM     28  C   UNL A   1      32.932  17.429  23.662  1.00  0.00     0.161 C 
ENDBRANCH  23  24
ENDBRANCH  22  23
ENDBRANCH  20  22
ENDBRANCH  14  16
ENDBRANCH  11  12
ENDBRANCH   6  11
ENDBRANCH   3   5
ENDBRANCH   2   3
ENDBRANCH   1   2
BRANCH   1  29
ATOM     29  C   UNL A   1      33.358  29.162  27.139  1.00  0.00     0.202 C 
BRANCH  29  30
ATOM     30  O   UNL A   1      34.590  29.694  27.606  1.00  0.00    -0.374 OA
BRANCH  30  31
ATOM     31  C   UNL A   1      34.745  31.107  27.594  1.00  0.00     0.202 C 
BRANCH  31  32
ATOM     32  C   UNL A   1      33.481  31.963  27.759  1.00  0.00     0.261 C 
BRANCH  32  33
ATOM     33  O   UNL A   1      33.688  33.390  27.693  1.00  0.00    -0.460 OA
BRANCH  33  34
ATOM     34  C   UNL A   1      33.639  34.014  28.899  1.00  0.00     0.338 C 
ATOM     35  O   UNL A   1      32.704  34.641  29.367  1.00  0.00    -0.246 OA
BRANCH  34  36
ATOM     36  C   UNL A   1      34.875  33.811  29.679  1.00  0.00     0.060 A 
ATOM     37  C   UNL A   1      36.095  34.178  29.097  1.00  0.00     0.016 A 
ATOM     38  C   UNL A   1      34.852  33.043  30.844  1.00  0.00     0.016 A 
ATOM     39  C   UNL A   1      37.298  33.721  29.646  1.00  0.00     0.010 A 
ATOM     40  C   UNL A   1      36.060  32.586  31.391  1.00  0.00     0.010 A 
ATOM     41  C   UNL A   1      37.288  32.882  30.769  1.00  0.00    -0.014 A 
BRANCH  41  42
ATOM     42  C   UNL A   1      38.534  32.203  31.214  1.00  0.00     0.031 A 
ATOM     43  C   UNL A   1      38.995  30.949  30.525  1.00  0.00     0.074 A 
ATOM     44  C   UNL A   1      39.290  32.703  32.208  1.00  0.00     0.049 A 
ATOM     45  N   UNL A   1      40.026  30.189  30.801  1.00  0.00    -0.248 NA
ATOM     46  C   UNL A   1      38.206  30.505  29.367  1.00  0.00     0.031 C 
ATOM     47  C   UNL A   1      39.034  33.956  32.906  1.00  0.00     0.029 A 
ATOM     48  N   UNL A   1      40.430  32.211  32.802  1.00  0.00    -0.354 N 
ATOM     49  C   UNL A   1      40.022  29.186  29.843  1.00  0.00     0.074 A 
ATOM     50  C   UNL A   1      38.860  29.410  29.005  1.00  0.00     0.031 C 
ATOM     51  C   UNL A   1      39.980  34.124  33.843  1.00  0.00     0.029 A 
ATOM     52  C   UNL A   1      40.861  32.966  33.862  1.00  0.00     0.049 A 
ATOM     53  H   UNL A   1      40.889  31.396  32.495  1.00  0.00     0.167 HD
ATOM     54  C   UNL A   1      40.910  28.180  29.661  1.00  0.00     0.031 A 
ATOM     55  C   UNL A   1      41.825  32.754  34.776  1.00  0.00     0.031 A 
ATOM     56  C   UNL A   1      42.061  27.936  30.491  1.00  0.00     0.049 A 
ATOM     57  C   UNL A   1      42.700  31.546  34.661  1.00  0.00     0.074 A 
ATOM     58  C   UNL A   1      43.025  26.949  30.357  1.00  0.00     0.029 A 
ATOM     59  N   UNL A   1      42.401  28.674  31.612  1.00  0.00    -0.354 N 
ATOM     60  N   UNL A   1      42.685  30.609  33.746  1.00  0.00    -0.248 NA
ATOM     61  C   UNL A   1      43.740  31.377  35.686  1.00  0.00     0.031 C 
ATOM     62  C   UNL A   1      43.920  27.062  31.428  1.00  0.00     0.029 A 
ATOM     63  C   UNL A   1      43.539  28.145  32.200  1.00  0.00     0.049 A 
ATOM     64  H   UNL A   1      41.906  29.458  31.943  1.00  0.00     0.167 HD
ATOM     65  C   UNL A   1      43.740  29.765  34.057  1.00  0.00     0.074 A 
ATOM     66  C   UNL A   1      44.367  30.293  35.251  1.00  0.00     0.031 C 
ATOM     67  C   UNL A   1      44.158  28.661  33.392  1.00  0.00     0.031 A 
BRANCH  54  68
ATOM     68  C   UNL A   1      40.653  27.246  28.515  1.00  0.00    -0.014 A 
ATOM     69  C   UNL A   1      41.188  27.498  27.242  1.00  0.00     0.009 A 
ATOM     70  C   UNL A   1      39.885  26.090  28.718  1.00  0.00     0.009 A 
ATOM     71  C   UNL A   1      40.932  26.623  26.185  1.00  0.00     0.001 A 
ATOM     72  C   UNL A   1      39.650  25.206  27.664  1.00  0.00     0.001 A 
ATOM     73  C   UNL A   1      40.167  25.476  26.398  1.00  0.00     0.000 A 
ENDBRANCH  54  68
BRANCH  55  74
ATOM     74  C   UNL A   1      41.982  33.692  35.918  1.00  0.00    -0.014 A 
ATOM     75  C   UNL A   1      41.280  33.500  37.115  1.00  0.00     0.009 A 
ATOM     76  C   UNL A   1      42.844  34.795  35.802  1.00  0.00     0.009 A 
ATOM     77  C   UNL A   1      41.428  34.403  38.171  1.00  0.00     0.001 A 
ATOM     78  C   UNL A   1      43.007  35.684  36.867  1.00  0.00     0.001 A 
ATOM     79  C   UNL A   1      42.294  35.489  38.048  1.00  0.00     0.000 A 
ENDBRANCH  55  74
BRANCH  67  80
ATOM     80  C   UNL A   1      45.383  27.974  33.919  1.00  0.00    -0.014 A 
ATOM     81  C   UNL A   1      45.307  27.054  34.976  1.00  0.00     0.009 A 
ATOM     82  C   UNL A   1      46.633  28.248  33.342  1.00  0.00     0.009 A 
ATOM     83  C   UNL A   1      46.465  26.444  35.462  1.00  0.00     0.001 A 
ATOM     84  C   UNL A   1      47.785  27.620  33.815  1.00  0.00     0.001 A 
ATOM     85  C   UNL A   1      47.701  26.725  34.880  1.00  0.00     0.000 A 
ENDBRANCH  67  80
ENDBRANCH  41  42
ENDBRANCH  34  36
ENDBRANCH  33  34
ENDBRANCH  32  33
ENDBRANCH  31  32
ENDBRANCH  30  31
ENDBRANCH  29  30
ENDBRANCH   1  29
TORSDOF 20
ENDMDL
MODEL 3
REMARK VINA RESULT:     -10.2      2.506      8.565
REMARK SMILES O=C(Cc1ccccc1C(=O)OCCOCCOC(=O)c1ccc(-c2c3nc(c(-c4ccccc4)c4ccc([nH]4)c(-c4ccccc4)c4nc(c(-c5ccccc5)c5ccc2[nH]5)C=C4)C=C3)cc1)Nc1cccc(OC[C@@H]2CCCO2)c1
REMARK SMILES IDX 13 1 12 2 10 3 11 4 9 5 4 6 5 7 6 8 8 9 7 10 3 11 2 12 1 13
REMARK SMILES IDX 69 14 70 16 71 17 82 18 72 19 74 20 73 21 75 22 76 23 77 24
REMARK SMILES IDX 78 25 81 26 79 27 80 28 14 29 15 30 16 31 17 32 18 33 19 34
REMARK SMILES IDX 20 35 21 36 22 37 68 38 23 39 67 40 24 41 25 42 26 43 61 44
REMARK SMILES IDX 27 45 66 46 60 47 62 48 28 49 65 50 59 51 58 52 29 54 51 55
REMARK SMILES IDX 36 56 50 57 37 58 40 59 49 60 63 61 38 62 39 63 48 65 64 66
REMARK SMILES IDX 41 67 30 68 31 69 35 70 32 71 34 72 33 73 52 74 53 75 57 76
REMARK SMILES IDX 54 77 56 78 55 79 42 80 43 81 47 82 44 83 46 84 45 85
REMARK H PARENT 69 15 62 53 40 64
REMARK Flexibility Score: inf
ROOT
ATOM      1  C   UNL A   1      38.167  22.263  25.732  1.00  0.00     0.261 C 
ENDROOT
BRANCH   1   2
ATOM      2  O   UNL A   1      36.901  22.791  26.218  1.00  0.00    -0.460 OA
BRANCH   2   3
ATOM      3  C   UNL A   1      36.065  23.277  25.251  1.00  0.00     0.338 C 
ATOM      4  O   UNL A   1      36.428  23.817  24.219  1.00  0.00    -0.246 OA
BRANCH   3   5
ATOM      5  C   UNL A   1      34.619  23.046  25.546  1.00  0.00     0.063 A 
ATOM      6  C   UNL A   1      33.585  22.783  24.617  1.00  0.00    -0.024 A 
ATOM      7  C   UNL A   1      32.293  22.505  25.121  1.00  0.00     0.005 A 
ATOM      8  C   UNL A   1      32.030  22.481  26.490  1.00  0.00     0.000 A 
ATOM      9  C   UNL A   1      34.332  23.012  26.925  1.00  0.00     0.016 A 
ATOM     10  C   UNL A   1      33.050  22.735  27.394  1.00  0.00     0.001 A 
BRANCH   6  11
ATOM     11  C   UNL A   1      33.735  22.758  23.112  1.00  0.00     0.136 C 
BRANCH  11  12
ATOM     12  C   UNL A   1      33.458  24.081  22.420  1.00  0.00     0.228 C 
ATOM     13  O   UNL A   1      33.241  24.167  21.218  1.00  0.00    -0.274 OA
ATOM     14  N   UNL A   1      33.485  25.118  23.316  1.00  0.00    -0.326 N 
ATOM     15  H   UNL A   1      33.897  24.917  24.188  1.00  0.00     0.169 HD
BRANCH  14  16
ATOM     16  C   UNL A   1      33.010  26.412  23.160  1.00  0.00     0.044 A 
ATOM     17  C   UNL A   1      33.908  27.470  23.062  1.00  0.00     0.026 A 
ATOM     18  C   UNL A   1      31.677  26.649  23.460  1.00  0.00     0.072 A 
ATOM     19  C   UNL A   1      33.443  28.777  23.192  1.00  0.00     0.006 A 
ATOM     20  C   UNL A   1      31.196  27.951  23.587  1.00  0.00     0.121 A 
ATOM     21  C   UNL A   1      32.089  29.015  23.454  1.00  0.00     0.046 A 
BRANCH  20  22
ATOM     22  O   UNL A   1      29.889  28.283  23.835  1.00  0.00    -0.491 OA
BRANCH  22  23
ATOM     23  C   UNL A   1      29.087  28.606  22.694  1.00  0.00     0.261 C 
BRANCH  23  24
ATOM     24  C   UNL A   1      28.304  29.937  22.807  1.00  0.00     0.156 C 
ATOM     25  C   UNL A   1      28.033  30.579  21.447  1.00  0.00     0.038 C 
ATOM     26  O   UNL A   1      28.980  30.941  23.584  1.00  0.00    -0.375 OA
ATOM     27  C   UNL A   1      28.041  32.055  21.748  1.00  0.00     0.031 C 
ATOM     28  C   UNL A   1      29.099  32.140  22.815  1.00  0.00     0.161 C 
ENDBRANCH  23  24
ENDBRANCH  22  23
ENDBRANCH  20  22
ENDBRANCH  14  16
ENDBRANCH  11  12
ENDBRANCH   6  11
ENDBRANCH   3   5
ENDBRANCH   2   3
ENDBRANCH   1   2
BRANCH   1  29
ATOM     29  C   UNL A   1      38.147  20.772  25.405  1.00  0.00     0.202 C 
BRANCH  29  30
ATOM     30  O   UNL A   1      39.331  20.038  25.680  1.00  0.00    -0.374 OA
BRANCH  30  31
ATOM     31  C   UNL A   1      40.290  20.631  26.546  1.00  0.00     0.202 C 
BRANCH  31  32
ATOM     32  C   UNL A   1      41.670  20.958  25.961  1.00  0.00     0.261 C 
BRANCH  32  33
ATOM     33  O   UNL A   1      42.370  22.047  26.600  1.00  0.00    -0.460 OA
BRANCH  33  34
ATOM     34  C   UNL A   1      42.561  23.130  25.801  1.00  0.00     0.338 C 
ATOM     35  O   UNL A   1      43.080  23.149  24.698  1.00  0.00    -0.246 OA
BRANCH  34  36
ATOM     36  C   UNL A   1      41.997  24.360  26.389  1.00  0.00     0.060 A 
ATOM     37  C   UNL A   1      42.681  25.566  26.190  1.00  0.00     0.016 A 
ATOM     38  C   UNL A   1      40.965  24.281  27.326  1.00  0.00     0.016 A 
ATOM     39  C   UNL A   1      42.376  26.682  26.977  1.00  0.00     0.010 A 
ATOM     40  C   UNL A   1      40.663  25.402  28.113  1.00  0.00     0.010 A 
ATOM     41  C   UNL A   1      41.398  26.595  27.977  1.00  0.00    -0.014 A 
BRANCH  41  42
ATOM     42  C   UNL A   1      41.233  27.692  28.968  1.00  0.00     0.031 A 
ATOM     43  C   UNL A   1      42.164  27.789  30.144  1.00  0.00     0.074 A 
ATOM     44  C   UNL A   1      40.284  28.633  28.823  1.00  0.00     0.049 A 
ATOM     45  N   UNL A   1      42.149  28.642  31.139  1.00  0.00    -0.248 NA
ATOM     46  C   UNL A   1      43.262  26.812  30.200  1.00  0.00     0.031 C 
ATOM     47  C   UNL A   1      39.372  28.735  27.691  1.00  0.00     0.029 A 
ATOM     48  N   UNL A   1      39.931  29.682  29.640  1.00  0.00    -0.354 N 
ATOM     49  C   UNL A   1      43.242  28.319  31.929  1.00  0.00     0.074 A 
ATOM     50  C   UNL A   1      43.873  27.163  31.323  1.00  0.00     0.031 C 
ATOM     51  C   UNL A   1      38.554  29.780  27.894  1.00  0.00     0.029 A 
ATOM     52  C   UNL A   1      38.833  30.373  29.194  1.00  0.00     0.049 A 
ATOM     53  H   UNL A   1      40.418  29.914  30.463  1.00  0.00     0.167 HD
ATOM     54  C   UNL A   1      43.695  28.935  33.048  1.00  0.00     0.031 A 
ATOM     55  C   UNL A   1      38.099  31.347  29.762  1.00  0.00     0.031 A 
ATOM     56  C   UNL A   1      43.073  30.075  33.670  1.00  0.00     0.049 A 
ATOM     57  C   UNL A   1      38.516  31.911  31.085  1.00  0.00     0.074 A 
ATOM     58  C   UNL A   1      43.486  30.772  34.794  1.00  0.00     0.029 A 
ATOM     59  N   UNL A   1      41.906  30.678  33.233  1.00  0.00    -0.354 N 
ATOM     60  N   UNL A   1      39.555  31.597  31.817  1.00  0.00    -0.248 NA
ATOM     61  C   UNL A   1      37.677  32.978  31.647  1.00  0.00     0.031 C 
ATOM     62  C   UNL A   1      42.539  31.768  35.064  1.00  0.00     0.029 A 
ATOM     63  C   UNL A   1      41.564  31.718  34.083  1.00  0.00     0.049 A 
ATOM     64  H   UNL A   1      41.395  30.408  32.437  1.00  0.00     0.167 HD
ATOM     65  C   UNL A   1      39.522  32.457  32.903  1.00  0.00     0.074 A 
ATOM     66  C   UNL A   1      38.354  33.299  32.741  1.00  0.00     0.031 C 
ATOM     67  C   UNL A   1      40.400  32.549  33.930  1.00  0.00     0.031 A 
BRANCH  54  68
ATOM     68  C   UNL A   1      44.927  28.364  33.685  1.00  0.00    -0.014 A 
ATOM     69  C   UNL A   1      46.204  28.833  33.339  1.00  0.00     0.009 A 
ATOM     70  C   UNL A   1      44.807  27.362  34.659  1.00  0.00     0.009 A 
ATOM     71  C   UNL A   1      47.341  28.286  33.936  1.00  0.00     0.001 A 
ATOM     72  C   UNL A   1      45.945  26.833  35.270  1.00  0.00     0.001 A 
ATOM     73  C   UNL A   1      47.210  27.289  34.904  1.00  0.00     0.000 A 
ENDBRANCH  54  68
BRANCH  55  74
ATOM     74  C   UNL A   1      36.856  31.821  29.100  1.00  0.00    -0.014 A 
ATOM     75  C   UNL A   1      36.781  33.099  28.531  1.00  0.00     0.009 A 
ATOM     76  C   UNL A   1      35.731  30.983  29.043  1.00  0.00     0.009 A 
ATOM     77  C   UNL A   1      35.598  33.534  27.928  1.00  0.00     0.001 A 
ATOM     78  C   UNL A   1      34.557  31.412  28.421  1.00  0.00     0.001 A 
ATOM     79  C   UNL A   1      34.490  32.689  27.868  1.00  0.00     0.000 A 
ENDBRANCH  55  74
BRANCH  67  80
ATOM     80  C   UNL A   1      40.154  33.632  34.940  1.00  0.00    -0.014 A 
ATOM     81  C   UNL A   1      40.536  34.959  34.694  1.00  0.00     0.009 A 
ATOM     82  C   UNL A   1      39.522  33.317  36.153  1.00  0.00     0.009 A 
ATOM     83  C   UNL A   1      40.315  35.945  35.659  1.00  0.00     0.001 A 
ATOM     84  C   UNL A   1      39.283  34.308  37.104  1.00  0.00     0.001 A 
ATOM     85  C   UNL A   1      39.687  35.619  36.861  1.00  0.00     0.000 A 
ENDBRANCH  67  80
ENDBRANCH  41  42
ENDBRANCH  34  36
ENDBRANCH  33  34
ENDBRANCH  32  33
ENDBRANCH  31  32
ENDBRANCH  30  31
ENDBRANCH  29  30
ENDBRANCH   1  29
TORSDOF 20
ENDMDL
