MODEL 1
REMARK VINA RESULT:      -9.3      0.000      0.000
REMARK SMILES COCCN1C(=O)C[C@H](C(=O)OCCOCCOC(=O)c2ccc(-c3c4nc(c(-c5ccccc5)c5ccc([nH]5)c(-c5ccccc5)c5nc(c(-c6ccccc6)c6ccc3[nH]6)C=C5)C=C4)cc2)[C@@H]1c1ccccc1N1CCOCC1
REMARK SMILES IDX 14 1 13 2 12 3 10 4 11 5 9 6 5 7 6 8 69 9 7 10 8 11 4 12
REMARK SMILES IDX 3 13 2 14 1 15 70 16 71 17 75 18 72 19 74 20 73 21 76 22
REMARK SMILES IDX 77 23 81 24 78 25 80 26 79 27 15 28 16 29 17 30 18 31 19 32
REMARK SMILES IDX 20 33 21 34 22 35 68 36 23 37 67 38 24 39 25 40 26 41 61 42
REMARK SMILES IDX 27 43 66 44 60 45 62 46 28 47 65 48 59 49 58 50 29 52 51 53
REMARK SMILES IDX 36 54 50 55 37 56 40 57 49 58 63 59 38 60 39 61 48 63 64 64
REMARK SMILES IDX 41 65 30 66 31 67 35 68 32 69 34 70 33 71 52 72 53 73 57 74
REMARK SMILES IDX 54 75 56 76 55 77 42 78 43 79 47 80 44 81 46 82 45 83
REMARK H PARENT 62 51 40 62
REMARK Flexibility Score: inf
ROOT
ATOM      1  C   UNL A   1      31.635  28.195  27.587  1.00  0.00     0.202 C 
ENDROOT
BRANCH   1   2
ATOM      2  C   UNL A   1      31.993  26.897  26.841  1.00  0.00     0.261 C 
BRANCH   2   3
ATOM      3  O   UNL A   1      31.033  26.275  25.994  1.00  0.00    -0.463 OA
BRANCH   3   4
ATOM      4  C   UNL A   1      31.293  24.979  25.712  1.00  0.00     0.312 C 
ATOM      5  O   UNL A   1      30.595  24.258  25.018  1.00  0.00    -0.252 OA
BRANCH   4   6
ATOM      6  C   UNL A   1      32.560  24.484  26.305  1.00  0.00     0.136 C 
ATOM      7  N   UNL A   1      34.675  23.602  25.973  1.00  0.00    -0.332 N 
ATOM      8  C   UNL A   1      34.010  22.744  26.853  1.00  0.00     0.224 C 
ATOM      9  C   UNL A   1      33.756  24.582  25.351  1.00  0.00     0.132 C 
ATOM     10  O   UNL A   1      34.515  21.888  27.561  1.00  0.00    -0.275 OA
ATOM     11  C   UNL A   1      32.546  23.048  26.802  1.00  0.00     0.118 C 
BRANCH   7  12
ATOM     12  C   UNL A   1      36.136  23.691  26.017  1.00  0.00     0.148 C 
BRANCH  12  13
ATOM     13  C   UNL A   1      36.913  23.495  24.711  1.00  0.00     0.181 C 
BRANCH  13  14
ATOM     14  O   UNL A   1      36.743  22.185  24.162  1.00  0.00    -0.383 OA
ATOM     15  C   UNL A   1      37.228  21.162  25.009  1.00  0.00     0.194 C 
ENDBRANCH  13  14
ENDBRANCH  12  13
ENDBRANCH   7  12
BRANCH   9  16
ATOM     16  C   UNL A   1      33.453  24.327  23.861  1.00  0.00    -0.001 A 
ATOM     17  C   UNL A   1      33.428  22.974  23.427  1.00  0.00     0.008 A 
ATOM     18  C   UNL A   1      33.110  25.352  22.915  1.00  0.00     0.042 A 
ATOM     19  C   UNL A   1      33.112  22.614  22.120  1.00  0.00     0.001 A 
ATOM     20  C   UNL A   1      32.798  24.935  21.598  1.00  0.00     0.026 A 
ATOM     21  C   UNL A   1      32.797  23.597  21.202  1.00  0.00     0.002 A 
BRANCH  18  22
ATOM     22  N   UNL A   1      32.976  26.707  23.225  1.00  0.00    -0.367 N 
ATOM     23  C   UNL A   1      34.148  27.580  23.385  1.00  0.00     0.145 C 
ATOM     24  C   UNL A   1      31.808  27.496  22.730  1.00  0.00     0.145 C 
ATOM     25  C   UNL A   1      33.802  28.772  24.295  1.00  0.00     0.181 C 
ATOM     26  C   UNL A   1      31.551  28.744  23.604  1.00  0.00     0.181 C 
ATOM     27  O   UNL A   1      32.731  29.551  23.742  1.00  0.00    -0.378 OA
ENDBRANCH  18  22
ENDBRANCH   9  16
ENDBRANCH   4   6
ENDBRANCH   3   4
ENDBRANCH   2   3
ENDBRANCH   1   2
BRANCH   1  28
ATOM     28  O   UNL A   1      31.534  29.462  26.970  1.00  0.00    -0.374 OA
BRANCH  28  29
ATOM     29  C   UNL A   1      32.454  30.513  27.206  1.00  0.00     0.202 C 
BRANCH  29  30
ATOM     30  C   UNL A   1      32.020  31.978  27.305  1.00  0.00     0.261 C 
BRANCH  30  31
ATOM     31  O   UNL A   1      33.053  32.937  27.074  1.00  0.00    -0.460 OA
BRANCH  31  32
ATOM     32  C   UNL A   1      33.216  33.825  28.085  1.00  0.00     0.338 C 
ATOM     33  O   UNL A   1      32.419  34.649  28.485  1.00  0.00    -0.246 OA
BRANCH  32  34
ATOM     34  C   UNL A   1      34.472  33.523  28.795  1.00  0.00     0.060 A 
ATOM     35  C   UNL A   1      35.673  33.835  28.144  1.00  0.00     0.016 A 
ATOM     36  C   UNL A   1      34.472  32.897  30.042  1.00  0.00     0.016 A 
ATOM     37  C   UNL A   1      36.886  33.476  28.715  1.00  0.00     0.010 A 
ATOM     38  C   UNL A   1      35.690  32.507  30.601  1.00  0.00     0.010 A 
ATOM     39  C   UNL A   1      36.892  32.757  29.915  1.00  0.00    -0.014 A 
BRANCH  39  40
ATOM     40  C   UNL A   1      38.130  32.054  30.310  1.00  0.00     0.031 A 
ATOM     41  C   UNL A   1      39.006  32.701  31.346  1.00  0.00     0.074 A 
ATOM     42  C   UNL A   1      38.437  30.849  29.802  1.00  0.00     0.049 A 
ATOM     43  N   UNL A   1      40.149  32.300  31.835  1.00  0.00    -0.248 NA
ATOM     44  C   UNL A   1      38.522  33.976  31.907  1.00  0.00     0.031 C 
ATOM     45  C   UNL A   1      37.626  30.101  28.844  1.00  0.00     0.029 A 
ATOM     46  N   UNL A   1      39.526  30.048  30.028  1.00  0.00    -0.354 N 
ATOM     47  C   UNL A   1      40.522  33.271  32.756  1.00  0.00     0.074 A 
ATOM     48  C   UNL A   1      39.503  34.296  32.736  1.00  0.00     0.031 C 
ATOM     49  C   UNL A   1      38.257  28.950  28.549  1.00  0.00     0.029 A 
ATOM     50  C   UNL A   1      39.527  28.903  29.272  1.00  0.00     0.049 A 
ATOM     51  H   UNL A   1      40.237  30.272  30.670  1.00  0.00     0.167 HD
ATOM     52  C   UNL A   1      41.616  33.303  33.552  1.00  0.00     0.031 A 
ATOM     53  C   UNL A   1      40.465  27.944  29.159  1.00  0.00     0.031 A 
ATOM     54  C   UNL A   1      42.639  32.294  33.545  1.00  0.00     0.049 A 
ATOM     55  C   UNL A   1      41.723  28.051  29.983  1.00  0.00     0.074 A 
ATOM     56  C   UNL A   1      43.796  32.233  34.300  1.00  0.00     0.029 A 
ATOM     57  N   UNL A   1      42.629  31.172  32.731  1.00  0.00    -0.354 N 
ATOM     58  N   UNL A   1      42.064  28.968  30.857  1.00  0.00    -0.248 NA
ATOM     59  C   UNL A   1      42.720  26.986  29.808  1.00  0.00     0.031 C 
ATOM     60  C   UNL A   1      44.515  31.102  33.899  1.00  0.00     0.029 A 
ATOM     61  C   UNL A   1      43.772  30.424  32.946  1.00  0.00     0.049 A 
ATOM     62  H   UNL A   1      41.913  30.941  32.095  1.00  0.00     0.167 HD
ATOM     63  C   UNL A   1      43.300  28.574  31.358  1.00  0.00     0.074 A 
ATOM     64  C   UNL A   1      43.638  27.329  30.702  1.00  0.00     0.031 C 
ATOM     65  C   UNL A   1      44.085  29.185  32.279  1.00  0.00     0.031 A 
BRANCH  52  66
ATOM     66  C   UNL A   1      41.774  34.491  34.460  1.00  0.00    -0.014 A 
ATOM     67  C   UNL A   1      42.399  35.669  34.020  1.00  0.00     0.009 A 
ATOM     68  C   UNL A   1      41.280  34.434  35.772  1.00  0.00     0.009 A 
ATOM     69  C   UNL A   1      42.554  36.753  34.887  1.00  0.00     0.001 A 
ATOM     70  C   UNL A   1      41.411  35.530  36.627  1.00  0.00     0.001 A 
ATOM     71  C   UNL A   1      42.056  36.684  36.188  1.00  0.00     0.000 A 
ENDBRANCH  52  66
BRANCH  53  72
ATOM     72  C   UNL A   1      40.271  26.819  28.207  1.00  0.00    -0.014 A 
ATOM     73  C   UNL A   1      39.578  25.660  28.590  1.00  0.00     0.009 A 
ATOM     74  C   UNL A   1      40.804  26.890  26.910  1.00  0.00     0.009 A 
ATOM     75  C   UNL A   1      39.448  24.588  27.704  1.00  0.00     0.001 A 
ATOM     76  C   UNL A   1      40.645  25.829  26.016  1.00  0.00     0.001 A 
ATOM     77  C   UNL A   1      39.977  24.674  26.418  1.00  0.00     0.000 A 
ENDBRANCH  53  72
BRANCH  65  78
ATOM     78  C   UNL A   1      45.365  28.494  32.662  1.00  0.00    -0.014 A 
ATOM     79  C   UNL A   1      46.573  28.769  32.002  1.00  0.00     0.009 A 
ATOM     80  C   UNL A   1      45.366  27.586  33.732  1.00  0.00     0.009 A 
ATOM     81  C   UNL A   1      47.748  28.122  32.386  1.00  0.00     0.001 A 
ATOM     82  C   UNL A   1      46.549  26.965  34.135  1.00  0.00     0.001 A 
ATOM     83  C   UNL A   1      47.737  27.225  33.455  1.00  0.00     0.000 A 
ENDBRANCH  65  78
ENDBRANCH  39  40
ENDBRANCH  32  34
ENDBRANCH  31  32
ENDBRANCH  30  31
ENDBRANCH  29  30
ENDBRANCH  28  29
ENDBRANCH   1  28
TORSDOF 19
ENDMDL
MODEL 2
REMARK VINA RESULT:      -9.2      2.852      8.335
REMARK SMILES COCCN1C(=O)C[C@H](C(=O)OCCOCCOC(=O)c2ccc(-c3c4nc(c(-c5ccccc5)c5ccc([nH]5)c(-c5ccccc5)c5nc(c(-c6ccccc6)c6ccc3[nH]6)C=C5)C=C4)cc2)[C@@H]1c1ccccc1N1CCOCC1
REMARK SMILES IDX 14 1 13 2 12 3 10 4 11 5 9 6 5 7 6 8 69 9 7 10 8 11 4 12
REMARK SMILES IDX 3 13 2 14 1 15 70 16 71 17 75 18 72 19 74 20 73 21 76 22
REMARK SMILES IDX 77 23 81 24 78 25 80 26 79 27 15 28 16 29 17 30 18 31 19 32
REMARK SMILES IDX 20 33 21 34 22 35 68 36 23 37 67 38 24 39 25 40 26 41 61 42
REMARK SMILES IDX 27 43 66 44 60 45 62 46 28 47 65 48 59 49 58 50 29 52 51 53
REMARK SMILES IDX 36 54 50 55 37 56 40 57 49 58 63 59 38 60 39 61 48 63 64 64
REMARK SMILES IDX 41 65 30 66 31 67 35 68 32 69 34 70 33 71 52 72 53 73 57 74
REMARK SMILES IDX 54 75 56 76 55 77 42 78 43 79 47 80 44 81 46 82 45 83
REMARK H PARENT 62 51 40 62
REMARK Flexibility Score: inf
ROOT
ATOM      1  C   UNL A   1      36.454  22.689  23.367  1.00  0.00     0.202 C 
ENDROOT
BRANCH   1   2
ATOM      2  C   UNL A   1      35.285  23.689  23.413  1.00  0.00     0.261 C 
BRANCH   2   3
ATOM      3  O   UNL A   1      34.098  23.431  22.672  1.00  0.00    -0.463 OA
BRANCH   3   4
ATOM      4  C   UNL A   1      33.223  24.461  22.644  1.00  0.00     0.312 C 
ATOM      5  O   UNL A   1      32.040  24.369  22.358  1.00  0.00    -0.252 OA
BRANCH   4   6
ATOM      6  C   UNL A   1      33.820  25.761  23.036  1.00  0.00     0.136 C 
ATOM      7  N   UNL A   1      33.726  27.646  24.377  1.00  0.00    -0.332 N 
ATOM      8  C   UNL A   1      33.799  28.091  23.054  1.00  0.00     0.224 C 
ATOM      9  C   UNL A   1      33.456  26.193  24.460  1.00  0.00     0.132 C 
ATOM     10  O   UNL A   1      34.078  29.217  22.676  1.00  0.00    -0.275 OA
ATOM     11  C   UNL A   1      33.480  26.945  22.146  1.00  0.00     0.118 C 
BRANCH   7  12
ATOM     12  C   UNL A   1      34.240  28.496  25.454  1.00  0.00     0.148 C 
BRANCH  12  13
ATOM     13  C   UNL A   1      33.237  29.084  26.452  1.00  0.00     0.181 C 
BRANCH  13  14
ATOM     14  O   UNL A   1      32.860  28.150  27.467  1.00  0.00    -0.383 OA
ATOM     15  C   UNL A   1      31.477  28.184  27.765  1.00  0.00     0.194 C 
ENDBRANCH  13  14
ENDBRANCH  12  13
ENDBRANCH   7  12
BRANCH   9  16
ATOM     16  C   UNL A   1      32.035  25.827  24.934  1.00  0.00    -0.001 A 
ATOM     17  C   UNL A   1      30.983  26.709  24.569  1.00  0.00     0.008 A 
ATOM     18  C   UNL A   1      31.699  24.618  25.634  1.00  0.00     0.042 A 
ATOM     19  C   UNL A   1      29.652  26.458  24.889  1.00  0.00     0.001 A 
ATOM     20  C   UNL A   1      30.331  24.410  25.937  1.00  0.00     0.026 A 
ATOM     21  C   UNL A   1      29.324  25.306  25.576  1.00  0.00     0.002 A 
BRANCH  18  22
ATOM     22  N   UNL A   1      32.605  23.604  25.950  1.00  0.00    -0.367 N 
ATOM     23  C   UNL A   1      33.457  23.679  27.147  1.00  0.00     0.145 C 
ATOM     24  C   UNL A   1      32.311  22.179  25.613  1.00  0.00     0.145 C 
ATOM     25  C   UNL A   1      34.729  22.836  26.945  1.00  0.00     0.181 C 
ATOM     26  C   UNL A   1      33.603  21.337  25.522  1.00  0.00     0.181 C 
ATOM     27  O   UNL A   1      34.405  21.459  26.707  1.00  0.00    -0.378 OA
ENDBRANCH  18  22
ENDBRANCH   9  16
ENDBRANCH   4   6
ENDBRANCH   3   4
ENDBRANCH   2   3
ENDBRANCH   1   2
BRANCH   1  28
ATOM     28  O   UNL A   1      36.988  22.039  24.503  1.00  0.00    -0.374 OA
BRANCH  28  29
ATOM     29  C   UNL A   1      37.119  20.632  24.598  1.00  0.00     0.202 C 
BRANCH  29  30
ATOM     30  C   UNL A   1      38.368  19.961  25.176  1.00  0.00     0.261 C 
BRANCH  30  31
ATOM     31  O   UNL A   1      39.202  20.806  25.972  1.00  0.00    -0.460 OA
BRANCH  31  32
ATOM     32  C   UNL A   1      40.467  20.345  26.124  1.00  0.00     0.338 C 
ATOM     33  O   UNL A   1      40.912  19.272  25.772  1.00  0.00    -0.246 OA
BRANCH  32  34
ATOM     34  C   UNL A   1      41.321  21.434  26.628  1.00  0.00     0.060 A 
ATOM     35  C   UNL A   1      41.346  21.649  28.013  1.00  0.00     0.016 A 
ATOM     36  C   UNL A   1      42.035  22.262  25.761  1.00  0.00     0.016 A 
ATOM     37  C   UNL A   1      42.046  22.727  28.536  1.00  0.00     0.010 A 
ATOM     38  C   UNL A   1      42.712  23.364  26.284  1.00  0.00     0.010 A 
ATOM     39  C   UNL A   1      42.679  23.620  27.666  1.00  0.00    -0.014 A 
BRANCH  39  40
ATOM     40  C   UNL A   1      43.080  24.945  28.183  1.00  0.00     0.031 A 
ATOM     41  C   UNL A   1      42.004  25.977  28.380  1.00  0.00     0.074 A 
ATOM     42  C   UNL A   1      44.354  25.204  28.517  1.00  0.00     0.049 A 
ATOM     43  N   UNL A   1      42.105  27.213  28.791  1.00  0.00    -0.248 NA
ATOM     44  C   UNL A   1      40.627  25.552  28.073  1.00  0.00     0.031 C 
ATOM     45  C   UNL A   1      45.464  24.257  28.430  1.00  0.00     0.029 A 
ATOM     46  N   UNL A   1      44.924  26.354  28.997  1.00  0.00    -0.354 N 
ATOM     47  C   UNL A   1      40.810  27.713  28.788  1.00  0.00     0.074 A 
ATOM     48  C   UNL A   1      39.944  26.662  28.306  1.00  0.00     0.031 C 
ATOM     49  C   UNL A   1      46.591  24.872  28.829  1.00  0.00     0.029 A 
ATOM     50  C   UNL A   1      46.283  26.262  29.164  1.00  0.00     0.049 A 
ATOM     51  H   UNL A   1      44.409  27.167  29.202  1.00  0.00     0.167 HD
ATOM     52  C   UNL A   1      40.378  28.941  29.160  1.00  0.00     0.031 A 
ATOM     53  C   UNL A   1      47.175  27.205  29.520  1.00  0.00     0.031 A 
ATOM     54  C   UNL A   1      41.249  29.992  29.611  1.00  0.00     0.049 A 
ATOM     55  C   UNL A   1      46.684  28.595  29.834  1.00  0.00     0.074 A 
ATOM     56  C   UNL A   1      40.921  31.278  29.999  1.00  0.00     0.029 A 
ATOM     57  N   UNL A   1      42.626  29.874  29.722  1.00  0.00    -0.354 N 
ATOM     58  N   UNL A   1      45.456  29.058  29.838  1.00  0.00    -0.248 NA
ATOM     59  C   UNL A   1      47.702  29.589  30.201  1.00  0.00     0.031 C 
ATOM     60  C   UNL A   1      42.108  31.957  30.291  1.00  0.00     0.029 A 
ATOM     61  C   UNL A   1      43.167  31.074  30.150  1.00  0.00     0.049 A 
ATOM     62  H   UNL A   1      43.142  29.059  29.528  1.00  0.00     0.167 HD
ATOM     63  C   UNL A   1      45.552  30.387  30.235  1.00  0.00     0.074 A 
ATOM     64  C   UNL A   1      46.955  30.648  30.480  1.00  0.00     0.031 C 
ATOM     65  C   UNL A   1      44.569  31.309  30.387  1.00  0.00     0.031 A 
BRANCH  52  66
ATOM     66  C   UNL A   1      38.904  29.218  29.048  1.00  0.00    -0.014 A 
ATOM     67  C   UNL A   1      38.325  29.616  27.833  1.00  0.00     0.009 A 
ATOM     68  C   UNL A   1      38.082  29.066  30.175  1.00  0.00     0.009 A 
ATOM     69  C   UNL A   1      36.957  29.889  27.757  1.00  0.00     0.001 A 
ATOM     70  C   UNL A   1      36.710  29.311  30.089  1.00  0.00     0.001 A 
ATOM     71  C   UNL A   1      36.151  29.732  28.883  1.00  0.00     0.000 A 
ENDBRANCH  52  66
BRANCH  53  72
ATOM     72  C   UNL A   1      48.625  26.881  29.566  1.00  0.00    -0.014 A 
ATOM     73  C   UNL A   1      49.217  26.377  30.735  1.00  0.00     0.009 A 
ATOM     74  C   UNL A   1      49.434  27.100  28.439  1.00  0.00     0.009 A 
ATOM     75  C   UNL A   1      50.591  26.127  30.781  1.00  0.00     0.001 A 
ATOM     76  C   UNL A   1      50.801  26.819  28.478  1.00  0.00     0.001 A 
ATOM     77  C   UNL A   1      51.381  26.344  29.653  1.00  0.00     0.000 A 
ENDBRANCH  53  72
BRANCH  65  78
ATOM     78  C   UNL A   1      44.972  32.672  30.878  1.00  0.00    -0.014 A 
ATOM     79  C   UNL A   1      45.292  33.708  29.987  1.00  0.00     0.009 A 
ATOM     80  C   UNL A   1      44.986  32.933  32.257  1.00  0.00     0.009 A 
ATOM     81  C   UNL A   1      45.652  34.967  30.470  1.00  0.00     0.001 A 
ATOM     82  C   UNL A   1      45.313  34.202  32.736  1.00  0.00     0.001 A 
ATOM     83  C   UNL A   1      45.656  35.214  31.843  1.00  0.00     0.000 A 
ENDBRANCH  65  78
ENDBRANCH  39  40
ENDBRANCH  32  34
ENDBRANCH  31  32
ENDBRANCH  30  31
ENDBRANCH  29  30
ENDBRANCH  28  29
ENDBRANCH   1  28
TORSDOF 19
ENDMDL
MODEL 3
REMARK VINA RESULT:      -9.0      3.228      5.016
REMARK SMILES COCCN1C(=O)C[C@H](C(=O)OCCOCCOC(=O)c2ccc(-c3c4nc(c(-c5ccccc5)c5ccc([nH]5)c(-c5ccccc5)c5nc(c(-c6ccccc6)c6ccc3[nH]6)C=C5)C=C4)cc2)[C@@H]1c1ccccc1N1CCOCC1
REMARK SMILES IDX 14 1 13 2 12 3 10 4 11 5 9 6 5 7 6 8 69 9 7 10 8 11 4 12
REMARK SMILES IDX 3 13 2 14 1 15 70 16 71 17 75 18 72 19 74 20 73 21 76 22
REMARK SMILES IDX 77 23 81 24 78 25 80 26 79 27 15 28 16 29 17 30 18 31 19 32
REMARK SMILES IDX 20 33 21 34 22 35 68 36 23 37 67 38 24 39 25 40 26 41 61 42
REMARK SMILES IDX 27 43 66 44 60 45 62 46 28 47 65 48 59 49 58 50 29 52 51 53
REMARK SMILES IDX 36 54 50 55 37 56 40 57 49 58 63 59 38 60 39 61 48 63 64 64
REMARK SMILES IDX 41 65 30 66 31 67 35 68 32 69 34 70 33 71 52 72 53 73 57 74
REMARK SMILES IDX 54 75 56 76 55 77 42 78 43 79 47 80 44 81 46 82 45 83
REMARK H PARENT 62 51 40 62
REMARK Flexibility Score: inf
ROOT
ATOM      1  C   UNL A   1      31.914  30.724  26.617  1.00  0.00     0.202 C 
ENDROOT
BRANCH   1   2
ATOM      2  C   UNL A   1      32.548  29.786  25.575  1.00  0.00     0.261 C 
BRANCH   2   3
ATOM      3  O   UNL A   1      31.996  28.493  25.352  1.00  0.00    -0.463 OA
BRANCH   3   4
ATOM      4  C   UNL A   1      32.781  27.473  25.762  1.00  0.00     0.312 C 
ATOM      5  O   UNL A   1      34.002  27.478  25.751  1.00  0.00    -0.252 OA
BRANCH   4   6
ATOM      6  C   UNL A   1      32.022  26.308  26.280  1.00  0.00     0.136 C 
ATOM      7  N   UNL A   1      31.025  24.262  25.857  1.00  0.00    -0.332 N 
ATOM      8  C   UNL A   1      30.055  25.071  26.454  1.00  0.00     0.224 C 
ATOM      9  C   UNL A   1      32.221  25.035  25.451  1.00  0.00     0.132 C 
ATOM     10  O   UNL A   1      29.001  24.705  26.950  1.00  0.00    -0.275 OA
ATOM     11  C   UNL A   1      30.518  26.493  26.398  1.00  0.00     0.118 C 
BRANCH   7  12
ATOM     12  C   UNL A   1      30.942  22.807  26.005  1.00  0.00     0.148 C 
BRANCH  12  13
ATOM     13  C   UNL A   1      32.200  21.979  25.722  1.00  0.00     0.181 C 
BRANCH  13  14
ATOM     14  O   UNL A   1      31.897  20.635  25.334  1.00  0.00    -0.383 OA
ATOM     15  C   UNL A   1      32.663  20.192  24.231  1.00  0.00     0.194 C 
ENDBRANCH  13  14
ENDBRANCH  12  13
ENDBRANCH   7  12
BRANCH   9  16
ATOM     16  C   UNL A   1      32.373  25.236  23.931  1.00  0.00    -0.001 A 
ATOM     17  C   UNL A   1      31.363  25.988  23.272  1.00  0.00     0.008 A 
ATOM     18  C   UNL A   1      33.504  24.796  23.162  1.00  0.00     0.042 A 
ATOM     19  C   UNL A   1      31.418  26.284  21.913  1.00  0.00     0.001 A 
ATOM     20  C   UNL A   1      33.513  25.122  21.785  1.00  0.00     0.026 A 
ATOM     21  C   UNL A   1      32.495  25.850  21.166  1.00  0.00     0.002 A 
BRANCH  18  22
ATOM     22  N   UNL A   1      34.626  24.157  23.694  1.00  0.00    -0.367 N 
ATOM     23  C   UNL A   1      34.944  24.227  25.128  1.00  0.00     0.145 C 
ATOM     24  C   UNL A   1      35.123  22.872  23.117  1.00  0.00     0.145 C 
ATOM     25  C   UNL A   1      36.454  24.016  25.347  1.00  0.00     0.181 C 
ATOM     26  C   UNL A   1      36.615  22.639  23.445  1.00  0.00     0.181 C 
ATOM     27  O   UNL A   1      36.873  22.736  24.854  1.00  0.00    -0.378 OA
ENDBRANCH  18  22
ENDBRANCH   9  16
ENDBRANCH   4   6
ENDBRANCH   3   4
ENDBRANCH   2   3
ENDBRANCH   1   2
BRANCH   1  28
ATOM     28  O   UNL A   1      32.582  31.819  27.210  1.00  0.00    -0.374 OA
BRANCH  28  29
ATOM     29  C   UNL A   1      33.842  31.703  27.848  1.00  0.00     0.202 C 
BRANCH  29  30
ATOM     30  C   UNL A   1      34.329  32.710  28.894  1.00  0.00     0.261 C 
BRANCH  30  31
ATOM     31  O   UNL A   1      35.716  32.621  29.226  1.00  0.00    -0.460 OA
BRANCH  31  32
ATOM     32  C   UNL A   1      35.975  31.832  30.297  1.00  0.00     0.338 C 
ATOM     33  O   UNL A   1      35.352  31.764  31.337  1.00  0.00    -0.246 OA
BRANCH  32  34
ATOM     34  C   UNL A   1      37.050  30.885  29.950  1.00  0.00     0.060 A 
ATOM     35  C   UNL A   1      37.762  30.300  31.006  1.00  0.00     0.016 A 
ATOM     36  C   UNL A   1      37.389  30.622  28.622  1.00  0.00     0.016 A 
ATOM     37  C   UNL A   1      38.853  29.485  30.740  1.00  0.00     0.010 A 
ATOM     38  C   UNL A   1      38.506  29.829  28.356  1.00  0.00     0.010 A 
ATOM     39  C   UNL A   1      39.263  29.299  29.416  1.00  0.00    -0.014 A 
BRANCH  39  40
ATOM     40  C   UNL A   1      40.618  28.768  29.164  1.00  0.00     0.031 A 
ATOM     41  C   UNL A   1      41.782  29.706  29.328  1.00  0.00     0.074 A 
ATOM     42  C   UNL A   1      40.812  27.477  28.851  1.00  0.00     0.049 A 
ATOM     43  N   UNL A   1      43.056  29.490  29.138  1.00  0.00    -0.248 NA
ATOM     44  C   UNL A   1      41.460  31.076  29.769  1.00  0.00     0.031 C 
ATOM     45  C   UNL A   1      39.764  26.466  28.733  1.00  0.00     0.029 A 
ATOM     46  N   UNL A   1      41.972  26.801  28.574  1.00  0.00    -0.354 N 
ATOM     47  C   UNL A   1      43.686  30.692  29.431  1.00  0.00     0.074 A 
ATOM     48  C   UNL A   1      42.656  31.643  29.781  1.00  0.00     0.031 C 
ATOM     49  C   UNL A   1      40.328  25.295  28.388  1.00  0.00     0.029 A 
ATOM     50  C   UNL A   1      41.769  25.488  28.230  1.00  0.00     0.049 A 
ATOM     51  H   UNL A   1      42.863  27.216  28.617  1.00  0.00     0.167 HD
ATOM     52  C   UNL A   1      45.009  30.978  29.416  1.00  0.00     0.031 A 
ATOM     53  C   UNL A   1      42.649  24.560  27.809  1.00  0.00     0.031 A 
ATOM     54  C   UNL A   1      46.026  30.035  29.039  1.00  0.00     0.049 A 
ATOM     55  C   UNL A   1      44.106  24.929  27.703  1.00  0.00     0.074 A 
ATOM     56  C   UNL A   1      47.395  30.221  28.975  1.00  0.00     0.029 A 
ATOM     57  N   UNL A   1      45.777  28.727  28.652  1.00  0.00    -0.354 N 
ATOM     58  N   UNL A   1      44.696  26.066  27.991  1.00  0.00    -0.248 NA
ATOM     59  C   UNL A   1      45.020  23.884  27.222  1.00  0.00     0.031 C 
ATOM     60  C   UNL A   1      47.969  29.041  28.492  1.00  0.00     0.029 A 
ATOM     61  C   UNL A   1      46.965  28.100  28.322  1.00  0.00     0.049 A 
ATOM     62  H   UNL A   1      44.888  28.306  28.618  1.00  0.00     0.167 HD
ATOM     63  C   UNL A   1      46.050  25.862  27.755  1.00  0.00     0.074 A 
ATOM     64  C   UNL A   1      46.196  24.490  27.317  1.00  0.00     0.031 C 
ATOM     65  C   UNL A   1      47.084  26.730  27.889  1.00  0.00     0.031 A 
BRANCH  52  66
ATOM     66  C   UNL A   1      45.417  32.379  29.777  1.00  0.00    -0.014 A 
ATOM     67  C   UNL A   1      45.778  32.720  31.090  1.00  0.00     0.009 A 
ATOM     68  C   UNL A   1      45.452  33.370  28.784  1.00  0.00     0.009 A 
ATOM     69  C   UNL A   1      46.133  34.033  31.408  1.00  0.00     0.001 A 
ATOM     70  C   UNL A   1      45.836  34.675  29.099  1.00  0.00     0.001 A 
ATOM     71  C   UNL A   1      46.166  35.008  30.412  1.00  0.00     0.000 A 
ENDBRANCH  52  66
BRANCH  53  72
ATOM     72  C   UNL A   1      42.176  23.205  27.421  1.00  0.00    -0.014 A 
ATOM     73  C   UNL A   1      41.823  22.915  26.094  1.00  0.00     0.009 A 
ATOM     74  C   UNL A   1      42.053  22.196  28.389  1.00  0.00     0.009 A 
ATOM     75  C   UNL A   1      41.330  21.653  25.752  1.00  0.00     0.001 A 
ATOM     76  C   UNL A   1      41.590  20.925  28.038  1.00  0.00     0.001 A 
ATOM     77  C   UNL A   1      41.218  20.659  26.722  1.00  0.00     0.000 A 
ENDBRANCH  53  72
BRANCH  65  78
ATOM     78  C   UNL A   1      48.464  26.210  27.600  1.00  0.00    -0.014 A 
ATOM     79  C   UNL A   1      49.051  26.350  26.333  1.00  0.00     0.009 A 
ATOM     80  C   UNL A   1      49.206  25.609  28.630  1.00  0.00     0.009 A 
ATOM     81  C   UNL A   1      50.339  25.867  26.095  1.00  0.00     0.001 A 
ATOM     82  C   UNL A   1      50.505  25.158  28.398  1.00  0.00     0.001 A 
ATOM     83  C   UNL A   1      51.067  25.277  27.129  1.00  0.00     0.000 A 
ENDBRANCH  65  78
ENDBRANCH  39  40
ENDBRANCH  32  34
ENDBRANCH  31  32
ENDBRANCH  30  31
ENDBRANCH  29  30
ENDBRANCH  28  29
ENDBRANCH   1  28
TORSDOF 19
ENDMDL
