MODEL 1
REMARK VINA RESULT:     -12.0      0.000      0.000
REMARK SMILES C=CCN1C(=O)/C(=C/c2ccccn2)S/C1=[NH+]\c1ccc(C(=O)OCCOCCOC(=O)c2ccc(-c3c4nc(c(-c5ccccc5)c5ccc([nH]5)c(-c5ccccc5)c5nc(c(-c6ccccc6)c6ccc3[nH]6)C=C5)C=C4)cc2)cc1
REMARK SMILES IDX 26 1 25 2 24 3 22 4 23 5 21 6 18 7 19 8 82 9 20 10 81 11
REMARK SMILES IDX 17 12 4 13 5 14 16 15 6 16 7 17 15 18 8 19 3 21 2 22 1 23
REMARK SMILES IDX 9 24 10 25 14 26 11 27 13 28 12 29 27 30 28 31 29 32 30 33
REMARK SMILES IDX 31 34 32 35 33 36 34 37 80 38 35 39 79 40 36 41 37 42 38 43
REMARK SMILES IDX 73 44 39 45 78 46 72 47 74 48 40 49 77 50 71 51 70 52 41 54
REMARK SMILES IDX 63 55 48 56 62 57 49 58 52 59 61 60 75 61 50 62 51 63 60 65
REMARK SMILES IDX 76 66 53 67 42 68 43 69 47 70 44 71 46 72 45 73 64 74 65 75
REMARK SMILES IDX 69 76 66 77 68 78 67 79 54 80 55 81 59 82 56 83 58 84 57 85
REMARK H PARENT 17 20 74 53 52 64
REMARK Flexibility Score: inf
ROOT
ATOM      1  C   UNL A   1      42.955  19.108  25.541  1.00  0.00     0.202 C 
ENDROOT
BRANCH   1   2
ATOM      2  C   UNL A   1      41.971  19.627  26.592  1.00  0.00     0.261 C 
BRANCH   2   3
ATOM      3  O   UNL A   1      41.395  20.877  26.179  1.00  0.00    -0.460 OA
BRANCH   3   4
ATOM      4  C   UNL A   1      40.526  21.422  27.062  1.00  0.00     0.338 C 
ATOM      5  O   UNL A   1      40.681  21.520  28.270  1.00  0.00    -0.246 OA
BRANCH   4   6
ATOM      6  C   UNL A   1      39.366  22.016  26.356  1.00  0.00     0.060 A 
ATOM      7  C   UNL A   1      37.073  23.199  25.276  1.00  0.00     0.125 A 
ATOM      8  C   UNL A   1      37.906  23.933  26.121  1.00  0.00     0.052 A 
ATOM      9  C   UNL A   1      37.461  21.914  24.871  1.00  0.00     0.052 A 
ATOM     10  C   UNL A   1      39.045  23.343  26.665  1.00  0.00     0.020 A 
ATOM     11  C   UNL A   1      38.596  21.312  25.423  1.00  0.00     0.020 A 
BRANCH   7  12
ATOM     12  N   UNL A   1      35.826  23.742  24.935  1.00  0.00    -0.234 N 
ATOM     13  N   UNL A   1      33.514  23.390  24.705  1.00  0.00    -0.182 N 
ATOM     14  C   UNL A   1      32.538  22.420  24.585  1.00  0.00     0.349 C 
ATOM     15  C   UNL A   1      34.793  22.959  24.937  1.00  0.00     0.324 C 
ATOM     16  O   UNL A   1      31.352  22.607  24.356  1.00  0.00    -0.240 OA
ATOM     17  C   UNL A   1      33.134  21.072  24.798  1.00  0.00     0.111 C 
ATOM     18  S   UNL A   1      34.783  21.231  25.237  1.00  0.00     0.007 SA
ATOM     19  C   UNL A   1      32.450  19.934  24.622  1.00  0.00     0.052 C 
ATOM     20  H   UNL A   1      35.737  24.695  24.700  1.00  0.00     0.313 HD
BRANCH  13  21
ATOM     21  C   UNL A   1      33.170  24.797  24.642  1.00  0.00     0.275 C 
BRANCH  21  22
ATOM     22  C   UNL A   1      32.867  25.269  26.041  1.00  0.00     0.011 C 
ATOM     23  C   UNL A   1      32.061  26.296  26.344  1.00  0.00     0.008 C 
ENDBRANCH  21  22
ENDBRANCH  13  21
BRANCH  19  24
ATOM     24  C   UNL A   1      32.992  18.585  24.802  1.00  0.00     0.064 A 
ATOM     25  C   UNL A   1      34.205  18.196  24.240  1.00  0.00     0.028 A 
ATOM     26  N   UNL A   1      32.244  17.764  25.571  1.00  0.00    -0.257 NA
ATOM     27  C   UNL A   1      34.653  16.894  24.445  1.00  0.00     0.004 A 
ATOM     28  C   UNL A   1      32.703  16.505  25.752  1.00  0.00     0.111 A 
ATOM     29  C   UNL A   1      33.886  16.027  25.213  1.00  0.00     0.020 A 
ENDBRANCH  19  24
ENDBRANCH   7  12
ENDBRANCH   4   6
ENDBRANCH   3   4
ENDBRANCH   2   3
ENDBRANCH   1   2
BRANCH   1  30
ATOM     30  O   UNL A   1      43.630  20.102  24.771  1.00  0.00    -0.374 OA
BRANCH  30  31
ATOM     31  C   UNL A   1      45.049  20.187  24.915  1.00  0.00     0.202 C 
BRANCH  31  32
ATOM     32  C   UNL A   1      45.619  21.587  25.171  1.00  0.00     0.261 C 
BRANCH  32  33
ATOM     33  O   UNL A   1      44.635  22.466  25.748  1.00  0.00    -0.460 OA
BRANCH  33  34
ATOM     34  C   UNL A   1      44.681  23.742  25.305  1.00  0.00     0.338 C 
ATOM     35  O   UNL A   1      45.187  24.152  24.269  1.00  0.00    -0.246 OA
BRANCH  34  36
ATOM     36  C   UNL A   1      43.861  24.607  26.174  1.00  0.00     0.060 A 
ATOM     37  C   UNL A   1      44.237  25.952  26.287  1.00  0.00     0.016 A 
ATOM     38  C   UNL A   1      42.791  24.105  26.917  1.00  0.00     0.016 A 
ATOM     39  C   UNL A   1      43.577  26.789  27.183  1.00  0.00     0.010 A 
ATOM     40  C   UNL A   1      42.135  24.945  27.823  1.00  0.00     0.010 A 
ATOM     41  C   UNL A   1      42.548  26.280  27.986  1.00  0.00    -0.014 A 
BRANCH  41  42
ATOM     42  C   UNL A   1      42.010  27.103  29.095  1.00  0.00     0.031 A 
ATOM     43  C   UNL A   1      42.725  27.102  30.418  1.00  0.00     0.074 A 
ATOM     44  C   UNL A   1      40.921  27.871  28.918  1.00  0.00     0.049 A 
ATOM     45  N   UNL A   1      42.421  27.730  31.525  1.00  0.00    -0.248 NA
ATOM     46  C   UNL A   1      43.949  26.287  30.503  1.00  0.00     0.031 C 
ATOM     47  C   UNL A   1      40.169  28.001  27.671  1.00  0.00     0.029 A 
ATOM     48  N   UNL A   1      40.260  28.690  29.799  1.00  0.00    -0.354 N 
ATOM     49  C   UNL A   1      43.413  27.388  32.436  1.00  0.00     0.074 A 
ATOM     50  C   UNL A   1      44.309  26.471  31.764  1.00  0.00     0.031 C 
ATOM     51  C   UNL A   1      39.145  28.851  27.868  1.00  0.00     0.029 A 
ATOM     52  C   UNL A   1      39.152  29.296  29.261  1.00  0.00     0.049 A 
ATOM     53  H   UNL A   1      40.552  28.829  30.728  1.00  0.00     0.167 HD
ATOM     54  C   UNL A   1      43.570  27.803  33.715  1.00  0.00     0.031 A 
ATOM     55  C   UNL A   1      38.238  30.103  29.831  1.00  0.00     0.031 A 
ATOM     56  C   UNL A   1      42.672  28.698  34.394  1.00  0.00     0.049 A 
ATOM     57  C   UNL A   1      38.382  30.473  31.284  1.00  0.00     0.074 A 
ATOM     58  C   UNL A   1      42.745  29.174  35.691  1.00  0.00     0.029 A 
ATOM     59  N   UNL A   1      41.533  29.247  33.829  1.00  0.00    -0.354 N 
ATOM     60  N   UNL A   1      39.330  30.152  32.130  1.00  0.00    -0.248 NA
ATOM     61  C   UNL A   1      37.327  31.324  31.857  1.00  0.00     0.031 C 
ATOM     62  C   UNL A   1      41.621  29.973  35.927  1.00  0.00     0.029 A 
ATOM     63  C   UNL A   1      40.880  30.040  34.758  1.00  0.00     0.049 A 
ATOM     64  H   UNL A   1      41.231  29.096  32.904  1.00  0.00     0.167 HD
ATOM     65  C   UNL A   1      39.003  30.785  33.324  1.00  0.00     0.074 A 
ATOM     66  C   UNL A   1      37.776  31.518  33.088  1.00  0.00     0.031 C 
ATOM     67  C   UNL A   1      39.662  30.765  34.508  1.00  0.00     0.031 A 
BRANCH  54  68
ATOM     68  C   UNL A   1      44.750  27.265  34.474  1.00  0.00    -0.014 A 
ATOM     69  C   UNL A   1      45.994  27.915  34.439  1.00  0.00     0.009 A 
ATOM     70  C   UNL A   1      44.608  26.110  35.259  1.00  0.00     0.009 A 
ATOM     71  C   UNL A   1      47.081  27.400  35.149  1.00  0.00     0.001 A 
ATOM     72  C   UNL A   1      45.688  25.613  35.989  1.00  0.00     0.001 A 
ATOM     73  C   UNL A   1      46.926  26.253  35.927  1.00  0.00     0.000 A 
ENDBRANCH  54  68
BRANCH  55  74
ATOM     74  C   UNL A   1      37.088  30.610  29.039  1.00  0.00    -0.014 A 
ATOM     75  C   UNL A   1      36.994  31.968  28.700  1.00  0.00     0.009 A 
ATOM     76  C   UNL A   1      36.058  29.739  28.646  1.00  0.00     0.009 A 
ATOM     77  C   UNL A   1      35.880  32.450  28.009  1.00  0.00     0.001 A 
ATOM     78  C   UNL A   1      34.959  30.220  27.931  1.00  0.00     0.001 A 
ATOM     79  C   UNL A   1      34.865  31.575  27.622  1.00  0.00     0.000 A 
ENDBRANCH  55  74
BRANCH  67  80
ATOM     80  C   UNL A   1      39.093  31.591  35.628  1.00  0.00    -0.014 A 
ATOM     81  C   UNL A   1      39.434  32.943  35.782  1.00  0.00     0.009 A 
ATOM     82  C   UNL A   1      38.173  31.014  36.516  1.00  0.00     0.009 A 
ATOM     83  C   UNL A   1      38.887  33.693  36.826  1.00  0.00     0.001 A 
ATOM     84  C   UNL A   1      37.607  31.773  37.542  1.00  0.00     0.001 A 
ATOM     85  C   UNL A   1      37.971  33.109  37.702  1.00  0.00     0.000 A 
ENDBRANCH  67  80
ENDBRANCH  41  42
ENDBRANCH  34  36
ENDBRANCH  33  34
ENDBRANCH  32  33
ENDBRANCH  31  32
ENDBRANCH  30  31
ENDBRANCH   1  30
TORSDOF 18
ENDMDL
MODEL 2
REMARK VINA RESULT:     -11.2      0.919      5.747
REMARK SMILES C=CCN1C(=O)/C(=C/c2ccccn2)S/C1=[NH+]\c1ccc(C(=O)OCCOCCOC(=O)c2ccc(-c3c4nc(c(-c5ccccc5)c5ccc([nH]5)c(-c5ccccc5)c5nc(c(-c6ccccc6)c6ccc3[nH]6)C=C5)C=C4)cc2)cc1
REMARK SMILES IDX 26 1 25 2 24 3 22 4 23 5 21 6 18 7 19 8 82 9 20 10 81 11
REMARK SMILES IDX 17 12 4 13 5 14 16 15 6 16 7 17 15 18 8 19 3 21 2 22 1 23
REMARK SMILES IDX 9 24 10 25 14 26 11 27 13 28 12 29 27 30 28 31 29 32 30 33
REMARK SMILES IDX 31 34 32 35 33 36 34 37 80 38 35 39 79 40 36 41 37 42 38 43
REMARK SMILES IDX 73 44 39 45 78 46 72 47 74 48 40 49 77 50 71 51 70 52 41 54
REMARK SMILES IDX 63 55 48 56 62 57 49 58 52 59 61 60 75 61 50 62 51 63 60 65
REMARK SMILES IDX 76 66 53 67 42 68 43 69 47 70 44 71 46 72 45 73 64 74 65 75
REMARK SMILES IDX 69 76 66 77 68 78 67 79 54 80 55 81 59 82 56 83 58 84 57 85
REMARK H PARENT 17 20 74 53 52 64
REMARK Flexibility Score: inf
ROOT
ATOM      1  C   UNL A   1      43.894  20.357  25.059  1.00  0.00     0.202 C 
ENDROOT
BRANCH   1   2
ATOM      2  C   UNL A   1      43.092  20.981  26.203  1.00  0.00     0.261 C 
BRANCH   2   3
ATOM      3  O   UNL A   1      41.783  21.371  25.758  1.00  0.00    -0.460 OA
BRANCH   3   4
ATOM      4  C   UNL A   1      40.762  20.891  26.505  1.00  0.00     0.338 C 
ATOM      5  O   UNL A   1      40.843  20.076  27.412  1.00  0.00    -0.246 OA
BRANCH   4   6
ATOM      6  C   UNL A   1      39.494  21.579  26.163  1.00  0.00     0.060 A 
ATOM      7  C   UNL A   1      37.164  22.827  25.251  1.00  0.00     0.125 A 
ATOM      8  C   UNL A   1      37.415  21.493  24.927  1.00  0.00     0.052 A 
ATOM      9  C   UNL A   1      38.018  23.494  26.139  1.00  0.00     0.052 A 
ATOM     10  C   UNL A   1      38.578  20.872  25.376  1.00  0.00     0.020 A 
ATOM     11  C   UNL A   1      39.195  22.881  26.582  1.00  0.00     0.020 A 
BRANCH   7  12
ATOM     12  N   UNL A   1      36.110  23.483  24.597  1.00  0.00    -0.234 N 
ATOM     13  N   UNL A   1      33.881  23.391  23.858  1.00  0.00    -0.182 N 
ATOM     14  C   UNL A   1      32.832  22.538  23.576  1.00  0.00     0.349 C 
ATOM     15  C   UNL A   1      35.005  22.833  24.408  1.00  0.00     0.324 C 
ATOM     16  O   UNL A   1      31.763  22.844  23.067  1.00  0.00    -0.240 OA
ATOM     17  C   UNL A   1      33.173  21.154  24.005  1.00  0.00     0.111 C 
ATOM     18  S   UNL A   1      34.690  21.153  24.803  1.00  0.00     0.007 SA
ATOM     19  C   UNL A   1      32.396  20.095  23.746  1.00  0.00     0.052 C 
ATOM     20  H   UNL A   1      36.208  24.413  24.289  1.00  0.00     0.313 HD
BRANCH  13  21
ATOM     21  C   UNL A   1      33.757  24.817  23.631  1.00  0.00     0.275 C 
BRANCH  21  22
ATOM     22  C   UNL A   1      33.141  25.437  24.859  1.00  0.00     0.011 C 
ATOM     23  C   UNL A   1      33.084  24.852  26.063  1.00  0.00     0.008 C 
ENDBRANCH  21  22
ENDBRANCH  13  21
BRANCH  19  24
ATOM     24  C   UNL A   1      32.692  18.713  24.129  1.00  0.00     0.064 A 
ATOM     25  C   UNL A   1      33.390  17.848  23.290  1.00  0.00     0.028 A 
ATOM     26  N   UNL A   1      32.266  18.355  25.360  1.00  0.00    -0.257 NA
ATOM     27  C   UNL A   1      33.627  16.545  23.718  1.00  0.00     0.004 A 
ATOM     28  C   UNL A   1      32.509  17.083  25.749  1.00  0.00     0.111 A 
ATOM     29  C   UNL A   1      33.175  16.150  24.970  1.00  0.00     0.020 A 
ENDBRANCH  19  24
ENDBRANCH   7  12
ENDBRANCH   4   6
ENDBRANCH   3   4
ENDBRANCH   2   3
ENDBRANCH   1   2
BRANCH   1  30
ATOM     30  O   UNL A   1      44.781  21.236  24.367  1.00  0.00    -0.374 OA
BRANCH  30  31
ATOM     31  C   UNL A   1      45.890  21.755  25.102  1.00  0.00     0.202 C 
BRANCH  31  32
ATOM     32  C   UNL A   1      46.038  23.281  25.112  1.00  0.00     0.261 C 
BRANCH  32  33
ATOM     33  O   UNL A   1      45.109  23.900  26.022  1.00  0.00    -0.460 OA
BRANCH  33  34
ATOM     34  C   UNL A   1      43.999  24.412  25.442  1.00  0.00     0.338 C 
ATOM     35  O   UNL A   1      43.542  24.139  24.341  1.00  0.00    -0.246 OA
BRANCH  34  36
ATOM     36  C   UNL A   1      43.271  25.256  26.408  1.00  0.00     0.060 A 
ATOM     37  C   UNL A   1      43.687  26.586  26.547  1.00  0.00     0.016 A 
ATOM     38  C   UNL A   1      42.249  24.745  27.211  1.00  0.00     0.016 A 
ATOM     39  C   UNL A   1      43.119  27.397  27.526  1.00  0.00     0.010 A 
ATOM     40  C   UNL A   1      41.686  25.558  28.201  1.00  0.00     0.010 A 
ATOM     41  C   UNL A   1      42.143  26.876  28.386  1.00  0.00    -0.014 A 
BRANCH  41  42
ATOM     42  C   UNL A   1      41.713  27.661  29.566  1.00  0.00     0.031 A 
ATOM     43  C   UNL A   1      40.509  28.555  29.449  1.00  0.00     0.074 A 
ATOM     44  C   UNL A   1      42.360  27.554  30.740  1.00  0.00     0.049 A 
ATOM     45  N   UNL A   1      39.970  29.342  30.345  1.00  0.00    -0.248 NA
ATOM     46  C   UNL A   1      39.818  28.559  28.149  1.00  0.00     0.031 C 
ATOM     47  C   UNL A   1      43.507  26.684  30.999  1.00  0.00     0.029 A 
ATOM     48  N   UNL A   1      42.138  28.187  31.937  1.00  0.00    -0.354 N 
ATOM     49  C   UNL A   1      38.880  29.933  29.719  1.00  0.00     0.074 A 
ATOM     50  C   UNL A   1      38.852  29.441  28.358  1.00  0.00     0.031 C 
ATOM     51  C   UNL A   1      43.890  26.841  32.279  1.00  0.00     0.029 A 
ATOM     52  C   UNL A   1      43.038  27.844  32.915  1.00  0.00     0.049 A 
ATOM     53  H   UNL A   1      41.405  28.826  32.080  1.00  0.00     0.167 HD
ATOM     54  C   UNL A   1      37.976  30.803  30.230  1.00  0.00     0.031 A 
ATOM     55  C   UNL A   1      43.170  28.300  34.175  1.00  0.00     0.031 A 
ATOM     56  C   UNL A   1      38.010  31.310  31.576  1.00  0.00     0.049 A 
ATOM     57  C   UNL A   1      42.211  29.340  34.690  1.00  0.00     0.074 A 
ATOM     58  C   UNL A   1      37.140  32.198  32.185  1.00  0.00     0.029 A 
ATOM     59  N   UNL A   1      38.969  30.977  32.518  1.00  0.00    -0.354 N 
ATOM     60  N   UNL A   1      41.178  29.882  34.092  1.00  0.00    -0.248 NA
ATOM     61  C   UNL A   1      42.436  29.826  36.060  1.00  0.00     0.031 C 
ATOM     62  C   UNL A   1      37.603  32.440  33.483  1.00  0.00     0.029 A 
ATOM     63  C   UNL A   1      38.727  31.660  33.699  1.00  0.00     0.049 A 
ATOM     64  H   UNL A   1      39.713  30.349  32.371  1.00  0.00     0.167 HD
ATOM     65  C   UNL A   1      40.613  30.747  35.021  1.00  0.00     0.074 A 
ATOM     66  C   UNL A   1      41.410  30.649  36.226  1.00  0.00     0.031 C 
ATOM     67  C   UNL A   1      39.528  31.549  34.890  1.00  0.00     0.031 A 
BRANCH  54  68
ATOM     68  C   UNL A   1      36.886  31.282  29.314  1.00  0.00    -0.014 A 
ATOM     69  C   UNL A   1      35.821  30.443  28.951  1.00  0.00     0.009 A 
ATOM     70  C   UNL A   1      36.909  32.600  28.832  1.00  0.00     0.009 A 
ATOM     71  C   UNL A   1      34.817  30.906  28.097  1.00  0.00     0.001 A 
ATOM     72  C   UNL A   1      35.891  33.068  28.000  1.00  0.00     0.001 A 
ATOM     73  C   UNL A   1      34.850  32.218  27.626  1.00  0.00     0.000 A 
ENDBRANCH  54  68
BRANCH  55  74
ATOM     74  C   UNL A   1      44.265  27.794  35.044  1.00  0.00    -0.014 A 
ATOM     75  C   UNL A   1      45.516  28.428  35.060  1.00  0.00     0.009 A 
ATOM     76  C   UNL A   1      44.073  26.650  35.836  1.00  0.00     0.009 A 
ATOM     77  C   UNL A   1      46.562  27.912  35.830  1.00  0.00     0.001 A 
ATOM     78  C   UNL A   1      45.111  26.153  36.626  1.00  0.00     0.001 A 
ATOM     79  C   UNL A   1      46.357  26.777  36.615  1.00  0.00     0.000 A 
ENDBRANCH  55  74
BRANCH  67  80
ATOM     80  C   UNL A   1      39.115  32.352  36.091  1.00  0.00    -0.014 A 
ATOM     81  C   UNL A   1      39.630  33.637  36.323  1.00  0.00     0.009 A 
ATOM     82  C   UNL A   1      38.165  31.828  36.982  1.00  0.00     0.009 A 
ATOM     83  C   UNL A   1      39.225  34.367  37.443  1.00  0.00     0.001 A 
ATOM     84  C   UNL A   1      37.742  32.571  38.084  1.00  0.00     0.001 A 
ATOM     85  C   UNL A   1      38.278  33.835  38.320  1.00  0.00     0.000 A 
ENDBRANCH  67  80
ENDBRANCH  41  42
ENDBRANCH  34  36
ENDBRANCH  33  34
ENDBRANCH  32  33
ENDBRANCH  31  32
ENDBRANCH  30  31
ENDBRANCH   1  30
TORSDOF 18
ENDMDL
MODEL 3
REMARK VINA RESULT:     -10.4      5.253     10.961
REMARK SMILES C=CCN1C(=O)/C(=C/c2ccccn2)S/C1=[NH+]\c1ccc(C(=O)OCCOCCOC(=O)c2ccc(-c3c4nc(c(-c5ccccc5)c5ccc([nH]5)c(-c5ccccc5)c5nc(c(-c6ccccc6)c6ccc3[nH]6)C=C5)C=C4)cc2)cc1
REMARK SMILES IDX 26 1 25 2 24 3 22 4 23 5 21 6 18 7 19 8 82 9 20 10 81 11
REMARK SMILES IDX 17 12 4 13 5 14 16 15 6 16 7 17 15 18 8 19 3 21 2 22 1 23
REMARK SMILES IDX 9 24 10 25 14 26 11 27 13 28 12 29 27 30 28 31 29 32 30 33
REMARK SMILES IDX 31 34 32 35 33 36 34 37 80 38 35 39 79 40 36 41 37 42 38 43
REMARK SMILES IDX 73 44 39 45 78 46 72 47 74 48 40 49 77 50 71 51 70 52 41 54
REMARK SMILES IDX 63 55 48 56 62 57 49 58 52 59 61 60 75 61 50 62 51 63 60 65
REMARK SMILES IDX 76 66 53 67 42 68 43 69 47 70 44 71 46 72 45 73 64 74 65 75
REMARK SMILES IDX 69 76 66 77 68 78 67 79 54 80 55 81 59 82 56 83 58 84 57 85
REMARK H PARENT 17 20 74 53 52 64
REMARK Flexibility Score: inf
ROOT
ATOM      1  C   UNL A   1      37.100  33.196  30.006  1.00  0.00     0.202 C 
ENDROOT
BRANCH   1   2
ATOM      2  C   UNL A   1      36.376  34.212  29.119  1.00  0.00     0.261 C 
BRANCH   2   3
ATOM      3  O   UNL A   1      35.651  33.550  28.070  1.00  0.00    -0.460 OA
BRANCH   3   4
ATOM      4  C   UNL A   1      34.419  33.111  28.420  1.00  0.00     0.338 C 
ATOM      5  O   UNL A   1      33.580  33.728  29.060  1.00  0.00    -0.246 OA
BRANCH   4   6
ATOM      6  C   UNL A   1      34.145  31.785  27.815  1.00  0.00     0.060 A 
ATOM      7  C   UNL A   1      33.425  29.256  26.863  1.00  0.00     0.125 A 
ATOM      8  C   UNL A   1      32.479  30.280  26.911  1.00  0.00     0.052 A 
ATOM      9  C   UNL A   1      34.763  29.539  27.171  1.00  0.00     0.052 A 
ATOM     10  C   UNL A   1      32.834  31.538  27.391  1.00  0.00     0.020 A 
ATOM     11  C   UNL A   1      35.124  30.796  27.666  1.00  0.00     0.020 A 
BRANCH   7  12
ATOM     12  N   UNL A   1      32.982  27.952  26.597  1.00  0.00    -0.234 N 
ATOM     13  N   UNL A   1      31.685  26.546  25.231  1.00  0.00    -0.182 N 
ATOM     14  C   UNL A   1      30.661  26.524  24.306  1.00  0.00     0.349 C 
ATOM     15  C   UNL A   1      32.127  27.778  25.639  1.00  0.00     0.324 C 
ATOM     16  O   UNL A   1      30.122  25.529  23.843  1.00  0.00    -0.240 OA
ATOM     17  C   UNL A   1      30.297  27.914  23.916  1.00  0.00     0.111 C 
ATOM     18  S   UNL A   1      31.368  29.024  24.665  1.00  0.00     0.007 SA
ATOM     19  C   UNL A   1      29.255  28.204  23.127  1.00  0.00     0.052 C 
ATOM     20  H   UNL A   1      33.311  27.189  27.126  1.00  0.00     0.313 HD
BRANCH  13  21
ATOM     21  C   UNL A   1      32.292  25.314  25.694  1.00  0.00     0.275 C 
BRANCH  21  22
ATOM     22  C   UNL A   1      33.300  24.871  24.664  1.00  0.00     0.011 C 
ATOM     23  C   UNL A   1      34.136  25.691  24.011  1.00  0.00     0.008 C 
ENDBRANCH  21  22
ENDBRANCH  13  21
BRANCH  19  24
ATOM     24  C   UNL A   1      28.845  29.552  22.728  1.00  0.00     0.064 A 
ATOM     25  C   UNL A   1      28.013  30.337  23.524  1.00  0.00     0.028 A 
ATOM     26  N   UNL A   1      29.353  29.982  21.553  1.00  0.00    -0.257 NA
ATOM     27  C   UNL A   1      27.657  31.605  23.075  1.00  0.00     0.004 A 
ATOM     28  C   UNL A   1      28.989  31.218  21.141  1.00  0.00     0.111 A 
ATOM     29  C   UNL A   1      28.150  32.056  21.857  1.00  0.00     0.020 A 
ENDBRANCH  19  24
ENDBRANCH   7  12
ENDBRANCH   4   6
ENDBRANCH   3   4
ENDBRANCH   2   3
ENDBRANCH   1   2
BRANCH   1  30
ATOM     30  O   UNL A   1      37.371  33.614  31.343  1.00  0.00    -0.374 OA
BRANCH  30  31
ATOM     31  C   UNL A   1      36.449  33.203  32.354  1.00  0.00     0.202 C 
BRANCH  31  32
ATOM     32  C   UNL A   1      35.783  31.838  32.146  1.00  0.00     0.261 C 
BRANCH  32  33
ATOM     33  O   UNL A   1      36.715  30.756  32.339  1.00  0.00    -0.460 OA
BRANCH  33  34
ATOM     34  C   UNL A   1      36.816  29.899  31.299  1.00  0.00     0.338 C 
ATOM     35  O   UNL A   1      35.905  29.328  30.714  1.00  0.00    -0.246 OA
BRANCH  34  36
ATOM     36  C   UNL A   1      38.208  29.859  30.813  1.00  0.00     0.060 A 
ATOM     37  C   UNL A   1      38.413  29.967  29.431  1.00  0.00     0.016 A 
ATOM     38  C   UNL A   1      39.286  29.652  31.675  1.00  0.00     0.016 A 
ATOM     39  C   UNL A   1      39.692  29.816  28.901  1.00  0.00     0.010 A 
ATOM     40  C   UNL A   1      40.568  29.491  31.140  1.00  0.00     0.010 A 
ATOM     41  C   UNL A   1      40.771  29.537  29.749  1.00  0.00    -0.014 A 
BRANCH  41  42
ATOM     42  C   UNL A   1      42.077  29.148  29.167  1.00  0.00     0.031 A 
ATOM     43  C   UNL A   1      42.272  27.735  28.691  1.00  0.00     0.074 A 
ATOM     44  C   UNL A   1      43.066  30.048  29.029  1.00  0.00     0.049 A 
ATOM     45  N   UNL A   1      43.334  27.174  28.169  1.00  0.00    -0.248 NA
ATOM     46  C   UNL A   1      41.114  26.834  28.816  1.00  0.00     0.031 C 
ATOM     47  C   UNL A   1      42.987  31.459  29.401  1.00  0.00     0.029 A 
ATOM     48  N   UNL A   1      44.338  29.900  28.533  1.00  0.00    -0.354 N 
ATOM     49  C   UNL A   1      42.973  25.859  27.905  1.00  0.00     0.074 A 
ATOM     50  C   UNL A   1      41.607  25.694  28.353  1.00  0.00     0.031 C 
ATOM     51  C   UNL A   1      44.163  32.050  29.121  1.00  0.00     0.029 A 
ATOM     52  C   UNL A   1      45.084  31.051  28.583  1.00  0.00     0.049 A 
ATOM     53  H   UNL A   1      44.681  29.050  28.176  1.00  0.00     0.167 HD
ATOM     54  C   UNL A   1      43.708  24.876  27.333  1.00  0.00     0.031 A 
ATOM     55  C   UNL A   1      46.370  31.270  28.249  1.00  0.00     0.031 A 
ATOM     56  C   UNL A   1      45.072  25.028  26.903  1.00  0.00     0.049 A 
ATOM     57  C   UNL A   1      47.196  30.134  27.705  1.00  0.00     0.074 A 
ATOM     58  C   UNL A   1      45.902  24.089  26.317  1.00  0.00     0.029 A 
ATOM     59  N   UNL A   1      45.808  26.196  27.021  1.00  0.00    -0.354 N 
ATOM     60  N   UNL A   1      46.840  28.899  27.449  1.00  0.00    -0.248 NA
ATOM     61  C   UNL A   1      48.605  30.429  27.399  1.00  0.00     0.031 C 
ATOM     62  C   UNL A   1      47.157  24.675  26.124  1.00  0.00     0.029 A 
ATOM     63  C   UNL A   1      47.091  25.995  26.539  1.00  0.00     0.049 A 
ATOM     64  H   UNL A   1      45.470  27.042  27.393  1.00  0.00     0.167 HD
ATOM     65  C   UNL A   1      47.968  28.280  26.924  1.00  0.00     0.074 A 
ATOM     66  C   UNL A   1      49.017  29.278  26.888  1.00  0.00     0.031 C 
ATOM     67  C   UNL A   1      48.122  27.000  26.507  1.00  0.00     0.031 A 
BRANCH  54  68
ATOM     68  C   UNL A   1      43.052  23.534  27.166  1.00  0.00    -0.014 A 
ATOM     69  C   UNL A   1      42.918  22.651  28.248  1.00  0.00     0.009 A 
ATOM     70  C   UNL A   1      42.535  23.162  25.915  1.00  0.00     0.009 A 
ATOM     71  C   UNL A   1      42.306  21.407  28.073  1.00  0.00     0.001 A 
ATOM     72  C   UNL A   1      41.901  21.930  25.750  1.00  0.00     0.001 A 
ATOM     73  C   UNL A   1      41.795  21.050  26.826  1.00  0.00     0.000 A 
ENDBRANCH  54  68
BRANCH  55  74
ATOM     74  C   UNL A   1      46.973  32.615  28.433  1.00  0.00    -0.014 A 
ATOM     75  C   UNL A   1      47.592  32.962  29.643  1.00  0.00     0.009 A 
ATOM     76  C   UNL A   1      46.901  33.572  27.407  1.00  0.00     0.009 A 
ATOM     77  C   UNL A   1      48.102  34.250  29.833  1.00  0.00     0.001 A 
ATOM     78  C   UNL A   1      47.436  34.849  27.591  1.00  0.00     0.001 A 
ATOM     79  C   UNL A   1      48.026  35.190  28.805  1.00  0.00     0.000 A 
ENDBRANCH  55  74
BRANCH  67  80
ATOM     80  C   UNL A   1      49.458  26.616  25.935  1.00  0.00    -0.014 A 
ATOM     81  C   UNL A   1      49.828  26.986  24.634  1.00  0.00     0.009 A 
ATOM     82  C   UNL A   1      50.373  25.907  26.729  1.00  0.00     0.009 A 
ATOM     83  C   UNL A   1      51.079  26.624  24.127  1.00  0.00     0.001 A 
ATOM     84  C   UNL A   1      51.632  25.571  26.230  1.00  0.00     0.001 A 
ATOM     85  C   UNL A   1      51.981  25.921  24.927  1.00  0.00     0.000 A 
ENDBRANCH  67  80
ENDBRANCH  41  42
ENDBRANCH  34  36
ENDBRANCH  33  34
ENDBRANCH  32  33
ENDBRANCH  31  32
ENDBRANCH  30  31
ENDBRANCH   1  30
TORSDOF 18
ENDMDL
