MODEL 1
REMARK VINA RESULT:     -10.4      0.000      0.000
REMARK SMILES CCN(CCC(=O)OCCOCCOC(=O)c1ccc(-c2c3nc(c(-c4ccccc4)c4ccc([nH]4)c(-c4ccccc4)c4nc(c(-c5ccccc5)c5ccc2[nH]5)C=C4)C=C3)cc1)C(=O)c1cc(Cl)ccc1F
REMARK SMILES IDX 10 1 9 2 8 3 6 4 7 5 5 6 4 7 3 8 2 9 1 10 65 11 66 12 67 13
REMARK SMILES IDX 68 14 73 15 69 16 72 17 74 18 70 19 71 20 11 21 12 22 13 23
REMARK SMILES IDX 14 24 15 25 16 26 17 27 18 28 64 29 19 30 63 31 20 32 21 33
REMARK SMILES IDX 22 34 57 35 23 36 62 37 56 38 58 39 24 40 61 41 55 42 54 43
REMARK SMILES IDX 25 45 47 46 32 47 46 48 33 49 36 50 45 51 59 52 34 53 35 54
REMARK SMILES IDX 44 56 60 57 37 58 26 59 27 60 31 61 28 62 30 63 29 64 48 65
REMARK SMILES IDX 49 66 53 67 50 68 52 69 51 70 38 71 39 72 43 73 40 74 42 75
REMARK SMILES IDX 41 76
REMARK H PARENT 58 44 36 55
REMARK Flexibility Score: inf
ROOT
ATOM      1  C   UNL A   1      41.250  20.305  26.716  1.00  0.00     0.202 C 
ENDROOT
BRANCH   1   2
ATOM      2  C   UNL A   1      40.041  21.498  26.800  1.00  0.00     0.261 C 
BRANCH   2   3
ATOM      3  O   UNL A   1      39.159  21.521  25.651  1.00  0.00    -0.463 OA
BRANCH   3   4
ATOM      4  C   UNL A   1      37.979  22.172  25.509  1.00  0.00     0.307 C 
ATOM      5  O   UNL A   1      37.709  23.078  26.298  1.00  0.00    -0.252 OA
BRANCH   4   6
ATOM      6  C   UNL A   1      36.975  21.772  24.441  1.00  0.00     0.144 C 
BRANCH   6   7
ATOM      7  C   UNL A   1      35.612  22.472  24.330  1.00  0.00     0.131 C 
BRANCH   7   8
ATOM      8  N   UNL A   1      34.653  22.067  25.358  1.00  0.00    -0.338 N 
BRANCH   8   9
ATOM      9  C   UNL A   1      34.206  20.666  25.336  1.00  0.00     0.116 C 
ATOM     10  C   UNL A   1      32.806  20.497  24.752  1.00  0.00     0.027 C 
ENDBRANCH   8   9
BRANCH   8  11
ATOM     11  C   UNL A   1      34.061  22.885  26.308  1.00  0.00     0.256 C 
ATOM     12  O   UNL A   1      34.264  22.701  27.511  1.00  0.00    -0.269 OA
BRANCH  11  13
ATOM     13  C   UNL A   1      33.084  23.947  26.001  1.00  0.00     0.077 A 
ATOM     14  C   UNL A   1      33.899  25.537  25.668  1.00  0.00     0.037 A 
ATOM     15  C   UNL A   1      31.254  23.890  25.996  1.00  0.00     0.136 A 
ATOM     16  C   UNL A   1      32.910  26.985  25.270  1.00  0.00     0.042 A 
ATOM     17  C   UNL A   1      30.285  25.365  25.620  1.00  0.00     0.041 A 
ATOM     18  F   UNL A   1      30.536  22.769  26.075  1.00  0.00    -0.206 F 
ATOM     19  Cl  UNL A   1      33.665  28.496  24.962  1.00  0.00    -0.084 Cl
ATOM     20  C   UNL A   1      31.129  26.903  25.245  1.00  0.00     0.023 A 
ENDBRANCH  11  13
ENDBRANCH   8  11
ENDBRANCH   7   8
ENDBRANCH   6   7
ENDBRANCH   4   6
ENDBRANCH   3   4
ENDBRANCH   2   3
ENDBRANCH   1   2
BRANCH   1  21
ATOM     21  O   UNL A   1      42.744  20.041  25.409  1.00  0.00    -0.374 OA
BRANCH  21  22
ATOM     22  C   UNL A   1      44.273  19.923  25.142  1.00  0.00     0.202 C 
BRANCH  22  23
ATOM     23  C   UNL A   1      45.010  21.252  24.847  1.00  0.00     0.261 C 
BRANCH  23  24
ATOM     24  O   UNL A   1      44.702  22.302  25.760  1.00  0.00    -0.460 OA
BRANCH  24  25
ATOM     25  C   UNL A   1      43.798  23.200  25.292  1.00  0.00     0.338 C 
ATOM     26  O   UNL A   1      43.213  23.177  24.231  1.00  0.00    -0.246 OA
BRANCH  25  27
ATOM     27  C   UNL A   1      43.472  24.150  26.374  1.00  0.00     0.060 A 
ATOM     28  C   UNL A   1      42.711  23.657  27.439  1.00  0.00     0.016 A 
ATOM     29  C   UNL A   1      43.936  25.467  26.382  1.00  0.00     0.016 A 
ATOM     30  C   UNL A   1      42.436  24.470  28.535  1.00  0.00     0.010 A 
ATOM     31  C   UNL A   1      43.620  26.300  27.460  1.00  0.00     0.010 A 
ATOM     32  C   UNL A   1      42.858  25.808  28.534  1.00  0.00    -0.014 A 
BRANCH  32  33
ATOM     33  C   UNL A   1      42.245  26.741  29.507  1.00  0.00     0.031 A 
ATOM     34  C   UNL A   1      42.922  26.869  30.844  1.00  0.00     0.074 A 
ATOM     35  C   UNL A   1      41.158  27.480  29.223  1.00  0.00     0.049 A 
ATOM     36  N   UNL A   1      42.633  27.648  31.853  1.00  0.00    -0.248 NA
ATOM     37  C   UNL A   1      44.094  26.002  31.065  1.00  0.00     0.031 C 
ATOM     38  C   UNL A   1      40.429  27.480  27.957  1.00  0.00     0.029 A 
ATOM     39  N   UNL A   1      40.479  28.385  30.003  1.00  0.00    -0.354 N 
ATOM     40  C   UNL A   1      43.601  27.382  32.813  1.00  0.00     0.074 A 
ATOM     41  C   UNL A   1      44.464  26.351  32.285  1.00  0.00     0.031 C 
ATOM     42  C   UNL A   1      39.398  28.343  28.048  1.00  0.00     0.029 A 
ATOM     43  C   UNL A   1      39.384  28.938  29.384  1.00  0.00     0.049 A 
ATOM     44  H   UNL A   1      40.752  28.617  30.919  1.00  0.00     0.167 HD
ATOM     45  C   UNL A   1      43.764  27.946  34.031  1.00  0.00     0.031 A 
ATOM     46  C   UNL A   1      38.473  29.813  29.856  1.00  0.00     0.031 A 
ATOM     47  C   UNL A   1      42.874  28.919  34.594  1.00  0.00     0.049 A 
ATOM     48  C   UNL A   1      38.610  30.339  31.266  1.00  0.00     0.074 A 
ATOM     49  C   UNL A   1      42.935  29.526  35.835  1.00  0.00     0.029 A 
ATOM     50  N   UNL A   1      41.746  29.409  33.957  1.00  0.00    -0.354 N 
ATOM     51  N   UNL A   1      39.556  30.117  32.147  1.00  0.00    -0.248 NA
ATOM     52  C   UNL A   1      37.552  31.245  31.742  1.00  0.00     0.031 C 
ATOM     53  C   UNL A   1      41.809  30.344  35.971  1.00  0.00     0.029 A 
ATOM     54  C   UNL A   1      41.085  30.292  34.791  1.00  0.00     0.049 A 
ATOM     55  H   UNL A   1      41.460  29.165  33.047  1.00  0.00     0.167 HD
ATOM     56  C   UNL A   1      39.224  30.878  33.263  1.00  0.00     0.074 A 
ATOM     57  C   UNL A   1      38.000  31.581  32.943  1.00  0.00     0.031 C 
ATOM     58  C   UNL A   1      39.874  30.989  34.449  1.00  0.00     0.031 A 
BRANCH  45  59
ATOM     59  C   UNL A   1      44.932  27.473  34.843  1.00  0.00    -0.014 A 
ATOM     60  C   UNL A   1      46.181  28.109  34.751  1.00  0.00     0.009 A 
ATOM     61  C   UNL A   1      44.788  26.371  35.697  1.00  0.00     0.009 A 
ATOM     62  C   UNL A   1      47.272  27.629  35.477  1.00  0.00     0.001 A 
ATOM     63  C   UNL A   1      45.873  25.909  36.441  1.00  0.00     0.001 A 
ATOM     64  C   UNL A   1      47.115  26.533  36.324  1.00  0.00     0.000 A 
ENDBRANCH  45  59
BRANCH  46  65
ATOM     65  C   UNL A   1      37.319  30.243  29.018  1.00  0.00    -0.014 A 
ATOM     66  C   UNL A   1      37.170  31.585  28.633  1.00  0.00     0.009 A 
ATOM     67  C   UNL A   1      36.312  29.328  28.673  1.00  0.00     0.009 A 
ATOM     68  C   UNL A   1      36.021  32.008  27.957  1.00  0.00     0.001 A 
ATOM     69  C   UNL A   1      35.178  29.747  27.972  1.00  0.00     0.001 A 
ATOM     70  C   UNL A   1      35.026  31.089  27.627  1.00  0.00     0.000 A 
ENDBRANCH  46  65
BRANCH  58  71
ATOM     71  C   UNL A   1      39.304  31.932  35.472  1.00  0.00    -0.014 A 
ATOM     72  C   UNL A   1      38.325  31.515  36.387  1.00  0.00     0.009 A 
ATOM     73  C   UNL A   1      39.805  33.240  35.562  1.00  0.00     0.009 A 
ATOM     74  C   UNL A   1      37.840  32.400  37.352  1.00  0.00     0.001 A 
ATOM     75  C   UNL A   1      39.341  34.113  36.546  1.00  0.00     0.001 A 
ATOM     76  C   UNL A   1      38.353  33.695  37.435  1.00  0.00     0.000 A 
ENDBRANCH  58  71
ENDBRANCH  32  33
ENDBRANCH  25  27
ENDBRANCH  24  25
ENDBRANCH  23  24
ENDBRANCH  22  23
ENDBRANCH  21  22
ENDBRANCH   1  21
TORSDOF 19
ENDMDL
MODEL 2
REMARK VINA RESULT:     -10.2      3.894      8.955
REMARK SMILES CCN(CCC(=O)OCCOCCOC(=O)c1ccc(-c2c3nc(c(-c4ccccc4)c4ccc([nH]4)c(-c4ccccc4)c4nc(c(-c5ccccc5)c5ccc2[nH]5)C=C4)C=C3)cc1)C(=O)c1cc(Cl)ccc1F
REMARK SMILES IDX 10 1 9 2 8 3 6 4 7 5 5 6 4 7 3 8 2 9 1 10 65 11 66 12 67 13
REMARK SMILES IDX 68 14 73 15 69 16 72 17 74 18 70 19 71 20 11 21 12 22 13 23
REMARK SMILES IDX 14 24 15 25 16 26 17 27 18 28 64 29 19 30 63 31 20 32 21 33
REMARK SMILES IDX 22 34 57 35 23 36 62 37 56 38 58 39 24 40 61 41 55 42 54 43
REMARK SMILES IDX 25 45 47 46 32 47 46 48 33 49 36 50 45 51 59 52 34 53 35 54
REMARK SMILES IDX 44 56 60 57 37 58 26 59 27 60 31 61 28 62 30 63 29 64 48 65
REMARK SMILES IDX 49 66 53 67 50 68 52 69 51 70 38 71 39 72 43 73 40 74 42 75
REMARK SMILES IDX 41 76
REMARK H PARENT 58 44 36 55
REMARK Flexibility Score: inf
ROOT
ATOM      1  C   UNL A   1      34.688  33.137  28.055  1.00  0.00     0.202 C 
ENDROOT
BRANCH   1   2
ATOM      2  C   UNL A   1      34.534  31.455  28.254  1.00  0.00     0.261 C 
BRANCH   2   3
ATOM      3  O   UNL A   1      33.719  30.817  27.241  1.00  0.00    -0.463 OA
BRANCH   3   4
ATOM      4  C   UNL A   1      33.613  29.497  26.954  1.00  0.00     0.307 C 
ATOM      5  O   UNL A   1      34.630  28.804  26.993  1.00  0.00    -0.252 OA
BRANCH   4   6
ATOM      6  C   UNL A   1      32.289  28.879  26.538  1.00  0.00     0.144 C 
BRANCH   6   7
ATOM      7  C   UNL A   1      31.650  29.209  25.180  1.00  0.00     0.131 C 
BRANCH   7   8
ATOM      8  N   UNL A   1      31.899  28.202  24.148  1.00  0.00    -0.338 N 
BRANCH   8   9
ATOM      9  C   UNL A   1      30.729  27.693  23.419  1.00  0.00     0.116 C 
ATOM     10  C   UNL A   1      29.883  26.730  24.250  1.00  0.00     0.027 C 
ENDBRANCH   8   9
BRANCH   8  11
ATOM     11  C   UNL A   1      33.119  27.621  23.834  1.00  0.00     0.256 C 
ATOM     12  O   UNL A   1      34.087  28.320  23.523  1.00  0.00    -0.269 OA
BRANCH  11  13
ATOM     13  C   UNL A   1      33.349  26.167  23.739  1.00  0.00     0.077 A 
ATOM     14  C   UNL A   1      33.885  25.464  25.326  1.00  0.00     0.037 A 
ATOM     15  C   UNL A   1      33.251  25.058  22.286  1.00  0.00     0.136 A 
ATOM     16  C   UNL A   1      34.228  23.703  25.456  1.00  0.00     0.042 A 
ATOM     17  C   UNL A   1      33.628  23.300  22.437  1.00  0.00     0.041 A 
ATOM     18  F   UNL A   1      32.734  25.406  21.106  1.00  0.00    -0.206 F 
ATOM     19  Cl  UNL A   1      34.744  23.026  26.948  1.00  0.00    -0.084 Cl
ATOM     20  C   UNL A   1      34.102  22.635  24.035  1.00  0.00     0.023 A 
ENDBRANCH  11  13
ENDBRANCH   8  11
ENDBRANCH   7   8
ENDBRANCH   6   7
ENDBRANCH   4   6
ENDBRANCH   3   4
ENDBRANCH   2   3
ENDBRANCH   1   2
BRANCH   1  21
ATOM     21  O   UNL A   1      33.339  34.607  28.221  1.00  0.00    -0.374 OA
BRANCH  21  22
ATOM     22  C   UNL A   1      32.950  35.996  28.805  1.00  0.00     0.202 C 
BRANCH  22  23
ATOM     23  C   UNL A   1      32.901  36.089  30.349  1.00  0.00     0.261 C 
BRANCH  23  24
ATOM     24  O   UNL A   1      33.057  34.836  31.011  1.00  0.00    -0.460 OA
BRANCH  24  25
ATOM     25  C   UNL A   1      33.820  34.891  32.134  1.00  0.00     0.338 C 
ATOM     26  O   UNL A   1      33.545  35.418  33.190  1.00  0.00    -0.246 OA
BRANCH  25  27
ATOM     27  C   UNL A   1      35.001  34.026  31.944  1.00  0.00     0.060 A 
ATOM     28  C   UNL A   1      34.996  32.795  32.608  1.00  0.00     0.016 A 
ATOM     29  C   UNL A   1      36.061  34.376  31.104  1.00  0.00     0.016 A 
ATOM     30  C   UNL A   1      36.036  31.892  32.410  1.00  0.00     0.010 A 
ATOM     31  C   UNL A   1      37.130  33.489  30.942  1.00  0.00     0.010 A 
ATOM     32  C   UNL A   1      37.128  32.250  31.605  1.00  0.00    -0.014 A 
BRANCH  32  33
ATOM     33  C   UNL A   1      38.371  31.454  31.709  1.00  0.00     0.031 A 
ATOM     34  C   UNL A   1      39.322  31.819  32.816  1.00  0.00     0.074 A 
ATOM     35  C   UNL A   1      38.647  30.422  30.891  1.00  0.00     0.049 A 
ATOM     36  N   UNL A   1      40.448  31.256  33.168  1.00  0.00    -0.248 NA
ATOM     37  C   UNL A   1      38.940  32.977  33.645  1.00  0.00     0.031 C 
ATOM     38  C   UNL A   1      37.797  29.940  29.805  1.00  0.00     0.029 A 
ATOM     39  N   UNL A   1      39.739  29.588  30.861  1.00  0.00    -0.354 N 
ATOM     40  C   UNL A   1      40.891  31.974  34.271  1.00  0.00     0.074 A 
ATOM     41  C   UNL A   1      39.936  33.031  34.512  1.00  0.00     0.031 C 
ATOM     42  C   UNL A   1      38.404  28.895  29.209  1.00  0.00     0.029 A 
ATOM     43  C   UNL A   1      39.692  28.650  29.858  1.00  0.00     0.049 A 
ATOM     44  H   UNL A   1      40.485  29.657  31.498  1.00  0.00     0.167 HD
ATOM     45  C   UNL A   1      41.995  31.774  35.025  1.00  0.00     0.031 A 
ATOM     46  C   UNL A   1      40.596  27.714  29.505  1.00  0.00     0.031 A 
ATOM     47  C   UNL A   1      42.985  30.773  34.755  1.00  0.00     0.049 A 
ATOM     48  C   UNL A   1      41.880  27.589  30.292  1.00  0.00     0.074 A 
ATOM     49  C   UNL A   1      44.157  30.513  35.440  1.00  0.00     0.029 A 
ATOM     50  N   UNL A   1      42.926  29.881  33.696  1.00  0.00    -0.354 N 
ATOM     51  N   UNL A   1      42.266  28.242  31.362  1.00  0.00    -0.248 NA
ATOM     52  C   UNL A   1      42.851  26.588  29.821  1.00  0.00     0.031 C 
ATOM     53  C   UNL A   1      44.837  29.497  34.762  1.00  0.00     0.029 A 
ATOM     54  C   UNL A   1      44.058  29.086  33.693  1.00  0.00     0.049 A 
ATOM     55  H   UNL A   1      42.190  29.823  33.046  1.00  0.00     0.167 HD
ATOM     56  C   UNL A   1      43.504  27.710  31.708  1.00  0.00     0.074 A 
ATOM     57  C   UNL A   1      43.797  26.670  30.746  1.00  0.00     0.031 C 
ATOM     58  C   UNL A   1      44.326  28.049  32.732  1.00  0.00     0.031 A 
BRANCH  45  59
ATOM     59  C   UNL A   1      42.197  32.702  36.185  1.00  0.00    -0.014 A 
ATOM     60  C   UNL A   1      42.947  33.881  36.045  1.00  0.00     0.009 A 
ATOM     61  C   UNL A   1      41.646  32.387  37.435  1.00  0.00     0.009 A 
ATOM     62  C   UNL A   1      43.166  34.712  37.145  1.00  0.00     0.001 A 
ATOM     63  C   UNL A   1      41.845  33.232  38.527  1.00  0.00     0.001 A 
ATOM     64  C   UNL A   1      42.612  34.388  38.383  1.00  0.00     0.000 A 
ENDBRANCH  45  59
BRANCH  46  65
ATOM     65  C   UNL A   1      40.359  26.824  28.334  1.00  0.00    -0.014 A 
ATOM     66  C   UNL A   1      39.638  25.628  28.474  1.00  0.00     0.009 A 
ATOM     67  C   UNL A   1      40.930  27.125  27.088  1.00  0.00     0.009 A 
ATOM     68  C   UNL A   1      39.528  24.734  27.404  1.00  0.00     0.001 A 
ATOM     69  C   UNL A   1      40.794  26.244  26.011  1.00  0.00     0.001 A 
ATOM     70  C   UNL A   1      40.107  25.043  26.174  1.00  0.00     0.000 A 
ENDBRANCH  46  65
BRANCH  58  71
ATOM     71  C   UNL A   1      45.599  27.265  32.895  1.00  0.00    -0.014 A 
ATOM     72  C   UNL A   1      46.804  27.698  32.322  1.00  0.00     0.009 A 
ATOM     73  C   UNL A   1      45.601  26.109  33.691  1.00  0.00     0.009 A 
ATOM     74  C   UNL A   1      47.980  26.972  32.520  1.00  0.00     0.001 A 
ATOM     75  C   UNL A   1      46.783  25.402  33.913  1.00  0.00     0.001 A 
ATOM     76  C   UNL A   1      47.970  25.829  33.320  1.00  0.00     0.000 A 
ENDBRANCH  58  71
ENDBRANCH  32  33
ENDBRANCH  25  27
ENDBRANCH  24  25
ENDBRANCH  23  24
ENDBRANCH  22  23
ENDBRANCH  21  22
ENDBRANCH   1  21
TORSDOF 19
ENDMDL
MODEL 3
REMARK VINA RESULT:     -10.2      2.850      7.226
REMARK SMILES CCN(CCC(=O)OCCOCCOC(=O)c1ccc(-c2c3nc(c(-c4ccccc4)c4ccc([nH]4)c(-c4ccccc4)c4nc(c(-c5ccccc5)c5ccc2[nH]5)C=C4)C=C3)cc1)C(=O)c1cc(Cl)ccc1F
REMARK SMILES IDX 10 1 9 2 8 3 6 4 7 5 5 6 4 7 3 8 2 9 1 10 65 11 66 12 67 13
REMARK SMILES IDX 68 14 73 15 69 16 72 17 74 18 70 19 71 20 11 21 12 22 13 23
REMARK SMILES IDX 14 24 15 25 16 26 17 27 18 28 64 29 19 30 63 31 20 32 21 33
REMARK SMILES IDX 22 34 57 35 23 36 62 37 56 38 58 39 24 40 61 41 55 42 54 43
REMARK SMILES IDX 25 45 47 46 32 47 46 48 33 49 36 50 45 51 59 52 34 53 35 54
REMARK SMILES IDX 44 56 60 57 37 58 26 59 27 60 31 61 28 62 30 63 29 64 48 65
REMARK SMILES IDX 49 66 53 67 50 68 52 69 51 70 38 71 39 72 43 73 40 74 42 75
REMARK SMILES IDX 41 76
REMARK H PARENT 58 44 36 55
REMARK Flexibility Score: inf
ROOT
ATOM      1  C   UNL A   1      34.391  21.918  27.293  1.00  0.00     0.202 C 
ENDROOT
BRANCH   1   2
ATOM      2  C   UNL A   1      32.691  21.928  27.255  1.00  0.00     0.261 C 
BRANCH   2   3
ATOM      3  O   UNL A   1      32.108  23.237  27.468  1.00  0.00    -0.463 OA
BRANCH   3   4
ATOM      4  C   UNL A   1      31.087  23.823  26.797  1.00  0.00     0.307 C 
ATOM      5  O   UNL A   1      29.936  23.624  27.188  1.00  0.00    -0.252 OA
BRANCH   4   6
ATOM      6  C   UNL A   1      31.332  24.664  25.556  1.00  0.00     0.144 C 
BRANCH   6   7
ATOM      7  C   UNL A   1      31.819  24.025  24.247  1.00  0.00     0.131 C 
BRANCH   7   8
ATOM      8  N   UNL A   1      33.053  24.613  23.724  1.00  0.00    -0.338 N 
BRANCH   8   9
ATOM      9  C   UNL A   1      34.292  23.845  23.922  1.00  0.00     0.116 C 
ATOM     10  C   UNL A   1      35.222  24.473  24.956  1.00  0.00     0.027 C 
ENDBRANCH   8   9
BRANCH   8  11
ATOM     11  C   UNL A   1      33.191  25.857  23.127  1.00  0.00     0.256 C 
ATOM     12  O   UNL A   1      33.836  25.985  22.083  1.00  0.00    -0.269 OA
BRANCH  11  13
ATOM     13  C   UNL A   1      32.695  27.119  23.707  1.00  0.00     0.077 A 
ATOM     14  C   UNL A   1      33.800  27.745  25.005  1.00  0.00     0.037 A 
ATOM     15  C   UNL A   1      31.151  28.040  23.361  1.00  0.00     0.136 A 
ATOM     16  C   UNL A   1      33.402  29.276  25.861  1.00  0.00     0.042 A 
ATOM     17  C   UNL A   1      30.762  29.559  24.253  1.00  0.00     0.041 A 
ATOM     18  F   UNL A   1      30.331  27.780  22.341  1.00  0.00    -0.206 F 
ATOM     19  Cl  UNL A   1      34.433  29.875  27.098  1.00  0.00    -0.084 Cl
ATOM     20  C   UNL A   1      31.906  30.172  25.492  1.00  0.00     0.023 A 
ENDBRANCH  11  13
ENDBRANCH   8  11
ENDBRANCH   7   8
ENDBRANCH   6   7
ENDBRANCH   4   6
ENDBRANCH   3   4
ENDBRANCH   2   3
ENDBRANCH   1   2
BRANCH   1  21
ATOM     21  O   UNL A   1      35.727  21.115  26.036  1.00  0.00    -0.374 OA
BRANCH  21  22
ATOM     22  C   UNL A   1      36.959  21.306  25.103  1.00  0.00     0.202 C 
BRANCH  22  23
ATOM     23  C   UNL A   1      38.319  21.498  25.815  1.00  0.00     0.261 C 
BRANCH  23  24
ATOM     24  O   UNL A   1      38.817  22.834  25.766  1.00  0.00    -0.460 OA
BRANCH  24  25
ATOM     25  C   UNL A   1      40.083  22.974  26.237  1.00  0.00     0.338 C 
ATOM     26  O   UNL A   1      41.041  22.270  26.004  1.00  0.00    -0.246 OA
BRANCH  25  27
ATOM     27  C   UNL A   1      40.179  24.260  26.953  1.00  0.00     0.060 A 
ATOM     28  C   UNL A   1      40.997  25.242  26.383  1.00  0.00     0.016 A 
ATOM     29  C   UNL A   1      39.455  24.528  28.118  1.00  0.00     0.016 A 
ATOM     30  C   UNL A   1      41.071  26.508  26.957  1.00  0.00     0.010 A 
ATOM     31  C   UNL A   1      39.566  25.784  28.722  1.00  0.00     0.010 A 
ATOM     32  C   UNL A   1      40.385  26.774  28.151  1.00  0.00    -0.014 A 
BRANCH  32  33
ATOM     33  C   UNL A   1      40.769  27.971  28.933  1.00  0.00     0.031 A 
ATOM     34  C   UNL A   1      39.761  29.086  29.007  1.00  0.00     0.074 A 
ATOM     35  C   UNL A   1      41.940  28.071  29.587  1.00  0.00     0.049 A 
ATOM     36  N   UNL A   1      39.814  30.215  29.663  1.00  0.00    -0.248 NA
ATOM     37  C   UNL A   1      38.518  28.890  28.239  1.00  0.00     0.031 C 
ATOM     38  C   UNL A   1      42.986  27.052  29.629  1.00  0.00     0.029 A 
ATOM     39  N   UNL A   1      42.438  29.098  30.352  1.00  0.00    -0.354 N 
ATOM     40  C   UNL A   1      38.604  30.847  29.408  1.00  0.00     0.074 A 
ATOM     41  C   UNL A   1      37.852  29.998  28.513  1.00  0.00     0.031 C 
ATOM     42  C   UNL A   1      44.008  27.508  30.379  1.00  0.00     0.029 A 
ATOM     43  C   UNL A   1      43.696  28.858  30.851  1.00  0.00     0.049 A 
ATOM     44  H   UNL A   1      41.940  29.928  30.527  1.00  0.00     0.167 HD
ATOM     45  C   UNL A   1      38.152  32.032  29.876  1.00  0.00     0.031 A 
ATOM     46  C   UNL A   1      44.499  29.648  31.590  1.00  0.00     0.031 A 
ATOM     47  C   UNL A   1      38.916  32.915  30.707  1.00  0.00     0.049 A 
ATOM     48  C   UNL A   1      44.016  31.020  32.002  1.00  0.00     0.074 A 
ATOM     49  C   UNL A   1      38.558  34.154  31.206  1.00  0.00     0.029 A 
ATOM     50  N   UNL A   1      40.206  32.659  31.141  1.00  0.00    -0.354 N 
ATOM     51  N   UNL A   1      42.851  31.587  31.794  1.00  0.00    -0.248 NA
ATOM     52  C   UNL A   1      44.961  31.857  32.758  1.00  0.00     0.031 C 
ATOM     53  C   UNL A   1      39.656  34.674  31.898  1.00  0.00     0.029 A 
ATOM     54  C   UNL A   1      40.671  33.731  31.881  1.00  0.00     0.049 A 
ATOM     55  H   UNL A   1      40.714  31.838  30.952  1.00  0.00     0.167 HD
ATOM     56  C   UNL A   1      42.915  32.828  32.420  1.00  0.00     0.074 A 
ATOM     57  C   UNL A   1      44.224  32.925  33.028  1.00  0.00     0.031 C 
ATOM     58  C   UNL A   1      41.974  33.803  32.487  1.00  0.00     0.031 A 
BRANCH  45  59
ATOM     59  C   UNL A   1      36.776  32.446  29.446  1.00  0.00    -0.014 A 
ATOM     60  C   UNL A   1      35.648  32.109  30.212  1.00  0.00     0.009 A 
ATOM     61  C   UNL A   1      36.604  33.167  28.256  1.00  0.00     0.009 A 
ATOM     62  C   UNL A   1      34.370  32.462  29.777  1.00  0.00     0.001 A 
ATOM     63  C   UNL A   1      35.327  33.540  27.836  1.00  0.00     0.001 A 
ATOM     64  C   UNL A   1      34.212  33.179  28.592  1.00  0.00     0.000 A 
ENDBRANCH  45  59
BRANCH  46  65
ATOM     65  C   UNL A   1      45.865  29.201  31.981  1.00  0.00    -0.014 A 
ATOM     66  C   UNL A   1      46.089  28.562  33.211  1.00  0.00     0.009 A 
ATOM     67  C   UNL A   1      46.968  29.489  31.161  1.00  0.00     0.009 A 
ATOM     68  C   UNL A   1      47.389  28.260  33.630  1.00  0.00     0.001 A 
ATOM     69  C   UNL A   1      48.263  29.159  31.569  1.00  0.00     0.001 A 
ATOM     70  C   UNL A   1      48.474  28.559  32.808  1.00  0.00     0.000 A 
ENDBRANCH  46  65
BRANCH  58  71
ATOM     71  C   UNL A   1      42.304  35.039  33.278  1.00  0.00    -0.014 A 
ATOM     72  C   UNL A   1      43.108  36.057  32.744  1.00  0.00     0.009 A 
ATOM     73  C   UNL A   1      41.744  35.212  34.554  1.00  0.00     0.009 A 
ATOM     74  C   UNL A   1      43.368  37.212  33.486  1.00  0.00     0.001 A 
ATOM     75  C   UNL A   1      41.979  36.380  35.280  1.00  0.00     0.001 A 
ATOM     76  C   UNL A   1      42.798  37.375  34.749  1.00  0.00     0.000 A 
ENDBRANCH  58  71
ENDBRANCH  32  33
ENDBRANCH  25  27
ENDBRANCH  24  25
ENDBRANCH  23  24
ENDBRANCH  22  23
ENDBRANCH  21  22
ENDBRANCH   1  21
TORSDOF 19
ENDMDL
