MODEL 1
REMARK VINA RESULT:      -9.9      0.000      0.000
REMARK SMILES CCOC(=O)C1=NN(c2ccc(F)cc2F)[C@@H](C(=O)OCCOCCOC(=O)c2ccc(-c3c4nc(c(-c5ccccc5)c5ccc([nH]5)c(-c5ccccc5)c5nc(c(-c6ccccc6)c6ccc3[nH]6)C=C5)C=C4)cc2)C1
REMARK SMILES IDX 22 1 21 2 20 3 18 4 19 5 17 6 6 7 7 8 77 9 8 10 4 11 5 12
REMARK SMILES IDX 3 13 2 14 1 15 9 16 10 17 15 18 11 19 14 20 16 21 12 22
REMARK SMILES IDX 13 23 23 24 24 25 25 26 26 27 27 28 28 29 29 30 30 31 76 32
REMARK SMILES IDX 31 33 75 34 32 35 33 36 34 37 69 38 35 39 74 40 68 41 70 42
REMARK SMILES IDX 36 43 73 44 67 45 66 46 37 48 59 49 44 50 58 51 45 52 48 53
REMARK SMILES IDX 57 54 71 55 46 56 47 57 56 59 72 60 49 61 38 62 39 63 43 64
REMARK SMILES IDX 40 65 42 66 41 67 60 68 61 69 65 70 62 71 64 72 63 73 50 74
REMARK SMILES IDX 51 75 55 76 52 77 54 78 53 79
REMARK H PARENT 70 47 48 58
REMARK Flexibility Score: inf
ROOT
ATOM      1  C   UNL A   1      33.683  29.662  26.798  1.00  0.00     0.202 C 
ENDROOT
BRANCH   1   2
ATOM      2  C   UNL A   1      33.152  28.227  26.841  1.00  0.00     0.261 C 
BRANCH   2   3
ATOM      3  O   UNL A   1      31.762  28.163  26.469  1.00  0.00    -0.462 OA
BRANCH   3   4
ATOM      4  C   UNL A   1      31.307  26.950  26.050  1.00  0.00     0.331 C 
ATOM      5  O   UNL A   1      30.468  26.276  26.639  1.00  0.00    -0.250 OA
BRANCH   4   6
ATOM      6  C   UNL A   1      31.924  26.507  24.732  1.00  0.00     0.224 C 
ATOM      7  C   UNL A   1      32.079  24.722  23.322  1.00  0.00     0.148 C 
ATOM      8  N   UNL A   1      31.186  25.475  22.750  1.00  0.00    -0.169 NA
ATOM      9  C   UNL A   1      32.446  25.079  24.726  1.00  0.00     0.105 C 
ATOM     10  N   UNL A   1      30.945  26.479  23.646  1.00  0.00    -0.247 N 
BRANCH   7  11
ATOM     11  C   UNL A   1      32.759  23.557  22.666  1.00  0.00     0.354 C 
ATOM     12  O   UNL A   1      33.865  23.655  22.153  1.00  0.00    -0.245 OA
BRANCH  11  13
ATOM     13  O   UNL A   1      32.033  22.441  22.863  1.00  0.00    -0.461 OA
BRANCH  13  14
ATOM     14  C   UNL A   1      32.776  21.301  23.321  1.00  0.00     0.230 C 
ATOM     15  C   UNL A   1      33.040  21.388  24.812  1.00  0.00     0.049 C 
ENDBRANCH  13  14
ENDBRANCH  11  13
ENDBRANCH   7  11
BRANCH  10  16
ATOM     16  C   UNL A   1      30.118  27.551  23.329  1.00  0.00     0.096 A 
ATOM     17  C   UNL A   1      28.724  27.471  23.501  1.00  0.00     0.034 A 
ATOM     18  C   UNL A   1      30.635  28.721  22.748  1.00  0.00     0.151 A 
ATOM     19  C   UNL A   1      27.886  28.508  23.085  1.00  0.00     0.041 A 
ATOM     20  C   UNL A   1      29.806  29.752  22.314  1.00  0.00     0.080 A 
ATOM     21  F   UNL A   1      31.952  28.832  22.508  1.00  0.00    -0.205 F 
ATOM     22  C   UNL A   1      28.435  29.633  22.484  1.00  0.00     0.126 A 
ATOM     23  F   UNL A   1      27.627  30.608  22.053  1.00  0.00    -0.207 F 
ENDBRANCH  10  16
ENDBRANCH   4   6
ENDBRANCH   3   4
ENDBRANCH   2   3
ENDBRANCH   1   2
BRANCH   1  24
ATOM     24  O   UNL A   1      32.941  30.631  27.540  1.00  0.00    -0.374 OA
BRANCH  24  25
ATOM     25  C   UNL A   1      31.921  31.353  26.859  1.00  0.00     0.202 C 
BRANCH  25  26
ATOM     26  C   UNL A   1      31.967  32.880  26.984  1.00  0.00     0.261 C 
BRANCH  26  27
ATOM     27  O   UNL A   1      33.288  33.364  27.293  1.00  0.00    -0.460 OA
BRANCH  27  28
ATOM     28  C   UNL A   1      33.340  34.169  28.382  1.00  0.00     0.338 C 
ATOM     29  O   UNL A   1      32.528  35.021  28.707  1.00  0.00    -0.246 OA
BRANCH  28  30
ATOM     30  C   UNL A   1      34.465  33.803  29.265  1.00  0.00     0.060 A 
ATOM     31  C   UNL A   1      35.740  34.227  28.872  1.00  0.00     0.016 A 
ATOM     32  C   UNL A   1      34.306  32.954  30.363  1.00  0.00     0.016 A 
ATOM     33  C   UNL A   1      36.869  33.734  29.519  1.00  0.00     0.010 A 
ATOM     34  C   UNL A   1      35.444  32.454  31.010  1.00  0.00     0.010 A 
ATOM     35  C   UNL A   1      36.731  32.799  30.553  1.00  0.00    -0.014 A 
BRANCH  35  36
ATOM     36  C   UNL A   1      37.930  32.042  30.991  1.00  0.00     0.031 A 
ATOM     37  C   UNL A   1      38.519  32.339  32.345  1.00  0.00     0.074 A 
ATOM     38  C   UNL A   1      38.439  31.046  30.244  1.00  0.00     0.049 A 
ATOM     39  N   UNL A   1      39.524  31.765  32.958  1.00  0.00    -0.248 NA
ATOM     40  C   UNL A   1      37.888  33.425  33.113  1.00  0.00     0.031 C 
ATOM     41  C   UNL A   1      37.935  30.622  28.940  1.00  0.00     0.029 A 
ATOM     42  N   UNL A   1      39.493  30.203  30.492  1.00  0.00    -0.354 N 
ATOM     43  C   UNL A   1      39.645  32.420  34.178  1.00  0.00     0.074 A 
ATOM     44  C   UNL A   1      38.634  33.454  34.208  1.00  0.00     0.031 C 
ATOM     45  C   UNL A   1      38.679  29.590  28.502  1.00  0.00     0.029 A 
ATOM     46  C   UNL A   1      39.722  29.299  29.483  1.00  0.00     0.049 A 
ATOM     47  H   UNL A   1      40.034  30.242  31.313  1.00  0.00     0.167 HD
ATOM     48  C   UNL A   1      40.511  32.180  35.190  1.00  0.00     0.031 A 
ATOM     49  C   UNL A   1      40.671  28.350  29.365  1.00  0.00     0.031 A 
ATOM     50  C   UNL A   1      41.524  31.160  35.170  1.00  0.00     0.049 A 
ATOM     51  C   UNL A   1      41.666  28.145  30.475  1.00  0.00     0.074 A 
ATOM     52  C   UNL A   1      42.445  30.839  36.153  1.00  0.00     0.029 A 
ATOM     53  N   UNL A   1      41.751  30.299  34.110  1.00  0.00    -0.354 N 
ATOM     54  N   UNL A   1      41.753  28.757  31.631  1.00  0.00    -0.248 NA
ATOM     55  C   UNL A   1      42.688  27.109  30.265  1.00  0.00     0.031 C 
ATOM     56  C   UNL A   1      43.258  29.810  35.669  1.00  0.00     0.029 A 
ATOM     57  C   UNL A   1      42.812  29.459  34.404  1.00  0.00     0.049 A 
ATOM     58  H   UNL A   1      41.236  30.285  33.271  1.00  0.00     0.167 HD
ATOM     59  C   UNL A   1      42.817  28.161  32.297  1.00  0.00     0.074 A 
ATOM     60  C   UNL A   1      43.338  27.133  31.420  1.00  0.00     0.031 C 
ATOM     61  C   UNL A   1      43.316  28.437  33.526  1.00  0.00     0.031 A 
BRANCH  48  62
ATOM     62  C   UNL A   1      40.415  33.065  36.400  1.00  0.00    -0.014 A 
ATOM     63  C   UNL A   1      41.151  34.256  36.489  1.00  0.00     0.009 A 
ATOM     64  C   UNL A   1      39.560  32.711  37.455  1.00  0.00     0.009 A 
ATOM     65  C   UNL A   1      41.056  35.061  37.625  1.00  0.00     0.001 A 
ATOM     66  C   UNL A   1      39.449  33.530  38.580  1.00  0.00     0.001 A 
ATOM     67  C   UNL A   1      40.203  34.700  38.669  1.00  0.00     0.000 A 
ENDBRANCH  48  62
BRANCH  49  68
ATOM     68  C   UNL A   1      40.735  27.514  28.138  1.00  0.00    -0.014 A 
ATOM     69  C   UNL A   1      41.507  27.914  27.037  1.00  0.00     0.009 A 
ATOM     70  C   UNL A   1      40.000  26.321  28.056  1.00  0.00     0.009 A 
ATOM     71  C   UNL A   1      41.521  27.147  25.869  1.00  0.00     0.001 A 
ATOM     72  C   UNL A   1      40.038  25.544  26.896  1.00  0.00     0.001 A 
ATOM     73  C   UNL A   1      40.791  25.962  25.801  1.00  0.00     0.000 A 
ENDBRANCH  49  68
BRANCH  61  74
ATOM     74  C   UNL A   1      44.457  27.592  34.015  1.00  0.00    -0.014 A 
ATOM     75  C   UNL A   1      44.232  26.394  34.709  1.00  0.00     0.009 A 
ATOM     76  C   UNL A   1      45.777  27.981  33.736  1.00  0.00     0.009 A 
ATOM     77  C   UNL A   1      45.310  25.616  35.141  1.00  0.00     0.001 A 
ATOM     78  C   UNL A   1      46.851  27.189  34.146  1.00  0.00     0.001 A 
ATOM     79  C   UNL A   1      46.616  26.012  34.855  1.00  0.00     0.000 A 
ENDBRANCH  61  74
ENDBRANCH  35  36
ENDBRANCH  28  30
ENDBRANCH  27  28
ENDBRANCH  26  27
ENDBRANCH  25  26
ENDBRANCH  24  25
ENDBRANCH   1  24
TORSDOF 18
ENDMDL
MODEL 2
REMARK VINA RESULT:      -9.8      4.357      8.145
REMARK SMILES CCOC(=O)C1=NN(c2ccc(F)cc2F)[C@@H](C(=O)OCCOCCOC(=O)c2ccc(-c3c4nc(c(-c5ccccc5)c5ccc([nH]5)c(-c5ccccc5)c5nc(c(-c6ccccc6)c6ccc3[nH]6)C=C5)C=C4)cc2)C1
REMARK SMILES IDX 22 1 21 2 20 3 18 4 19 5 17 6 6 7 7 8 77 9 8 10 4 11 5 12
REMARK SMILES IDX 3 13 2 14 1 15 9 16 10 17 15 18 11 19 14 20 16 21 12 22
REMARK SMILES IDX 13 23 23 24 24 25 25 26 26 27 27 28 28 29 29 30 30 31 76 32
REMARK SMILES IDX 31 33 75 34 32 35 33 36 34 37 69 38 35 39 74 40 68 41 70 42
REMARK SMILES IDX 36 43 73 44 67 45 66 46 37 48 59 49 44 50 58 51 45 52 48 53
REMARK SMILES IDX 57 54 71 55 46 56 47 57 56 59 72 60 49 61 38 62 39 63 43 64
REMARK SMILES IDX 40 65 42 66 41 67 60 68 61 69 65 70 62 71 64 72 63 73 50 74
REMARK SMILES IDX 51 75 55 76 52 77 54 78 53 79
REMARK H PARENT 70 47 48 58
REMARK Flexibility Score: inf
ROOT
ATOM      1  C   UNL A   1      34.026  30.362  26.890  1.00  0.00     0.202 C 
ENDROOT
BRANCH   1   2
ATOM      2  C   UNL A   1      33.223  29.060  26.899  1.00  0.00     0.261 C 
BRANCH   2   3
ATOM      3  O   UNL A   1      33.089  28.509  25.576  1.00  0.00    -0.462 OA
BRANCH   3   4
ATOM      4  C   UNL A   1      32.337  27.378  25.467  1.00  0.00     0.331 C 
ATOM      5  O   UNL A   1      32.623  26.296  25.970  1.00  0.00    -0.250 OA
BRANCH   4   6
ATOM      6  C   UNL A   1      31.058  27.591  24.673  1.00  0.00     0.224 C 
ATOM      7  C   UNL A   1      30.158  28.860  23.005  1.00  0.00     0.148 C 
ATOM      8  N   UNL A   1      30.448  27.743  22.405  1.00  0.00    -0.169 NA
ATOM      9  C   UNL A   1      30.733  29.046  24.372  1.00  0.00     0.105 C 
ATOM     10  N   UNL A   1      31.138  27.013  23.331  1.00  0.00    -0.247 N 
BRANCH   7  11
ATOM     11  C   UNL A   1      29.287  29.937  22.429  1.00  0.00     0.354 C 
ATOM     12  O   UNL A   1      28.967  29.952  21.249  1.00  0.00    -0.245 OA
BRANCH  11  13
ATOM     13  O   UNL A   1      28.849  30.739  23.417  1.00  0.00    -0.461 OA
BRANCH  13  14
ATOM     14  C   UNL A   1      27.988  31.810  22.999  1.00  0.00     0.230 C 
ATOM     15  C   UNL A   1      28.780  33.081  22.759  1.00  0.00     0.049 C 
ENDBRANCH  13  14
ENDBRANCH  11  13
ENDBRANCH   7  11
BRANCH  10  16
ATOM     16  C   UNL A   1      31.518  25.698  23.083  1.00  0.00     0.096 A 
ATOM     17  C   UNL A   1      30.708  24.619  23.480  1.00  0.00     0.034 A 
ATOM     18  C   UNL A   1      32.760  25.398  22.500  1.00  0.00     0.151 A 
ATOM     19  C   UNL A   1      31.138  23.300  23.324  1.00  0.00     0.041 A 
ATOM     20  C   UNL A   1      33.205  24.087  22.356  1.00  0.00     0.080 A 
ATOM     21  F   UNL A   1      33.600  26.387  22.151  1.00  0.00    -0.205 F 
ATOM     22  C   UNL A   1      32.388  23.048  22.775  1.00  0.00     0.126 A 
ATOM     23  F   UNL A   1      32.813  21.784  22.660  1.00  0.00    -0.207 F 
ENDBRANCH  10  16
ENDBRANCH   4   6
ENDBRANCH   3   4
ENDBRANCH   2   3
ENDBRANCH   1   2
BRANCH   1  24
ATOM     24  O   UNL A   1      33.557  31.397  27.756  1.00  0.00    -0.374 OA
BRANCH  24  25
ATOM     25  C   UNL A   1      34.495  32.376  28.193  1.00  0.00     0.202 C 
BRANCH  25  26
ATOM     26  C   UNL A   1      34.639  32.551  29.709  1.00  0.00     0.261 C 
BRANCH  26  27
ATOM     27  O   UNL A   1      35.205  31.389  30.343  1.00  0.00    -0.460 OA
BRANCH  27  28
ATOM     28  C   UNL A   1      36.400  31.612  30.941  1.00  0.00     0.338 C 
ATOM     29  O   UNL A   1      36.626  32.364  31.876  1.00  0.00    -0.246 OA
BRANCH  28  30
ATOM     30  C   UNL A   1      37.440  30.706  30.415  1.00  0.00     0.060 A 
ATOM     31  C   UNL A   1      38.211  30.016  31.359  1.00  0.00     0.016 A 
ATOM     32  C   UNL A   1      37.751  30.636  29.055  1.00  0.00     0.016 A 
ATOM     33  C   UNL A   1      39.351  29.325  30.957  1.00  0.00     0.010 A 
ATOM     34  C   UNL A   1      38.902  29.944  28.653  1.00  0.00     0.010 A 
ATOM     35  C   UNL A   1      39.737  29.335  29.610  1.00  0.00    -0.014 A 
BRANCH  35  36
ATOM     36  C   UNL A   1      41.109  28.891  29.261  1.00  0.00     0.031 A 
ATOM     37  C   UNL A   1      41.314  27.475  28.789  1.00  0.00     0.074 A 
ATOM     38  C   UNL A   1      42.145  29.748  29.277  1.00  0.00     0.049 A 
ATOM     39  N   UNL A   1      42.409  26.888  28.375  1.00  0.00    -0.248 NA
ATOM     40  C   UNL A   1      40.125  26.607  28.775  1.00  0.00     0.031 C 
ATOM     41  C   UNL A   1      42.075  31.156  29.663  1.00  0.00     0.029 A 
ATOM     42  N   UNL A   1      43.462  29.552  28.942  1.00  0.00    -0.354 N 
ATOM     43  C   UNL A   1      42.041  25.587  28.056  1.00  0.00     0.074 A 
ATOM     44  C   UNL A   1      40.631  25.459  28.351  1.00  0.00     0.031 C 
ATOM     45  C   UNL A   1      43.299  31.700  29.539  1.00  0.00     0.029 A 
ATOM     46  C   UNL A   1      44.238  30.676  29.086  1.00  0.00     0.049 A 
ATOM     47  H   UNL A   1      43.816  28.689  28.629  1.00  0.00     0.167 HD
ATOM     48  C   UNL A   1      42.802  24.587  27.552  1.00  0.00     0.031 A 
ATOM     49  C   UNL A   1      45.558  30.853  28.882  1.00  0.00     0.031 A 
ATOM     50  C   UNL A   1      44.205  24.700  27.260  1.00  0.00     0.049 A 
ATOM     51  C   UNL A   1      46.397  29.708  28.385  1.00  0.00     0.074 A 
ATOM     52  C   UNL A   1      45.059  23.741  26.742  1.00  0.00     0.029 A 
ATOM     53  N   UNL A   1      44.962  25.841  27.466  1.00  0.00    -0.354 N 
ATOM     54  N   UNL A   1      46.030  28.490  28.066  1.00  0.00    -0.248 NA
ATOM     55  C   UNL A   1      47.835  29.968  28.209  1.00  0.00     0.031 C 
ATOM     56  C   UNL A   1      46.342  24.290  26.675  1.00  0.00     0.029 A 
ATOM     57  C   UNL A   1      46.277  25.605  27.106  1.00  0.00     0.049 A 
ATOM     58  H   UNL A   1      44.616  26.694  27.817  1.00  0.00     0.167 HD
ATOM     59  C   UNL A   1      47.183  27.850  27.625  1.00  0.00     0.074 A 
ATOM     60  C   UNL A   1      48.258  28.816  27.708  1.00  0.00     0.031 C 
ATOM     61  C   UNL A   1      47.335  26.577  27.187  1.00  0.00     0.031 A 
BRANCH  48  62
ATOM     62  C   UNL A   1      42.129  23.266  27.312  1.00  0.00    -0.014 A 
ATOM     63  C   UNL A   1      41.318  23.057  26.185  1.00  0.00     0.009 A 
ATOM     64  C   UNL A   1      42.326  22.210  28.215  1.00  0.00     0.009 A 
ATOM     65  C   UNL A   1      40.694  21.825  25.983  1.00  0.00     0.001 A 
ATOM     66  C   UNL A   1      41.720  20.972  27.998  1.00  0.00     0.001 A 
ATOM     67  C   UNL A   1      40.898  20.782  26.888  1.00  0.00     0.000 A 
ENDBRANCH  48  62
BRANCH  49  68
ATOM     68  C   UNL A   1      46.180  32.175  29.154  1.00  0.00    -0.014 A 
ATOM     69  C   UNL A   1      46.278  33.144  28.145  1.00  0.00     0.009 A 
ATOM     70  C   UNL A   1      46.701  32.462  30.426  1.00  0.00     0.009 A 
ATOM     71  C   UNL A   1      46.909  34.365  28.398  1.00  0.00     0.001 A 
ATOM     72  C   UNL A   1      47.308  33.694  30.681  1.00  0.00     0.001 A 
ATOM     73  C   UNL A   1      47.419  34.640  29.665  1.00  0.00     0.000 A 
ENDBRANCH  49  68
BRANCH  61  74
ATOM     74  C   UNL A   1      48.704  26.164  26.725  1.00  0.00    -0.014 A 
ATOM     75  C   UNL A   1      49.136  26.411  25.414  1.00  0.00     0.009 A 
ATOM     76  C   UNL A   1      49.588  25.559  27.632  1.00  0.00     0.009 A 
ATOM     77  C   UNL A   1      50.420  26.032  25.011  1.00  0.00     0.001 A 
ATOM     78  C   UNL A   1      50.879  25.204  27.235  1.00  0.00     0.001 A 
ATOM     79  C   UNL A   1      51.289  25.434  25.923  1.00  0.00     0.000 A 
ENDBRANCH  61  74
ENDBRANCH  35  36
ENDBRANCH  28  30
ENDBRANCH  27  28
ENDBRANCH  26  27
ENDBRANCH  25  26
ENDBRANCH  24  25
ENDBRANCH   1  24
TORSDOF 18
ENDMDL
MODEL 3
REMARK VINA RESULT:      -9.1      6.304     11.684
REMARK SMILES CCOC(=O)C1=NN(c2ccc(F)cc2F)[C@@H](C(=O)OCCOCCOC(=O)c2ccc(-c3c4nc(c(-c5ccccc5)c5ccc([nH]5)c(-c5ccccc5)c5nc(c(-c6ccccc6)c6ccc3[nH]6)C=C5)C=C4)cc2)C1
REMARK SMILES IDX 22 1 21 2 20 3 18 4 19 5 17 6 6 7 7 8 77 9 8 10 4 11 5 12
REMARK SMILES IDX 3 13 2 14 1 15 9 16 10 17 15 18 11 19 14 20 16 21 12 22
REMARK SMILES IDX 13 23 23 24 24 25 25 26 26 27 27 28 28 29 29 30 30 31 76 32
REMARK SMILES IDX 31 33 75 34 32 35 33 36 34 37 69 38 35 39 74 40 68 41 70 42
REMARK SMILES IDX 36 43 73 44 67 45 66 46 37 48 59 49 44 50 58 51 45 52 48 53
REMARK SMILES IDX 57 54 71 55 46 56 47 57 56 59 72 60 49 61 38 62 39 63 43 64
REMARK SMILES IDX 40 65 42 66 41 67 60 68 61 69 65 70 62 71 64 72 63 73 50 74
REMARK SMILES IDX 51 75 55 76 52 77 54 78 53 79
REMARK H PARENT 70 47 48 58
REMARK Flexibility Score: inf
ROOT
ATOM      1  C   UNL A   1      44.557  20.356  25.382  1.00  0.00     0.202 C 
ENDROOT
BRANCH   1   2
ATOM      2  C   UNL A   1      45.288  21.458  24.612  1.00  0.00     0.261 C 
BRANCH   2   3
ATOM      3  O   UNL A   1      46.151  22.226  25.472  1.00  0.00    -0.462 OA
BRANCH   3   4
ATOM      4  C   UNL A   1      46.091  23.579  25.333  1.00  0.00     0.331 C 
ATOM      5  O   UNL A   1      46.401  24.193  24.316  1.00  0.00    -0.250 OA
BRANCH   4   6
ATOM      6  C   UNL A   1      45.558  24.281  26.573  1.00  0.00     0.224 C 
ATOM      7  C   UNL A   1      45.206  23.981  28.805  1.00  0.00     0.148 C 
ATOM      8  N   UNL A   1      46.298  24.686  28.770  1.00  0.00    -0.169 NA
ATOM      9  C   UNL A   1      44.755  23.390  27.508  1.00  0.00     0.105 C 
ATOM     10  N   UNL A   1      46.633  24.750  27.446  1.00  0.00    -0.247 N 
BRANCH   7  11
ATOM     11  C   UNL A   1      44.382  23.744  30.037  1.00  0.00     0.354 C 
ATOM     12  O   UNL A   1      43.603  22.806  30.127  1.00  0.00    -0.245 OA
BRANCH  11  13
ATOM     13  O   UNL A   1      44.746  24.615  30.996  1.00  0.00    -0.461 OA
BRANCH  13  14
ATOM     14  C   UNL A   1      44.182  24.366  32.294  1.00  0.00     0.230 C 
ATOM     15  C   UNL A   1      45.139  23.566  33.157  1.00  0.00     0.049 C 
ENDBRANCH  13  14
ENDBRANCH  11  13
ENDBRANCH   7  11
BRANCH  10  16
ATOM     16  C   UNL A   1      47.697  25.530  27.005  1.00  0.00     0.096 A 
ATOM     17  C   UNL A   1      49.024  25.072  27.101  1.00  0.00     0.034 A 
ATOM     18  C   UNL A   1      47.492  26.834  26.524  1.00  0.00     0.151 A 
ATOM     19  C   UNL A   1      50.097  25.897  26.755  1.00  0.00     0.041 A 
ATOM     20  C   UNL A   1      48.556  27.669  26.193  1.00  0.00     0.080 A 
ATOM     21  F   UNL A   1      46.252  27.345  26.462  1.00  0.00    -0.205 F 
ATOM     22  C   UNL A   1      49.852  27.191  26.316  1.00  0.00     0.126 A 
ATOM     23  F   UNL A   1      50.883  27.991  26.020  1.00  0.00    -0.207 F 
ENDBRANCH  10  16
ENDBRANCH   4   6
ENDBRANCH   3   4
ENDBRANCH   2   3
ENDBRANCH   1   2
BRANCH   1  24
ATOM     24  O   UNL A   1      43.131  20.373  25.305  1.00  0.00    -0.374 OA
BRANCH  24  25
ATOM     25  C   UNL A   1      42.397  20.084  26.490  1.00  0.00     0.202 C 
BRANCH  25  26
ATOM     26  C   UNL A   1      40.975  20.650  26.565  1.00  0.00     0.261 C 
BRANCH  26  27
ATOM     27  O   UNL A   1      40.961  22.086  26.668  1.00  0.00    -0.460 OA
BRANCH  27  28
ATOM     28  C   UNL A   1      39.758  22.648  26.397  1.00  0.00     0.338 C 
ATOM     29  O   UNL A   1      38.769  22.088  25.951  1.00  0.00    -0.246 OA
BRANCH  28  30
ATOM     30  C   UNL A   1      39.710  24.053  26.846  1.00  0.00     0.060 A 
ATOM     31  C   UNL A   1      40.372  24.994  26.047  1.00  0.00     0.016 A 
ATOM     32  C   UNL A   1      39.162  24.425  28.076  1.00  0.00     0.016 A 
ATOM     33  C   UNL A   1      40.567  26.291  26.514  1.00  0.00     0.010 A 
ATOM     34  C   UNL A   1      39.365  25.729  28.547  1.00  0.00     0.010 A 
ATOM     35  C   UNL A   1      40.117  26.650  27.792  1.00  0.00    -0.014 A 
BRANCH  35  36
ATOM     36  C   UNL A   1      40.625  27.906  28.397  1.00  0.00     0.031 A 
ATOM     37  C   UNL A   1      39.657  29.033  28.646  1.00  0.00     0.074 A 
ATOM     38  C   UNL A   1      41.903  28.020  28.801  1.00  0.00     0.049 A 
ATOM     39  N   UNL A   1      39.862  30.194  29.215  1.00  0.00    -0.248 NA
ATOM     40  C   UNL A   1      38.271  28.820  28.199  1.00  0.00     0.031 C 
ATOM     41  C   UNL A   1      42.930  26.989  28.667  1.00  0.00     0.029 A 
ATOM     42  N   UNL A   1      42.546  29.061  29.422  1.00  0.00    -0.354 N 
ATOM     43  C   UNL A   1      38.636  30.847  29.192  1.00  0.00     0.074 A 
ATOM     44  C   UNL A   1      37.699  29.969  28.527  1.00  0.00     0.031 C 
ATOM     45  C   UNL A   1      44.077  27.449  29.196  1.00  0.00     0.029 A 
ATOM     46  C   UNL A   1      43.870  28.811  29.685  1.00  0.00     0.049 A 
ATOM     47  H   UNL A   1      42.100  29.907  29.657  1.00  0.00     0.167 HD
ATOM     48  C   UNL A   1      38.311  32.064  29.688  1.00  0.00     0.031 A 
ATOM     49  C   UNL A   1      44.809  29.595  30.249  1.00  0.00     0.031 A 
ATOM     50  C   UNL A   1      39.234  32.948  30.345  1.00  0.00     0.049 A 
ATOM     51  C   UNL A   1      44.439  30.972  30.733  1.00  0.00     0.074 A 
ATOM     52  C   UNL A   1      38.994  34.200  30.885  1.00  0.00     0.029 A 
ATOM     53  N   UNL A   1      40.576  32.675  30.547  1.00  0.00    -0.354 N 
ATOM     54  N   UNL A   1      43.271  31.566  30.724  1.00  0.00    -0.248 NA
ATOM     55  C   UNL A   1      45.521  31.781  31.315  1.00  0.00     0.031 C 
ATOM     56  C   UNL A   1      40.203  34.702  31.377  1.00  0.00     0.029 A 
ATOM     57  C   UNL A   1      41.184  33.742  31.185  1.00  0.00     0.049 A 
ATOM     58  H   UNL A   1      41.032  31.844  30.277  1.00  0.00     0.167 HD
ATOM     59  C   UNL A   1      43.470  32.803  31.325  1.00  0.00     0.074 A 
ATOM     60  C   UNL A   1      44.869  32.871  31.694  1.00  0.00     0.031 C 
ATOM     61  C   UNL A   1      42.574  33.794  31.553  1.00  0.00     0.031 A 
BRANCH  48  62
ATOM     62  C   UNL A   1      36.892  32.522  29.507  1.00  0.00    -0.014 A 
ATOM     63  C   UNL A   1      36.481  33.168  28.331  1.00  0.00     0.009 A 
ATOM     64  C   UNL A   1      35.950  32.284  30.519  1.00  0.00     0.009 A 
ATOM     65  C   UNL A   1      35.160  33.594  28.185  1.00  0.00     0.001 A 
ATOM     66  C   UNL A   1      34.624  32.690  30.360  1.00  0.00     0.001 A 
ATOM     67  C   UNL A   1      34.231  33.353  29.198  1.00  0.00     0.000 A 
ENDBRANCH  48  62
BRANCH  49  68
ATOM     68  C   UNL A   1      46.204  29.103  30.386  1.00  0.00    -0.014 A 
ATOM     69  C   UNL A   1      46.609  28.400  31.530  1.00  0.00     0.009 A 
ATOM     70  C   UNL A   1      47.145  29.357  29.375  1.00  0.00     0.009 A 
ATOM     71  C   UNL A   1      47.935  27.984  31.671  1.00  0.00     0.001 A 
ATOM     72  C   UNL A   1      48.464  28.917  29.509  1.00  0.00     0.001 A 
ATOM     73  C   UNL A   1      48.859  28.239  30.660  1.00  0.00     0.000 A 
ENDBRANCH  49  68
BRANCH  61  74
ATOM     74  C   UNL A   1      43.065  35.019  32.269  1.00  0.00    -0.014 A 
ATOM     75  C   UNL A   1      42.845  35.198  33.643  1.00  0.00     0.009 A 
ATOM     76  C   UNL A   1      43.799  35.987  31.565  1.00  0.00     0.009 A 
ATOM     77  C   UNL A   1      43.326  36.339  34.292  1.00  0.00     0.001 A 
ATOM     78  C   UNL A   1      44.300  37.113  32.220  1.00  0.00     0.001 A 
ATOM     79  C   UNL A   1      44.055  37.291  33.580  1.00  0.00     0.000 A 
ENDBRANCH  61  74
ENDBRANCH  35  36
ENDBRANCH  28  30
ENDBRANCH  27  28
ENDBRANCH  26  27
ENDBRANCH  25  26
ENDBRANCH  24  25
ENDBRANCH   1  24
TORSDOF 18
ENDMDL
