MODEL 1
REMARK VINA RESULT:      -9.8      0.000      0.000
REMARK SMILES COc1cc(OC)nc(Oc2ccccc2C(=O)NCC(=O)OCCOCCOC(=O)c2ccc(-c3c4nc(c(-c5ccccc5)c5ccc([nH]5)c(-c5ccccc5)c5nc(c(-c6ccccc6)c6ccc3[nH]6)C=C5)C=C4)cc2)n1
REMARK SMILES IDX 24 1 23 2 21 3 22 4 20 5 19 6 17 7 18 8 16 10 11 11 12 12
REMARK SMILES IDX 13 13 15 14 14 15 10 16 9 17 3 18 4 19 80 20 5 21 8 22 2 23
REMARK SMILES IDX 1 24 6 25 7 26 25 27 26 28 27 29 28 30 29 31 30 32 31 33
REMARK SMILES IDX 32 34 33 35 79 36 34 37 78 38 35 39 36 40 37 41 72 42 38 43
REMARK SMILES IDX 77 44 71 45 73 46 39 47 76 48 70 49 69 50 40 52 62 53 47 54
REMARK SMILES IDX 61 55 48 56 51 57 60 58 74 59 49 60 50 61 59 63 75 64 52 65
REMARK SMILES IDX 41 66 42 67 46 68 43 69 45 70 44 71 63 72 64 73 68 74 65 75
REMARK SMILES IDX 67 76 66 77 53 78 54 79 58 80 55 81 57 82 56 83
REMARK H PARENT 19 9 73 51 51 62
REMARK Flexibility Score: inf
ROOT
ATOM      1  C   UNL A   1      35.329  23.268  24.771  1.00  0.00     0.261 C 
ENDROOT
BRANCH   1   2
ATOM      2  O   UNL A   1      35.546  24.187  23.686  1.00  0.00    -0.462 OA
BRANCH   2   3
ATOM      3  C   UNL A   1      34.413  24.488  23.001  1.00  0.00     0.325 C 
ATOM      4  O   UNL A   1      33.962  23.821  22.073  1.00  0.00    -0.250 OA
BRANCH   3   5
ATOM      5  C   UNL A   1      33.600  25.605  23.617  1.00  0.00     0.239 C 
BRANCH   5   6
ATOM      6  N   UNL A   1      32.572  26.413  22.992  1.00  0.00    -0.341 N 
ATOM      7  C   UNL A   1      32.116  27.633  23.459  1.00  0.00     0.255 C 
ATOM      8  O   UNL A   1      31.454  28.351  22.712  1.00  0.00    -0.269 OA
ATOM      9  H   UNL A   1      32.165  26.064  22.166  1.00  0.00     0.164 HD
BRANCH   7  10
ATOM     10  C   UNL A   1      32.209  27.971  24.913  1.00  0.00     0.082 A 
ATOM     11  C   UNL A   1      31.467  27.454  25.987  1.00  0.00     0.143 A 
ATOM     12  C   UNL A   1      31.485  28.152  27.213  1.00  0.00     0.048 A 
ATOM     13  C   UNL A   1      32.275  29.284  27.407  1.00  0.00     0.004 A 
ATOM     14  C   UNL A   1      33.069  29.068  25.148  1.00  0.00     0.018 A 
ATOM     15  C   UNL A   1      33.099  29.722  26.382  1.00  0.00     0.001 A 
BRANCH  11  16
ATOM     16  O   UNL A   1      30.565  26.420  26.039  1.00  0.00    -0.423 OA
BRANCH  16  17
ATOM     17  C   UNL A   1      30.945  25.099  26.021  1.00  0.00     0.328 A 
ATOM     18  C   UNL A   1      31.107  23.233  24.713  1.00  0.00     0.223 A 
ATOM     19  C   UNL A   1      31.748  22.563  25.725  1.00  0.00     0.137 A 
ATOM     20  N   UNL A   1      30.658  24.482  24.867  1.00  0.00    -0.159 NA
ATOM     21  C   UNL A   1      31.920  23.263  26.906  1.00  0.00     0.223 A 
ATOM     22  N   UNL A   1      31.546  24.543  27.068  1.00  0.00    -0.159 NA
BRANCH  18  23
ATOM     23  O   UNL A   1      30.949  22.797  23.433  1.00  0.00    -0.481 OA
ATOM     24  C   UNL A   1      31.846  21.823  22.928  1.00  0.00     0.280 C 
ENDBRANCH  18  23
BRANCH  21  25
ATOM     25  O   UNL A   1      32.531  22.756  28.018  1.00  0.00    -0.481 OA
ATOM     26  C   UNL A   1      33.591  21.835  27.807  1.00  0.00     0.280 C 
ENDBRANCH  21  25
ENDBRANCH  16  17
ENDBRANCH  11  16
ENDBRANCH   7  10
ENDBRANCH   5   6
ENDBRANCH   3   5
ENDBRANCH   2   3
ENDBRANCH   1   2
BRANCH   1  27
ATOM     27  C   UNL A   1      35.685  21.824  24.407  1.00  0.00     0.202 C 
BRANCH  27  28
ATOM     28  O   UNL A   1      36.412  21.073  25.375  1.00  0.00    -0.374 OA
BRANCH  28  29
ATOM     29  C   UNL A   1      37.597  20.395  24.953  1.00  0.00     0.202 C 
BRANCH  29  30
ATOM     30  C   UNL A   1      38.943  20.916  25.482  1.00  0.00     0.261 C 
BRANCH  30  31
ATOM     31  O   UNL A   1      39.670  19.914  26.221  1.00  0.00    -0.460 OA
BRANCH  31  32
ATOM     32  C   UNL A   1      41.005  19.896  26.018  1.00  0.00     0.338 C 
ATOM     33  O   UNL A   1      41.643  19.092  25.330  1.00  0.00    -0.246 OA
BRANCH  32  34
ATOM     34  C   UNL A   1      41.630  21.101  26.574  1.00  0.00     0.060 A 
ATOM     35  C   UNL A   1      41.473  21.356  27.943  1.00  0.00     0.016 A 
ATOM     36  C   UNL A   1      42.246  22.037  25.745  1.00  0.00     0.016 A 
ATOM     37  C   UNL A   1      41.910  22.562  28.486  1.00  0.00     0.010 A 
ATOM     38  C   UNL A   1      42.665  23.259  26.285  1.00  0.00     0.010 A 
ATOM     39  C   UNL A   1      42.469  23.538  27.650  1.00  0.00    -0.014 A 
BRANCH  39  40
ATOM     40  C   UNL A   1      42.695  24.898  28.188  1.00  0.00     0.031 A 
ATOM     41  C   UNL A   1      44.083  25.294  28.610  1.00  0.00     0.074 A 
ATOM     42  C   UNL A   1      41.688  25.786  28.257  1.00  0.00     0.049 A 
ATOM     43  N   UNL A   1      44.509  26.433  29.095  1.00  0.00    -0.248 NA
ATOM     44  C   UNL A   1      45.132  24.273  28.458  1.00  0.00     0.031 C 
ATOM     45  C   UNL A   1      40.311  25.537  27.833  1.00  0.00     0.029 A 
ATOM     46  N   UNL A   1      41.675  27.081  28.711  1.00  0.00    -0.354 N 
ATOM     47  C   UNL A   1      45.871  26.264  29.310  1.00  0.00     0.074 A 
ATOM     48  C   UNL A   1      46.197  24.908  28.925  1.00  0.00     0.031 C 
ATOM     49  C   UNL A   1      39.583  26.645  28.056  1.00  0.00     0.029 A 
ATOM     50  C   UNL A   1      40.434  27.666  28.662  1.00  0.00     0.049 A 
ATOM     51  H   UNL A   1      42.478  27.545  29.040  1.00  0.00     0.167 HD
ATOM     52  C   UNL A   1      46.770  27.157  29.786  1.00  0.00     0.031 A 
ATOM     53  C   UNL A   1      40.030  28.882  29.076  1.00  0.00     0.031 A 
ATOM     54  C   UNL A   1      46.444  28.499  30.188  1.00  0.00     0.049 A 
ATOM     55  C   UNL A   1      41.033  29.830  29.673  1.00  0.00     0.074 A 
ATOM     56  C   UNL A   1      47.287  29.484  30.671  1.00  0.00     0.029 A 
ATOM     57  N   UNL A   1      45.167  29.038  30.166  1.00  0.00    -0.354 N 
ATOM     58  N   UNL A   1      42.324  29.669  29.845  1.00  0.00    -0.248 NA
ATOM     59  C   UNL A   1      40.525  31.133  30.127  1.00  0.00     0.031 C 
ATOM     60  C   UNL A   1      46.511  30.603  30.991  1.00  0.00     0.029 A 
ATOM     61  C   UNL A   1      45.194  30.333  30.655  1.00  0.00     0.049 A 
ATOM     62  H   UNL A   1      44.362  28.570  29.849  1.00  0.00     0.167 HD
ATOM     63  C   UNL A   1      42.784  30.855  30.404  1.00  0.00     0.074 A 
ATOM     64  C   UNL A   1      41.637  31.732  30.529  1.00  0.00     0.031 C 
ATOM     65  C   UNL A   1      44.043  31.188  30.778  1.00  0.00     0.031 A 
BRANCH  52  66
ATOM     66  C   UNL A   1      48.190  26.690  29.937  1.00  0.00    -0.014 A 
ATOM     67  C   UNL A   1      49.138  26.898  28.923  1.00  0.00     0.009 A 
ATOM     68  C   UNL A   1      48.589  26.052  31.122  1.00  0.00     0.009 A 
ATOM     69  C   UNL A   1      50.451  26.445  29.081  1.00  0.00     0.001 A 
ATOM     70  C   UNL A   1      49.906  25.622  31.286  1.00  0.00     0.001 A 
ATOM     71  C   UNL A   1      50.833  25.811  30.263  1.00  0.00     0.000 A 
ENDBRANCH  52  66
BRANCH  53  72
ATOM     72  C   UNL A   1      38.598  29.262  28.967  1.00  0.00    -0.014 A 
ATOM     73  C   UNL A   1      38.068  29.724  27.754  1.00  0.00     0.009 A 
ATOM     74  C   UNL A   1      37.755  29.172  30.087  1.00  0.00     0.009 A 
ATOM     75  C   UNL A   1      36.727  30.108  27.669  1.00  0.00     0.001 A 
ATOM     76  C   UNL A   1      36.410  29.531  29.993  1.00  0.00     0.001 A 
ATOM     77  C   UNL A   1      35.899  30.006  28.787  1.00  0.00     0.000 A 
ENDBRANCH  53  72
BRANCH  65  78
ATOM     78  C   UNL A   1      44.252  32.569  31.333  1.00  0.00    -0.014 A 
ATOM     79  C   UNL A   1      44.521  33.659  30.491  1.00  0.00     0.009 A 
ATOM     80  C   UNL A   1      44.133  32.789  32.715  1.00  0.00     0.009 A 
ATOM     81  C   UNL A   1      44.699  34.937  31.026  1.00  0.00     0.001 A 
ATOM     82  C   UNL A   1      44.285  34.071  33.244  1.00  0.00     0.001 A 
ATOM     83  C   UNL A   1      44.576  35.142  32.401  1.00  0.00     0.000 A 
ENDBRANCH  65  78
ENDBRANCH  39  40
ENDBRANCH  32  34
ENDBRANCH  31  32
ENDBRANCH  30  31
ENDBRANCH  29  30
ENDBRANCH  28  29
ENDBRANCH  27  28
ENDBRANCH   1  27
TORSDOF 20
ENDMDL
MODEL 2
REMARK VINA RESULT:      -9.6      0.439      5.775
REMARK SMILES COc1cc(OC)nc(Oc2ccccc2C(=O)NCC(=O)OCCOCCOC(=O)c2ccc(-c3c4nc(c(-c5ccccc5)c5ccc([nH]5)c(-c5ccccc5)c5nc(c(-c6ccccc6)c6ccc3[nH]6)C=C5)C=C4)cc2)n1
REMARK SMILES IDX 24 1 23 2 21 3 22 4 20 5 19 6 17 7 18 8 16 10 11 11 12 12
REMARK SMILES IDX 13 13 15 14 14 15 10 16 9 17 3 18 4 19 80 20 5 21 8 22 2 23
REMARK SMILES IDX 1 24 6 25 7 26 25 27 26 28 27 29 28 30 29 31 30 32 31 33
REMARK SMILES IDX 32 34 33 35 79 36 34 37 78 38 35 39 36 40 37 41 72 42 38 43
REMARK SMILES IDX 77 44 71 45 73 46 39 47 76 48 70 49 69 50 40 52 62 53 47 54
REMARK SMILES IDX 61 55 48 56 51 57 60 58 74 59 49 60 50 61 59 63 75 64 52 65
REMARK SMILES IDX 41 66 42 67 46 68 43 69 45 70 44 71 63 72 64 73 68 74 65 75
REMARK SMILES IDX 67 76 66 77 53 78 54 79 58 80 55 81 57 82 56 83
REMARK H PARENT 19 9 73 51 51 62
REMARK Flexibility Score: inf
ROOT
ATOM      1  C   UNL A   1      35.365  23.589  24.526  1.00  0.00     0.261 C 
ENDROOT
BRANCH   1   2
ATOM      2  O   UNL A   1      35.436  24.446  23.374  1.00  0.00    -0.462 OA
BRANCH   2   3
ATOM      3  C   UNL A   1      34.231  24.665  22.790  1.00  0.00     0.325 C 
ATOM      4  O   UNL A   1      33.736  23.950  21.921  1.00  0.00    -0.250 OA
BRANCH   3   5
ATOM      5  C   UNL A   1      33.413  25.749  23.456  1.00  0.00     0.239 C 
BRANCH   5   6
ATOM      6  N   UNL A   1      32.149  26.311  23.022  1.00  0.00    -0.341 N 
ATOM      7  C   UNL A   1      31.546  27.437  23.555  1.00  0.00     0.255 C 
ATOM      8  O   UNL A   1      30.632  27.977  22.935  1.00  0.00    -0.269 OA
ATOM      9  H   UNL A   1      31.681  25.852  22.287  1.00  0.00     0.164 HD
BRANCH   7  10
ATOM     10  C   UNL A   1      31.825  27.851  24.965  1.00  0.00     0.082 A 
ATOM     11  C   UNL A   1      31.308  27.320  26.158  1.00  0.00     0.143 A 
ATOM     12  C   UNL A   1      31.443  28.074  27.343  1.00  0.00     0.048 A 
ATOM     13  C   UNL A   1      32.139  29.281  27.374  1.00  0.00     0.004 A 
ATOM     14  C   UNL A   1      32.599  29.032  25.028  1.00  0.00     0.018 A 
ATOM     15  C   UNL A   1      32.752  29.743  26.220  1.00  0.00     0.001 A 
BRANCH  11  16
ATOM     16  O   UNL A   1      30.529  26.211  26.383  1.00  0.00    -0.423 OA
BRANCH  16  17
ATOM     17  C   UNL A   1      31.005  24.928  26.249  1.00  0.00     0.328 A 
ATOM     18  C   UNL A   1      31.245  23.180  24.798  1.00  0.00     0.223 A 
ATOM     19  C   UNL A   1      31.979  22.489  25.730  1.00  0.00     0.137 A 
ATOM     20  N   UNL A   1      30.712  24.376  25.064  1.00  0.00    -0.159 NA
ATOM     21  C   UNL A   1      32.153  23.113  26.953  1.00  0.00     0.223 A 
ATOM     22  N   UNL A   1      31.693  24.346  27.226  1.00  0.00    -0.159 NA
BRANCH  18  23
ATOM     23  O   UNL A   1      31.061  22.826  23.496  1.00  0.00    -0.481 OA
ATOM     24  C   UNL A   1      31.796  21.733  22.976  1.00  0.00     0.280 C 
ENDBRANCH  18  23
BRANCH  21  25
ATOM     25  O   UNL A   1      32.851  22.575  27.998  1.00  0.00    -0.481 OA
ATOM     26  C   UNL A   1      33.691  21.469  27.708  1.00  0.00     0.280 C 
ENDBRANCH  21  25
ENDBRANCH  16  17
ENDBRANCH  11  16
ENDBRANCH   7  10
ENDBRANCH   5   6
ENDBRANCH   3   5
ENDBRANCH   2   3
ENDBRANCH   1   2
BRANCH   1  27
ATOM     27  C   UNL A   1      35.630  22.118  24.192  1.00  0.00     0.202 C 
BRANCH  27  28
ATOM     28  O   UNL A   1      36.186  21.310  25.225  1.00  0.00    -0.374 OA
BRANCH  28  29
ATOM     29  C   UNL A   1      37.428  20.652  24.973  1.00  0.00     0.202 C 
BRANCH  29  30
ATOM     30  C   UNL A   1      38.694  21.254  25.603  1.00  0.00     0.261 C 
BRANCH  30  31
ATOM     31  O   UNL A   1      39.408  20.304  26.420  1.00  0.00    -0.460 OA
BRANCH  31  32
ATOM     32  C   UNL A   1      40.725  20.178  26.150  1.00  0.00     0.338 C 
ATOM     33  O   UNL A   1      41.260  19.322  25.437  1.00  0.00    -0.246 OA
BRANCH  32  34
ATOM     34  C   UNL A   1      41.472  21.331  26.664  1.00  0.00     0.060 A 
ATOM     35  C   UNL A   1      41.397  21.611  28.034  1.00  0.00     0.016 A 
ATOM     36  C   UNL A   1      42.127  22.205  25.797  1.00  0.00     0.016 A 
ATOM     37  C   UNL A   1      41.956  22.781  28.542  1.00  0.00     0.010 A 
ATOM     38  C   UNL A   1      42.670  23.391  26.303  1.00  0.00     0.010 A 
ATOM     39  C   UNL A   1      42.558  23.699  27.671  1.00  0.00    -0.014 A 
BRANCH  39  40
ATOM     40  C   UNL A   1      42.920  25.040  28.182  1.00  0.00     0.031 A 
ATOM     41  C   UNL A   1      41.836  26.064  28.377  1.00  0.00     0.074 A 
ATOM     42  C   UNL A   1      44.190  25.329  28.513  1.00  0.00     0.049 A 
ATOM     43  N   UNL A   1      41.925  27.291  28.824  1.00  0.00    -0.248 NA
ATOM     44  C   UNL A   1      40.468  25.646  28.031  1.00  0.00     0.031 C 
ATOM     45  C   UNL A   1      45.319  24.406  28.416  1.00  0.00     0.029 A 
ATOM     46  N   UNL A   1      44.739  26.488  29.001  1.00  0.00    -0.354 N 
ATOM     47  C   UNL A   1      40.629  27.792  28.806  1.00  0.00     0.074 A 
ATOM     48  C   UNL A   1      39.776  26.746  28.286  1.00  0.00     0.031 C 
ATOM     49  C   UNL A   1      46.433  25.040  28.824  1.00  0.00     0.029 A 
ATOM     50  C   UNL A   1      46.098  26.416  29.183  1.00  0.00     0.049 A 
ATOM     51  H   UNL A   1      44.210  27.293  29.201  1.00  0.00     0.167 HD
ATOM     52  C   UNL A   1      40.189  29.013  29.189  1.00  0.00     0.031 A 
ATOM     53  C   UNL A   1      46.973  27.360  29.578  1.00  0.00     0.031 A 
ATOM     54  C   UNL A   1      41.039  30.061  29.688  1.00  0.00     0.049 A 
ATOM     55  C   UNL A   1      46.470  28.735  29.925  1.00  0.00     0.074 A 
ATOM     56  C   UNL A   1      40.686  31.329  30.114  1.00  0.00     0.029 A 
ATOM     57  N   UNL A   1      42.416  29.964  29.815  1.00  0.00    -0.354 N 
ATOM     58  N   UNL A   1      45.238  29.187  29.932  1.00  0.00    -0.248 NA
ATOM     59  C   UNL A   1      47.478  29.727  30.327  1.00  0.00     0.031 C 
ATOM     60  C   UNL A   1      41.856  32.018  30.449  1.00  0.00     0.029 A 
ATOM     61  C   UNL A   1      42.931  31.160  30.283  1.00  0.00     0.049 A 
ATOM     62  H   UNL A   1      42.947  29.164  29.602  1.00  0.00     0.167 HD
ATOM     63  C   UNL A   1      45.321  30.507  30.359  1.00  0.00     0.074 A 
ATOM     64  C   UNL A   1      46.722  30.777  30.616  1.00  0.00     0.031 C 
ATOM     65  C   UNL A   1      44.327  31.413  30.527  1.00  0.00     0.031 A 
BRANCH  52  66
ATOM     66  C   UNL A   1      38.721  29.294  29.040  1.00  0.00    -0.014 A 
ATOM     67  C   UNL A   1      37.834  29.138  30.118  1.00  0.00     0.009 A 
ATOM     68  C   UNL A   1      38.221  29.741  27.807  1.00  0.00     0.009 A 
ATOM     69  C   UNL A   1      36.471  29.393  29.952  1.00  0.00     0.001 A 
ATOM     70  C   UNL A   1      36.862  30.019  27.652  1.00  0.00     0.001 A 
ATOM     71  C   UNL A   1      35.987  29.837  28.721  1.00  0.00     0.000 A 
ENDBRANCH  52  66
BRANCH  53  72
ATOM     72  C   UNL A   1      48.423  27.046  29.639  1.00  0.00    -0.014 A 
ATOM     73  C   UNL A   1      49.024  26.656  30.844  1.00  0.00     0.009 A 
ATOM     74  C   UNL A   1      49.217  27.145  28.485  1.00  0.00     0.009 A 
ATOM     75  C   UNL A   1      50.395  26.391  30.897  1.00  0.00     0.001 A 
ATOM     76  C   UNL A   1      50.582  26.854  28.534  1.00  0.00     0.001 A 
ATOM     77  C   UNL A   1      51.171  26.486  29.742  1.00  0.00     0.000 A 
ENDBRANCH  53  72
BRANCH  65  78
ATOM     78  C   UNL A   1      44.715  32.773  31.035  1.00  0.00    -0.014 A 
ATOM     79  C   UNL A   1      44.732  33.058  32.409  1.00  0.00     0.009 A 
ATOM     80  C   UNL A   1      45.111  33.768  30.128  1.00  0.00     0.009 A 
ATOM     81  C   UNL A   1      45.108  34.325  32.862  1.00  0.00     0.001 A 
ATOM     82  C   UNL A   1      45.512  35.024  30.584  1.00  0.00     0.001 A 
ATOM     83  C   UNL A   1      45.502  35.304  31.950  1.00  0.00     0.000 A 
ENDBRANCH  65  78
ENDBRANCH  39  40
ENDBRANCH  32  34
ENDBRANCH  31  32
ENDBRANCH  30  31
ENDBRANCH  29  30
ENDBRANCH  28  29
ENDBRANCH  27  28
ENDBRANCH   1  27
TORSDOF 20
ENDMDL
MODEL 3
REMARK VINA RESULT:      -9.6      3.594      8.769
REMARK SMILES COc1cc(OC)nc(Oc2ccccc2C(=O)NCC(=O)OCCOCCOC(=O)c2ccc(-c3c4nc(c(-c5ccccc5)c5ccc([nH]5)c(-c5ccccc5)c5nc(c(-c6ccccc6)c6ccc3[nH]6)C=C5)C=C4)cc2)n1
REMARK SMILES IDX 24 1 23 2 21 3 22 4 20 5 19 6 17 7 18 8 16 10 11 11 12 12
REMARK SMILES IDX 13 13 15 14 14 15 10 16 9 17 3 18 4 19 80 20 5 21 8 22 2 23
REMARK SMILES IDX 1 24 6 25 7 26 25 27 26 28 27 29 28 30 29 31 30 32 31 33
REMARK SMILES IDX 32 34 33 35 79 36 34 37 78 38 35 39 36 40 37 41 72 42 38 43
REMARK SMILES IDX 77 44 71 45 73 46 39 47 76 48 70 49 69 50 40 52 62 53 47 54
REMARK SMILES IDX 61 55 48 56 51 57 60 58 74 59 49 60 50 61 59 63 75 64 52 65
REMARK SMILES IDX 41 66 42 67 46 68 43 69 45 70 44 71 63 72 64 73 68 74 65 75
REMARK SMILES IDX 67 76 66 77 53 78 54 79 58 80 55 81 57 82 56 83
REMARK H PARENT 19 9 73 51 51 62
REMARK Flexibility Score: inf
ROOT
ATOM      1  C   UNL A   1      33.682  28.219  26.786  1.00  0.00     0.261 C 
ENDROOT
BRANCH   1   2
ATOM      2  O   UNL A   1      33.078  27.374  25.791  1.00  0.00    -0.462 OA
BRANCH   2   3
ATOM      3  C   UNL A   1      32.481  26.272  26.312  1.00  0.00     0.325 C 
ATOM      4  O   UNL A   1      31.396  26.274  26.889  1.00  0.00    -0.250 OA
BRANCH   3   5
ATOM      5  C   UNL A   1      33.150  24.971  25.929  1.00  0.00     0.239 C 
BRANCH   5   6
ATOM      6  N   UNL A   1      34.544  24.742  25.608  1.00  0.00    -0.341 N 
ATOM      7  C   UNL A   1      35.016  23.823  24.686  1.00  0.00     0.255 C 
ATOM      8  O   UNL A   1      36.179  23.909  24.296  1.00  0.00    -0.269 OA
ATOM      9  H   UNL A   1      35.212  25.285  26.086  1.00  0.00     0.164 HD
BRANCH   7  10
ATOM     10  C   UNL A   1      34.214  22.606  24.351  1.00  0.00     0.082 A 
ATOM     11  C   UNL A   1      33.331  22.399  23.279  1.00  0.00     0.143 A 
ATOM     12  C   UNL A   1      32.436  21.311  23.347  1.00  0.00     0.048 A 
ATOM     13  C   UNL A   1      32.460  20.400  24.402  1.00  0.00     0.004 A 
ATOM     14  C   UNL A   1      34.284  21.629  25.370  1.00  0.00     0.018 A 
ATOM     15  C   UNL A   1      33.412  20.538  25.398  1.00  0.00     0.001 A 
BRANCH  11  16
ATOM     16  O   UNL A   1      33.059  23.175  22.179  1.00  0.00    -0.423 OA
BRANCH  16  17
ATOM     17  C   UNL A   1      32.697  24.498  22.272  1.00  0.00     0.328 A 
ATOM     18  C   UNL A   1      31.055  25.928  22.961  1.00  0.00     0.223 A 
ATOM     19  C   UNL A   1      31.855  27.006  22.676  1.00  0.00     0.137 A 
ATOM     20  N   UNL A   1      31.446  24.675  22.717  1.00  0.00    -0.159 NA
ATOM     21  C   UNL A   1      33.098  26.718  22.141  1.00  0.00     0.223 A 
ATOM     22  N   UNL A   1      33.549  25.466  21.952  1.00  0.00    -0.159 NA
BRANCH  18  23
ATOM     23  O   UNL A   1      29.859  25.964  23.611  1.00  0.00    -0.481 OA
ATOM     24  C   UNL A   1      29.082  27.147  23.547  1.00  0.00     0.280 C 
ENDBRANCH  18  23
BRANCH  21  25
ATOM     25  O   UNL A   1      34.024  27.662  21.794  1.00  0.00    -0.481 OA
ATOM     26  C   UNL A   1      34.040  28.858  22.558  1.00  0.00     0.280 C 
ENDBRANCH  21  25
ENDBRANCH  16  17
ENDBRANCH  11  16
ENDBRANCH   7  10
ENDBRANCH   5   6
ENDBRANCH   3   5
ENDBRANCH   2   3
ENDBRANCH   1   2
BRANCH   1  27
ATOM     27  C   UNL A   1      32.729  29.300  27.306  1.00  0.00     0.202 C 
BRANCH  27  28
ATOM     28  O   UNL A   1      31.901  29.949  26.346  1.00  0.00    -0.374 OA
BRANCH  28  29
ATOM     29  C   UNL A   1      31.557  31.317  26.567  1.00  0.00     0.202 C 
BRANCH  29  30
ATOM     30  C   UNL A   1      32.702  32.303  26.850  1.00  0.00     0.261 C 
BRANCH  30  31
ATOM     31  O   UNL A   1      32.272  33.440  27.626  1.00  0.00    -0.460 OA
BRANCH  31  32
ATOM     32  C   UNL A   1      33.260  34.172  28.182  1.00  0.00     0.338 C 
ATOM     33  O   UNL A   1      33.188  35.339  28.582  1.00  0.00    -0.246 OA
BRANCH  32  34
ATOM     34  C   UNL A   1      34.438  33.338  28.445  1.00  0.00     0.060 A 
ATOM     35  C   UNL A   1      34.254  32.132  29.134  1.00  0.00     0.016 A 
ATOM     36  C   UNL A   1      35.721  33.793  28.143  1.00  0.00     0.016 A 
ATOM     37  C   UNL A   1      35.356  31.386  29.547  1.00  0.00     0.010 A 
ATOM     38  C   UNL A   1      36.828  33.056  28.577  1.00  0.00     0.010 A 
ATOM     39  C   UNL A   1      36.650  31.867  29.308  1.00  0.00    -0.014 A 
BRANCH  39  40
ATOM     40  C   UNL A   1      37.795  31.199  29.966  1.00  0.00     0.031 A 
ATOM     41  C   UNL A   1      38.085  31.502  31.410  1.00  0.00     0.074 A 
ATOM     42  C   UNL A   1      38.539  30.298  29.301  1.00  0.00     0.049 A 
ATOM     43  N   UNL A   1      39.026  31.023  32.185  1.00  0.00    -0.248 NA
ATOM     44  C   UNL A   1      37.192  32.467  32.071  1.00  0.00     0.031 C 
ATOM     45  C   UNL A   1      38.326  29.884  27.915  1.00  0.00     0.029 A 
ATOM     46  N   UNL A   1      39.626  29.569  29.711  1.00  0.00    -0.354 N 
ATOM     47  C   UNL A   1      38.840  31.632  33.420  1.00  0.00     0.074 A 
ATOM     48  C   UNL A   1      37.713  32.529  33.287  1.00  0.00     0.031 C 
ATOM     49  C   UNL A   1      39.263  28.977  27.586  1.00  0.00     0.029 A 
ATOM     50  C   UNL A   1      40.152  28.770  28.726  1.00  0.00     0.049 A 
ATOM     51  H   UNL A   1      39.994  29.613  30.623  1.00  0.00     0.167 HD
ATOM     52  C   UNL A   1      39.545  31.459  34.563  1.00  0.00     0.031 A 
ATOM     53  C   UNL A   1      41.240  27.977  28.740  1.00  0.00     0.031 A 
ATOM     54  C   UNL A   1      40.678  30.582  34.691  1.00  0.00     0.049 A 
ATOM     55  C   UNL A   1      42.054  27.859  30.000  1.00  0.00     0.074 A 
ATOM     56  C   UNL A   1      41.450  30.328  35.811  1.00  0.00     0.029 A 
ATOM     57  N   UNL A   1      41.207  29.824  33.658  1.00  0.00    -0.354 N 
ATOM     58  N   UNL A   1      41.851  28.418  31.170  1.00  0.00    -0.248 NA
ATOM     59  C   UNL A   1      43.242  26.995  29.943  1.00  0.00     0.031 C 
ATOM     60  C   UNL A   1      42.481  29.457  35.441  1.00  0.00     0.029 A 
ATOM     61  C   UNL A   1      42.316  29.126  34.105  1.00  0.00     0.049 A 
ATOM     62  H   UNL A   1      40.849  29.790  32.742  1.00  0.00     0.167 HD
ATOM     63  C   UNL A   1      42.872  27.955  31.993  1.00  0.00     0.074 A 
ATOM     64  C   UNL A   1      43.682  27.060  31.192  1.00  0.00     0.031 C 
ATOM     65  C   UNL A   1      43.114  28.245  33.294  1.00  0.00     0.031 A 
BRANCH  52  66
ATOM     66  C   UNL A   1      39.132  32.272  35.756  1.00  0.00    -0.014 A 
ATOM     67  C   UNL A   1      39.667  33.549  35.990  1.00  0.00     0.009 A 
ATOM     68  C   UNL A   1      38.176  31.761  36.648  1.00  0.00     0.009 A 
ATOM     69  C   UNL A   1      39.276  34.283  37.113  1.00  0.00     0.001 A 
ATOM     70  C   UNL A   1      37.770  32.506  37.756  1.00  0.00     0.001 A 
ATOM     71  C   UNL A   1      38.326  33.762  37.992  1.00  0.00     0.000 A 
ENDBRANCH  52  66
BRANCH  53  72
ATOM     72  C   UNL A   1      41.642  27.250  27.508  1.00  0.00    -0.014 A 
ATOM     73  C   UNL A   1      41.198  25.942  27.268  1.00  0.00     0.009 A 
ATOM     74  C   UNL A   1      42.484  27.866  26.567  1.00  0.00     0.009 A 
ATOM     75  C   UNL A   1      41.606  25.257  26.120  1.00  0.00     0.001 A 
ATOM     76  C   UNL A   1      42.868  27.189  25.408  1.00  0.00     0.001 A 
ATOM     77  C   UNL A   1      42.436  25.882  25.190  1.00  0.00     0.000 A 
ENDBRANCH  53  72
BRANCH  65  78
ATOM     78  C   UNL A   1      44.287  27.566  33.942  1.00  0.00    -0.014 A 
ATOM     79  C   UNL A   1      44.156  26.307  34.549  1.00  0.00     0.009 A 
ATOM     80  C   UNL A   1      45.551  28.176  33.905  1.00  0.00     0.009 A 
ATOM     81  C   UNL A   1      45.262  25.688  35.134  1.00  0.00     0.001 A 
ATOM     82  C   UNL A   1      46.660  27.543  34.467  1.00  0.00     0.001 A 
ATOM     83  C   UNL A   1      46.513  26.304  35.089  1.00  0.00     0.000 A 
ENDBRANCH  65  78
ENDBRANCH  39  40
ENDBRANCH  32  34
ENDBRANCH  31  32
ENDBRANCH  30  31
ENDBRANCH  29  30
ENDBRANCH  28  29
ENDBRANCH  27  28
ENDBRANCH   1  27
TORSDOF 20
ENDMDL
