MODEL 1
REMARK VINA RESULT:      -9.0      0.000      0.000
REMARK SMILES CC[C@H](C)CN(CC)c1ccc(/C=C/C(=O)OCCOCCOC(=O)c2ccc(-c3c4nc(c(-c5ccccc5)c5ccc([nH]5)c(-c5ccccc5)c5nc(c(-c6ccccc6)c6ccc3[nH]6)C=C5)C=C4)cc2)cc1F
REMARK SMILES IDX 18 1 17 2 15 3 16 4 14 5 13 6 12 7 9 8 10 9 75 10 11 11
REMARK SMILES IDX 74 12 76 13 6 14 5 15 3 16 4 17 2 18 1 19 7 20 8 21 19 22
REMARK SMILES IDX 20 23 21 24 22 25 23 26 24 27 25 28 26 29 27 30 73 31 28 32
REMARK SMILES IDX 72 33 29 34 30 35 31 36 66 37 32 38 71 39 65 40 67 41 33 42
REMARK SMILES IDX 70 43 64 44 63 45 34 47 56 48 41 49 55 50 42 51 45 52 54 53
REMARK SMILES IDX 68 54 43 55 44 56 53 58 69 59 46 60 35 61 36 62 40 63 37 64
REMARK SMILES IDX 39 65 38 66 57 67 58 68 62 69 59 70 61 71 60 72 47 73 48 74
REMARK SMILES IDX 52 75 49 76 51 77 50 78
REMARK H PARENT 67 46 45 57
REMARK Flexibility Score: inf
ROOT
ATOM      1  C   UNL A   1      31.860  25.614  26.675  1.00  0.00     0.261 C 
ENDROOT
BRANCH   1   2
ATOM      2  O   UNL A   1      33.161  25.226  26.209  1.00  0.00    -0.460 OA
BRANCH   2   3
ATOM      3  C   UNL A   1      33.322  23.896  26.017  1.00  0.00     0.330 C 
ATOM      4  O   UNL A   1      32.462  23.099  25.675  1.00  0.00    -0.247 OA
BRANCH   3   5
ATOM      5  C   UNL A   1      34.726  23.470  26.180  1.00  0.00     0.094 C 
ATOM      6  C   UNL A   1      35.778  23.868  25.446  1.00  0.00     0.016 C 
BRANCH   6   7
ATOM      7  C   UNL A   1      37.167  23.419  25.675  1.00  0.00    -0.022 A 
ATOM      8  C   UNL A   1      39.776  22.524  26.395  1.00  0.00     0.073 A 
ATOM      9  C   UNL A   1      38.878  21.680  25.742  1.00  0.00     0.029 A 
ATOM     10  C   UNL A   1      39.368  23.850  26.607  1.00  0.00     0.147 A 
ATOM     11  C   UNL A   1      37.603  22.121  25.374  1.00  0.00     0.010 A 
ATOM     12  C   UNL A   1      38.082  24.291  26.275  1.00  0.00     0.049 A 
ATOM     13  F   UNL A   1      40.190  24.713  27.225  1.00  0.00    -0.205 F 
BRANCH   8  14
ATOM     14  N   UNL A   1      40.974  22.033  26.894  1.00  0.00    -0.369 N 
BRANCH  14  15
ATOM     15  C   UNL A   1      42.138  22.005  25.994  1.00  0.00     0.120 C 
BRANCH  15  16
ATOM     16  C   UNL A   1      42.949  20.689  26.130  1.00  0.00     0.005 C 
ATOM     17  C   UNL A   1      42.069  19.465  25.822  1.00  0.00     0.009 C 
BRANCH  16  18
ATOM     18  C   UNL A   1      44.171  20.686  25.186  1.00  0.00     0.002 C 
ATOM     19  C   UNL A   1      45.270  21.634  25.659  1.00  0.00     0.004 C 
ENDBRANCH  16  18
ENDBRANCH  15  16
ENDBRANCH  14  15
BRANCH  14  20
ATOM     20  C   UNL A   1      41.168  21.939  28.340  1.00  0.00     0.113 C 
ATOM     21  C   UNL A   1      42.272  22.853  28.856  1.00  0.00     0.027 C 
ENDBRANCH  14  20
ENDBRANCH   8  14
ENDBRANCH   6   7
ENDBRANCH   3   5
ENDBRANCH   2   3
ENDBRANCH   1   2
BRANCH   1  22
ATOM     22  C   UNL A   1      31.661  27.126  26.549  1.00  0.00     0.202 C 
BRANCH  22  23
ATOM     23  O   UNL A   1      32.359  27.762  25.480  1.00  0.00    -0.374 OA
BRANCH  23  24
ATOM     24  C   UNL A   1      31.750  28.918  24.899  1.00  0.00     0.202 C 
BRANCH  24  25
ATOM     25  C   UNL A   1      31.811  30.204  25.730  1.00  0.00     0.261 C 
BRANCH  25  26
ATOM     26  O   UNL A   1      32.710  30.079  26.849  1.00  0.00    -0.460 OA
BRANCH  26  27
ATOM     27  C   UNL A   1      33.266  31.240  27.261  1.00  0.00     0.338 C 
ATOM     28  O   UNL A   1      32.694  32.304  27.473  1.00  0.00    -0.246 OA
BRANCH  27  29
ATOM     29  C   UNL A   1      34.682  31.035  27.610  1.00  0.00     0.060 A 
ATOM     30  C   UNL A   1      35.124  29.712  27.741  1.00  0.00     0.016 A 
ATOM     31  C   UNL A   1      35.540  32.101  27.892  1.00  0.00     0.016 A 
ATOM     32  C   UNL A   1      36.404  29.449  28.218  1.00  0.00     0.010 A 
ATOM     33  C   UNL A   1      36.826  31.833  28.378  1.00  0.00     0.010 A 
ATOM     34  C   UNL A   1      37.246  30.507  28.584  1.00  0.00    -0.014 A 
BRANCH  34  35
ATOM     35  C   UNL A   1      38.492  30.202  29.329  1.00  0.00     0.031 A 
ATOM     36  C   UNL A   1      38.595  30.599  30.777  1.00  0.00     0.074 A 
ATOM     37  C   UNL A   1      39.490  29.512  28.749  1.00  0.00     0.049 A 
ATOM     38  N   UNL A   1      39.555  30.364  31.635  1.00  0.00    -0.248 NA
ATOM     39  C   UNL A   1      37.464  31.359  31.333  1.00  0.00     0.031 C 
ATOM     40  C   UNL A   1      39.499  29.037  27.366  1.00  0.00     0.029 A 
ATOM     41  N   UNL A   1      40.687  29.080  29.263  1.00  0.00    -0.354 N 
ATOM     42  C   UNL A   1      39.144  30.943  32.829  1.00  0.00     0.074 A 
ATOM     43  C   UNL A   1      37.866  31.572  32.577  1.00  0.00     0.031 C 
ATOM     44  C   UNL A   1      40.646  28.370  27.144  1.00  0.00     0.029 A 
ATOM     45  C   UNL A   1      41.456  28.389  28.360  1.00  0.00     0.049 A 
ATOM     46  H   UNL A   1      40.967  29.248  30.192  1.00  0.00     0.167 HD
ATOM     47  C   UNL A   1      39.766  30.943  34.032  1.00  0.00     0.031 A 
ATOM     48  C   UNL A   1      42.676  27.837  28.498  1.00  0.00     0.031 A 
ATOM     49  C   UNL A   1      41.043  30.332  34.287  1.00  0.00     0.049 A 
ATOM     50  C   UNL A   1      43.377  27.908  29.829  1.00  0.00     0.074 A 
ATOM     51  C   UNL A   1      41.746  30.267  35.478  1.00  0.00     0.029 A 
ATOM     52  N   UNL A   1      41.812  29.688  33.332  1.00  0.00    -0.354 N 
ATOM     53  N   UNL A   1      42.958  28.424  30.959  1.00  0.00    -0.248 NA
ATOM     54  C   UNL A   1      44.715  27.304  29.903  1.00  0.00     0.031 C 
ATOM     55  C   UNL A   1      42.966  29.627  35.231  1.00  0.00     0.029 A 
ATOM     56  C   UNL A   1      42.997  29.247  33.899  1.00  0.00     0.049 A 
ATOM     57  H   UNL A   1      41.556  29.563  32.390  1.00  0.00     0.167 HD
ATOM     58  C   UNL A   1      43.968  28.188  31.882  1.00  0.00     0.074 A 
ATOM     59  C   UNL A   1      45.012  27.463  31.185  1.00  0.00     0.031 C 
ATOM     60  C   UNL A   1      44.029  28.538  33.191  1.00  0.00     0.031 A 
BRANCH  47  61
ATOM     61  C   UNL A   1      39.077  31.657  35.162  1.00  0.00    -0.014 A 
ATOM     62  C   UNL A   1      38.306  30.956  36.103  1.00  0.00     0.009 A 
ATOM     63  C   UNL A   1      39.222  33.046  35.300  1.00  0.00     0.009 A 
ATOM     64  C   UNL A   1      37.666  31.638  37.140  1.00  0.00     0.001 A 
ATOM     65  C   UNL A   1      38.602  33.721  36.352  1.00  0.00     0.001 A 
ATOM     66  C   UNL A   1      37.818  33.019  37.265  1.00  0.00     0.000 A 
ENDBRANCH  47  61
BRANCH  48  67
ATOM     67  C   UNL A   1      43.327  27.169  27.342  1.00  0.00    -0.014 A 
ATOM     68  C   UNL A   1      43.264  25.775  27.190  1.00  0.00     0.009 A 
ATOM     69  C   UNL A   1      44.037  27.924  26.396  1.00  0.00     0.009 A 
ATOM     70  C   UNL A   1      43.923  25.150  26.129  1.00  0.00     0.001 A 
ATOM     71  C   UNL A   1      44.672  27.300  25.321  1.00  0.00     0.001 A 
ATOM     72  C   UNL A   1      44.623  25.913  25.194  1.00  0.00     0.000 A 
ENDBRANCH  48  67
BRANCH  60  73
ATOM     73  C   UNL A   1      45.254  28.119  33.955  1.00  0.00    -0.014 A 
ATOM     74  C   UNL A   1      46.372  28.961  34.056  1.00  0.00     0.009 A 
ATOM     75  C   UNL A   1      45.279  26.875  34.605  1.00  0.00     0.009 A 
ATOM     76  C   UNL A   1      47.507  28.548  34.758  1.00  0.00     0.001 A 
ATOM     77  C   UNL A   1      46.404  26.477  35.330  1.00  0.00     0.001 A 
ATOM     78  C   UNL A   1      47.520  27.308  35.397  1.00  0.00     0.000 A 
ENDBRANCH  60  73
ENDBRANCH  34  35
ENDBRANCH  27  29
ENDBRANCH  26  27
ENDBRANCH  25  26
ENDBRANCH  24  25
ENDBRANCH  23  24
ENDBRANCH  22  23
ENDBRANCH   1  22
TORSDOF 20
ENDMDL
MODEL 2
REMARK VINA RESULT:      -9.0      3.452      9.445
REMARK SMILES CC[C@H](C)CN(CC)c1ccc(/C=C/C(=O)OCCOCCOC(=O)c2ccc(-c3c4nc(c(-c5ccccc5)c5ccc([nH]5)c(-c5ccccc5)c5nc(c(-c6ccccc6)c6ccc3[nH]6)C=C5)C=C4)cc2)cc1F
REMARK SMILES IDX 18 1 17 2 15 3 16 4 14 5 13 6 12 7 9 8 10 9 75 10 11 11
REMARK SMILES IDX 74 12 76 13 6 14 5 15 3 16 4 17 2 18 1 19 7 20 8 21 19 22
REMARK SMILES IDX 20 23 21 24 22 25 23 26 24 27 25 28 26 29 27 30 73 31 28 32
REMARK SMILES IDX 72 33 29 34 30 35 31 36 66 37 32 38 71 39 65 40 67 41 33 42
REMARK SMILES IDX 70 43 64 44 63 45 34 47 56 48 41 49 55 50 42 51 45 52 54 53
REMARK SMILES IDX 68 54 43 55 44 56 53 58 69 59 46 60 35 61 36 62 40 63 37 64
REMARK SMILES IDX 39 65 38 66 57 67 58 68 62 69 59 70 61 71 60 72 47 73 48 74
REMARK SMILES IDX 52 75 49 76 51 77 50 78
REMARK H PARENT 67 46 45 57
REMARK Flexibility Score: inf
ROOT
ATOM      1  C   UNL A   1      33.480  36.034  29.937  1.00  0.00     0.261 C 
ENDROOT
BRANCH   1   2
ATOM      2  O   UNL A   1      32.504  36.773  30.685  1.00  0.00    -0.460 OA
BRANCH   2   3
ATOM      3  C   UNL A   1      32.257  36.294  31.926  1.00  0.00     0.330 C 
ATOM      4  O   UNL A   1      31.198  36.350  32.532  1.00  0.00    -0.247 OA
BRANCH   3   5
ATOM      5  C   UNL A   1      33.415  35.574  32.492  1.00  0.00     0.094 C 
ATOM      6  C   UNL A   1      33.408  34.354  33.054  1.00  0.00     0.016 C 
BRANCH   6   7
ATOM      7  C   UNL A   1      34.610  33.678  33.585  1.00  0.00    -0.022 A 
ATOM      8  C   UNL A   1      37.080  32.514  34.404  1.00  0.00     0.073 A 
ATOM      9  C   UNL A   1      36.488  33.542  35.137  1.00  0.00     0.029 A 
ATOM     10  C   UNL A   1      36.368  32.027  33.297  1.00  0.00     0.147 A 
ATOM     11  C   UNL A   1      35.269  34.105  34.746  1.00  0.00     0.010 A 
ATOM     12  C   UNL A   1      35.165  32.607  32.877  1.00  0.00     0.049 A 
ATOM     13  F   UNL A   1      36.881  31.033  32.554  1.00  0.00    -0.205 F 
BRANCH   8  14
ATOM     14  N   UNL A   1      38.359  32.072  34.709  1.00  0.00    -0.369 N 
BRANCH  14  15
ATOM     15  C   UNL A   1      39.418  33.080  34.873  1.00  0.00     0.120 C 
BRANCH  15  16
ATOM     16  C   UNL A   1      40.077  33.460  33.521  1.00  0.00     0.005 C 
ATOM     17  C   UNL A   1      39.422  34.716  32.921  1.00  0.00     0.009 C 
BRANCH  16  18
ATOM     18  C   UNL A   1      41.592  33.707  33.687  1.00  0.00     0.002 C 
ATOM     19  C   UNL A   1      42.088  34.869  32.830  1.00  0.00     0.004 C 
ENDBRANCH  16  18
ENDBRANCH  15  16
ENDBRANCH  14  15
BRANCH  14  20
ATOM     20  C   UNL A   1      38.548  30.723  35.241  1.00  0.00     0.113 C 
ATOM     21  C   UNL A   1      40.013  30.364  35.454  1.00  0.00     0.027 C 
ENDBRANCH  14  20
ENDBRANCH   8  14
ENDBRANCH   6   7
ENDBRANCH   3   5
ENDBRANCH   2   3
ENDBRANCH   1   2
BRANCH   1  22
ATOM     22  C   UNL A   1      32.933  35.637  28.564  1.00  0.00     0.202 C 
BRANCH  22  23
ATOM     23  O   UNL A   1      32.777  34.237  28.333  1.00  0.00    -0.374 OA
BRANCH  23  24
ATOM     24  C   UNL A   1      33.927  33.411  28.525  1.00  0.00     0.202 C 
BRANCH  24  25
ATOM     25  C   UNL A   1      33.893  32.036  27.848  1.00  0.00     0.261 C 
BRANCH  25  26
ATOM     26  O   UNL A   1      34.211  30.976  28.770  1.00  0.00    -0.460 OA
BRANCH  26  27
ATOM     27  C   UNL A   1      34.817  29.904  28.212  1.00  0.00     0.338 C 
ATOM     28  O   UNL A   1      34.368  29.165  27.343  1.00  0.00    -0.246 OA
BRANCH  27  29
ATOM     29  C   UNL A   1      36.217  29.815  28.662  1.00  0.00     0.060 A 
ATOM     30  C   UNL A   1      37.208  30.193  27.747  1.00  0.00     0.016 A 
ATOM     31  C   UNL A   1      36.566  29.292  29.909  1.00  0.00     0.016 A 
ATOM     32  C   UNL A   1      38.550  29.989  28.049  1.00  0.00     0.010 A 
ATOM     33  C   UNL A   1      37.917  29.081  30.209  1.00  0.00     0.010 A 
ATOM     34  C   UNL A   1      38.911  29.388  29.262  1.00  0.00    -0.014 A 
BRANCH  34  35
ATOM     35  C   UNL A   1      40.314  28.944  29.449  1.00  0.00     0.031 A 
ATOM     36  C   UNL A   1      40.715  27.569  28.983  1.00  0.00     0.074 A 
ATOM     37  C   UNL A   1      41.240  29.778  29.954  1.00  0.00     0.049 A 
ATOM     38  N   UNL A   1      41.897  27.008  28.977  1.00  0.00    -0.248 NA
ATOM     39  C   UNL A   1      39.640  26.716  28.451  1.00  0.00     0.031 C 
ATOM     40  C   UNL A   1      40.990  31.145  30.408  1.00  0.00     0.029 A 
ATOM     41  N   UNL A   1      42.585  29.594  30.156  1.00  0.00    -0.354 N 
ATOM     42  C   UNL A   1      41.710  25.740  28.440  1.00  0.00     0.074 A 
ATOM     43  C   UNL A   1      40.296  25.601  28.166  1.00  0.00     0.031 C 
ATOM     44  C   UNL A   1      42.150  31.682  30.829  1.00  0.00     0.029 A 
ATOM     45  C   UNL A   1      43.214  30.691  30.692  1.00  0.00     0.049 A 
ATOM     46  H   UNL A   1      43.054  28.757  29.937  1.00  0.00     0.167 HD
ATOM     47  C   UNL A   1      42.631  24.781  28.185  1.00  0.00     0.031 A 
ATOM     48  C   UNL A   1      44.503  30.872  31.036  1.00  0.00     0.031 A 
ATOM     49  C   UNL A   1      44.036  24.907  28.467  1.00  0.00     0.049 A 
ATOM     50  C   UNL A   1      45.497  29.764  30.803  1.00  0.00     0.074 A 
ATOM     51  C   UNL A   1      45.048  23.994  28.229  1.00  0.00     0.029 A 
ATOM     52  N   UNL A   1      44.624  26.013  29.058  1.00  0.00    -0.354 N 
ATOM     53  N   UNL A   1      45.312  28.587  30.258  1.00  0.00    -0.248 NA
ATOM     54  C   UNL A   1      46.882  30.022  31.223  1.00  0.00     0.031 C 
ATOM     55  C   UNL A   1      46.243  24.528  28.724  1.00  0.00     0.029 A 
ATOM     56  C   UNL A   1      45.982  25.795  29.220  1.00  0.00     0.049 A 
ATOM     57  H   UNL A   1      44.147  26.831  29.324  1.00  0.00     0.167 HD
ATOM     58  C   UNL A   1      46.558  27.973  30.248  1.00  0.00     0.074 A 
ATOM     59  C   UNL A   1      47.495  28.917  30.822  1.00  0.00     0.031 C 
ATOM     60  C   UNL A   1      46.899  26.739  29.803  1.00  0.00     0.031 A 
BRANCH  47  61
ATOM     61  C   UNL A   1      42.134  23.492  27.592  1.00  0.00    -0.014 A 
ATOM     62  C   UNL A   1      41.465  22.538  28.376  1.00  0.00     0.009 A 
ATOM     63  C   UNL A   1      42.316  23.240  26.223  1.00  0.00     0.009 A 
ATOM     64  C   UNL A   1      41.019  21.343  27.808  1.00  0.00     0.001 A 
ATOM     65  C   UNL A   1      41.846  22.056  25.653  1.00  0.00     0.001 A 
ATOM     66  C   UNL A   1      41.206  21.106  26.447  1.00  0.00     0.000 A 
ENDBRANCH  47  61
BRANCH  48  67
ATOM     67  C   UNL A   1      44.938  32.155  31.647  1.00  0.00    -0.014 A 
ATOM     68  C   UNL A   1      45.347  33.230  30.843  1.00  0.00     0.009 A 
ATOM     69  C   UNL A   1      44.970  32.299  33.043  1.00  0.00     0.009 A 
ATOM     70  C   UNL A   1      45.804  34.414  31.426  1.00  0.00     0.001 A 
ATOM     71  C   UNL A   1      45.401  33.493  33.623  1.00  0.00     0.001 A 
ATOM     72  C   UNL A   1      45.827  34.546  32.815  1.00  0.00     0.000 A 
ENDBRANCH  48  67
BRANCH  60  73
ATOM     73  C   UNL A   1      48.348  26.352  29.898  1.00  0.00    -0.014 A 
ATOM     74  C   UNL A   1      49.232  26.568  28.829  1.00  0.00     0.009 A 
ATOM     75  C   UNL A   1      48.842  25.787  31.084  1.00  0.00     0.009 A 
ATOM     76  C   UNL A   1      50.571  26.187  28.931  1.00  0.00     0.001 A 
ATOM     77  C   UNL A   1      50.189  25.434  31.194  1.00  0.00     0.001 A 
ATOM     78  C   UNL A   1      51.049  25.624  30.114  1.00  0.00     0.000 A 
ENDBRANCH  60  73
ENDBRANCH  34  35
ENDBRANCH  27  29
ENDBRANCH  26  27
ENDBRANCH  25  26
ENDBRANCH  24  25
ENDBRANCH  23  24
ENDBRANCH  22  23
ENDBRANCH   1  22
TORSDOF 20
ENDMDL
MODEL 3
REMARK VINA RESULT:      -8.9      3.021      4.918
REMARK SMILES CC[C@H](C)CN(CC)c1ccc(/C=C/C(=O)OCCOCCOC(=O)c2ccc(-c3c4nc(c(-c5ccccc5)c5ccc([nH]5)c(-c5ccccc5)c5nc(c(-c6ccccc6)c6ccc3[nH]6)C=C5)C=C4)cc2)cc1F
REMARK SMILES IDX 18 1 17 2 15 3 16 4 14 5 13 6 12 7 9 8 10 9 75 10 11 11
REMARK SMILES IDX 74 12 76 13 6 14 5 15 3 16 4 17 2 18 1 19 7 20 8 21 19 22
REMARK SMILES IDX 20 23 21 24 22 25 23 26 24 27 25 28 26 29 27 30 73 31 28 32
REMARK SMILES IDX 72 33 29 34 30 35 31 36 66 37 32 38 71 39 65 40 67 41 33 42
REMARK SMILES IDX 70 43 64 44 63 45 34 47 56 48 41 49 55 50 42 51 45 52 54 53
REMARK SMILES IDX 68 54 43 55 44 56 53 58 69 59 46 60 35 61 36 62 40 63 37 64
REMARK SMILES IDX 39 65 38 66 57 67 58 68 62 69 59 70 61 71 60 72 47 73 48 74
REMARK SMILES IDX 52 75 49 76 51 77 50 78
REMARK H PARENT 67 46 45 57
REMARK Flexibility Score: inf
ROOT
ATOM      1  C   UNL A   1      31.528  28.484  26.121  1.00  0.00     0.261 C 
ENDROOT
BRANCH   1   2
ATOM      2  O   UNL A   1      31.061  29.113  24.917  1.00  0.00    -0.460 OA
BRANCH   2   3
ATOM      3  C   UNL A   1      30.557  28.264  23.992  1.00  0.00     0.330 C 
ATOM      4  O   UNL A   1      29.820  28.554  23.061  1.00  0.00    -0.247 OA
BRANCH   3   5
ATOM      5  C   UNL A   1      31.066  26.888  24.153  1.00  0.00     0.094 C 
ATOM      6  C   UNL A   1      30.353  25.752  24.078  1.00  0.00     0.016 C 
BRANCH   6   7
ATOM      7  C   UNL A   1      30.929  24.399  24.228  1.00  0.00    -0.022 A 
ATOM      8  C   UNL A   1      32.300  21.918  24.531  1.00  0.00     0.073 A 
ATOM      9  C   UNL A   1      31.588  22.484  25.589  1.00  0.00     0.029 A 
ATOM     10  C   UNL A   1      32.243  22.582  23.296  1.00  0.00     0.147 A 
ATOM     11  C   UNL A   1      30.902  23.694  25.439  1.00  0.00     0.010 A 
ATOM     12  C   UNL A   1      31.590  23.810  23.144  1.00  0.00     0.049 A 
ATOM     13  F   UNL A   1      32.902  22.084  22.237  1.00  0.00    -0.205 F 
BRANCH   8  14
ATOM     14  N   UNL A   1      33.103  20.805  24.734  1.00  0.00    -0.369 N 
BRANCH  14  15
ATOM     15  C   UNL A   1      34.386  20.995  25.428  1.00  0.00     0.120 C 
BRANCH  15  16
ATOM     16  C   UNL A   1      35.131  22.266  24.940  1.00  0.00     0.005 C 
ATOM     17  C   UNL A   1      35.508  23.173  26.124  1.00  0.00     0.009 C 
BRANCH  16  18
ATOM     18  C   UNL A   1      36.409  21.898  24.155  1.00  0.00     0.002 C 
ATOM     19  C   UNL A   1      37.272  20.881  24.897  1.00  0.00     0.004 C 
ENDBRANCH  16  18
ENDBRANCH  15  16
ENDBRANCH  14  15
BRANCH  14  20
ATOM     20  C   UNL A   1      32.520  19.468  24.632  1.00  0.00     0.113 C 
ATOM     21  C   UNL A   1      32.486  18.938  23.204  1.00  0.00     0.027 C 
ENDBRANCH  14  20
ENDBRANCH   8  14
ENDBRANCH   6   7
ENDBRANCH   3   5
ENDBRANCH   2   3
ENDBRANCH   1   2
BRANCH   1  22
ATOM     22  C   UNL A   1      32.204  29.500  27.043  1.00  0.00     0.202 C 
BRANCH  22  23
ATOM     23  O   UNL A   1      32.416  30.801  26.494  1.00  0.00    -0.374 OA
BRANCH  23  24
ATOM     24  C   UNL A   1      33.014  31.780  27.346  1.00  0.00     0.202 C 
BRANCH  24  25
ATOM     25  C   UNL A   1      32.430  33.195  27.264  1.00  0.00     0.261 C 
BRANCH  25  26
ATOM     26  O   UNL A   1      32.232  33.770  28.570  1.00  0.00    -0.460 OA
BRANCH  26  27
ATOM     27  C   UNL A   1      32.965  34.879  28.817  1.00  0.00     0.338 C 
ATOM     28  O   UNL A   1      32.638  36.044  28.624  1.00  0.00    -0.246 OA
BRANCH  27  29
ATOM     29  C   UNL A   1      34.199  34.526  29.541  1.00  0.00     0.060 A 
ATOM     30  C   UNL A   1      35.400  34.587  28.824  1.00  0.00     0.016 A 
ATOM     31  C   UNL A   1      34.181  34.060  30.858  1.00  0.00     0.016 A 
ATOM     32  C   UNL A   1      36.579  34.121  29.398  1.00  0.00     0.010 A 
ATOM     33  C   UNL A   1      35.367  33.586  31.432  1.00  0.00     0.010 A 
ATOM     34  C   UNL A   1      36.561  33.574  30.688  1.00  0.00    -0.014 A 
BRANCH  34  35
ATOM     35  C   UNL A   1      37.762  32.851  31.173  1.00  0.00     0.031 A 
ATOM     36  C   UNL A   1      38.437  33.318  32.435  1.00  0.00     0.074 A 
ATOM     37  C   UNL A   1      38.203  31.748  30.544  1.00  0.00     0.049 A 
ATOM     38  N   UNL A   1      39.448  32.791  33.078  1.00  0.00    -0.248 NA
ATOM     39  C   UNL A   1      37.898  34.538  33.057  1.00  0.00     0.031 C 
ATOM     40  C   UNL A   1      37.617  31.171  29.335  1.00  0.00     0.029 A 
ATOM     41  N   UNL A   1      39.244  30.908  30.850  1.00  0.00    -0.354 N 
ATOM     42  C   UNL A   1      39.664  33.612  34.179  1.00  0.00     0.074 A 
ATOM     43  C   UNL A   1      38.704  34.691  34.097  1.00  0.00     0.031 C 
ATOM     44  C   UNL A   1      38.305  30.063  29.005  1.00  0.00     0.029 A 
ATOM     45  C   UNL A   1      39.387  29.866  29.967  1.00  0.00     0.049 A 
ATOM     46  H   UNL A   1      39.831  31.039  31.629  1.00  0.00     0.167 HD
ATOM     47  C   UNL A   1      40.570  33.476  35.175  1.00  0.00     0.031 A 
ATOM     48  C   UNL A   1      40.290  28.868  29.938  1.00  0.00     0.031 A 
ATOM     49  C   UNL A   1      41.536  32.413  35.257  1.00  0.00     0.049 A 
ATOM     50  C   UNL A   1      41.331  28.776  31.023  1.00  0.00     0.074 A 
ATOM     51  C   UNL A   1      42.485  32.183  36.237  1.00  0.00     0.029 A 
ATOM     52  N   UNL A   1      41.681  31.408  34.314  1.00  0.00    -0.354 N 
ATOM     53  N   UNL A   1      41.497  29.536  32.077  1.00  0.00    -0.248 NA
ATOM     54  C   UNL A   1      42.299  27.675  30.916  1.00  0.00     0.031 C 
ATOM     55  C   UNL A   1      43.240  31.066  35.861  1.00  0.00     0.029 A 
ATOM     56  C   UNL A   1      42.724  30.570  34.675  1.00  0.00     0.049 A 
ATOM     57  H   UNL A   1      41.127  31.305  33.508  1.00  0.00     0.167 HD
ATOM     58  C   UNL A   1      42.572  28.994  32.770  1.00  0.00     0.074 A 
ATOM     59  C   UNL A   1      43.004  27.828  32.028  1.00  0.00     0.031 C 
ATOM     60  C   UNL A   1      43.150  29.421  33.920  1.00  0.00     0.031 A 
BRANCH  47  61
ATOM     61  C   UNL A   1      40.574  34.528  36.249  1.00  0.00    -0.014 A 
ATOM     62  C   UNL A   1      41.369  35.680  36.138  1.00  0.00     0.009 A 
ATOM     63  C   UNL A   1      39.750  34.375  37.376  1.00  0.00     0.009 A 
ATOM     64  C   UNL A   1      41.364  36.641  37.151  1.00  0.00     0.001 A 
ATOM     65  C   UNL A   1      39.729  35.350  38.374  1.00  0.00     0.001 A 
ATOM     66  C   UNL A   1      40.542  36.477  38.265  1.00  0.00     0.000 A 
ENDBRANCH  47  61
BRANCH  48  67
ATOM     67  C   UNL A   1      40.262  27.870  28.838  1.00  0.00    -0.014 A 
ATOM     68  C   UNL A   1      40.915  28.124  27.622  1.00  0.00     0.009 A 
ATOM     69  C   UNL A   1      39.558  26.666  28.992  1.00  0.00     0.009 A 
ATOM     70  C   UNL A   1      40.840  27.203  26.574  1.00  0.00     0.001 A 
ATOM     71  C   UNL A   1      39.508  25.735  27.953  1.00  0.00     0.001 A 
ATOM     72  C   UNL A   1      40.140  26.009  26.742  1.00  0.00     0.000 A 
ENDBRANCH  48  67
BRANCH  60  73
ATOM     73  C   UNL A   1      44.295  28.607  34.454  1.00  0.00    -0.014 A 
ATOM     74  C   UNL A   1      44.078  27.524  35.320  1.00  0.00     0.009 A 
ATOM     75  C   UNL A   1      45.608  28.914  34.066  1.00  0.00     0.009 A 
ATOM     76  C   UNL A   1      45.157  26.790  35.818  1.00  0.00     0.001 A 
ATOM     77  C   UNL A   1      46.683  28.160  34.542  1.00  0.00     0.001 A 
ATOM     78  C   UNL A   1      46.457  27.107  35.426  1.00  0.00     0.000 A 
ENDBRANCH  60  73
ENDBRANCH  34  35
ENDBRANCH  27  29
ENDBRANCH  26  27
ENDBRANCH  25  26
ENDBRANCH  24  25
ENDBRANCH  23  24
ENDBRANCH  22  23
ENDBRANCH   1  22
TORSDOF 20
ENDMDL
