MODEL 1
REMARK VINA RESULT:      -9.4      0.000      0.000
REMARK SMILES CC(C)(O)CC[C@@H](C(=O)OCCOCCOC(=O)c1ccc(-c2c3nc(c(-c4ccccc4)c4ccc([nH]4)c(-c4ccccc4)c4nc(c(-c5ccccc5)c5ccc2[nH]5)C=C4)C=C3)cc1)[C@@H]1CCS(=O)(=O)C1
REMARK SMILES IDX 12 1 11 2 10 3 8 4 9 5 7 6 6 7 5 8 2 9 1 10 3 11 4 12 67 14
REMARK SMILES IDX 68 15 73 16 69 17 70 18 71 19 72 20 13 21 14 22 15 23 16 24
REMARK SMILES IDX 17 25 18 26 19 27 20 28 66 29 21 30 65 31 22 32 23 33 24 34
REMARK SMILES IDX 59 35 25 36 64 37 58 38 60 39 26 40 63 41 57 42 56 43 27 45
REMARK SMILES IDX 49 46 34 47 48 48 35 49 38 50 47 51 61 52 36 53 37 54 46 56
REMARK SMILES IDX 62 57 39 58 28 59 29 60 33 61 30 62 32 63 31 64 50 65 51 66
REMARK SMILES IDX 55 67 52 68 54 69 53 70 40 71 41 72 45 73 42 74 44 75 43 76
REMARK H PARENT 4 13 60 44 38 55
REMARK Flexibility Score: inf
ROOT
ATOM      1  C   UNL A   1      34.024  29.356  26.527  1.00  0.00     0.202 C 
ENDROOT
BRANCH   1   2
ATOM      2  C   UNL A   1      33.818  27.951  25.957  1.00  0.00     0.261 C 
BRANCH   2   3
ATOM      3  O   UNL A   1      32.962  27.164  26.792  1.00  0.00    -0.463 OA
BRANCH   3   4
ATOM      4  C   UNL A   1      31.720  26.928  26.308  1.00  0.00     0.309 C 
ATOM      5  O   UNL A   1      30.739  26.744  27.016  1.00  0.00    -0.252 OA
BRANCH   4   6
ATOM      6  C   UNL A   1      31.646  26.913  24.778  1.00  0.00     0.103 C 
BRANCH   6   7
ATOM      7  C   UNL A   1      30.522  27.765  24.130  1.00  0.00     0.018 C 
BRANCH   7   8
ATOM      8  C   UNL A   1      30.843  29.143  23.524  1.00  0.00     0.035 C 
BRANCH   8   9
ATOM      9  C   UNL A   1      29.694  29.975  22.926  1.00  0.00     0.059 C 
ATOM     10  C   UNL A   1      29.188  31.105  23.823  1.00  0.00     0.042 C 
ATOM     11  C   UNL A   1      28.521  29.030  22.624  1.00  0.00     0.042 C 
BRANCH   9  12
ATOM     12  O   UNL A   1      30.155  30.531  21.696  1.00  0.00    -0.390 OA
ATOM     13  H   UNL A   1      29.792  31.425  21.590  1.00  0.00     0.211 HD
ENDBRANCH   9  12
ENDBRANCH   8   9
ENDBRANCH   7   8
ENDBRANCH   6   7
BRANCH   6  14
ATOM     14  C   UNL A   1      31.590  25.463  24.172  1.00  0.00     0.019 C 
ATOM     15  C   UNL A   1      32.818  24.547  24.370  1.00  0.00     0.021 C 
ATOM     16  C   UNL A   1      31.463  25.525  22.633  1.00  0.00     0.141 C 
ATOM     17  C   UNL A   1      33.948  25.074  23.489  1.00  0.00     0.137 C 
ATOM     18  S   UNL A   1      33.140  25.685  22.018  1.00  0.00     0.150 S 
ATOM     19  O   UNL A   1      33.445  27.092  21.868  1.00  0.00    -0.229 OA
ATOM     20  O   UNL A   1      33.334  24.734  20.943  1.00  0.00    -0.229 OA
ENDBRANCH   6  14
ENDBRANCH   4   6
ENDBRANCH   3   4
ENDBRANCH   2   3
ENDBRANCH   1   2
BRANCH   1  21
ATOM     21  O   UNL A   1      33.192  30.401  26.036  1.00  0.00    -0.374 OA
BRANCH  21  22
ATOM     22  C   UNL A   1      32.103  30.848  26.842  1.00  0.00     0.202 C 
BRANCH  22  23
ATOM     23  C   UNL A   1      31.935  32.352  27.101  1.00  0.00     0.261 C 
BRANCH  23  24
ATOM     24  O   UNL A   1      33.176  33.082  27.099  1.00  0.00    -0.460 OA
BRANCH  24  25
ATOM     25  C   UNL A   1      33.309  33.946  28.137  1.00  0.00     0.338 C 
ATOM     26  O   UNL A   1      32.541  34.838  28.458  1.00  0.00    -0.246 OA
BRANCH  25  27
ATOM     27  C   UNL A   1      34.440  33.566  28.999  1.00  0.00     0.060 A 
ATOM     28  C   UNL A   1      35.701  34.062  28.645  1.00  0.00     0.016 A 
ATOM     29  C   UNL A   1      34.306  32.627  30.023  1.00  0.00     0.016 A 
ATOM     30  C   UNL A   1      36.841  33.572  29.270  1.00  0.00     0.010 A 
ATOM     31  C   UNL A   1      35.459  32.133  30.650  1.00  0.00     0.010 A 
ATOM     32  C   UNL A   1      36.732  32.570  30.243  1.00  0.00    -0.014 A 
BRANCH  32  33
ATOM     33  C   UNL A   1      37.976  31.900  30.702  1.00  0.00     0.031 A 
ATOM     34  C   UNL A   1      38.538  32.227  32.059  1.00  0.00     0.074 A 
ATOM     35  C   UNL A   1      38.531  30.926  29.960  1.00  0.00     0.049 A 
ATOM     36  N   UNL A   1      39.553  31.689  32.687  1.00  0.00    -0.248 NA
ATOM     37  C   UNL A   1      37.865  33.297  32.814  1.00  0.00     0.031 C 
ATOM     38  C   UNL A   1      38.055  30.487  28.649  1.00  0.00     0.029 A 
ATOM     39  N   UNL A   1      39.608  30.115  30.217  1.00  0.00    -0.354 N 
ATOM     40  C   UNL A   1      39.635  32.346  33.909  1.00  0.00     0.074 A 
ATOM     41  C   UNL A   1      38.596  33.353  33.917  1.00  0.00     0.031 C 
ATOM     42  C   UNL A   1      38.831  29.477  28.219  1.00  0.00     0.029 A 
ATOM     43  C   UNL A   1      39.872  29.219  29.211  1.00  0.00     0.049 A 
ATOM     44  H   UNL A   1      40.139  30.169  31.044  1.00  0.00     0.167 HD
ATOM     45  C   UNL A   1      40.485  32.121  34.940  1.00  0.00     0.031 A 
ATOM     46  C   UNL A   1      40.850  28.299  29.096  1.00  0.00     0.031 A 
ATOM     47  C   UNL A   1      41.533  31.133  34.928  1.00  0.00     0.049 A 
ATOM     48  C   UNL A   1      41.828  28.120  30.226  1.00  0.00     0.074 A 
ATOM     49  C   UNL A   1      42.451  30.835  35.920  1.00  0.00     0.029 A 
ATOM     50  N   UNL A   1      41.803  30.283  33.866  1.00  0.00    -0.354 N 
ATOM     51  N   UNL A   1      41.879  28.735  31.384  1.00  0.00    -0.248 NA
ATOM     52  C   UNL A   1      42.873  27.105  30.038  1.00  0.00     0.031 C 
ATOM     53  C   UNL A   1      43.313  29.845  35.437  1.00  0.00     0.029 A 
ATOM     54  C   UNL A   1      42.889  29.478  34.170  1.00  0.00     0.049 A 
ATOM     55  H   UNL A   1      41.299  30.257  33.022  1.00  0.00     0.167 HD
ATOM     56  C   UNL A   1      42.945  28.165  32.069  1.00  0.00     0.074 A 
ATOM     57  C   UNL A   1      43.492  27.137  31.209  1.00  0.00     0.031 C 
ATOM     58  C   UNL A   1      43.430  28.467  33.299  1.00  0.00     0.031 A 
BRANCH  45  59
ATOM     59  C   UNL A   1      40.332  32.981  36.165  1.00  0.00    -0.014 A 
ATOM     60  C   UNL A   1      39.434  32.637  37.190  1.00  0.00     0.009 A 
ATOM     61  C   UNL A   1      41.124  34.129  36.318  1.00  0.00     0.009 A 
ATOM     62  C   UNL A   1      39.312  33.442  38.325  1.00  0.00     0.001 A 
ATOM     63  C   UNL A   1      41.021  34.916  37.468  1.00  0.00     0.001 A 
ATOM     64  C   UNL A   1      40.110  34.576  38.466  1.00  0.00     0.000 A 
ENDBRANCH  45  59
BRANCH  46  65
ATOM     65  C   UNL A   1      40.971  27.492  27.854  1.00  0.00    -0.014 A 
ATOM     66  C   UNL A   1      40.333  26.248  27.732  1.00  0.00     0.009 A 
ATOM     67  C   UNL A   1      41.757  27.957  26.788  1.00  0.00     0.009 A 
ATOM     68  C   UNL A   1      40.510  25.473  26.582  1.00  0.00     0.001 A 
ATOM     69  C   UNL A   1      41.903  27.197  25.626  1.00  0.00     0.001 A 
ATOM     70  C   UNL A   1      41.290  25.950  25.529  1.00  0.00     0.000 A 
ENDBRANCH  46  65
BRANCH  58  71
ATOM     71  C   UNL A   1      44.595  27.651  33.793  1.00  0.00    -0.014 A 
ATOM     72  C   UNL A   1      44.404  26.454  34.502  1.00  0.00     0.009 A 
ATOM     73  C   UNL A   1      45.905  28.085  33.536  1.00  0.00     0.009 A 
ATOM     74  C   UNL A   1      45.499  25.737  34.989  1.00  0.00     0.001 A 
ATOM     75  C   UNL A   1      46.999  27.348  33.994  1.00  0.00     0.001 A 
ATOM     76  C   UNL A   1      46.795  26.184  34.732  1.00  0.00     0.000 A 
ENDBRANCH  58  71
ENDBRANCH  32  33
ENDBRANCH  25  27
ENDBRANCH  24  25
ENDBRANCH  23  24
ENDBRANCH  22  23
ENDBRANCH  21  22
ENDBRANCH   1  21
TORSDOF 19
ENDMDL
MODEL 2
REMARK VINA RESULT:      -9.2      4.172      7.563
REMARK SMILES CC(C)(O)CC[C@@H](C(=O)OCCOCCOC(=O)c1ccc(-c2c3nc(c(-c4ccccc4)c4ccc([nH]4)c(-c4ccccc4)c4nc(c(-c5ccccc5)c5ccc2[nH]5)C=C4)C=C3)cc1)[C@@H]1CCS(=O)(=O)C1
REMARK SMILES IDX 12 1 11 2 10 3 8 4 9 5 7 6 6 7 5 8 2 9 1 10 3 11 4 12 67 14
REMARK SMILES IDX 68 15 73 16 69 17 70 18 71 19 72 20 13 21 14 22 15 23 16 24
REMARK SMILES IDX 17 25 18 26 19 27 20 28 66 29 21 30 65 31 22 32 23 33 24 34
REMARK SMILES IDX 59 35 25 36 64 37 58 38 60 39 26 40 63 41 57 42 56 43 27 45
REMARK SMILES IDX 49 46 34 47 48 48 35 49 38 50 47 51 61 52 36 53 37 54 46 56
REMARK SMILES IDX 62 57 39 58 28 59 29 60 33 61 30 62 32 63 31 64 50 65 51 66
REMARK SMILES IDX 55 67 52 68 54 69 53 70 40 71 41 72 45 73 42 74 44 75 43 76
REMARK H PARENT 4 13 60 44 38 55
REMARK Flexibility Score: inf
ROOT
ATOM      1  C   UNL A   1      33.848  28.788  26.985  1.00  0.00     0.202 C 
ENDROOT
BRANCH   1   2
ATOM      2  C   UNL A   1      33.024  29.066  25.725  1.00  0.00     0.261 C 
BRANCH   2   3
ATOM      3  O   UNL A   1      31.634  28.800  25.937  1.00  0.00    -0.463 OA
BRANCH   3   4
ATOM      4  C   UNL A   1      31.255  27.507  25.814  1.00  0.00     0.309 C 
ATOM      5  O   UNL A   1      30.832  26.831  26.743  1.00  0.00    -0.252 OA
BRANCH   4   6
ATOM      6  C   UNL A   1      31.403  26.951  24.393  1.00  0.00     0.103 C 
BRANCH   6   7
ATOM      7  C   UNL A   1      30.314  27.369  23.369  1.00  0.00     0.018 C 
BRANCH   7   8
ATOM      8  C   UNL A   1      30.512  28.616  22.489  1.00  0.00     0.035 C 
BRANCH   8   9
ATOM      9  C   UNL A   1      29.409  29.690  22.466  1.00  0.00     0.059 C 
ATOM     10  C   UNL A   1      29.474  30.699  23.613  1.00  0.00     0.042 C 
ATOM     11  C   UNL A   1      28.047  28.982  22.516  1.00  0.00     0.042 C 
BRANCH   9  12
ATOM     12  O   UNL A   1      29.510  30.390  21.228  1.00  0.00    -0.390 OA
ATOM     13  H   UNL A   1      28.674  30.849  21.047  1.00  0.00     0.211 HD
ENDBRANCH   9  12
ENDBRANCH   8   9
ENDBRANCH   7   8
ENDBRANCH   6   7
BRANCH   6  14
ATOM     14  C   UNL A   1      31.562  25.388  24.349  1.00  0.00     0.019 C 
ATOM     15  C   UNL A   1      32.870  24.776  24.894  1.00  0.00     0.021 C 
ATOM     16  C   UNL A   1      31.540  24.883  22.888  1.00  0.00     0.141 C 
ATOM     17  C   UNL A   1      33.991  25.106  23.912  1.00  0.00     0.137 C 
ATOM     18  S   UNL A   1      33.226  25.041  22.299  1.00  0.00     0.150 S 
ATOM     19  O   UNL A   1      33.374  26.332  21.661  1.00  0.00    -0.229 OA
ATOM     20  O   UNL A   1      33.607  23.807  21.645  1.00  0.00    -0.229 OA
ENDBRANCH   6  14
ENDBRANCH   4   6
ENDBRANCH   3   4
ENDBRANCH   2   3
ENDBRANCH   1   2
BRANCH   1  21
ATOM     21  O   UNL A   1      34.671  29.836  27.486  1.00  0.00    -0.374 OA
BRANCH  21  22
ATOM     22  C   UNL A   1      34.117  31.146  27.605  1.00  0.00     0.202 C 
BRANCH  22  23
ATOM     23  C   UNL A   1      34.438  31.981  28.854  1.00  0.00     0.261 C 
BRANCH  23  24
ATOM     24  O   UNL A   1      35.846  32.089  29.130  1.00  0.00    -0.460 OA
BRANCH  24  25
ATOM     25  C   UNL A   1      36.258  31.349  30.191  1.00  0.00     0.338 C 
ATOM     26  O   UNL A   1      35.716  31.253  31.280  1.00  0.00    -0.246 OA
BRANCH  25  27
ATOM     27  C   UNL A   1      37.387  30.479  29.821  1.00  0.00     0.060 A 
ATOM     28  C   UNL A   1      38.180  29.991  30.866  1.00  0.00     0.016 A 
ATOM     29  C   UNL A   1      37.758  30.276  28.490  1.00  0.00     0.016 A 
ATOM     30  C   UNL A   1      39.383  29.354  30.588  1.00  0.00     0.010 A 
ATOM     31  C   UNL A   1      38.974  29.635  28.212  1.00  0.00     0.010 A 
ATOM     32  C   UNL A   1      39.812  29.214  29.261  1.00  0.00    -0.014 A 
BRANCH  32  33
ATOM     33  C   UNL A   1      41.205  28.760  29.018  1.00  0.00     0.031 A 
ATOM     34  C   UNL A   1      41.461  27.331  28.619  1.00  0.00     0.074 A 
ATOM     35  C   UNL A   1      42.217  29.644  29.044  1.00  0.00     0.049 A 
ATOM     36  N   UNL A   1      42.585  26.758  28.270  1.00  0.00    -0.248 NA
ATOM     37  C   UNL A   1      40.297  26.430  28.604  1.00  0.00     0.031 C 
ATOM     38  C   UNL A   1      42.092  31.063  29.374  1.00  0.00     0.029 A 
ATOM     39  N   UNL A   1      43.551  29.479  28.766  1.00  0.00    -0.354 N 
ATOM     40  C   UNL A   1      42.264  25.436  27.985  1.00  0.00     0.074 A 
ATOM     41  C   UNL A   1      40.850  25.280  28.246  1.00  0.00     0.031 C 
ATOM     42  C   UNL A   1      43.299  31.643  29.269  1.00  0.00     0.029 A 
ATOM     43  C   UNL A   1      44.284  30.632  28.893  1.00  0.00     0.049 A 
ATOM     44  H   UNL A   1      43.944  28.616  28.500  1.00  0.00     0.167 HD
ATOM     45  C   UNL A   1      43.068  24.445  27.531  1.00  0.00     0.031 A 
ATOM     46  C   UNL A   1      45.604  30.848  28.732  1.00  0.00     0.031 A 
ATOM     47  C   UNL A   1      44.480  24.591  27.289  1.00  0.00     0.049 A 
ATOM     48  C   UNL A   1      46.489  29.711  28.298  1.00  0.00     0.074 A 
ATOM     49  C   UNL A   1      45.382  23.643  26.837  1.00  0.00     0.029 A 
ATOM     50  N   UNL A   1      45.197  25.762  27.484  1.00  0.00    -0.354 N 
ATOM     51  N   UNL A   1      46.167  28.472  28.014  1.00  0.00    -0.248 NA
ATOM     52  C   UNL A   1      47.919  30.010  28.146  1.00  0.00     0.031 C 
ATOM     53  C   UNL A   1      46.654  24.225  26.812  1.00  0.00     0.029 A 
ATOM     54  C   UNL A   1      46.533  25.554  27.184  1.00  0.00     0.049 A 
ATOM     55  H   UNL A   1      44.812  26.614  27.791  1.00  0.00     0.167 HD
ATOM     56  C   UNL A   1      47.348  27.852  27.627  1.00  0.00     0.074 A 
ATOM     57  C   UNL A   1      48.387  28.859  27.686  1.00  0.00     0.031 C 
ATOM     58  C   UNL A   1      47.558  26.563  27.259  1.00  0.00     0.031 A 
BRANCH  45  59
ATOM     59  C   UNL A   1      42.440  23.099  27.288  1.00  0.00    -0.014 A 
ATOM     60  C   UNL A   1      42.374  22.132  28.305  1.00  0.00     0.009 A 
ATOM     61  C   UNL A   1      41.869  22.807  26.040  1.00  0.00     0.009 A 
ATOM     62  C   UNL A   1      41.778  20.891  28.066  1.00  0.00     0.001 A 
ATOM     63  C   UNL A   1      41.247  21.578  25.813  1.00  0.00     0.001 A 
ATOM     64  C   UNL A   1      41.209  20.618  26.823  1.00  0.00     0.000 A 
ENDBRANCH  45  59
BRANCH  46  65
ATOM     65  C   UNL A   1      46.178  32.192  29.008  1.00  0.00    -0.014 A 
ATOM     66  C   UNL A   1      46.639  32.535  30.289  1.00  0.00     0.009 A 
ATOM     67  C   UNL A   1      46.238  33.154  27.986  1.00  0.00     0.009 A 
ATOM     68  C   UNL A   1      47.115  33.824  30.546  1.00  0.00     0.001 A 
ATOM     69  C   UNL A   1      46.748  34.428  28.238  1.00  0.00     0.001 A 
ATOM     70  C   UNL A   1      47.174  34.767  29.520  1.00  0.00     0.000 A 
ENDBRANCH  46  65
BRANCH  58  71
ATOM     71  C   UNL A   1      48.960  26.184  26.865  1.00  0.00    -0.014 A 
ATOM     72  C   UNL A   1      49.842  25.585  27.778  1.00  0.00     0.009 A 
ATOM     73  C   UNL A   1      49.403  26.427  25.555  1.00  0.00     0.009 A 
ATOM     74  C   UNL A   1      51.153  25.283  27.403  1.00  0.00     0.001 A 
ATOM     75  C   UNL A   1      50.704  26.093  25.172  1.00  0.00     0.001 A 
ATOM     76  C   UNL A   1      51.581  25.535  26.100  1.00  0.00     0.000 A 
ENDBRANCH  58  71
ENDBRANCH  32  33
ENDBRANCH  25  27
ENDBRANCH  24  25
ENDBRANCH  23  24
ENDBRANCH  22  23
ENDBRANCH  21  22
ENDBRANCH   1  21
TORSDOF 19
ENDMDL
MODEL 3
REMARK VINA RESULT:      -9.0      4.570      9.245
REMARK SMILES CC(C)(O)CC[C@@H](C(=O)OCCOCCOC(=O)c1ccc(-c2c3nc(c(-c4ccccc4)c4ccc([nH]4)c(-c4ccccc4)c4nc(c(-c5ccccc5)c5ccc2[nH]5)C=C4)C=C3)cc1)[C@@H]1CCS(=O)(=O)C1
REMARK SMILES IDX 12 1 11 2 10 3 8 4 9 5 7 6 6 7 5 8 2 9 1 10 3 11 4 12 67 14
REMARK SMILES IDX 68 15 73 16 69 17 70 18 71 19 72 20 13 21 14 22 15 23 16 24
REMARK SMILES IDX 17 25 18 26 19 27 20 28 66 29 21 30 65 31 22 32 23 33 24 34
REMARK SMILES IDX 59 35 25 36 64 37 58 38 60 39 26 40 63 41 57 42 56 43 27 45
REMARK SMILES IDX 49 46 34 47 48 48 35 49 38 50 47 51 61 52 36 53 37 54 46 56
REMARK SMILES IDX 62 57 39 58 28 59 29 60 33 61 30 62 32 63 31 64 50 65 51 66
REMARK SMILES IDX 55 67 52 68 54 69 53 70 40 71 41 72 45 73 42 74 44 75 43 76
REMARK H PARENT 4 13 60 44 38 55
REMARK Flexibility Score: inf
ROOT
ATOM      1  C   UNL A   1      37.826  21.557  25.248  1.00  0.00     0.202 C 
ENDROOT
BRANCH   1   2
ATOM      2  C   UNL A   1      36.533  22.365  25.112  1.00  0.00     0.261 C 
BRANCH   2   3
ATOM      3  O   UNL A   1      35.914  22.155  23.837  1.00  0.00    -0.463 OA
BRANCH   3   4
ATOM      4  C   UNL A   1      34.734  22.790  23.644  1.00  0.00     0.309 C 
ATOM      5  O   UNL A   1      34.529  23.579  22.730  1.00  0.00    -0.252 OA
BRANCH   4   6
ATOM      6  C   UNL A   1      33.662  22.432  24.678  1.00  0.00     0.103 C 
BRANCH   6   7
ATOM      7  C   UNL A   1      33.430  20.921  24.941  1.00  0.00     0.018 C 
BRANCH   7   8
ATOM      8  C   UNL A   1      32.708  20.051  23.896  1.00  0.00     0.035 C 
BRANCH   8   9
ATOM      9  C   UNL A   1      32.887  18.522  23.954  1.00  0.00     0.059 C 
ATOM     10  C   UNL A   1      34.302  18.056  24.297  1.00  0.00     0.042 C 
ATOM     11  C   UNL A   1      32.498  17.940  22.587  1.00  0.00     0.042 C 
BRANCH   9  12
ATOM     12  O   UNL A   1      31.983  18.018  24.935  1.00  0.00    -0.390 OA
ATOM     13  H   UNL A   1      31.270  18.660  25.079  1.00  0.00     0.211 HD
ENDBRANCH   9  12
ENDBRANCH   8   9
ENDBRANCH   7   8
ENDBRANCH   6   7
BRANCH   6  14
ATOM     14  C   UNL A   1      32.273  23.113  24.396  1.00  0.00     0.019 C 
ATOM     15  C   UNL A   1      32.141  24.628  24.660  1.00  0.00     0.021 C 
ATOM     16  C   UNL A   1      31.183  22.517  25.316  1.00  0.00     0.141 C 
ATOM     17  C   UNL A   1      32.154  24.848  26.171  1.00  0.00     0.137 C 
ATOM     18  S   UNL A   1      31.290  23.440  26.849  1.00  0.00     0.150 S 
ATOM     19  O   UNL A   1      32.178  22.737  27.750  1.00  0.00    -0.229 OA
ATOM     20  O   UNL A   1      29.956  23.847  27.240  1.00  0.00    -0.229 OA
ENDBRANCH   6  14
ENDBRANCH   4   6
ENDBRANCH   3   4
ENDBRANCH   2   3
ENDBRANCH   1   2
BRANCH   1  21
ATOM     21  O   UNL A   1      37.788  20.177  24.902  1.00  0.00    -0.374 OA
BRANCH  21  22
ATOM     22  C   UNL A   1      38.712  19.287  25.525  1.00  0.00     0.202 C 
BRANCH  22  23
ATOM     23  C   UNL A   1      40.057  19.837  26.022  1.00  0.00     0.261 C 
BRANCH  23  24
ATOM     24  O   UNL A   1      41.167  18.952  25.784  1.00  0.00    -0.460 OA
BRANCH  24  25
ATOM     25  C   UNL A   1      42.376  19.567  25.803  1.00  0.00     0.338 C 
ATOM     26  O   UNL A   1      43.418  19.164  25.311  1.00  0.00    -0.246 OA
BRANCH  25  27
ATOM     27  C   UNL A   1      42.266  20.931  26.346  1.00  0.00     0.060 A 
ATOM     28  C   UNL A   1      42.511  21.988  25.459  1.00  0.00     0.016 A 
ATOM     29  C   UNL A   1      42.089  21.172  27.709  1.00  0.00     0.016 A 
ATOM     30  C   UNL A   1      42.646  23.283  25.942  1.00  0.00     0.010 A 
ATOM     31  C   UNL A   1      42.228  22.481  28.194  1.00  0.00     0.010 A 
ATOM     32  C   UNL A   1      42.553  23.533  27.318  1.00  0.00    -0.014 A 
BRANCH  32  33
ATOM     33  C   UNL A   1      42.949  24.875  27.816  1.00  0.00     0.031 A 
ATOM     34  C   UNL A   1      41.891  25.916  28.065  1.00  0.00     0.074 A 
ATOM     35  C   UNL A   1      44.229  25.120  28.149  1.00  0.00     0.049 A 
ATOM     36  N   UNL A   1      42.013  27.111  28.587  1.00  0.00    -0.248 NA
ATOM     37  C   UNL A   1      40.514  25.564  27.685  1.00  0.00     0.031 C 
ATOM     38  C   UNL A   1      45.337  24.179  27.996  1.00  0.00     0.029 A 
ATOM     39  N   UNL A   1      44.805  26.233  28.707  1.00  0.00    -0.354 N 
ATOM     40  C   UNL A   1      40.731  27.648  28.605  1.00  0.00     0.074 A 
ATOM     41  C   UNL A   1      39.854  26.669  28.001  1.00  0.00     0.031 C 
ATOM     42  C   UNL A   1      46.461  24.751  28.459  1.00  0.00     0.029 A 
ATOM     43  C   UNL A   1      46.156  26.106  28.914  1.00  0.00     0.049 A 
ATOM     44  H   UNL A   1      44.299  27.046  28.937  1.00  0.00     0.167 HD
ATOM     45  C   UNL A   1      40.316  28.841  29.095  1.00  0.00     0.031 A 
ATOM     46  C   UNL A   1      47.050  26.985  29.408  1.00  0.00     0.031 A 
ATOM     47  C   UNL A   1      41.189  29.827  29.679  1.00  0.00     0.049 A 
ATOM     48  C   UNL A   1      46.574  28.333  29.877  1.00  0.00     0.074 A 
ATOM     49  C   UNL A   1      40.865  31.070  30.196  1.00  0.00     0.029 A 
ATOM     50  N   UNL A   1      42.561  29.682  29.819  1.00  0.00    -0.354 N 
ATOM     51  N   UNL A   1      45.356  28.818  29.906  1.00  0.00    -0.248 NA
ATOM     52  C   UNL A   1      47.598  29.248  30.399  1.00  0.00     0.031 C 
ATOM     53  C   UNL A   1      42.048  31.699  30.597  1.00  0.00     0.029 A 
ATOM     54  C   UNL A   1      43.100  30.822  30.392  1.00  0.00     0.049 A 
ATOM     55  H   UNL A   1      43.074  28.887  29.550  1.00  0.00     0.167 HD
ATOM     56  C   UNL A   1      45.465  30.083  30.470  1.00  0.00     0.074 A 
ATOM     57  C   UNL A   1      46.863  30.276  30.795  1.00  0.00     0.031 C 
ATOM     58  C   UNL A   1      44.495  31.005  30.698  1.00  0.00     0.031 A 
BRANCH  45  59
ATOM     59  C   UNL A   1      38.849  29.158  28.998  1.00  0.00    -0.014 A 
ATOM     60  C   UNL A   1      37.990  28.983  30.096  1.00  0.00     0.009 A 
ATOM     61  C   UNL A   1      38.322  29.678  27.805  1.00  0.00     0.009 A 
ATOM     62  C   UNL A   1      36.632  29.293  29.991  1.00  0.00     0.001 A 
ATOM     63  C   UNL A   1      36.970  30.014  27.712  1.00  0.00     0.001 A 
ATOM     64  C   UNL A   1      36.124  29.814  28.802  1.00  0.00     0.000 A 
ENDBRANCH  45  59
BRANCH  46  65
ATOM     65  C   UNL A   1      48.492  26.630  29.460  1.00  0.00    -0.014 A 
ATOM     66  C   UNL A   1      49.049  26.017  30.593  1.00  0.00     0.009 A 
ATOM     67  C   UNL A   1      49.330  26.934  28.374  1.00  0.00     0.009 A 
ATOM     68  C   UNL A   1      50.419  25.749  30.650  1.00  0.00     0.001 A 
ATOM     69  C   UNL A   1      50.692  26.632  28.420  1.00  0.00     0.001 A 
ATOM     70  C   UNL A   1      51.238  26.052  29.563  1.00  0.00     0.000 A 
ENDBRANCH  46  65
BRANCH  58  71
ATOM     71  C   UNL A   1      44.918  32.292  31.354  1.00  0.00    -0.014 A 
ATOM     72  C   UNL A   1      44.937  32.432  32.751  1.00  0.00     0.009 A 
ATOM     73  C   UNL A   1      45.311  33.381  30.559  1.00  0.00     0.009 A 
ATOM     74  C   UNL A   1      45.289  33.650  33.336  1.00  0.00     0.001 A 
ATOM     75  C   UNL A   1      45.696  34.587  31.148  1.00  0.00     0.001 A 
ATOM     76  C   UNL A   1      45.671  34.725  32.534  1.00  0.00     0.000 A 
ENDBRANCH  58  71
ENDBRANCH  32  33
ENDBRANCH  25  27
ENDBRANCH  24  25
ENDBRANCH  23  24
ENDBRANCH  22  23
ENDBRANCH  21  22
ENDBRANCH   1  21
TORSDOF 19
ENDMDL
