MODEL 1
REMARK VINA RESULT:     -11.0      0.000      0.000
REMARK SMILES COc1ccc(-c2cccc3ccccc23)c(C(=O)OCCOCCOC(=O)c2ccc(-c3c4nc(c(-c5ccccc5)c5ccc([nH]5)c(-c5ccccc5)c5nc(c(-c6ccccc6)c6ccc3[nH]6)C=C5)C=C4)cc2)c1
REMARK SMILES IDX 24 1 23 2 22 3 21 4 20 5 18 6 19 7 17 8 3 9 4 10 77 11 5 12
REMARK SMILES IDX 6 13 2 14 1 15 7 16 8 17 16 18 9 19 11 20 15 21 10 22 12 23
REMARK SMILES IDX 14 24 13 25 25 26 26 27 27 28 28 29 29 30 30 31 76 32 31 33
REMARK SMILES IDX 75 34 32 35 33 36 34 37 69 38 35 39 74 40 68 41 70 42 36 43
REMARK SMILES IDX 73 44 67 45 66 46 37 48 59 49 44 50 58 51 45 52 48 53 57 54
REMARK SMILES IDX 71 55 46 56 47 57 56 59 72 60 49 61 38 62 39 63 43 64 40 65
REMARK SMILES IDX 42 66 41 67 60 68 61 69 65 70 62 71 64 72 63 73 50 74 51 75
REMARK SMILES IDX 55 76 52 77 54 78 53 79
REMARK H PARENT 70 47 48 58
REMARK Flexibility Score: inf
ROOT
ATOM      1  C   UNL A   1      31.502  32.311  26.809  1.00  0.00     0.202 C 
ENDROOT
BRANCH   1   2
ATOM      2  O   UNL A   1      31.762  30.916  26.885  1.00  0.00    -0.374 OA
BRANCH   2   3
ATOM      3  C   UNL A   1      33.069  30.497  27.271  1.00  0.00     0.202 C 
BRANCH   3   4
ATOM      4  C   UNL A   1      33.455  29.038  27.034  1.00  0.00     0.261 C 
BRANCH   4   5
ATOM      5  O   UNL A   1      32.351  28.323  26.447  1.00  0.00    -0.460 OA
BRANCH   5   6
ATOM      6  C   UNL A   1      32.489  27.989  25.138  1.00  0.00     0.338 C 
ATOM      7  O   UNL A   1      33.526  27.666  24.583  1.00  0.00    -0.246 OA
BRANCH   6   8
ATOM      8  C   UNL A   1      31.153  28.046  24.487  1.00  0.00     0.071 A 
ATOM      9  C   UNL A   1      29.586  29.404  23.221  1.00  0.00     0.119 A 
ATOM     10  C   UNL A   1      28.785  28.273  23.053  1.00  0.00     0.047 A 
ATOM     11  C   UNL A   1      30.762  29.293  23.953  1.00  0.00     0.062 A 
ATOM     12  C   UNL A   1      29.151  27.036  23.601  1.00  0.00     0.013 A 
ATOM     13  C   UNL A   1      30.343  26.890  24.326  1.00  0.00    -0.003 A 
BRANCH   9  14
ATOM     14  O   UNL A   1      29.117  30.537  22.617  1.00  0.00    -0.497 OA
ATOM     15  C   UNL A   1      28.321  30.375  21.448  1.00  0.00     0.278 C 
ENDBRANCH   9  14
BRANCH  13  16
ATOM     16  C   UNL A   1      30.771  25.536  24.753  1.00  0.00    -0.010 A 
ATOM     17  C   UNL A   1      30.316  25.105  26.014  1.00  0.00     0.009 A 
ATOM     18  C   UNL A   1      31.543  24.631  23.958  1.00  0.00    -0.011 A 
ATOM     19  C   UNL A   1      30.478  23.790  26.432  1.00  0.00     0.001 A 
ATOM     20  C   UNL A   1      31.584  23.264  24.342  1.00  0.00    -0.018 A 
ATOM     21  C   UNL A   1      32.298  24.993  22.816  1.00  0.00     0.009 A 
ATOM     22  C   UNL A   1      31.047  22.862  25.570  1.00  0.00     0.009 A 
ATOM     23  C   UNL A   1      32.181  22.305  23.509  1.00  0.00     0.009 A 
ATOM     24  C   UNL A   1      32.982  24.035  22.051  1.00  0.00     0.001 A 
ATOM     25  C   UNL A   1      32.876  22.686  22.365  1.00  0.00     0.001 A 
ENDBRANCH  13  16
ENDBRANCH   6   8
ENDBRANCH   5   6
ENDBRANCH   4   5
ENDBRANCH   3   4
ENDBRANCH   2   3
ENDBRANCH   1   2
BRANCH   1  26
ATOM     26  C   UNL A   1      32.620  33.298  27.186  1.00  0.00     0.261 C 
BRANCH  26  27
ATOM     27  O   UNL A   1      32.316  34.134  28.304  1.00  0.00    -0.460 OA
BRANCH  27  28
ATOM     28  C   UNL A   1      33.322  34.977  28.642  1.00  0.00     0.338 C 
ATOM     29  O   UNL A   1      33.300  36.196  28.683  1.00  0.00    -0.246 OA
BRANCH  28  30
ATOM     30  C   UNL A   1      34.448  34.171  29.132  1.00  0.00     0.060 A 
ATOM     31  C   UNL A   1      34.163  33.128  30.021  1.00  0.00     0.016 A 
ATOM     32  C   UNL A   1      35.755  34.429  28.718  1.00  0.00     0.016 A 
ATOM     33  C   UNL A   1      35.195  32.332  30.505  1.00  0.00     0.010 A 
ATOM     34  C   UNL A   1      36.792  33.640  29.219  1.00  0.00     0.010 A 
ATOM     35  C   UNL A   1      36.517  32.597  30.122  1.00  0.00    -0.014 A 
BRANCH  35  36
ATOM     36  C   UNL A   1      37.623  31.828  30.730  1.00  0.00     0.031 A 
ATOM     37  C   UNL A   1      38.089  32.183  32.112  1.00  0.00     0.074 A 
ATOM     38  C   UNL A   1      38.197  30.819  30.051  1.00  0.00     0.049 A 
ATOM     39  N   UNL A   1      39.071  31.672  32.808  1.00  0.00    -0.248 NA
ATOM     40  C   UNL A   1      37.354  33.257  32.802  1.00  0.00     0.031 C 
ATOM     41  C   UNL A   1      37.799  30.363  28.718  1.00  0.00     0.029 A 
ATOM     42  N   UNL A   1      39.244  29.999  30.388  1.00  0.00    -0.354 N 
ATOM     43  C   UNL A   1      39.080  32.367  34.011  1.00  0.00     0.074 A 
ATOM     44  C   UNL A   1      38.020  33.349  33.944  1.00  0.00     0.031 C 
ATOM     45  C   UNL A   1      38.604  29.355  28.344  1.00  0.00     0.029 A 
ATOM     46  C   UNL A   1      39.596  29.122  29.391  1.00  0.00     0.049 A 
ATOM     47  H   UNL A   1      39.699  30.036  31.260  1.00  0.00     0.167 HD
ATOM     48  C   UNL A   1      39.904  32.200  35.071  1.00  0.00     0.031 A 
ATOM     49  C   UNL A   1      40.625  28.256  29.320  1.00  0.00     0.031 A 
ATOM     50  C   UNL A   1      40.961  31.225  35.126  1.00  0.00     0.049 A 
ATOM     51  C   UNL A   1      41.572  28.148  30.487  1.00  0.00     0.074 A 
ATOM     52  C   UNL A   1      41.824  30.952  36.172  1.00  0.00     0.029 A 
ATOM     53  N   UNL A   1      41.308  30.378  34.085  1.00  0.00    -0.354 N 
ATOM     54  N   UNL A   1      41.538  28.772  31.640  1.00  0.00    -0.248 NA
ATOM     55  C   UNL A   1      42.698  27.215  30.342  1.00  0.00     0.031 C 
ATOM     56  C   UNL A   1      42.742  29.991  35.738  1.00  0.00     0.029 A 
ATOM     57  C   UNL A   1      42.405  29.615  34.447  1.00  0.00     0.049 A 
ATOM     58  H   UNL A   1      40.844  30.326  33.219  1.00  0.00     0.167 HD
ATOM     59  C   UNL A   1      42.623  28.293  32.363  1.00  0.00     0.074 A 
ATOM     60  C   UNL A   1      43.278  27.307  31.530  1.00  0.00     0.031 C 
ATOM     61  C   UNL A   1      43.046  28.643  33.602  1.00  0.00     0.031 A 
BRANCH  48  62
ATOM     62  C   UNL A   1      39.729  33.115  36.250  1.00  0.00    -0.014 A 
ATOM     63  C   UNL A   1      38.927  32.758  37.345  1.00  0.00     0.009 A 
ATOM     64  C   UNL A   1      40.443  34.323  36.296  1.00  0.00     0.009 A 
ATOM     65  C   UNL A   1      38.832  33.601  38.454  1.00  0.00     0.001 A 
ATOM     66  C   UNL A   1      40.368  35.151  37.417  1.00  0.00     0.001 A 
ATOM     67  C   UNL A   1      39.559  34.791  38.493  1.00  0.00     0.000 A 
ENDBRANCH  48  62
BRANCH  49  68
ATOM     68  C   UNL A   1      40.857  27.462  28.083  1.00  0.00    -0.014 A 
ATOM     69  C   UNL A   1      41.622  27.977  27.025  1.00  0.00     0.009 A 
ATOM     70  C   UNL A   1      40.269  26.195  27.936  1.00  0.00     0.009 A 
ATOM     71  C   UNL A   1      41.759  27.259  25.834  1.00  0.00     0.001 A 
ATOM     72  C   UNL A   1      40.438  25.463  26.759  1.00  0.00     0.001 A 
ATOM     73  C   UNL A   1      41.170  26.002  25.704  1.00  0.00     0.000 A 
ENDBRANCH  49  68
BRANCH  61  74
ATOM     74  C   UNL A   1      44.262  27.940  34.138  1.00  0.00    -0.014 A 
ATOM     75  C   UNL A   1      44.153  26.715  34.814  1.00  0.00     0.009 A 
ATOM     76  C   UNL A   1      45.537  28.487  33.924  1.00  0.00     0.009 A 
ATOM     77  C   UNL A   1      45.295  26.070  35.295  1.00  0.00     0.001 A 
ATOM     78  C   UNL A   1      46.678  27.824  34.375  1.00  0.00     0.001 A 
ATOM     79  C   UNL A   1      46.556  26.621  35.069  1.00  0.00     0.000 A 
ENDBRANCH  61  74
ENDBRANCH  35  36
ENDBRANCH  28  30
ENDBRANCH  27  28
ENDBRANCH  26  27
ENDBRANCH   1  26
TORSDOF 16
ENDMDL
MODEL 2
REMARK VINA RESULT:     -11.0      4.719      9.053
REMARK SMILES COc1ccc(-c2cccc3ccccc23)c(C(=O)OCCOCCOC(=O)c2ccc(-c3c4nc(c(-c5ccccc5)c5ccc([nH]5)c(-c5ccccc5)c5nc(c(-c6ccccc6)c6ccc3[nH]6)C=C5)C=C4)cc2)c1
REMARK SMILES IDX 24 1 23 2 22 3 21 4 20 5 18 6 19 7 17 8 3 9 4 10 77 11 5 12
REMARK SMILES IDX 6 13 2 14 1 15 7 16 8 17 16 18 9 19 11 20 15 21 10 22 12 23
REMARK SMILES IDX 14 24 13 25 25 26 26 27 27 28 28 29 29 30 30 31 76 32 31 33
REMARK SMILES IDX 75 34 32 35 33 36 34 37 69 38 35 39 74 40 68 41 70 42 36 43
REMARK SMILES IDX 73 44 67 45 66 46 37 48 59 49 44 50 58 51 45 52 48 53 57 54
REMARK SMILES IDX 71 55 46 56 47 57 56 59 72 60 49 61 38 62 39 63 43 64 40 65
REMARK SMILES IDX 42 66 41 67 60 68 61 69 65 70 62 71 64 72 63 73 50 74 51 75
REMARK SMILES IDX 55 76 52 77 54 78 53 79
REMARK H PARENT 70 47 48 58
REMARK Flexibility Score: inf
ROOT
ATOM      1  C   UNL A   1      38.166  21.142  25.374  1.00  0.00     0.202 C 
ENDROOT
BRANCH   1   2
ATOM      2  O   UNL A   1      38.674  22.303  26.015  1.00  0.00    -0.374 OA
BRANCH   2   3
ATOM      3  C   UNL A   1      37.872  23.483  26.000  1.00  0.00     0.202 C 
BRANCH   3   4
ATOM      4  C   UNL A   1      36.354  23.318  26.046  1.00  0.00     0.261 C 
BRANCH   4   5
ATOM      5  O   UNL A   1      35.749  23.984  24.923  1.00  0.00    -0.460 OA
BRANCH   5   6
ATOM      6  C   UNL A   1      35.627  23.246  23.790  1.00  0.00     0.338 C 
ATOM      7  O   UNL A   1      36.388  23.259  22.836  1.00  0.00    -0.246 OA
BRANCH   6   8
ATOM      8  C   UNL A   1      34.423  22.382  23.910  1.00  0.00     0.071 A 
ATOM      9  C   UNL A   1      33.544  20.245  24.662  1.00  0.00     0.119 A 
ATOM     10  C   UNL A   1      32.255  20.713  24.396  1.00  0.00     0.047 A 
ATOM     11  C   UNL A   1      34.628  21.075  24.403  1.00  0.00     0.062 A 
ATOM     12  C   UNL A   1      32.042  21.999  23.882  1.00  0.00     0.013 A 
ATOM     13  C   UNL A   1      33.117  22.866  23.630  1.00  0.00    -0.003 A 
BRANCH   9  14
ATOM     14  O   UNL A   1      33.602  18.981  25.179  1.00  0.00    -0.497 OA
ATOM     15  C   UNL A   1      34.137  17.957  24.346  1.00  0.00     0.278 C 
ENDBRANCH   9  14
BRANCH  13  16
ATOM     16  C   UNL A   1      32.840  24.269  23.238  1.00  0.00    -0.010 A 
ATOM     17  C   UNL A   1      32.928  24.562  21.863  1.00  0.00     0.009 A 
ATOM     18  C   UNL A   1      32.434  25.307  24.134  1.00  0.00    -0.011 A 
ATOM     19  C   UNL A   1      32.495  25.779  21.353  1.00  0.00     0.001 A 
ATOM     20  C   UNL A   1      31.876  26.491  23.584  1.00  0.00    -0.018 A 
ATOM     21  C   UNL A   1      32.562  25.261  25.544  1.00  0.00     0.009 A 
ATOM     22  C   UNL A   1      31.910  26.709  22.202  1.00  0.00     0.009 A 
ATOM     23  C   UNL A   1      31.305  27.466  24.417  1.00  0.00     0.009 A 
ATOM     24  C   UNL A   1      32.083  26.295  26.362  1.00  0.00     0.001 A 
ATOM     25  C   UNL A   1      31.404  27.370  25.801  1.00  0.00     0.001 A 
ENDBRANCH  13  16
ENDBRANCH   6   8
ENDBRANCH   5   6
ENDBRANCH   4   5
ENDBRANCH   3   4
ENDBRANCH   2   3
ENDBRANCH   1   2
BRANCH   1  26
ATOM     26  C   UNL A   1      39.060  19.893  25.278  1.00  0.00     0.261 C 
BRANCH  26  27
ATOM     27  O   UNL A   1      39.880  19.666  26.425  1.00  0.00    -0.460 OA
BRANCH  27  28
ATOM     28  C   UNL A   1      41.208  19.734  26.165  1.00  0.00     0.338 C 
ATOM     29  O   UNL A   1      41.895  18.943  25.540  1.00  0.00    -0.246 OA
BRANCH  28  30
ATOM     30  C   UNL A   1      41.697  21.040  26.627  1.00  0.00     0.060 A 
ATOM     31  C   UNL A   1      41.678  21.292  28.004  1.00  0.00     0.016 A 
ATOM     32  C   UNL A   1      42.173  21.993  25.726  1.00  0.00     0.016 A 
ATOM     33  C   UNL A   1      42.139  22.511  28.488  1.00  0.00     0.010 A 
ATOM     34  C   UNL A   1      42.619  23.223  26.213  1.00  0.00     0.010 A 
ATOM     35  C   UNL A   1      42.593  23.490  27.594  1.00  0.00    -0.014 A 
BRANCH  35  36
ATOM     36  C   UNL A   1      42.969  24.827  28.101  1.00  0.00     0.031 A 
ATOM     37  C   UNL A   1      41.895  25.847  28.343  1.00  0.00     0.074 A 
ATOM     38  C   UNL A   1      44.259  25.117  28.346  1.00  0.00     0.049 A 
ATOM     39  N   UNL A   1      42.011  27.088  28.737  1.00  0.00    -0.248 NA
ATOM     40  C   UNL A   1      40.507  25.412  28.111  1.00  0.00     0.031 C 
ATOM     41  C   UNL A   1      45.381  24.190  28.182  1.00  0.00     0.029 A 
ATOM     42  N   UNL A   1      44.844  26.280  28.778  1.00  0.00    -0.354 N 
ATOM     43  C   UNL A   1      40.716  27.588  28.787  1.00  0.00     0.074 A 
ATOM     44  C   UNL A   1      39.831  26.524  28.368  1.00  0.00     0.031 C 
ATOM     45  C   UNL A   1      46.521  24.827  28.495  1.00  0.00     0.029 A 
ATOM     46  C   UNL A   1      46.215  26.212  28.841  1.00  0.00     0.049 A 
ATOM     47  H   UNL A   1      44.332  27.085  29.019  1.00  0.00     0.167 HD
ATOM     48  C   UNL A   1      40.307  28.826  29.150  1.00  0.00     0.031 A 
ATOM     49  C   UNL A   1      47.120  27.173  29.113  1.00  0.00     0.031 A 
ATOM     50  C   UNL A   1      41.195  29.881  29.559  1.00  0.00     0.049 A 
ATOM     51  C   UNL A   1      46.636  28.563  29.437  1.00  0.00     0.074 A 
ATOM     52  C   UNL A   1      40.874  31.158  29.983  1.00  0.00     0.029 A 
ATOM     53  N   UNL A   1      42.577  29.786  29.579  1.00  0.00    -0.354 N 
ATOM     54  N   UNL A   1      45.407  29.008  29.535  1.00  0.00    -0.248 NA
ATOM     55  C   UNL A   1      47.666  29.580  29.688  1.00  0.00     0.031 C 
ATOM     56  C   UNL A   1      42.065  31.861  30.188  1.00  0.00     0.029 A 
ATOM     57  C   UNL A   1      43.126  30.999  29.960  1.00  0.00     0.049 A 
ATOM     58  H   UNL A   1      43.092  28.978  29.355  1.00  0.00     0.167 HD
ATOM     59  C   UNL A   1      45.516  30.350  29.879  1.00  0.00     0.074 A 
ATOM     60  C   UNL A   1      46.930  30.637  30.000  1.00  0.00     0.031 C 
ATOM     61  C   UNL A   1      44.536  31.266  30.069  1.00  0.00     0.031 A 
BRANCH  48  62
ATOM     62  C   UNL A   1      38.836  29.130  29.083  1.00  0.00    -0.014 A 
ATOM     63  C   UNL A   1      38.007  28.997  30.208  1.00  0.00     0.009 A 
ATOM     64  C   UNL A   1      38.291  29.632  27.892  1.00  0.00     0.009 A 
ATOM     65  C   UNL A   1      36.657  29.345  30.133  1.00  0.00     0.001 A 
ATOM     66  C   UNL A   1      36.947  30.005  27.828  1.00  0.00     0.001 A 
ATOM     67  C   UNL A   1      36.131  29.858  28.947  1.00  0.00     0.000 A 
ENDBRANCH  48  62
BRANCH  49  68
ATOM     68  C   UNL A   1      48.576  26.879  29.033  1.00  0.00    -0.014 A 
ATOM     69  C   UNL A   1      49.272  26.988  27.820  1.00  0.00     0.009 A 
ATOM     70  C   UNL A   1      49.271  26.439  30.172  1.00  0.00     0.009 A 
ATOM     71  C   UNL A   1      50.619  26.625  27.740  1.00  0.00     0.001 A 
ATOM     72  C   UNL A   1      50.626  26.111  30.098  1.00  0.00     0.001 A 
ATOM     73  C   UNL A   1      51.295  26.190  28.879  1.00  0.00     0.000 A 
ENDBRANCH  49  68
BRANCH  61  74
ATOM     74  C   UNL A   1      44.959  32.658  30.448  1.00  0.00    -0.014 A 
ATOM     75  C   UNL A   1      45.130  33.655  29.475  1.00  0.00     0.009 A 
ATOM     76  C   UNL A   1      45.143  32.989  31.800  1.00  0.00     0.009 A 
ATOM     77  C   UNL A   1      45.512  34.946  29.847  1.00  0.00     0.001 A 
ATOM     78  C   UNL A   1      45.491  34.288  32.171  1.00  0.00     0.001 A 
ATOM     79  C   UNL A   1      45.685  35.263  31.193  1.00  0.00     0.000 A 
ENDBRANCH  61  74
ENDBRANCH  35  36
ENDBRANCH  28  30
ENDBRANCH  27  28
ENDBRANCH  26  27
ENDBRANCH   1  26
TORSDOF 16
ENDMDL
MODEL 3
REMARK VINA RESULT:     -11.0      3.528      5.480
REMARK SMILES COc1ccc(-c2cccc3ccccc23)c(C(=O)OCCOCCOC(=O)c2ccc(-c3c4nc(c(-c5ccccc5)c5ccc([nH]5)c(-c5ccccc5)c5nc(c(-c6ccccc6)c6ccc3[nH]6)C=C5)C=C4)cc2)c1
REMARK SMILES IDX 24 1 23 2 22 3 21 4 20 5 18 6 19 7 17 8 3 9 4 10 77 11 5 12
REMARK SMILES IDX 6 13 2 14 1 15 7 16 8 17 16 18 9 19 11 20 15 21 10 22 12 23
REMARK SMILES IDX 14 24 13 25 25 26 26 27 27 28 28 29 29 30 30 31 76 32 31 33
REMARK SMILES IDX 75 34 32 35 33 36 34 37 69 38 35 39 74 40 68 41 70 42 36 43
REMARK SMILES IDX 73 44 67 45 66 46 37 48 59 49 44 50 58 51 45 52 48 53 57 54
REMARK SMILES IDX 71 55 46 56 47 57 56 59 72 60 49 61 38 62 39 63 43 64 40 65
REMARK SMILES IDX 42 66 41 67 60 68 61 69 65 70 62 71 64 72 63 73 50 74 51 75
REMARK SMILES IDX 55 76 52 77 54 78 53 79
REMARK H PARENT 70 47 48 58
REMARK Flexibility Score: inf
ROOT
ATOM      1  C   UNL A   1      32.273  29.759  25.912  1.00  0.00     0.202 C 
ENDROOT
BRANCH   1   2
ATOM      2  O   UNL A   1      33.040  28.696  25.364  1.00  0.00    -0.374 OA
BRANCH   2   3
ATOM      3  C   UNL A   1      32.401  27.812  24.445  1.00  0.00     0.202 C 
BRANCH   3   4
ATOM      4  C   UNL A   1      33.286  26.959  23.538  1.00  0.00     0.261 C 
BRANCH   4   5
ATOM      5  O   UNL A   1      34.120  26.093  24.330  1.00  0.00    -0.460 OA
BRANCH   5   6
ATOM      6  C   UNL A   1      33.940  24.760  24.141  1.00  0.00     0.338 C 
ATOM      7  O   UNL A   1      34.159  24.143  23.111  1.00  0.00    -0.246 OA
BRANCH   6   8
ATOM      8  C   UNL A   1      33.460  24.157  25.412  1.00  0.00     0.071 A 
ATOM      9  C   UNL A   1      31.540  23.720  26.836  1.00  0.00     0.119 A 
ATOM     10  C   UNL A   1      32.353  22.919  27.639  1.00  0.00     0.047 A 
ATOM     11  C   UNL A   1      32.099  24.352  25.731  1.00  0.00     0.062 A 
ATOM     12  C   UNL A   1      33.712  22.740  27.346  1.00  0.00     0.013 A 
ATOM     13  C   UNL A   1      34.298  23.349  26.226  1.00  0.00    -0.003 A 
BRANCH   9  14
ATOM     14  O   UNL A   1      30.232  23.790  27.228  1.00  0.00    -0.497 OA
ATOM     15  C   UNL A   1      29.472  22.587  27.190  1.00  0.00     0.278 C 
ENDBRANCH   9  14
BRANCH  13  16
ATOM     16  C   UNL A   1      35.695  23.008  25.863  1.00  0.00    -0.010 A 
ATOM     17  C   UNL A   1      36.647  24.035  26.009  1.00  0.00     0.009 A 
ATOM     18  C   UNL A   1      36.142  21.715  25.447  1.00  0.00    -0.011 A 
ATOM     19  C   UNL A   1      38.008  23.782  25.898  1.00  0.00     0.001 A 
ATOM     20  C   UNL A   1      37.536  21.445  25.467  1.00  0.00    -0.018 A 
ATOM     21  C   UNL A   1      35.300  20.670  24.991  1.00  0.00     0.009 A 
ATOM     22  C   UNL A   1      38.449  22.481  25.697  1.00  0.00     0.009 A 
ATOM     23  C   UNL A   1      38.017  20.147  25.236  1.00  0.00     0.009 A 
ATOM     24  C   UNL A   1      35.809  19.406  24.659  1.00  0.00     0.001 A 
ATOM     25  C   UNL A   1      37.159  19.128  24.836  1.00  0.00     0.001 A 
ENDBRANCH  13  16
ENDBRANCH   6   8
ENDBRANCH   5   6
ENDBRANCH   4   5
ENDBRANCH   3   4
ENDBRANCH   2   3
ENDBRANCH   1   2
BRANCH   1  26
ATOM     26  C   UNL A   1      32.838  30.547  27.107  1.00  0.00     0.261 C 
BRANCH  26  27
ATOM     27  O   UNL A   1      34.260  30.689  27.099  1.00  0.00    -0.460 OA
BRANCH  27  28
ATOM     28  C   UNL A   1      34.767  31.139  28.272  1.00  0.00     0.338 C 
ATOM     29  O   UNL A   1      34.213  31.818  29.121  1.00  0.00    -0.246 OA
BRANCH  28  30
ATOM     30  C   UNL A   1      36.089  30.526  28.462  1.00  0.00     0.060 A 
ATOM     31  C   UNL A   1      36.430  30.101  29.751  1.00  0.00     0.016 A 
ATOM     32  C   UNL A   1      36.970  30.364  27.392  1.00  0.00     0.016 A 
ATOM     33  C   UNL A   1      37.667  29.507  29.977  1.00  0.00     0.010 A 
ATOM     34  C   UNL A   1      38.218  29.784  27.625  1.00  0.00     0.010 A 
ATOM     35  C   UNL A   1      38.575  29.364  28.919  1.00  0.00    -0.014 A 
BRANCH  35  36
ATOM     36  C   UNL A   1      39.932  28.843  29.185  1.00  0.00     0.031 A 
ATOM     37  C   UNL A   1      40.948  29.741  29.829  1.00  0.00     0.074 A 
ATOM     38  C   UNL A   1      40.245  27.577  28.858  1.00  0.00     0.049 A 
ATOM     39  N   UNL A   1      42.203  29.502  30.104  1.00  0.00    -0.248 NA
ATOM     40  C   UNL A   1      40.490  31.087  30.213  1.00  0.00     0.031 C 
ATOM     41  C   UNL A   1      39.327  26.605  28.263  1.00  0.00     0.029 A 
ATOM     42  N   UNL A   1      41.429  26.894  28.973  1.00  0.00    -0.354 N 
ATOM     43  C   UNL A   1      42.690  30.669  30.681  1.00  0.00     0.074 A 
ATOM     44  C   UNL A   1      41.602  31.621  30.700  1.00  0.00     0.031 C 
ATOM     45  C   UNL A   1      39.987  25.455  28.051  1.00  0.00     0.029 A 
ATOM     46  C   UNL A   1      41.380  25.622  28.456  1.00  0.00     0.049 A 
ATOM     47  H   UNL A   1      42.236  27.277  29.386  1.00  0.00     0.167 HD
ATOM     48  C   UNL A   1      43.935  30.919  31.149  1.00  0.00     0.031 A 
ATOM     49  C   UNL A   1      42.360  24.711  28.297  1.00  0.00     0.031 A 
ATOM     50  C   UNL A   1      45.014  29.967  31.119  1.00  0.00     0.049 A 
ATOM     51  C   UNL A   1      43.754  25.048  28.757  1.00  0.00     0.074 A 
ATOM     52  C   UNL A   1      46.301  30.112  31.604  1.00  0.00     0.029 A 
ATOM     53  N   UNL A   1      44.935  28.702  30.558  1.00  0.00    -0.354 N 
ATOM     54  N   UNL A   1      44.189  26.133  29.351  1.00  0.00    -0.248 NA
ATOM     55  C   UNL A   1      44.791  24.033  28.526  1.00  0.00     0.031 C 
ATOM     56  C   UNL A   1      47.024  28.963  31.271  1.00  0.00     0.029 A 
ATOM     57  C   UNL A   1      46.167  28.074  30.642  1.00  0.00     0.049 A 
ATOM     58  H   UNL A   1      44.126  28.309  30.161  1.00  0.00     0.167 HD
ATOM     59  C   UNL A   1      45.543  25.923  29.581  1.00  0.00     0.074 A 
ATOM     60  C   UNL A   1      45.850  24.597  29.089  1.00  0.00     0.031 C 
ATOM     61  C   UNL A   1      46.453  26.756  30.141  1.00  0.00     0.031 A 
BRANCH  48  62
ATOM     62  C   UNL A   1      44.219  32.288  31.698  1.00  0.00    -0.014 A 
ATOM     63  C   UNL A   1      44.605  33.349  30.864  1.00  0.00     0.009 A 
ATOM     64  C   UNL A   1      44.021  32.537  33.065  1.00  0.00     0.009 A 
ATOM     65  C   UNL A   1      44.802  34.626  31.392  1.00  0.00     0.001 A 
ATOM     66  C   UNL A   1      44.192  33.820  33.586  1.00  0.00     0.001 A 
ATOM     67  C   UNL A   1      44.587  34.862  32.750  1.00  0.00     0.000 A 
ENDBRANCH  48  62
BRANCH  49  68
ATOM     68  C   UNL A   1      42.080  23.415  27.621  1.00  0.00    -0.014 A 
ATOM     69  C   UNL A   1      41.531  22.334  28.327  1.00  0.00     0.009 A 
ATOM     70  C   UNL A   1      42.409  23.239  26.267  1.00  0.00     0.009 A 
ATOM     71  C   UNL A   1      41.354  21.096  27.703  1.00  0.00     0.001 A 
ATOM     72  C   UNL A   1      42.198  22.012  25.636  1.00  0.00     0.001 A 
ATOM     73  C   UNL A   1      41.685  20.937  26.358  1.00  0.00     0.000 A 
ENDBRANCH  49  68
BRANCH  61  74
ATOM     74  C   UNL A   1      47.863  26.248  30.270  1.00  0.00    -0.014 A 
ATOM     75  C   UNL A   1      48.330  25.702  31.476  1.00  0.00     0.009 A 
ATOM     76  C   UNL A   1      48.719  26.274  29.159  1.00  0.00     0.009 A 
ATOM     77  C   UNL A   1      49.639  25.224  31.574  1.00  0.00     0.001 A 
ATOM     78  C   UNL A   1      50.015  25.764  29.249  1.00  0.00     0.001 A 
ATOM     79  C   UNL A   1      50.477  25.249  30.460  1.00  0.00     0.000 A 
ENDBRANCH  61  74
ENDBRANCH  35  36
ENDBRANCH  28  30
ENDBRANCH  27  28
ENDBRANCH  26  27
ENDBRANCH   1  26
TORSDOF 16
ENDMDL
