MODEL 1
REMARK VINA RESULT:      -9.0      0.000      0.000
REMARK SMILES COC[C@@H](C)CC(=O)N1[C@@H](C2CC2)SC[C@H]1C(=O)OCCOCCOC(=O)c1ccc(-c2c3nc(c(-c4ccccc4)c4ccc([nH]4)c(-c4ccccc4)c4nc(c(-c5ccccc5)c5ccc2[nH]5)C=C4)C=C3)cc1
REMARK SMILES IDX 20 1 19 2 17 3 18 4 16 5 9 6 10 7 14 8 15 9 7 10 8 11 6 12
REMARK SMILES IDX 4 13 5 14 3 15 2 16 1 17 11 18 12 19 13 20 21 21 22 22 23 23
REMARK SMILES IDX 24 24 25 25 26 26 27 27 28 28 29 29 75 30 30 31 74 32 31 33
REMARK SMILES IDX 32 34 33 35 68 36 34 37 73 38 67 39 69 40 35 41 72 42 66 43
REMARK SMILES IDX 65 44 36 46 58 47 43 48 57 49 44 50 47 51 56 52 70 53 45 54
REMARK SMILES IDX 46 55 55 57 71 58 48 59 37 60 38 61 42 62 39 63 41 64 40 65
REMARK SMILES IDX 59 66 60 67 64 68 61 69 63 70 62 71 49 72 50 73 54 74 51 75
REMARK SMILES IDX 53 76 52 77
REMARK H PARENT 69 45 47 56
REMARK Flexibility Score: inf
ROOT
ATOM      1  C   UNL A   1      36.982  23.738  25.980  1.00  0.00     0.261 C 
ENDROOT
BRANCH   1   2
ATOM      2  O   UNL A   1      36.161  24.289  24.934  1.00  0.00    -0.462 OA
BRANCH   2   3
ATOM      3  C   UNL A   1      34.825  24.129  25.107  1.00  0.00     0.329 C 
ATOM      4  O   UNL A   1      34.138  24.818  25.858  1.00  0.00    -0.250 OA
BRANCH   3   5
ATOM      5  C   UNL A   1      34.229  22.936  24.356  1.00  0.00     0.206 C 
ATOM      6  N   UNL A   1      33.146  22.106  24.915  1.00  0.00    -0.316 N 
ATOM      7  C   UNL A   1      31.820  22.546  24.548  1.00  0.00     0.147 C 
ATOM      8  S   UNL A   1      31.967  23.450  23.002  1.00  0.00    -0.134 SA
ATOM      9  C   UNL A   1      33.775  23.454  22.991  1.00  0.00     0.109 C 
BRANCH   6  10
ATOM     10  C   UNL A   1      33.464  20.983  25.650  1.00  0.00     0.224 C 
ATOM     11  O   UNL A   1      34.527  20.931  26.278  1.00  0.00    -0.275 OA
BRANCH  10  12
ATOM     12  C   UNL A   1      32.651  19.692  25.488  1.00  0.00     0.106 C 
BRANCH  12  13
ATOM     13  C   UNL A   1      33.025  18.592  24.472  1.00  0.00     0.021 C 
ATOM     14  C   UNL A   1      32.370  18.936  23.115  1.00  0.00     0.010 C 
BRANCH  13  15
ATOM     15  C   UNL A   1      32.560  17.192  24.923  1.00  0.00     0.163 C 
BRANCH  15  16
ATOM     16  O   UNL A   1      33.483  16.600  25.833  1.00  0.00    -0.384 OA
ATOM     17  C   UNL A   1      34.608  16.019  25.184  1.00  0.00     0.194 C 
ENDBRANCH  15  16
ENDBRANCH  13  15
ENDBRANCH  12  13
ENDBRANCH  10  12
ENDBRANCH   6  10
BRANCH   7  18
ATOM     18  C   UNL A   1      31.211  23.315  25.695  1.00  0.00     0.022 C 
ATOM     19  C   UNL A   1      30.125  22.810  26.624  1.00  0.00     0.007 C 
ATOM     20  C   UNL A   1      31.531  22.963  27.132  1.00  0.00     0.007 C 
ENDBRANCH   7  18
ENDBRANCH   3   5
ENDBRANCH   2   3
ENDBRANCH   1   2
BRANCH   1  21
ATOM     21  C   UNL A   1      37.904  22.641  25.452  1.00  0.00     0.202 C 
BRANCH  21  22
ATOM     22  O   UNL A   1      37.621  21.305  25.866  1.00  0.00    -0.374 OA
BRANCH  22  23
ATOM     23  C   UNL A   1      37.990  20.250  24.978  1.00  0.00     0.202 C 
BRANCH  23  24
ATOM     24  C   UNL A   1      39.162  19.358  25.407  1.00  0.00     0.261 C 
BRANCH  24  25
ATOM     25  O   UNL A   1      40.019  19.967  26.391  1.00  0.00    -0.460 OA
BRANCH  25  26
ATOM     26  C   UNL A   1      41.331  19.958  26.060  1.00  0.00     0.338 C 
ATOM     27  O   UNL A   1      41.913  19.156  25.339  1.00  0.00    -0.246 OA
BRANCH  26  28
ATOM     28  C   UNL A   1      42.002  21.166  26.569  1.00  0.00     0.060 A 
ATOM     29  C   UNL A   1      42.031  21.350  27.957  1.00  0.00     0.016 A 
ATOM     30  C   UNL A   1      42.486  22.154  25.709  1.00  0.00     0.016 A 
ATOM     31  C   UNL A   1      42.474  22.557  28.491  1.00  0.00     0.010 A 
ATOM     32  C   UNL A   1      42.926  23.368  26.246  1.00  0.00     0.010 A 
ATOM     33  C   UNL A   1      42.873  23.590  27.635  1.00  0.00    -0.014 A 
BRANCH  33  34
ATOM     34  C   UNL A   1      43.048  24.955  28.187  1.00  0.00     0.031 A 
ATOM     35  C   UNL A   1      44.435  25.421  28.543  1.00  0.00     0.074 A 
ATOM     36  C   UNL A   1      42.001  25.789  28.311  1.00  0.00     0.049 A 
ATOM     37  N   UNL A   1      44.827  26.577  29.016  1.00  0.00    -0.248 NA
ATOM     38  C   UNL A   1      45.524  24.455  28.333  1.00  0.00     0.031 C 
ATOM     39  C   UNL A   1      40.622  25.476  27.945  1.00  0.00     0.029 A 
ATOM     40  N   UNL A   1      41.946  27.080  28.773  1.00  0.00    -0.354 N 
ATOM     41  C   UNL A   1      46.206  26.473  29.164  1.00  0.00     0.074 A 
ATOM     42  C   UNL A   1      46.575  25.133  28.767  1.00  0.00     0.031 C 
ATOM     43  C   UNL A   1      39.854  26.553  28.185  1.00  0.00     0.029 A 
ATOM     44  C   UNL A   1      40.683  27.616  28.750  1.00  0.00     0.049 A 
ATOM     45  H   UNL A   1      42.736  27.574  29.090  1.00  0.00     0.167 HD
ATOM     46  C   UNL A   1      47.088  27.413  29.582  1.00  0.00     0.031 A 
ATOM     47  C   UNL A   1      40.247  28.826  29.149  1.00  0.00     0.031 A 
ATOM     48  C   UNL A   1      46.719  28.739  29.998  1.00  0.00     0.049 A 
ATOM     49  C   UNL A   1      41.233  29.821  29.699  1.00  0.00     0.074 A 
ATOM     50  C   UNL A   1      47.534  29.765  30.443  1.00  0.00     0.029 A 
ATOM     51  N   UNL A   1      45.419  29.221  30.022  1.00  0.00    -0.354 N 
ATOM     52  N   UNL A   1      42.534  29.717  29.825  1.00  0.00    -0.248 NA
ATOM     53  C   UNL A   1      40.686  31.108  30.154  1.00  0.00     0.031 C 
ATOM     54  C   UNL A   1      46.721  30.850  30.788  1.00  0.00     0.029 A 
ATOM     55  C   UNL A   1      45.406  30.521  30.499  1.00  0.00     0.049 A 
ATOM     56  H   UNL A   1      44.622  28.713  29.743  1.00  0.00     0.167 HD
ATOM     57  C   UNL A   1      42.966  30.933  30.338  1.00  0.00     0.074 A 
ATOM     58  C   UNL A   1      41.788  31.762  30.495  1.00  0.00     0.031 C 
ATOM     59  C   UNL A   1      44.225  31.331  30.647  1.00  0.00     0.031 A 
BRANCH  46  60
ATOM     60  C   UNL A   1      48.536  27.011  29.645  1.00  0.00    -0.014 A 
ATOM     61  C   UNL A   1      49.400  27.219  28.556  1.00  0.00     0.009 A 
ATOM     62  C   UNL A   1      49.045  26.416  30.809  1.00  0.00     0.009 A 
ATOM     63  C   UNL A   1      50.730  26.796  28.617  1.00  0.00     0.001 A 
ATOM     64  C   UNL A   1      50.383  26.022  30.878  1.00  0.00     0.001 A 
ATOM     65  C   UNL A   1      51.220  26.200  29.778  1.00  0.00     0.000 A 
ENDBRANCH  46  60
BRANCH  47  66
ATOM     66  C   UNL A   1      38.807  29.171  29.034  1.00  0.00    -0.014 A 
ATOM     67  C   UNL A   1      38.287  29.669  27.829  1.00  0.00     0.009 A 
ATOM     68  C   UNL A   1      37.945  29.014  30.130  1.00  0.00     0.009 A 
ATOM     69  C   UNL A   1      36.939  30.020  27.730  1.00  0.00     0.001 A 
ATOM     70  C   UNL A   1      36.591  29.340  30.021  1.00  0.00     0.001 A 
ATOM     71  C   UNL A   1      36.092  29.851  28.824  1.00  0.00     0.000 A 
ENDBRANCH  47  66
BRANCH  59  72
ATOM     72  C   UNL A   1      44.399  32.742  31.138  1.00  0.00    -0.014 A 
ATOM     73  C   UNL A   1      44.590  33.810  30.248  1.00  0.00     0.009 A 
ATOM     74  C   UNL A   1      44.330  33.009  32.515  1.00  0.00     0.009 A 
ATOM     75  C   UNL A   1      44.747  35.111  30.730  1.00  0.00     0.001 A 
ATOM     76  C   UNL A   1      44.456  34.314  32.991  1.00  0.00     0.001 A 
ATOM     77  C   UNL A   1      44.674  35.362  32.101  1.00  0.00     0.000 A 
ENDBRANCH  59  72
ENDBRANCH  33  34
ENDBRANCH  26  28
ENDBRANCH  25  26
ENDBRANCH  24  25
ENDBRANCH  23  24
ENDBRANCH  22  23
ENDBRANCH  21  22
ENDBRANCH   1  21
TORSDOF 20
ENDMDL
MODEL 2
REMARK VINA RESULT:      -8.7      1.650      3.682
REMARK SMILES COC[C@@H](C)CC(=O)N1[C@@H](C2CC2)SC[C@H]1C(=O)OCCOCCOC(=O)c1ccc(-c2c3nc(c(-c4ccccc4)c4ccc([nH]4)c(-c4ccccc4)c4nc(c(-c5ccccc5)c5ccc2[nH]5)C=C4)C=C3)cc1
REMARK SMILES IDX 20 1 19 2 17 3 18 4 16 5 9 6 10 7 14 8 15 9 7 10 8 11 6 12
REMARK SMILES IDX 4 13 5 14 3 15 2 16 1 17 11 18 12 19 13 20 21 21 22 22 23 23
REMARK SMILES IDX 24 24 25 25 26 26 27 27 28 28 29 29 75 30 30 31 74 32 31 33
REMARK SMILES IDX 32 34 33 35 68 36 34 37 73 38 67 39 69 40 35 41 72 42 66 43
REMARK SMILES IDX 65 44 36 46 58 47 43 48 57 49 44 50 47 51 56 52 70 53 45 54
REMARK SMILES IDX 46 55 55 57 71 58 48 59 37 60 38 61 42 62 39 63 41 64 40 65
REMARK SMILES IDX 59 66 60 67 64 68 61 69 63 70 62 71 49 72 50 73 54 74 51 75
REMARK SMILES IDX 53 76 52 77
REMARK H PARENT 69 45 47 56
REMARK Flexibility Score: inf
ROOT
ATOM      1  C   UNL A   1      35.963  23.491  25.507  1.00  0.00     0.261 C 
ENDROOT
BRANCH   1   2
ATOM      2  O   UNL A   1      34.634  24.043  25.549  1.00  0.00    -0.462 OA
BRANCH   2   3
ATOM      3  C   UNL A   1      33.788  23.438  26.421  1.00  0.00     0.329 C 
ATOM      4  O   UNL A   1      34.139  22.924  27.481  1.00  0.00    -0.250 OA
BRANCH   3   5
ATOM      5  C   UNL A   1      32.339  23.352  25.939  1.00  0.00     0.206 C 
ATOM      6  N   UNL A   1      31.701  24.416  25.143  1.00  0.00    -0.316 N 
ATOM      7  C   UNL A   1      31.814  24.231  23.715  1.00  0.00     0.147 C 
ATOM      8  S   UNL A   1      32.021  22.470  23.422  1.00  0.00    -0.134 SA
ATOM      9  C   UNL A   1      32.206  22.038  25.168  1.00  0.00     0.109 C 
BRANCH   6  10
ATOM     10  C   UNL A   1      31.013  25.423  25.787  1.00  0.00     0.224 C 
ATOM     11  O   UNL A   1      29.853  25.693  25.458  1.00  0.00    -0.275 OA
BRANCH  10  12
ATOM     12  C   UNL A   1      31.749  26.393  26.721  1.00  0.00     0.106 C 
BRANCH  12  13
ATOM     13  C   UNL A   1      32.276  27.766  26.250  1.00  0.00     0.021 C 
ATOM     14  C   UNL A   1      33.820  27.710  26.213  1.00  0.00     0.010 C 
BRANCH  13  15
ATOM     15  C   UNL A   1      31.829  28.917  27.176  1.00  0.00     0.163 C 
BRANCH  15  16
ATOM     16  O   UNL A   1      32.925  29.746  27.550  1.00  0.00    -0.384 OA
ATOM     17  C   UNL A   1      32.912  31.012  26.900  1.00  0.00     0.194 C 
ENDBRANCH  15  16
ENDBRANCH  13  15
ENDBRANCH  12  13
ENDBRANCH  10  12
ENDBRANCH   6  10
BRANCH   7  18
ATOM     18  C   UNL A   1      32.915  25.112  23.180  1.00  0.00     0.022 C 
ATOM     19  C   UNL A   1      33.078  25.552  21.739  1.00  0.00     0.007 C 
ATOM     20  C   UNL A   1      32.646  26.547  22.779  1.00  0.00     0.007 C 
ENDBRANCH   7  18
ENDBRANCH   3   5
ENDBRANCH   2   3
ENDBRANCH   1   2
BRANCH   1  21
ATOM     21  C   UNL A   1      35.995  22.158  24.762  1.00  0.00     0.202 C 
BRANCH  21  22
ATOM     22  O   UNL A   1      36.433  21.018  25.499  1.00  0.00    -0.374 OA
BRANCH  22  23
ATOM     23  C   UNL A   1      36.984  19.930  24.757  1.00  0.00     0.202 C 
BRANCH  23  24
ATOM     24  C   UNL A   1      38.396  19.468  25.145  1.00  0.00     0.261 C 
BRANCH  24  25
ATOM     25  O   UNL A   1      39.172  20.484  25.805  1.00  0.00    -0.460 OA
BRANCH  25  26
ATOM     26  C   UNL A   1      40.456  20.129  26.043  1.00  0.00     0.338 C 
ATOM     27  O   UNL A   1      41.005  19.073  25.750  1.00  0.00    -0.246 OA
BRANCH  26  28
ATOM     28  C   UNL A   1      41.214  21.264  26.596  1.00  0.00     0.060 A 
ATOM     29  C   UNL A   1      41.166  21.456  27.983  1.00  0.00     0.016 A 
ATOM     30  C   UNL A   1      41.857  22.188  25.770  1.00  0.00     0.016 A 
ATOM     31  C   UNL A   1      41.696  22.614  28.544  1.00  0.00     0.010 A 
ATOM     32  C   UNL A   1      42.385  23.354  26.335  1.00  0.00     0.010 A 
ATOM     33  C   UNL A   1      42.260  23.593  27.716  1.00  0.00    -0.014 A 
BRANCH  33  34
ATOM     34  C   UNL A   1      42.540  24.935  28.277  1.00  0.00     0.031 A 
ATOM     35  C   UNL A   1      43.960  25.297  28.621  1.00  0.00     0.074 A 
ATOM     36  C   UNL A   1      41.558  25.842  28.421  1.00  0.00     0.049 A 
ATOM     37  N   UNL A   1      44.440  26.417  29.099  1.00  0.00    -0.248 NA
ATOM     38  C   UNL A   1      44.975  24.257  28.390  1.00  0.00     0.031 C 
ATOM     39  C   UNL A   1      40.155  25.633  28.069  1.00  0.00     0.029 A 
ATOM     40  N   UNL A   1      41.601  27.129  28.895  1.00  0.00    -0.354 N 
ATOM     41  C   UNL A   1      45.810  26.213  29.229  1.00  0.00     0.074 A 
ATOM     42  C   UNL A   1      46.076  24.853  28.818  1.00  0.00     0.031 C 
ATOM     43  C   UNL A   1      39.470  26.760  28.327  1.00  0.00     0.029 A 
ATOM     44  C   UNL A   1      40.380  27.756  28.891  1.00  0.00     0.049 A 
ATOM     45  H   UNL A   1      42.429  27.562  29.206  1.00  0.00     0.167 HD
ATOM     46  C   UNL A   1      46.762  27.083  29.645  1.00  0.00     0.031 A 
ATOM     47  C   UNL A   1      40.037  28.991  29.304  1.00  0.00     0.031 A 
ATOM     48  C   UNL A   1      46.495  28.429  30.076  1.00  0.00     0.049 A 
ATOM     49  C   UNL A   1      41.098  29.907  29.852  1.00  0.00     0.074 A 
ATOM     50  C   UNL A   1      47.387  29.388  30.520  1.00  0.00     0.029 A 
ATOM     51  N   UNL A   1      45.234  29.003  30.119  1.00  0.00    -0.354 N 
ATOM     52  N   UNL A   1      42.390  29.707  29.961  1.00  0.00    -0.248 NA
ATOM     53  C   UNL A   1      40.652  31.225  30.324  1.00  0.00     0.031 C 
ATOM     54  C   UNL A   1      46.659  30.526  30.883  1.00  0.00     0.029 A 
ATOM     55  C   UNL A   1      45.320  30.296  30.607  1.00  0.00     0.049 A 
ATOM     56  H   UNL A   1      44.399  28.557  29.846  1.00  0.00     0.167 HD
ATOM     57  C   UNL A   1      42.914  30.885  30.479  1.00  0.00     0.074 A 
ATOM     58  C   UNL A   1      41.801  31.795  30.656  1.00  0.00     0.031 C 
ATOM     59  C   UNL A   1      44.202  31.188  30.776  1.00  0.00     0.031 A 
BRANCH  46  60
ATOM     60  C   UNL A   1      48.179  26.577  29.687  1.00  0.00    -0.014 A 
ATOM     61  C   UNL A   1      49.072  26.816  28.629  1.00  0.00     0.009 A 
ATOM     62  C   UNL A   1      48.627  25.850  30.801  1.00  0.00     0.009 A 
ATOM     63  C   UNL A   1      50.368  26.298  28.666  1.00  0.00     0.001 A 
ATOM     64  C   UNL A   1      49.932  25.359  30.848  1.00  0.00     0.001 A 
ATOM     65  C   UNL A   1      50.798  25.572  29.777  1.00  0.00     0.000 A 
ENDBRANCH  46  60
BRANCH  47  66
ATOM     66  C   UNL A   1      38.624  29.440  29.210  1.00  0.00    -0.014 A 
ATOM     67  C   UNL A   1      37.742  29.245  30.283  1.00  0.00     0.009 A 
ATOM     68  C   UNL A   1      38.148  30.058  28.043  1.00  0.00     0.009 A 
ATOM     69  C   UNL A   1      36.406  29.642  30.183  1.00  0.00     0.001 A 
ATOM     70  C   UNL A   1      36.819  30.479  27.956  1.00  0.00     0.001 A 
ATOM     71  C   UNL A   1      35.947  30.262  29.022  1.00  0.00     0.000 A 
ENDBRANCH  47  66
BRANCH  59  72
ATOM     72  C   UNL A   1      44.483  32.578  31.276  1.00  0.00    -0.014 A 
ATOM     73  C   UNL A   1      44.822  33.619  30.398  1.00  0.00     0.009 A 
ATOM     74  C   UNL A   1      44.367  32.856  32.648  1.00  0.00     0.009 A 
ATOM     75  C   UNL A   1      45.075  34.902  30.889  1.00  0.00     0.001 A 
ATOM     76  C   UNL A   1      44.592  34.145  33.132  1.00  0.00     0.001 A 
ATOM     77  C   UNL A   1      44.955  35.164  32.254  1.00  0.00     0.000 A 
ENDBRANCH  59  72
ENDBRANCH  33  34
ENDBRANCH  26  28
ENDBRANCH  25  26
ENDBRANCH  24  25
ENDBRANCH  23  24
ENDBRANCH  22  23
ENDBRANCH  21  22
ENDBRANCH   1  21
TORSDOF 20
ENDMDL
MODEL 3
REMARK VINA RESULT:      -8.3      2.034      3.678
REMARK SMILES COC[C@@H](C)CC(=O)N1[C@@H](C2CC2)SC[C@H]1C(=O)OCCOCCOC(=O)c1ccc(-c2c3nc(c(-c4ccccc4)c4ccc([nH]4)c(-c4ccccc4)c4nc(c(-c5ccccc5)c5ccc2[nH]5)C=C4)C=C3)cc1
REMARK SMILES IDX 20 1 19 2 17 3 18 4 16 5 9 6 10 7 14 8 15 9 7 10 8 11 6 12
REMARK SMILES IDX 4 13 5 14 3 15 2 16 1 17 11 18 12 19 13 20 21 21 22 22 23 23
REMARK SMILES IDX 24 24 25 25 26 26 27 27 28 28 29 29 75 30 30 31 74 32 31 33
REMARK SMILES IDX 32 34 33 35 68 36 34 37 73 38 67 39 69 40 35 41 72 42 66 43
REMARK SMILES IDX 65 44 36 46 58 47 43 48 57 49 44 50 47 51 56 52 70 53 45 54
REMARK SMILES IDX 46 55 55 57 71 58 48 59 37 60 38 61 42 62 39 63 41 64 40 65
REMARK SMILES IDX 59 66 60 67 64 68 61 69 63 70 62 71 49 72 50 73 54 74 51 75
REMARK SMILES IDX 53 76 52 77
REMARK H PARENT 69 45 47 56
REMARK Flexibility Score: inf
ROOT
ATOM      1  C   UNL A   1      35.822  21.614  24.560  1.00  0.00     0.261 C 
ENDROOT
BRANCH   1   2
ATOM      2  O   UNL A   1      35.593  23.001  24.870  1.00  0.00    -0.462 OA
BRANCH   2   3
ATOM      3  C   UNL A   1      35.198  23.766  23.821  1.00  0.00     0.329 C 
ATOM      4  O   UNL A   1      35.618  23.636  22.673  1.00  0.00    -0.250 OA
BRANCH   3   5
ATOM      5  C   UNL A   1      34.238  24.899  24.191  1.00  0.00     0.206 C 
ATOM      6  N   UNL A   1      32.930  25.078  23.536  1.00  0.00    -0.316 N 
ATOM      7  C   UNL A   1      31.839  24.412  24.209  1.00  0.00     0.147 C 
ATOM      8  S   UNL A   1      32.307  24.237  25.936  1.00  0.00    -0.134 SA
ATOM      9  C   UNL A   1      34.006  24.807  25.699  1.00  0.00     0.109 C 
BRANCH   6  10
ATOM     10  C   UNL A   1      32.834  25.889  22.425  1.00  0.00     0.224 C 
ATOM     11  O   UNL A   1      33.421  25.585  21.381  1.00  0.00    -0.275 OA
BRANCH  10  12
ATOM     12  C   UNL A   1      32.234  27.296  22.538  1.00  0.00     0.106 C 
BRANCH  12  13
ATOM     13  C   UNL A   1      31.403  27.753  23.756  1.00  0.00     0.021 C 
ATOM     14  C   UNL A   1      30.070  28.346  23.244  1.00  0.00     0.010 C 
BRANCH  13  15
ATOM     15  C   UNL A   1      32.138  28.809  24.608  1.00  0.00     0.163 C 
BRANCH  15  16
ATOM     16  O   UNL A   1      31.505  29.000  25.870  1.00  0.00    -0.384 OA
ATOM     17  C   UNL A   1      31.829  27.984  26.813  1.00  0.00     0.194 C 
ENDBRANCH  15  16
ENDBRANCH  13  15
ENDBRANCH  12  13
ENDBRANCH  10  12
ENDBRANCH   6  10
BRANCH   7  18
ATOM     18  C   UNL A   1      31.517  23.125  23.491  1.00  0.00     0.022 C 
ATOM     19  C   UNL A   1      32.490  22.297  22.674  1.00  0.00     0.007 C 
ATOM     20  C   UNL A   1      32.015  21.792  24.008  1.00  0.00     0.007 C 
ENDBRANCH   7  18
ENDBRANCH   3   5
ENDBRANCH   2   3
ENDBRANCH   1   2
BRANCH   1  21
ATOM     21  C   UNL A   1      37.254  21.194  24.889  1.00  0.00     0.202 C 
BRANCH  21  22
ATOM     22  O   UNL A   1      38.038  22.116  25.646  1.00  0.00    -0.374 OA
BRANCH  22  23
ATOM     23  C   UNL A   1      39.386  21.746  25.935  1.00  0.00     0.202 C 
BRANCH  23  24
ATOM     24  C   UNL A   1      39.669  20.251  26.137  1.00  0.00     0.261 C 
BRANCH  24  25
ATOM     25  O   UNL A   1      40.755  19.757  25.333  1.00  0.00    -0.460 OA
BRANCH  25  26
ATOM     26  C   UNL A   1      41.864  19.438  26.040  1.00  0.00     0.338 C 
ATOM     27  O   UNL A   1      42.327  18.320  26.238  1.00  0.00    -0.246 OA
BRANCH  26  28
ATOM     28  C   UNL A   1      42.585  20.654  26.452  1.00  0.00     0.060 A 
ATOM     29  C   UNL A   1      42.550  20.994  27.810  1.00  0.00     0.016 A 
ATOM     30  C   UNL A   1      43.180  21.506  25.519  1.00  0.00     0.016 A 
ATOM     31  C   UNL A   1      43.042  22.226  28.233  1.00  0.00     0.010 A 
ATOM     32  C   UNL A   1      43.669  22.745  25.945  1.00  0.00     0.010 A 
ATOM     33  C   UNL A   1      43.555  23.128  27.294  1.00  0.00    -0.014 A 
BRANCH  33  34
ATOM     34  C   UNL A   1      43.790  24.534  27.701  1.00  0.00     0.031 A 
ATOM     35  C   UNL A   1      45.205  25.044  27.766  1.00  0.00     0.074 A 
ATOM     36  C   UNL A   1      42.760  25.363  27.948  1.00  0.00     0.049 A 
ATOM     37  N   UNL A   1      45.644  26.238  28.073  1.00  0.00    -0.248 NA
ATOM     38  C   UNL A   1      46.265  24.077  27.437  1.00  0.00     0.031 C 
ATOM     39  C   UNL A   1      41.346  25.004  27.860  1.00  0.00     0.029 A 
ATOM     40  N   UNL A   1      42.754  26.685  28.314  1.00  0.00    -0.354 N 
ATOM     41  C   UNL A   1      47.030  26.164  27.978  1.00  0.00     0.074 A 
ATOM     42  C   UNL A   1      47.358  24.801  27.624  1.00  0.00     0.031 C 
ATOM     43  C   UNL A   1      40.606  26.088  28.152  1.00  0.00     0.029 A 
ATOM     44  C   UNL A   1      41.493  27.202  28.477  1.00  0.00     0.049 A 
ATOM     45  H   UNL A   1      43.575  27.212  28.445  1.00  0.00     0.167 HD
ATOM     46  C   UNL A   1      47.947  27.144  28.158  1.00  0.00     0.031 A 
ATOM     47  C   UNL A   1      41.104  28.435  28.855  1.00  0.00     0.031 A 
ATOM     48  C   UNL A   1      47.623  28.495  28.532  1.00  0.00     0.049 A 
ATOM     49  C   UNL A   1      42.146  29.482  29.143  1.00  0.00     0.074 A 
ATOM     50  C   UNL A   1      48.478  29.562  28.746  1.00  0.00     0.029 A 
ATOM     51  N   UNL A   1      46.337  28.961  28.753  1.00  0.00    -0.354 N 
ATOM     52  N   UNL A   1      43.450  29.404  29.041  1.00  0.00    -0.248 NA
ATOM     53  C   UNL A   1      41.655  30.794  29.590  1.00  0.00     0.031 C 
ATOM     54  C   UNL A   1      47.711  30.661  29.148  1.00  0.00     0.029 A 
ATOM     55  C   UNL A   1      46.374  30.294  29.125  1.00  0.00     0.049 A 
ATOM     56  H   UNL A   1      45.517  28.423  28.661  1.00  0.00     0.167 HD
ATOM     57  C   UNL A   1      43.935  30.662  29.375  1.00  0.00     0.074 A 
ATOM     58  C   UNL A   1      42.782  31.486  29.677  1.00  0.00     0.031 C 
ATOM     59  C   UNL A   1      45.217  31.099  29.422  1.00  0.00     0.031 A 
BRANCH  46  60
ATOM     60  C   UNL A   1      49.394  26.766  27.990  1.00  0.00    -0.014 A 
ATOM     61  C   UNL A   1      50.089  27.048  26.802  1.00  0.00     0.009 A 
ATOM     62  C   UNL A   1      50.072  26.120  29.035  1.00  0.00     0.009 A 
ATOM     63  C   UNL A   1      51.418  26.647  26.647  1.00  0.00     0.001 A 
ATOM     64  C   UNL A   1      51.409  25.747  28.888  1.00  0.00     0.001 A 
ATOM     65  C   UNL A   1      52.078  26.000  27.692  1.00  0.00     0.000 A 
ENDBRANCH  46  60
BRANCH  47  66
ATOM     66  C   UNL A   1      39.658  28.752  28.975  1.00  0.00    -0.014 A 
ATOM     67  C   UNL A   1      38.966  28.481  30.166  1.00  0.00     0.009 A 
ATOM     68  C   UNL A   1      38.958  29.318  27.898  1.00  0.00     0.009 A 
ATOM     69  C   UNL A   1      37.600  28.754  30.269  1.00  0.00     0.001 A 
ATOM     70  C   UNL A   1      37.599  29.614  28.012  1.00  0.00     0.001 A 
ATOM     71  C   UNL A   1      36.919  29.324  29.194  1.00  0.00     0.000 A 
ENDBRANCH  47  66
BRANCH  59  72
ATOM     72  C   UNL A   1      45.439  32.546  29.765  1.00  0.00    -0.014 A 
ATOM     73  C   UNL A   1      45.510  33.534  28.770  1.00  0.00     0.009 A 
ATOM     74  C   UNL A   1      45.538  32.930  31.112  1.00  0.00     0.009 A 
ATOM     75  C   UNL A   1      45.714  34.871  29.117  1.00  0.00     0.001 A 
ATOM     76  C   UNL A   1      45.712  34.271  31.457  1.00  0.00     0.001 A 
ATOM     77  C   UNL A   1      45.810  35.239  30.460  1.00  0.00     0.000 A 
ENDBRANCH  59  72
ENDBRANCH  33  34
ENDBRANCH  26  28
ENDBRANCH  25  26
ENDBRANCH  24  25
ENDBRANCH  23  24
ENDBRANCH  22  23
ENDBRANCH  21  22
ENDBRANCH   1  21
TORSDOF 20
ENDMDL
