MODEL 1
REMARK VINA RESULT:     -11.1      0.000      0.000
REMARK SMILES CCSc1ccc(-c2cc(Cl)cc3c2O[C@@H](C(F)(F)F)C(C(=O)OCCOCCOC(=O)c2ccc(-c4c5nc(c(-c6ccccc6)c6ccc([nH]6)c(-c6ccccc6)c6nc(c(-c7ccccc7)c7ccc4[nH]7)C=C6)C=C5)cc2)=C3)cc1
REMARK SMILES IDX 26 1 25 2 24 3 22 4 23 5 21 6 8 7 9 8 14 9 10 10 13 11 15 12
REMARK SMILES IDX 11 13 12 14 81 15 16 16 7 17 4 18 5 19 83 20 6 21 82 22 3 23
REMARK SMILES IDX 2 24 1 25 17 26 18 27 19 28 20 29 27 30 28 31 29 32 30 33
REMARK SMILES IDX 31 34 32 35 33 36 34 37 80 38 35 39 79 40 36 41 37 42 38 43
REMARK SMILES IDX 73 44 39 45 78 46 72 47 74 48 40 49 77 50 71 51 70 52 41 54
REMARK SMILES IDX 63 55 48 56 62 57 49 58 52 59 61 60 75 61 50 62 51 63 60 65
REMARK SMILES IDX 76 66 53 67 42 68 43 69 47 70 44 71 46 72 45 73 64 74 65 75
REMARK SMILES IDX 69 76 66 77 68 78 67 79 54 80 55 81 59 82 56 83 58 84 57 85
REMARK H PARENT 74 53 52 64
REMARK Flexibility Score: inf
ROOT
ATOM      1  C   UNL A   1      36.092  21.226  25.218  1.00  0.00     0.202 C 
ENDROOT
BRANCH   1   2
ATOM      2  C   UNL A   1      35.516  22.277  26.181  1.00  0.00     0.261 C 
BRANCH   2   3
ATOM      3  O   UNL A   1      34.296  22.870  25.708  1.00  0.00    -0.460 OA
BRANCH   3   4
ATOM      4  C   UNL A   1      33.191  22.584  26.421  1.00  0.00     0.338 C 
ATOM      5  O   UNL A   1      33.178  22.229  27.592  1.00  0.00    -0.246 OA
BRANCH   4   6
ATOM      6  C   UNL A   1      31.944  22.908  25.686  1.00  0.00     0.087 C 
ATOM      7  C   UNL A   1      31.869  26.569  23.710  1.00  0.00     0.026 A 
ATOM      8  C   UNL A   1      32.828  27.355  24.388  1.00  0.00     0.033 A 
ATOM      9  C   UNL A   1      31.632  25.298  24.282  1.00  0.00     0.135 A 
ATOM     10  C   UNL A   1      33.197  27.065  25.702  1.00  0.00     0.042 A 
ATOM     11  C   UNL A   1      31.788  25.138  25.671  1.00  0.00     0.019 A 
ATOM     12  O   UNL A   1      31.770  24.139  23.489  1.00  0.00    -0.475 OA
ATOM     13  Cl  UNL A   1      34.313  28.085  26.516  1.00  0.00    -0.084 Cl
ATOM     14  C   UNL A   1      32.596  26.017  26.380  1.00  0.00     0.032 A 
ATOM     15  C   UNL A   1      31.288  23.901  26.308  1.00  0.00     0.027 C 
ATOM     16  C   UNL A   1      31.697  22.828  24.194  1.00  0.00     0.316 C 
BRANCH   7  17
ATOM     17  C   UNL A   1      30.793  27.419  23.059  1.00  0.00    -0.015 A 
ATOM     18  C   UNL A   1      28.850  29.522  22.656  1.00  0.00     0.007 A 
ATOM     19  C   UNL A   1      30.159  29.661  22.205  1.00  0.00     0.015 A 
ATOM     20  C   UNL A   1      28.498  28.289  23.223  1.00  0.00     0.015 A 
ATOM     21  C   UNL A   1      31.104  28.622  22.385  1.00  0.00     0.010 A 
ATOM     22  C   UNL A   1      29.442  27.258  23.416  1.00  0.00     0.010 A 
BRANCH  18  23
ATOM     23  S   UNL A   1      27.562  30.770  22.606  1.00  0.00    -0.126 SA
BRANCH  23  24
ATOM     24  C   UNL A   1      28.326  32.310  21.975  1.00  0.00     0.071 C 
ATOM     25  C   UNL A   1      29.060  33.092  23.052  1.00  0.00     0.016 C 
ENDBRANCH  23  24
ENDBRANCH  18  23
ENDBRANCH   7  17
BRANCH  16  26
ATOM     26  C   UNL A   1      32.366  21.622  23.494  1.00  0.00     0.430 C 
ATOM     27  F   UNL A   1      32.357  20.554  24.342  1.00  0.00    -0.167 F 
ATOM     28  F   UNL A   1      31.685  21.237  22.390  1.00  0.00    -0.167 F 
ATOM     29  F   UNL A   1      33.646  21.810  23.126  1.00  0.00    -0.167 F 
ENDBRANCH  16  26
ENDBRANCH   4   6
ENDBRANCH   3   4
ENDBRANCH   2   3
ENDBRANCH   1   2
BRANCH   1  30
ATOM     30  O   UNL A   1      37.498  21.182  25.019  1.00  0.00    -0.374 OA
BRANCH  30  31
ATOM     31  C   UNL A   1      38.141  19.909  25.012  1.00  0.00     0.202 C 
BRANCH  31  32
ATOM     32  C   UNL A   1      39.290  19.658  25.993  1.00  0.00     0.261 C 
BRANCH  32  33
ATOM     33  O   UNL A   1      40.531  19.322  25.354  1.00  0.00    -0.460 OA
BRANCH  33  34
ATOM     34  C   UNL A   1      41.621  19.440  26.145  1.00  0.00     0.338 C 
ATOM     35  O   UNL A   1      42.485  18.598  26.362  1.00  0.00    -0.246 OA
BRANCH  34  36
ATOM     36  C   UNL A   1      41.738  20.821  26.631  1.00  0.00     0.060 A 
ATOM     37  C   UNL A   1      41.987  21.831  25.693  1.00  0.00     0.016 A 
ATOM     38  C   UNL A   1      41.713  21.100  27.998  1.00  0.00     0.016 A 
ATOM     39  C   UNL A   1      42.249  23.128  26.127  1.00  0.00     0.010 A 
ATOM     40  C   UNL A   1      41.984  22.399  28.430  1.00  0.00     0.010 A 
ATOM     41  C   UNL A   1      42.285  23.410  27.498  1.00  0.00    -0.014 A 
BRANCH  41  42
ATOM     42  C   UNL A   1      42.766  24.731  27.965  1.00  0.00     0.031 A 
ATOM     43  C   UNL A   1      41.764  25.809  28.268  1.00  0.00     0.074 A 
ATOM     44  C   UNL A   1      44.081  24.957  28.128  1.00  0.00     0.049 A 
ATOM     45  N   UNL A   1      41.966  27.049  28.635  1.00  0.00    -0.248 NA
ATOM     46  C   UNL A   1      40.345  25.443  28.135  1.00  0.00     0.031 C 
ATOM     47  C   UNL A   1      45.141  23.976  27.907  1.00  0.00     0.029 A 
ATOM     48  N   UNL A   1      44.745  26.094  28.513  1.00  0.00    -0.354 N 
ATOM     49  C   UNL A   1      40.704  27.612  28.768  1.00  0.00     0.074 A 
ATOM     50  C   UNL A   1      39.743  26.591  28.410  1.00  0.00     0.031 C 
ATOM     51  C   UNL A   1      46.328  24.556  28.150  1.00  0.00     0.029 A 
ATOM     52  C   UNL A   1      46.111  25.957  28.505  1.00  0.00     0.049 A 
ATOM     53  H   UNL A   1      44.287  26.927  28.769  1.00  0.00     0.167 HD
ATOM     54  C   UNL A   1      40.374  28.866  29.159  1.00  0.00     0.031 A 
ATOM     55  C   UNL A   1      47.077  26.868  28.731  1.00  0.00     0.031 A 
ATOM     56  C   UNL A   1      41.334  29.884  29.495  1.00  0.00     0.049 A 
ATOM     57  C   UNL A   1      46.686  28.279  29.084  1.00  0.00     0.074 A 
ATOM     58  C   UNL A   1      41.104  31.183  29.912  1.00  0.00     0.029 A 
ATOM     59  N   UNL A   1      42.709  29.717  29.442  1.00  0.00    -0.354 N 
ATOM     60  N   UNL A   1      45.489  28.795  29.229  1.00  0.00    -0.248 NA
ATOM     61  C   UNL A   1      47.783  29.230  29.312  1.00  0.00     0.031 C 
ATOM     62  C   UNL A   1      42.341  31.821  30.051  1.00  0.00     0.029 A 
ATOM     63  C   UNL A   1      43.342  30.899  29.790  1.00  0.00     0.049 A 
ATOM     64  H   UNL A   1      43.169  28.882  29.195  1.00  0.00     0.167 HD
ATOM     65  C   UNL A   1      45.689  30.120  29.594  1.00  0.00     0.074 A 
ATOM     66  C   UNL A   1      47.122  30.323  29.664  1.00  0.00     0.031 C 
ATOM     67  C   UNL A   1      44.770  31.084  29.852  1.00  0.00     0.031 A 
BRANCH  54  68
ATOM     68  C   UNL A   1      38.910  29.214  29.205  1.00  0.00    -0.014 A 
ATOM     69  C   UNL A   1      38.148  29.022  30.368  1.00  0.00     0.009 A 
ATOM     70  C   UNL A   1      38.291  29.768  28.073  1.00  0.00     0.009 A 
ATOM     71  C   UNL A   1      36.788  29.341  30.383  1.00  0.00     0.001 A 
ATOM     72  C   UNL A   1      36.940  30.115  28.102  1.00  0.00     0.001 A 
ATOM     73  C   UNL A   1      36.186  29.892  29.253  1.00  0.00     0.000 A 
ENDBRANCH  54  68
BRANCH  55  74
ATOM     74  C   UNL A   1      48.507  26.481  28.607  1.00  0.00    -0.014 A 
ATOM     75  C   UNL A   1      49.132  26.436  27.352  1.00  0.00     0.009 A 
ATOM     76  C   UNL A   1      49.252  26.144  29.748  1.00  0.00     0.009 A 
ATOM     77  C   UNL A   1      50.467  26.036  27.241  1.00  0.00     0.001 A 
ATOM     78  C   UNL A   1      50.594  25.776  29.637  1.00  0.00     0.001 A 
ATOM     79  C   UNL A   1      51.198  25.712  28.383  1.00  0.00     0.000 A 
ENDBRANCH  55  74
BRANCH  67  80
ATOM     80  C   UNL A   1      45.285  32.433  30.274  1.00  0.00    -0.014 A 
ATOM     81  C   UNL A   1      45.528  33.451  29.340  1.00  0.00     0.009 A 
ATOM     82  C   UNL A   1      45.489  32.699  31.637  1.00  0.00     0.009 A 
ATOM     83  C   UNL A   1      46.002  34.696  29.760  1.00  0.00     0.001 A 
ATOM     84  C   UNL A   1      45.930  33.955  32.057  1.00  0.00     0.001 A 
ATOM     85  C   UNL A   1      46.196  34.949  31.117  1.00  0.00     0.000 A 
ENDBRANCH  67  80
ENDBRANCH  41  42
ENDBRANCH  34  36
ENDBRANCH  33  34
ENDBRANCH  32  33
ENDBRANCH  31  32
ENDBRANCH  30  31
ENDBRANCH   1  30
TORSDOF 18
ENDMDL
MODEL 2
REMARK VINA RESULT:     -11.1      0.637      5.655
REMARK SMILES CCSc1ccc(-c2cc(Cl)cc3c2O[C@@H](C(F)(F)F)C(C(=O)OCCOCCOC(=O)c2ccc(-c4c5nc(c(-c6ccccc6)c6ccc([nH]6)c(-c6ccccc6)c6nc(c(-c7ccccc7)c7ccc4[nH]7)C=C6)C=C5)cc2)=C3)cc1
REMARK SMILES IDX 26 1 25 2 24 3 22 4 23 5 21 6 8 7 9 8 14 9 10 10 13 11 15 12
REMARK SMILES IDX 11 13 12 14 81 15 16 16 7 17 4 18 5 19 83 20 6 21 82 22 3 23
REMARK SMILES IDX 2 24 1 25 17 26 18 27 19 28 20 29 27 30 28 31 29 32 30 33
REMARK SMILES IDX 31 34 32 35 33 36 34 37 80 38 35 39 79 40 36 41 37 42 38 43
REMARK SMILES IDX 73 44 39 45 78 46 72 47 74 48 40 49 77 50 71 51 70 52 41 54
REMARK SMILES IDX 63 55 48 56 62 57 49 58 52 59 61 60 75 61 50 62 51 63 60 65
REMARK SMILES IDX 76 66 53 67 42 68 43 69 47 70 44 71 46 72 45 73 64 74 65 75
REMARK SMILES IDX 69 76 66 77 68 78 67 79 54 80 55 81 59 82 56 83 58 84 57 85
REMARK H PARENT 74 53 52 64
REMARK Flexibility Score: inf
ROOT
ATOM      1  C   UNL A   1      36.051  20.918  25.102  1.00  0.00     0.202 C 
ENDROOT
BRANCH   1   2
ATOM      2  C   UNL A   1      35.536  21.934  26.135  1.00  0.00     0.261 C 
BRANCH   2   3
ATOM      3  O   UNL A   1      34.359  22.633  25.704  1.00  0.00    -0.460 OA
BRANCH   3   4
ATOM      4  C   UNL A   1      33.247  22.412  26.431  1.00  0.00     0.338 C 
ATOM      5  O   UNL A   1      33.227  22.101  27.614  1.00  0.00    -0.246 OA
BRANCH   4   6
ATOM      6  C   UNL A   1      32.009  22.751  25.688  1.00  0.00     0.087 C 
ATOM      7  C   UNL A   1      31.971  26.435  23.754  1.00  0.00     0.026 A 
ATOM      8  C   UNL A   1      32.928  27.208  24.451  1.00  0.00     0.033 A 
ATOM      9  C   UNL A   1      31.722  25.158  24.309  1.00  0.00     0.135 A 
ATOM     10  C   UNL A   1      33.283  26.901  25.764  1.00  0.00     0.042 A 
ATOM     11  C   UNL A   1      31.864  24.981  25.697  1.00  0.00     0.019 A 
ATOM     12  O   UNL A   1      31.862  24.008  23.504  1.00  0.00    -0.475 OA
ATOM     13  Cl  UNL A   1      34.395  27.906  26.601  1.00  0.00    -0.084 Cl
ATOM     14  C   UNL A   1      32.670  25.848  26.425  1.00  0.00     0.032 A 
ATOM     15  C   UNL A   1      31.352  23.740  26.315  1.00  0.00     0.027 C 
ATOM     16  C   UNL A   1      31.776  22.689  24.193  1.00  0.00     0.316 C 
BRANCH   7  17
ATOM     17  C   UNL A   1      30.905  27.298  23.103  1.00  0.00    -0.015 A 
ATOM     18  C   UNL A   1      28.951  29.395  22.720  1.00  0.00     0.007 A 
ATOM     19  C   UNL A   1      30.272  29.565  22.316  1.00  0.00     0.015 A 
ATOM     20  C   UNL A   1      28.596  28.137  23.229  1.00  0.00     0.015 A 
ATOM     21  C   UNL A   1      31.223  28.529  22.486  1.00  0.00     0.010 A 
ATOM     22  C   UNL A   1      29.547  27.110  23.413  1.00  0.00     0.010 A 
BRANCH  18  23
ATOM     23  S   UNL A   1      27.651  30.630  22.678  1.00  0.00    -0.126 SA
BRANCH  23  24
ATOM     24  C   UNL A   1      28.355  32.128  21.895  1.00  0.00     0.071 C 
ATOM     25  C   UNL A   1      28.857  33.146  22.907  1.00  0.00     0.016 C 
ENDBRANCH  23  24
ENDBRANCH  18  23
ENDBRANCH   7  17
BRANCH  16  26
ATOM     26  C   UNL A   1      32.445  21.488  23.485  1.00  0.00     0.430 C 
ATOM     27  F   UNL A   1      33.705  21.843  23.103  1.00  0.00    -0.167 F 
ATOM     28  F   UNL A   1      32.584  20.427  24.312  1.00  0.00    -0.167 F 
ATOM     29  F   UNL A   1      31.817  21.051  22.379  1.00  0.00    -0.167 F 
ENDBRANCH  16  26
ENDBRANCH   4   6
ENDBRANCH   3   4
ENDBRANCH   2   3
ENDBRANCH   1   2
BRANCH   1  30
ATOM     30  O   UNL A   1      37.435  20.911  24.785  1.00  0.00    -0.374 OA
BRANCH  30  31
ATOM     31  C   UNL A   1      38.149  19.681  24.897  1.00  0.00     0.202 C 
BRANCH  31  32
ATOM     32  C   UNL A   1      39.258  19.565  25.947  1.00  0.00     0.261 C 
BRANCH  32  33
ATOM     33  O   UNL A   1      40.537  19.214  25.399  1.00  0.00    -0.460 OA
BRANCH  33  34
ATOM     34  C   UNL A   1      41.583  19.434  26.227  1.00  0.00     0.338 C 
ATOM     35  O   UNL A   1      42.497  18.663  26.502  1.00  0.00    -0.246 OA
BRANCH  34  36
ATOM     36  C   UNL A   1      41.581  20.832  26.676  1.00  0.00     0.060 A 
ATOM     37  C   UNL A   1      41.951  21.821  25.755  1.00  0.00     0.016 A 
ATOM     38  C   UNL A   1      41.325  21.153  28.010  1.00  0.00     0.016 A 
ATOM     39  C   UNL A   1      42.102  23.139  26.179  1.00  0.00     0.010 A 
ATOM     40  C   UNL A   1      41.485  22.473  28.432  1.00  0.00     0.010 A 
ATOM     41  C   UNL A   1      41.905  23.464  27.527  1.00  0.00    -0.014 A 
BRANCH  41  42
ATOM     42  C   UNL A   1      42.267  24.814  28.017  1.00  0.00     0.031 A 
ATOM     43  C   UNL A   1      43.699  25.105  28.368  1.00  0.00     0.074 A 
ATOM     44  C   UNL A   1      41.329  25.769  28.136  1.00  0.00     0.049 A 
ATOM     45  N   UNL A   1      44.226  26.195  28.863  1.00  0.00    -0.248 NA
ATOM     46  C   UNL A   1      44.666  24.021  28.130  1.00  0.00     0.031 C 
ATOM     47  C   UNL A   1      39.918  25.616  27.786  1.00  0.00     0.029 A 
ATOM     48  N   UNL A   1      41.428  27.059  28.591  1.00  0.00    -0.354 N 
ATOM     49  C   UNL A   1      45.581  25.926  29.007  1.00  0.00     0.074 A 
ATOM     50  C   UNL A   1      45.791  24.560  28.577  1.00  0.00     0.031 C 
ATOM     51  C   UNL A   1      39.277  26.767  28.050  1.00  0.00     0.029 A 
ATOM     52  C   UNL A   1      40.226  27.720  28.622  1.00  0.00     0.049 A 
ATOM     53  H   UNL A   1      42.278  27.469  28.869  1.00  0.00     0.167 HD
ATOM     54  C   UNL A   1      46.564  26.746  29.449  1.00  0.00     0.031 A 
ATOM     55  C   UNL A   1      39.921  28.948  29.086  1.00  0.00     0.031 A 
ATOM     56  C   UNL A   1      46.347  28.097  29.894  1.00  0.00     0.049 A 
ATOM     57  C   UNL A   1      41.017  29.811  29.652  1.00  0.00     0.074 A 
ATOM     58  C   UNL A   1      47.275  29.015  30.353  1.00  0.00     0.029 A 
ATOM     59  N   UNL A   1      45.109  28.721  29.942  1.00  0.00    -0.354 N 
ATOM     60  N   UNL A   1      42.299  29.555  29.762  1.00  0.00    -0.248 NA
ATOM     61  C   UNL A   1      40.623  31.136  30.150  1.00  0.00     0.031 C 
ATOM     62  C   UNL A   1      46.590  30.172  30.739  1.00  0.00     0.029 A 
ATOM     63  C   UNL A   1      45.245  30.001  30.452  1.00  0.00     0.049 A 
ATOM     64  H   UNL A   1      44.259  28.314  29.656  1.00  0.00     0.167 HD
ATOM     65  C   UNL A   1      42.868  30.697  30.312  1.00  0.00     0.074 A 
ATOM     66  C   UNL A   1      41.794  31.651  30.498  1.00  0.00     0.031 C 
ATOM     67  C   UNL A   1      44.164  30.937  30.632  1.00  0.00     0.031 A 
BRANCH  54  68
ATOM     68  C   UNL A   1      47.959  26.184  29.512  1.00  0.00    -0.014 A 
ATOM     69  C   UNL A   1      48.763  26.092  28.365  1.00  0.00     0.009 A 
ATOM     70  C   UNL A   1      48.485  25.764  30.743  1.00  0.00     0.009 A 
ATOM     71  C   UNL A   1      50.050  25.555  28.445  1.00  0.00     0.001 A 
ATOM     72  C   UNL A   1      49.783  25.257  30.825  1.00  0.00     0.001 A 
ATOM     73  C   UNL A   1      50.561  25.143  29.675  1.00  0.00     0.000 A 
ENDBRANCH  54  68
BRANCH  55  74
ATOM     74  C   UNL A   1      38.513  29.424  29.059  1.00  0.00    -0.014 A 
ATOM     75  C   UNL A   1      37.991  30.056  27.921  1.00  0.00     0.009 A 
ATOM     76  C   UNL A   1      37.685  29.255  30.180  1.00  0.00     0.009 A 
ATOM     77  C   UNL A   1      36.677  30.533  27.916  1.00  0.00     0.001 A 
ATOM     78  C   UNL A   1      36.363  29.704  30.161  1.00  0.00     0.001 A 
ATOM     79  C   UNL A   1      35.863  30.352  29.033  1.00  0.00     0.000 A 
ENDBRANCH  55  74
BRANCH  67  80
ATOM     80  C   UNL A   1      44.498  32.298  31.178  1.00  0.00    -0.014 A 
ATOM     81  C   UNL A   1      44.928  33.340  30.343  1.00  0.00     0.009 A 
ATOM     82  C   UNL A   1      44.338  32.551  32.550  1.00  0.00     0.009 A 
ATOM     83  C   UNL A   1      45.227  34.596  30.876  1.00  0.00     0.001 A 
ATOM     84  C   UNL A   1      44.604  33.816  33.075  1.00  0.00     0.001 A 
ATOM     85  C   UNL A   1      45.059  34.835  32.240  1.00  0.00     0.000 A 
ENDBRANCH  67  80
ENDBRANCH  41  42
ENDBRANCH  34  36
ENDBRANCH  33  34
ENDBRANCH  32  33
ENDBRANCH  31  32
ENDBRANCH  30  31
ENDBRANCH   1  30
TORSDOF 18
ENDMDL
MODEL 3
REMARK VINA RESULT:     -11.0      3.503      5.103
REMARK SMILES CCSc1ccc(-c2cc(Cl)cc3c2O[C@@H](C(F)(F)F)C(C(=O)OCCOCCOC(=O)c2ccc(-c4c5nc(c(-c6ccccc6)c6ccc([nH]6)c(-c6ccccc6)c6nc(c(-c7ccccc7)c7ccc4[nH]7)C=C6)C=C5)cc2)=C3)cc1
REMARK SMILES IDX 26 1 25 2 24 3 22 4 23 5 21 6 8 7 9 8 14 9 10 10 13 11 15 12
REMARK SMILES IDX 11 13 12 14 81 15 16 16 7 17 4 18 5 19 83 20 6 21 82 22 3 23
REMARK SMILES IDX 2 24 1 25 17 26 18 27 19 28 20 29 27 30 28 31 29 32 30 33
REMARK SMILES IDX 31 34 32 35 33 36 34 37 80 38 35 39 79 40 36 41 37 42 38 43
REMARK SMILES IDX 73 44 39 45 78 46 72 47 74 48 40 49 77 50 71 51 70 52 41 54
REMARK SMILES IDX 63 55 48 56 62 57 49 58 52 59 61 60 75 61 50 62 51 63 60 65
REMARK SMILES IDX 76 66 53 67 42 68 43 69 47 70 44 71 46 72 45 73 64 74 65 75
REMARK SMILES IDX 69 76 66 77 68 78 67 79 54 80 55 81 59 82 56 83 58 84 57 85
REMARK H PARENT 74 53 52 64
REMARK Flexibility Score: inf
ROOT
ATOM      1  C   UNL A   1      34.248  23.669  25.827  1.00  0.00     0.202 C 
ENDROOT
BRANCH   1   2
ATOM      2  C   UNL A   1      34.399  25.135  25.388  1.00  0.00     0.261 C 
BRANCH   2   3
ATOM      3  O   UNL A   1      33.317  25.971  25.823  1.00  0.00    -0.460 OA
BRANCH   3   4
ATOM      4  C   UNL A   1      33.406  27.270  25.481  1.00  0.00     0.338 C 
ATOM      5  O   UNL A   1      34.041  27.709  24.532  1.00  0.00    -0.246 OA
BRANCH   4   6
ATOM      6  C   UNL A   1      32.502  28.130  26.284  1.00  0.00     0.087 C 
ATOM      7  C   UNL A   1      34.057  31.784  27.526  1.00  0.00     0.026 A 
ATOM      8  C   UNL A   1      35.458  31.593  27.513  1.00  0.00     0.033 A 
ATOM      9  C   UNL A   1      33.298  30.625  27.243  1.00  0.00     0.135 A 
ATOM     10  C   UNL A   1      36.012  30.317  27.610  1.00  0.00     0.042 A 
ATOM     11  C   UNL A   1      33.820  29.368  27.598  1.00  0.00     0.019 A 
ATOM     12  O   UNL A   1      32.352  30.648  26.197  1.00  0.00    -0.475 OA
ATOM     13  Cl  UNL A   1      37.717  30.131  27.662  1.00  0.00    -0.084 Cl
ATOM     14  C   UNL A   1      35.190  29.210  27.759  1.00  0.00     0.032 A 
ATOM     15  C   UNL A   1      32.931  28.188  27.556  1.00  0.00     0.027 C 
ATOM     16  C   UNL A   1      31.727  29.347  25.826  1.00  0.00     0.316 C 
BRANCH   7  17
ATOM     17  C   UNL A   1      33.637  32.851  28.520  1.00  0.00    -0.015 A 
ATOM     18  C   UNL A   1      33.595  35.333  30.004  1.00  0.00     0.007 A 
ATOM     19  C   UNL A   1      32.837  35.178  28.847  1.00  0.00     0.015 A 
ATOM     20  C   UNL A   1      34.297  34.209  30.462  1.00  0.00     0.015 A 
ATOM     21  C   UNL A   1      32.843  33.954  28.132  1.00  0.00     0.010 A 
ATOM     22  C   UNL A   1      34.315  32.994  29.743  1.00  0.00     0.010 A 
BRANCH  18  23
ATOM     23  S   UNL A   1      33.786  36.835  30.965  1.00  0.00    -0.126 SA
BRANCH  23  24
ATOM     24  C   UNL A   1      33.121  36.494  32.637  1.00  0.00     0.071 C 
ATOM     25  C   UNL A   1      34.200  36.111  33.637  1.00  0.00     0.016 C 
ENDBRANCH  23  24
ENDBRANCH  18  23
ENDBRANCH   7  17
BRANCH  16  26
ATOM     26  C   UNL A   1      31.141  29.238  24.398  1.00  0.00     0.430 C 
ATOM     27  F   UNL A   1      30.189  30.200  24.234  1.00  0.00    -0.167 F 
ATOM     28  F   UNL A   1      32.078  29.464  23.449  1.00  0.00    -0.167 F 
ATOM     29  F   UNL A   1      30.555  28.063  24.106  1.00  0.00    -0.167 F 
ENDBRANCH  16  26
ENDBRANCH   4   6
ENDBRANCH   3   4
ENDBRANCH   2   3
ENDBRANCH   1   2
BRANCH   1  30
ATOM     30  O   UNL A   1      35.409  22.854  25.894  1.00  0.00    -0.374 OA
BRANCH  30  31
ATOM     31  C   UNL A   1      35.317  21.505  25.443  1.00  0.00     0.202 C 
BRANCH  31  32
ATOM     32  C   UNL A   1      36.607  20.743  25.126  1.00  0.00     0.261 C 
BRANCH  32  33
ATOM     33  O   UNL A   1      37.761  21.587  25.008  1.00  0.00    -0.460 OA
BRANCH  33  34
ATOM     34  C   UNL A   1      38.790  21.251  25.819  1.00  0.00     0.338 C 
ATOM     35  O   UNL A   1      39.304  20.146  25.959  1.00  0.00    -0.246 OA
BRANCH  34  36
ATOM     36  C   UNL A   1      39.350  22.456  26.442  1.00  0.00     0.060 A 
ATOM     37  C   UNL A   1      38.880  23.702  26.009  1.00  0.00     0.016 A 
ATOM     38  C   UNL A   1      40.398  22.363  27.358  1.00  0.00     0.016 A 
ATOM     39  C   UNL A   1      39.486  24.868  26.469  1.00  0.00     0.010 A 
ATOM     40  C   UNL A   1      41.009  23.534  27.810  1.00  0.00     0.010 A 
ATOM     41  C   UNL A   1      40.577  24.788  27.343  1.00  0.00    -0.014 A 
BRANCH  41  42
ATOM     42  C   UNL A   1      41.351  26.009  27.666  1.00  0.00     0.031 A 
ATOM     43  C   UNL A   1      40.756  27.028  28.596  1.00  0.00     0.074 A 
ATOM     44  C   UNL A   1      42.575  26.196  27.144  1.00  0.00     0.049 A 
ATOM     45  N   UNL A   1      41.233  28.187  28.971  1.00  0.00    -0.248 NA
ATOM     46  C   UNL A   1      39.445  26.698  29.178  1.00  0.00     0.031 C 
ATOM     47  C   UNL A   1      43.272  25.258  26.266  1.00  0.00     0.029 A 
ATOM     48  N   UNL A   1      43.446  27.247  27.277  1.00  0.00    -0.354 N 
ATOM     49  C   UNL A   1      40.280  28.729  29.823  1.00  0.00     0.074 A 
ATOM     50  C   UNL A   1      39.182  27.788  29.885  1.00  0.00     0.031 C 
ATOM     51  C   UNL A   1      44.462  25.781  25.927  1.00  0.00     0.029 A 
ATOM     52  C   UNL A   1      44.591  27.105  26.534  1.00  0.00     0.049 A 
ATOM     53  H   UNL A   1      43.266  28.029  27.848  1.00  0.00     0.167 HD
ATOM     54  C   UNL A   1      40.318  29.901  30.500  1.00  0.00     0.031 A 
ATOM     55  C   UNL A   1      45.616  27.959  26.344  1.00  0.00     0.031 A 
ATOM     56  C   UNL A   1      41.404  30.842  30.419  1.00  0.00     0.049 A 
ATOM     57  C   UNL A   1      45.597  29.293  27.041  1.00  0.00     0.074 A 
ATOM     58  C   UNL A   1      41.546  32.055  31.071  1.00  0.00     0.029 A 
ATOM     59  N   UNL A   1      42.532  30.677  29.630  1.00  0.00    -0.354 N 
ATOM     60  N   UNL A   1      44.702  29.785  27.863  1.00  0.00    -0.248 NA
ATOM     61  C   UNL A   1      46.738  30.185  26.789  1.00  0.00     0.031 C 
ATOM     62  C   UNL A   1      42.729  32.652  30.627  1.00  0.00     0.029 A 
ATOM     63  C   UNL A   1      43.361  31.780  29.755  1.00  0.00     0.049 A 
ATOM     64  H   UNL A   1      42.717  29.893  29.065  1.00  0.00     0.167 HD
ATOM     65  C   UNL A   1      45.184  31.030  28.250  1.00  0.00     0.074 A 
ATOM     66  C   UNL A   1      46.459  31.208  27.585  1.00  0.00     0.031 C 
ATOM     67  C   UNL A   1      44.625  31.943  29.083  1.00  0.00     0.031 A 
BRANCH  54  68
ATOM     68  C   UNL A   1      39.129  30.247  31.355  1.00  0.00    -0.014 A 
ATOM     69  C   UNL A   1      37.977  30.831  30.806  1.00  0.00     0.009 A 
ATOM     70  C   UNL A   1      39.154  29.961  32.729  1.00  0.00     0.009 A 
ATOM     71  C   UNL A   1      36.891  31.156  31.622  1.00  0.00     0.001 A 
ATOM     72  C   UNL A   1      38.054  30.257  33.536  1.00  0.00     0.001 A 
ATOM     73  C   UNL A   1      36.928  30.864  32.985  1.00  0.00     0.000 A 
ENDBRANCH  54  68
BRANCH  55  74
ATOM     74  C   UNL A   1      46.732  27.588  25.435  1.00  0.00    -0.014 A 
ATOM     75  C   UNL A   1      47.846  26.884  25.916  1.00  0.00     0.009 A 
ATOM     76  C   UNL A   1      46.693  27.948  24.079  1.00  0.00     0.009 A 
ATOM     77  C   UNL A   1      48.908  26.572  25.063  1.00  0.00     0.001 A 
ATOM     78  C   UNL A   1      47.740  27.607  23.222  1.00  0.00     0.001 A 
ATOM     79  C   UNL A   1      48.852  26.928  23.717  1.00  0.00     0.000 A 
ENDBRANCH  55  74
BRANCH  67  80
ATOM     80  C   UNL A   1      45.408  33.198  29.354  1.00  0.00    -0.014 A 
ATOM     81  C   UNL A   1      45.240  34.352  28.574  1.00  0.00     0.009 A 
ATOM     82  C   UNL A   1      46.299  33.236  30.439  1.00  0.00     0.009 A 
ATOM     83  C   UNL A   1      45.976  35.506  28.852  1.00  0.00     0.001 A 
ATOM     84  C   UNL A   1      47.007  34.401  30.735  1.00  0.00     0.001 A 
ATOM     85  C   UNL A   1      46.853  35.532  29.935  1.00  0.00     0.000 A 
ENDBRANCH  67  80
ENDBRANCH  41  42
ENDBRANCH  34  36
ENDBRANCH  33  34
ENDBRANCH  32  33
ENDBRANCH  31  32
ENDBRANCH  30  31
ENDBRANCH   1  30
TORSDOF 18
ENDMDL
