MODEL 1
REMARK VINA RESULT:     -10.1      0.000      0.000
REMARK SMILES C/C=C(\C)[C@H]1C(C)=C[C@H]2CC[C@@H](OS(=O)(=O)[O-])[C@@H](C)[C@H]2[C@H]1/C=C/C=C/C(=O)OCCOCCOC(=O)c1ccc(-c2c3nc(c(-c4ccccc4)c4ccc([nH]4)c(-c4ccccc4)c4nc(c(-c5ccccc5)c5ccc2[nH]5)C=C4)C=C3)cc1
REMARK SMILES IDX 30 1 29 2 28 3 26 4 27 5 25 6 24 7 23 8 22 9 21 10 5 11 6 12
REMARK SMILES IDX 7 13 8 14 20 15 9 16 18 17 10 18 12 19 19 20 11 21 3 22 1 23
REMARK SMILES IDX 2 24 4 25 13 26 14 27 15 28 16 29 17 30 31 31 32 32 33 33
REMARK SMILES IDX 34 34 35 35 36 36 37 37 38 38 84 39 39 40 83 41 40 42 41 43
REMARK SMILES IDX 42 44 77 45 43 46 82 47 76 48 78 49 44 50 81 51 75 52 74 53
REMARK SMILES IDX 45 55 67 56 52 57 66 58 53 59 56 60 65 61 79 62 54 63 55 64
REMARK SMILES IDX 64 66 80 67 57 68 46 69 47 70 51 71 48 72 50 73 49 74 68 75
REMARK SMILES IDX 69 76 73 77 70 78 72 79 71 80 58 81 59 82 63 83 60 84 62 85
REMARK SMILES IDX 61 86
REMARK H PARENT 78 54 56 65
REMARK Flexibility Score: inf
ROOT
ATOM      1  C   UNL A   1      41.766  21.623  26.559  1.00  0.00     0.202 C 
ENDROOT
BRANCH   1   2
ATOM      2  C   UNL A   1      40.608  22.138  27.418  1.00  0.00     0.261 C 
BRANCH   2   3
ATOM      3  O   UNL A   1      39.443  22.424  26.633  1.00  0.00    -0.460 OA
BRANCH   3   4
ATOM      4  C   UNL A   1      38.871  23.630  26.873  1.00  0.00     0.330 C 
ATOM      5  O   UNL A   1      39.120  24.384  27.800  1.00  0.00    -0.247 OA
BRANCH   4   6
ATOM      6  C   UNL A   1      37.930  24.014  25.800  1.00  0.00     0.093 C 
ATOM      7  C   UNL A   1      37.119  23.155  25.170  1.00  0.00     0.007 C 
BRANCH   7   8
ATOM      8  C   UNL A   1      36.150  23.574  24.184  1.00  0.00    -0.004 C 
ATOM      9  C   UNL A   1      35.150  24.397  24.532  1.00  0.00    -0.022 C 
BRANCH   9  10
ATOM     10  C   UNL A   1      34.154  25.046  23.590  1.00  0.00     0.027 C 
ATOM     11  C   UNL A   1      32.784  24.268  23.385  1.00  0.00     0.047 C 
ATOM     12  C   UNL A   1      31.536  25.156  23.353  1.00  0.00    -0.069 C 
ATOM     13  C   UNL A   1      30.174  24.511  23.368  1.00  0.00     0.040 C 
ATOM     14  C   UNL A   1      31.618  26.491  23.199  1.00  0.00    -0.024 C 
ATOM     15  C   UNL A   1      34.028  26.569  23.935  1.00  0.00     0.009 C 
ATOM     16  C   UNL A   1      32.920  27.231  23.088  1.00  0.00     0.016 C 
ATOM     17  C   UNL A   1      33.985  26.962  25.454  1.00  0.00     0.021 C 
ATOM     18  C   UNL A   1      32.774  28.732  23.390  1.00  0.00     0.011 C 
ATOM     19  C   UNL A   1      33.908  28.497  25.615  1.00  0.00     0.141 C 
ATOM     20  C   UNL A   1      32.914  26.263  26.302  1.00  0.00     0.011 C 
ATOM     21  C   UNL A   1      32.696  29.059  24.876  1.00  0.00     0.034 C 
BRANCH  11  22
ATOM     22  C   UNL A   1      32.674  22.976  24.226  1.00  0.00    -0.070 C 
ATOM     23  C   UNL A   1      32.606  21.825  26.521  1.00  0.00     0.035 C 
ATOM     24  C   UNL A   1      32.592  22.980  25.573  1.00  0.00    -0.031 C 
ATOM     25  C   UNL A   1      32.703  21.713  23.394  1.00  0.00     0.040 C 
ENDBRANCH  11  22
BRANCH  19  26
ATOM     26  O   UNL A   1      33.838  28.805  27.002  1.00  0.00    -0.276 OA
BRANCH  26  27
ATOM     27  S   UNL A   1      34.856  29.890  27.641  1.00  0.00     0.217 S 
ATOM     28  O   UNL A   1      35.112  29.559  29.020  1.00  0.00    -0.213 OA
ATOM     29  O   UNL A   1      35.933  30.127  26.703  1.00  0.00    -0.213 OA
ATOM     30  O   UNL A   1      33.980  31.242  27.632  1.00  0.00    -0.726 OA
ENDBRANCH  26  27
ENDBRANCH  19  26
ENDBRANCH   9  10
ENDBRANCH   7   8
ENDBRANCH   4   6
ENDBRANCH   3   4
ENDBRANCH   2   3
ENDBRANCH   1   2
BRANCH   1  31
ATOM     31  O   UNL A   1      41.647  20.313  26.013  1.00  0.00    -0.374 OA
BRANCH  31  32
ATOM     32  C   UNL A   1      42.412  19.271  26.621  1.00  0.00     0.202 C 
BRANCH  32  33
ATOM     33  C   UNL A   1      43.253  18.377  25.699  1.00  0.00     0.261 C 
BRANCH  33  34
ATOM     34  O   UNL A   1      44.574  18.900  25.467  1.00  0.00    -0.460 OA
BRANCH  34  35
ATOM     35  C   UNL A   1      44.710  19.617  24.324  1.00  0.00     0.338 C 
ATOM     36  O   UNL A   1      44.499  19.247  23.183  1.00  0.00    -0.246 OA
BRANCH  35  37
ATOM     37  C   UNL A   1      44.991  21.024  24.664  1.00  0.00     0.060 A 
ATOM     38  C   UNL A   1      45.446  21.311  25.957  1.00  0.00     0.016 A 
ATOM     39  C   UNL A   1      44.754  22.051  23.749  1.00  0.00     0.016 A 
ATOM     40  C   UNL A   1      45.651  22.633  26.349  1.00  0.00     0.010 A 
ATOM     41  C   UNL A   1      44.948  23.376  24.147  1.00  0.00     0.010 A 
ATOM     42  C   UNL A   1      45.378  23.675  25.454  1.00  0.00    -0.014 A 
BRANCH  42  43
ATOM     43  C   UNL A   1      45.453  25.085  25.903  1.00  0.00     0.031 A 
ATOM     44  C   UNL A   1      46.773  25.802  25.866  1.00  0.00     0.074 A 
ATOM     45  C   UNL A   1      44.354  25.717  26.354  1.00  0.00     0.049 A 
ATOM     46  N   UNL A   1      47.077  27.000  26.297  1.00  0.00    -0.248 NA
ATOM     47  C   UNL A   1      47.901  25.071  25.269  1.00  0.00     0.031 C 
ATOM     48  C   UNL A   1      43.009  25.145  26.400  1.00  0.00     0.029 A 
ATOM     49  N   UNL A   1      44.203  26.977  26.876  1.00  0.00    -0.354 N 
ATOM     50  C   UNL A   1      48.433  27.159  26.039  1.00  0.00     0.074 A 
ATOM     51  C   UNL A   1      48.898  25.928  25.437  1.00  0.00     0.031 C 
ATOM     52  C   UNL A   1      42.170  26.048  26.934  1.00  0.00     0.029 A 
ATOM     53  C   UNL A   1      42.927  27.240  27.310  1.00  0.00     0.049 A 
ATOM     54  H   UNL A   1      44.938  27.629  26.934  1.00  0.00     0.167 HD
ATOM     55  C   UNL A   1      49.219  28.235  26.284  1.00  0.00     0.031 A 
ATOM     56  C   UNL A   1      42.432  28.307  27.968  1.00  0.00     0.031 A 
ATOM     57  C   UNL A   1      48.756  29.453  26.895  1.00  0.00     0.049 A 
ATOM     58  C   UNL A   1      43.347  29.453  28.309  1.00  0.00     0.074 A 
ATOM     59  C   UNL A   1      49.469  30.609  27.157  1.00  0.00     0.029 A 
ATOM     60  N   UNL A   1      47.465  29.667  27.352  1.00  0.00    -0.354 N 
ATOM     61  N   UNL A   1      44.618  29.609  28.029  1.00  0.00    -0.248 NA
ATOM     62  C   UNL A   1      42.756  30.574  29.057  1.00  0.00     0.031 C 
ATOM     63  C   UNL A   1      48.630  31.496  27.839  1.00  0.00     0.029 A 
ATOM     64  C   UNL A   1      47.373  30.921  27.933  1.00  0.00     0.049 A 
ATOM     65  H   UNL A   1      46.723  29.024  27.274  1.00  0.00     0.167 HD
ATOM     66  C   UNL A   1      44.972  30.852  28.540  1.00  0.00     0.074 A 
ATOM     67  C   UNL A   1      43.776  31.416  29.131  1.00  0.00     0.031 C 
ATOM     68  C   UNL A   1      46.178  31.470  28.521  1.00  0.00     0.031 A 
BRANCH  55  69
ATOM     69  C   UNL A   1      50.677  28.129  25.930  1.00  0.00    -0.014 A 
ATOM     70  C   UNL A   1      51.152  28.487  24.658  1.00  0.00     0.009 A 
ATOM     71  C   UNL A   1      51.597  27.708  26.904  1.00  0.00     0.009 A 
ATOM     72  C   UNL A   1      52.515  28.394  24.361  1.00  0.00     0.001 A 
ATOM     73  C   UNL A   1      52.961  27.646  26.614  1.00  0.00     0.001 A 
ATOM     74  C   UNL A   1      53.418  27.980  25.341  1.00  0.00     0.000 A 
ENDBRANCH  55  69
BRANCH  56  75
ATOM     75  C   UNL A   1      41.005  28.328  28.387  1.00  0.00    -0.014 A 
ATOM     76  C   UNL A   1      40.029  28.931  27.579  1.00  0.00     0.009 A 
ATOM     77  C   UNL A   1      40.614  27.762  29.612  1.00  0.00     0.009 A 
ATOM     78  C   UNL A   1      38.698  28.991  28.002  1.00  0.00     0.001 A 
ATOM     79  C   UNL A   1      39.279  27.794  30.016  1.00  0.00     0.001 A 
ATOM     80  C   UNL A   1      38.324  28.418  29.216  1.00  0.00     0.000 A 
ENDBRANCH  56  75
BRANCH  68  81
ATOM     81  C   UNL A   1      46.264  32.844  29.128  1.00  0.00    -0.014 A 
ATOM     82  C   UNL A   1      46.627  33.029  30.471  1.00  0.00     0.009 A 
ATOM     83  C   UNL A   1      46.034  33.974  28.326  1.00  0.00     0.009 A 
ATOM     84  C   UNL A   1      46.730  34.316  31.005  1.00  0.00     0.001 A 
ATOM     85  C   UNL A   1      46.170  35.259  28.852  1.00  0.00     0.001 A 
ATOM     86  C   UNL A   1      46.509  35.429  30.194  1.00  0.00     0.000 A 
ENDBRANCH  68  81
ENDBRANCH  42  43
ENDBRANCH  35  37
ENDBRANCH  34  35
ENDBRANCH  33  34
ENDBRANCH  32  33
ENDBRANCH  31  32
ENDBRANCH   1  31
TORSDOF 19
ENDMDL
MODEL 2
REMARK VINA RESULT:      -9.7      0.372      5.633
REMARK SMILES C/C=C(\C)[C@H]1C(C)=C[C@H]2CC[C@@H](OS(=O)(=O)[O-])[C@@H](C)[C@H]2[C@H]1/C=C/C=C/C(=O)OCCOCCOC(=O)c1ccc(-c2c3nc(c(-c4ccccc4)c4ccc([nH]4)c(-c4ccccc4)c4nc(c(-c5ccccc5)c5ccc2[nH]5)C=C4)C=C3)cc1
REMARK SMILES IDX 30 1 29 2 28 3 26 4 27 5 25 6 24 7 23 8 22 9 21 10 5 11 6 12
REMARK SMILES IDX 7 13 8 14 20 15 9 16 18 17 10 18 12 19 19 20 11 21 3 22 1 23
REMARK SMILES IDX 2 24 4 25 13 26 14 27 15 28 16 29 17 30 31 31 32 32 33 33
REMARK SMILES IDX 34 34 35 35 36 36 37 37 38 38 84 39 39 40 83 41 40 42 41 43
REMARK SMILES IDX 42 44 77 45 43 46 82 47 76 48 78 49 44 50 81 51 75 52 74 53
REMARK SMILES IDX 45 55 67 56 52 57 66 58 53 59 56 60 65 61 79 62 54 63 55 64
REMARK SMILES IDX 64 66 80 67 57 68 46 69 47 70 51 71 48 72 50 73 49 74 68 75
REMARK SMILES IDX 69 76 73 77 70 78 72 79 71 80 58 81 59 82 63 83 60 84 62 85
REMARK SMILES IDX 61 86
REMARK H PARENT 78 54 56 65
REMARK Flexibility Score: inf
ROOT
ATOM      1  C   UNL A   1      41.800  21.733  26.535  1.00  0.00     0.202 C 
ENDROOT
BRANCH   1   2
ATOM      2  C   UNL A   1      40.611  22.201  27.379  1.00  0.00     0.261 C 
BRANCH   2   3
ATOM      3  O   UNL A   1      39.468  22.509  26.572  1.00  0.00    -0.460 OA
BRANCH   3   4
ATOM      4  C   UNL A   1      38.852  23.680  26.870  1.00  0.00     0.330 C 
ATOM      5  O   UNL A   1      39.071  24.393  27.837  1.00  0.00    -0.247 OA
BRANCH   4   6
ATOM      6  C   UNL A   1      37.902  24.086  25.814  1.00  0.00     0.093 C 
ATOM      7  C   UNL A   1      37.126  23.231  25.134  1.00  0.00     0.007 C 
BRANCH   7   8
ATOM      8  C   UNL A   1      36.146  23.666  24.166  1.00  0.00    -0.004 C 
ATOM      9  C   UNL A   1      35.111  24.425  24.553  1.00  0.00    -0.022 C 
BRANCH   9  10
ATOM     10  C   UNL A   1      34.094  25.086  23.641  1.00  0.00     0.027 C 
ATOM     11  C   UNL A   1      32.710  24.323  23.478  1.00  0.00     0.047 C 
ATOM     12  C   UNL A   1      31.471  25.225  23.484  1.00  0.00    -0.069 C 
ATOM     13  C   UNL A   1      30.103  24.595  23.541  1.00  0.00     0.040 C 
ATOM     14  C   UNL A   1      31.563  26.559  23.329  1.00  0.00    -0.024 C 
ATOM     15  C   UNL A   1      33.995  26.610  23.990  1.00  0.00     0.009 C 
ATOM     16  C   UNL A   1      32.869  27.284  23.178  1.00  0.00     0.016 C 
ATOM     17  C   UNL A   1      34.004  27.003  25.510  1.00  0.00     0.021 C 
ATOM     18  C   UNL A   1      32.750  28.787  23.484  1.00  0.00     0.011 C 
ATOM     19  C   UNL A   1      33.949  28.539  25.673  1.00  0.00     0.141 C 
ATOM     20  C   UNL A   1      32.951  26.315  26.390  1.00  0.00     0.011 C 
ATOM     21  C   UNL A   1      32.721  29.114  24.972  1.00  0.00     0.034 C 
BRANCH  11  22
ATOM     22  C   UNL A   1      32.610  23.032  24.322  1.00  0.00    -0.070 C 
ATOM     23  C   UNL A   1      32.713  21.866  26.609  1.00  0.00     0.035 C 
ATOM     24  C   UNL A   1      32.668  23.028  25.670  1.00  0.00    -0.031 C 
ATOM     25  C   UNL A   1      32.480  21.777  23.487  1.00  0.00     0.040 C 
ENDBRANCH  11  22
BRANCH  19  26
ATOM     26  O   UNL A   1      33.925  28.847  27.062  1.00  0.00    -0.276 OA
BRANCH  26  27
ATOM     27  S   UNL A   1      34.991  29.900  27.674  1.00  0.00     0.217 S 
ATOM     28  O   UNL A   1      35.218  29.603  29.066  1.00  0.00    -0.213 OA
ATOM     29  O   UNL A   1      36.087  30.049  26.740  1.00  0.00    -0.213 OA
ATOM     30  O   UNL A   1      34.186  31.293  27.611  1.00  0.00    -0.726 OA
ENDBRANCH  26  27
ENDBRANCH  19  26
ENDBRANCH   9  10
ENDBRANCH   7   8
ENDBRANCH   4   6
ENDBRANCH   3   4
ENDBRANCH   2   3
ENDBRANCH   1   2
BRANCH   1  31
ATOM     31  O   UNL A   1      41.714  20.444  25.936  1.00  0.00    -0.374 OA
BRANCH  31  32
ATOM     32  C   UNL A   1      42.558  19.415  26.455  1.00  0.00     0.202 C 
BRANCH  32  33
ATOM     33  C   UNL A   1      43.346  18.567  25.447  1.00  0.00     0.261 C 
BRANCH  33  34
ATOM     34  O   UNL A   1      44.675  19.067  25.214  1.00  0.00    -0.460 OA
BRANCH  34  35
ATOM     35  C   UNL A   1      44.793  19.896  24.147  1.00  0.00     0.338 C 
ATOM     36  O   UNL A   1      44.501  19.663  22.987  1.00  0.00    -0.246 OA
BRANCH  35  37
ATOM     37  C   UNL A   1      45.172  21.241  24.615  1.00  0.00     0.060 A 
ATOM     38  C   UNL A   1      45.538  21.392  25.959  1.00  0.00     0.016 A 
ATOM     39  C   UNL A   1      45.114  22.347  23.766  1.00  0.00     0.016 A 
ATOM     40  C   UNL A   1      45.829  22.656  26.467  1.00  0.00     0.010 A 
ATOM     41  C   UNL A   1      45.396  23.616  24.280  1.00  0.00     0.010 A 
ATOM     42  C   UNL A   1      45.735  23.780  25.636  1.00  0.00    -0.014 A 
BRANCH  42  43
ATOM     43  C   UNL A   1      45.902  25.141  26.197  1.00  0.00     0.031 A 
ATOM     44  C   UNL A   1      44.708  25.856  26.766  1.00  0.00     0.074 A 
ATOM     45  C   UNL A   1      47.106  25.740  26.187  1.00  0.00     0.049 A 
ATOM     46  N   UNL A   1      44.615  27.080  27.220  1.00  0.00    -0.248 NA
ATOM     47  C   UNL A   1      43.452  25.092  26.827  1.00  0.00     0.031 C 
ATOM     48  C   UNL A   1      48.347  25.136  25.704  1.00  0.00     0.029 A 
ATOM     49  N   UNL A   1      47.476  27.001  26.583  1.00  0.00    -0.354 N 
ATOM     50  C   UNL A   1      43.289  27.239  27.603  1.00  0.00     0.074 A 
ATOM     51  C   UNL A   1      42.610  25.996  27.307  1.00  0.00     0.031 C 
ATOM     52  C   UNL A   1      49.340  26.032  25.818  1.00  0.00     0.029 A 
ATOM     53  C   UNL A   1      48.798  27.285  26.339  1.00  0.00     0.049 A 
ATOM     54  H   UNL A   1      46.855  27.640  27.000  1.00  0.00     0.167 HD
ATOM     55  C   UNL A   1      42.692  28.324  28.151  1.00  0.00     0.031 A 
ATOM     56  C   UNL A   1      49.483  28.436  26.485  1.00  0.00     0.031 A 
ATOM     57  C   UNL A   1      43.368  29.564  28.432  1.00  0.00     0.049 A 
ATOM     58  C   UNL A   1      48.775  29.655  27.013  1.00  0.00     0.074 A 
ATOM     59  C   UNL A   1      42.857  30.710  29.014  1.00  0.00     0.029 A 
ATOM     60  N   UNL A   1      44.698  29.823  28.139  1.00  0.00    -0.354 N 
ATOM     61  N   UNL A   1      47.531  29.784  27.406  1.00  0.00    -0.248 NA
ATOM     62  C   UNL A   1      49.569  30.889  27.119  1.00  0.00     0.031 C 
ATOM     63  C   UNL A   1      43.857  31.688  29.006  1.00  0.00     0.029 A 
ATOM     64  C   UNL A   1      45.012  31.126  28.489  1.00  0.00     0.049 A 
ATOM     65  H   UNL A   1      45.326  29.177  27.742  1.00  0.00     0.167 HD
ATOM     66  C   UNL A   1      47.400  31.101  27.831  1.00  0.00     0.074 A 
ATOM     67  C   UNL A   1      48.697  31.725  27.664  1.00  0.00     0.031 C 
ATOM     68  C   UNL A   1      46.305  31.736  28.315  1.00  0.00     0.031 A 
BRANCH  55  69
ATOM     69  C   UNL A   1      41.220  28.238  28.445  1.00  0.00    -0.014 A 
ATOM     70  C   UNL A   1      40.741  27.676  29.639  1.00  0.00     0.009 A 
ATOM     71  C   UNL A   1      40.299  28.771  27.529  1.00  0.00     0.009 A 
ATOM     72  C   UNL A   1      39.368  27.623  29.894  1.00  0.00     0.001 A 
ATOM     73  C   UNL A   1      38.930  28.744  27.801  1.00  0.00     0.001 A 
ATOM     74  C   UNL A   1      38.465  28.162  28.978  1.00  0.00     0.000 A 
ENDBRANCH  55  69
BRANCH  56  75
ATOM     75  C   UNL A   1      50.916  28.505  26.089  1.00  0.00    -0.014 A 
ATOM     76  C   UNL A   1      51.932  28.275  27.029  1.00  0.00     0.009 A 
ATOM     77  C   UNL A   1      51.274  28.823  24.769  1.00  0.00     0.009 A 
ATOM     78  C   UNL A   1      53.275  28.391  26.662  1.00  0.00     0.001 A 
ATOM     79  C   UNL A   1      52.617  28.905  24.397  1.00  0.00     0.001 A 
ATOM     80  C   UNL A   1      53.616  28.699  25.346  1.00  0.00     0.000 A 
ENDBRANCH  56  75
BRANCH  68  81
ATOM     81  C   UNL A   1      46.464  33.173  28.733  1.00  0.00    -0.014 A 
ATOM     82  C   UNL A   1      46.199  34.226  27.844  1.00  0.00     0.009 A 
ATOM     83  C   UNL A   1      46.827  33.476  30.055  1.00  0.00     0.009 A 
ATOM     84  C   UNL A   1      46.323  35.553  28.263  1.00  0.00     0.001 A 
ATOM     85  C   UNL A   1      46.919  34.802  30.480  1.00  0.00     0.001 A 
ATOM     86  C   UNL A   1      46.675  35.840  29.582  1.00  0.00     0.000 A 
ENDBRANCH  68  81
ENDBRANCH  42  43
ENDBRANCH  35  37
ENDBRANCH  34  35
ENDBRANCH  33  34
ENDBRANCH  32  33
ENDBRANCH  31  32
ENDBRANCH   1  31
TORSDOF 19
ENDMDL
MODEL 3
REMARK VINA RESULT:      -9.7      4.193      6.286
REMARK SMILES C/C=C(\C)[C@H]1C(C)=C[C@H]2CC[C@@H](OS(=O)(=O)[O-])[C@@H](C)[C@H]2[C@H]1/C=C/C=C/C(=O)OCCOCCOC(=O)c1ccc(-c2c3nc(c(-c4ccccc4)c4ccc([nH]4)c(-c4ccccc4)c4nc(c(-c5ccccc5)c5ccc2[nH]5)C=C4)C=C3)cc1
REMARK SMILES IDX 30 1 29 2 28 3 26 4 27 5 25 6 24 7 23 8 22 9 21 10 5 11 6 12
REMARK SMILES IDX 7 13 8 14 20 15 9 16 18 17 10 18 12 19 19 20 11 21 3 22 1 23
REMARK SMILES IDX 2 24 4 25 13 26 14 27 15 28 16 29 17 30 31 31 32 32 33 33
REMARK SMILES IDX 34 34 35 35 36 36 37 37 38 38 84 39 39 40 83 41 40 42 41 43
REMARK SMILES IDX 42 44 77 45 43 46 82 47 76 48 78 49 44 50 81 51 75 52 74 53
REMARK SMILES IDX 45 55 67 56 52 57 66 58 53 59 56 60 65 61 79 62 54 63 55 64
REMARK SMILES IDX 64 66 80 67 57 68 46 69 47 70 51 71 48 72 50 73 49 74 68 75
REMARK SMILES IDX 69 76 73 77 70 78 72 79 71 80 58 81 59 82 63 83 60 84 62 85
REMARK SMILES IDX 61 86
REMARK H PARENT 78 54 56 65
REMARK Flexibility Score: inf
ROOT
ATOM      1  C   UNL A   1      41.716  19.486  26.088  1.00  0.00     0.202 C 
ENDROOT
BRANCH   1   2
ATOM      2  C   UNL A   1      40.586  20.519  26.126  1.00  0.00     0.261 C 
BRANCH   2   3
ATOM      3  O   UNL A   1      40.822  21.536  27.108  1.00  0.00    -0.460 OA
BRANCH   3   4
ATOM      4  C   UNL A   1      39.871  22.501  27.177  1.00  0.00     0.330 C 
ATOM      5  O   UNL A   1      39.855  23.454  27.939  1.00  0.00    -0.247 OA
BRANCH   4   6
ATOM      6  C   UNL A   1      38.845  22.336  26.127  1.00  0.00     0.093 C 
ATOM      7  C   UNL A   1      37.979  23.293  25.767  1.00  0.00     0.007 C 
BRANCH   7   8
ATOM      8  C   UNL A   1      37.042  23.130  24.680  1.00  0.00    -0.004 C 
ATOM      9  C   UNL A   1      35.836  23.712  24.739  1.00  0.00    -0.022 C 
BRANCH   9  10
ATOM     10  C   UNL A   1      34.810  23.765  23.623  1.00  0.00     0.027 C 
ATOM     11  C   UNL A   1      33.649  22.683  23.695  1.00  0.00     0.047 C 
ATOM     12  C   UNL A   1      32.254  23.209  23.346  1.00  0.00    -0.069 C 
ATOM     13  C   UNL A   1      31.054  22.326  23.578  1.00  0.00     0.040 C 
ATOM     14  C   UNL A   1      32.075  24.396  22.734  1.00  0.00    -0.024 C 
ATOM     15  C   UNL A   1      34.349  25.247  23.410  1.00  0.00     0.009 C 
ATOM     16  C   UNL A   1      33.203  25.319  22.378  1.00  0.00     0.016 C 
ATOM     17  C   UNL A   1      34.102  26.115  24.695  1.00  0.00     0.021 C 
ATOM     18  C   UNL A   1      32.731  26.762  22.133  1.00  0.00     0.011 C 
ATOM     19  C   UNL A   1      33.701  27.556  24.305  1.00  0.00     0.141 C 
ATOM     20  C   UNL A   1      33.129  25.530  25.727  1.00  0.00     0.011 C 
ATOM     21  C   UNL A   1      32.465  27.551  23.409  1.00  0.00     0.034 C 
BRANCH  11  22
ATOM     22  C   UNL A   1      33.735  21.764  24.936  1.00  0.00    -0.070 C 
ATOM     23  C   UNL A   1      33.642  21.471  27.486  1.00  0.00     0.035 C 
ATOM     24  C   UNL A   1      33.482  22.196  26.189  1.00  0.00    -0.031 C 
ATOM     25  C   UNL A   1      34.164  20.351  24.609  1.00  0.00     0.040 C 
ENDBRANCH  11  22
BRANCH  19  26
ATOM     26  O   UNL A   1      33.455  28.295  25.495  1.00  0.00    -0.276 OA
BRANCH  26  27
ATOM     27  S   UNL A   1      31.988  28.924  25.768  1.00  0.00     0.217 S 
ATOM     28  O   UNL A   1      32.003  30.334  25.471  1.00  0.00    -0.213 OA
ATOM     29  O   UNL A   1      30.991  28.038  25.205  1.00  0.00    -0.213 OA
ATOM     30  O   UNL A   1      31.833  28.777  27.364  1.00  0.00    -0.726 OA
ENDBRANCH  26  27
ENDBRANCH  19  26
ENDBRANCH   9  10
ENDBRANCH   7   8
ENDBRANCH   4   6
ENDBRANCH   3   4
ENDBRANCH   2   3
ENDBRANCH   1   2
BRANCH   1  31
ATOM     31  O   UNL A   1      42.657  19.580  25.023  1.00  0.00    -0.374 OA
BRANCH  31  32
ATOM     32  C   UNL A   1      44.016  19.857  25.365  1.00  0.00     0.202 C 
BRANCH  32  33
ATOM     33  C   UNL A   1      44.554  21.261  25.056  1.00  0.00     0.261 C 
BRANCH  33  34
ATOM     34  O   UNL A   1      43.946  22.283  25.865  1.00  0.00    -0.460 OA
BRANCH  34  35
ATOM     35  C   UNL A   1      44.516  23.509  25.759  1.00  0.00     0.338 C 
ATOM     36  O   UNL A   1      45.361  23.871  24.960  1.00  0.00    -0.246 OA
BRANCH  35  37
ATOM     37  C   UNL A   1      43.825  24.447  26.663  1.00  0.00     0.060 A 
ATOM     38  C   UNL A   1      43.994  25.820  26.440  1.00  0.00     0.016 A 
ATOM     39  C   UNL A   1      43.073  23.989  27.746  1.00  0.00     0.016 A 
ATOM     40  C   UNL A   1      43.425  26.744  27.314  1.00  0.00     0.010 A 
ATOM     41  C   UNL A   1      42.513  24.918  28.627  1.00  0.00     0.010 A 
ATOM     42  C   UNL A   1      42.702  26.298  28.428  1.00  0.00    -0.014 A 
BRANCH  42  43
ATOM     43  C   UNL A   1      42.215  27.265  29.439  1.00  0.00     0.031 A 
ATOM     44  C   UNL A   1      42.939  27.387  30.751  1.00  0.00     0.074 A 
ATOM     45  C   UNL A   1      41.128  28.018  29.195  1.00  0.00     0.049 A 
ATOM     46  N   UNL A   1      42.628  28.099  31.805  1.00  0.00    -0.248 NA
ATOM     47  C   UNL A   1      44.172  26.599  30.897  1.00  0.00     0.031 C 
ATOM     48  C   UNL A   1      40.366  28.023  27.948  1.00  0.00     0.029 A 
ATOM     49  N   UNL A   1      40.468  28.914  29.999  1.00  0.00    -0.354 N 
ATOM     50  C   UNL A   1      43.617  27.831  32.744  1.00  0.00     0.074 A 
ATOM     51  C   UNL A   1      44.523  26.875  32.145  1.00  0.00     0.031 C 
ATOM     52  C   UNL A   1      39.332  28.872  28.073  1.00  0.00     0.029 A 
ATOM     53  C   UNL A   1      39.334  29.433  29.422  1.00  0.00     0.049 A 
ATOM     54  H   UNL A   1      40.776  29.161  30.900  1.00  0.00     0.167 HD
ATOM     55  C   UNL A   1      43.755  28.336  33.993  1.00  0.00     0.031 A 
ATOM     56  C   UNL A   1      38.386  30.240  29.937  1.00  0.00     0.031 A 
ATOM     57  C   UNL A   1      42.844  29.278  34.590  1.00  0.00     0.049 A 
ATOM     58  C   UNL A   1      38.515  30.718  31.359  1.00  0.00     0.074 A 
ATOM     59  C   UNL A   1      42.915  29.871  35.838  1.00  0.00     0.029 A 
ATOM     60  N   UNL A   1      41.690  29.752  33.987  1.00  0.00    -0.354 N 
ATOM     61  N   UNL A   1      39.472  30.488  32.225  1.00  0.00    -0.248 NA
ATOM     62  C   UNL A   1      37.432  31.569  31.873  1.00  0.00     0.031 C 
ATOM     63  C   UNL A   1      41.766  30.647  36.020  1.00  0.00     0.029 A 
ATOM     64  C   UNL A   1      41.018  30.597  34.855  1.00  0.00     0.049 A 
ATOM     65  H   UNL A   1      41.392  29.523  33.077  1.00  0.00     0.167 HD
ATOM     66  C   UNL A   1      39.121  31.187  33.375  1.00  0.00     0.074 A 
ATOM     67  C   UNL A   1      37.873  31.863  33.088  1.00  0.00     0.031 C 
ATOM     68  C   UNL A   1      39.775  31.261  34.559  1.00  0.00     0.031 A 
BRANCH  55  69
ATOM     69  C   UNL A   1      44.913  27.849  34.819  1.00  0.00    -0.014 A 
ATOM     70  C   UNL A   1      46.150  28.513  34.814  1.00  0.00     0.009 A 
ATOM     71  C   UNL A   1      44.747  26.732  35.653  1.00  0.00     0.009 A 
ATOM     72  C   UNL A   1      47.205  28.048  35.604  1.00  0.00     0.001 A 
ATOM     73  C   UNL A   1      45.792  26.288  36.465  1.00  0.00     0.001 A 
ATOM     74  C   UNL A   1      47.023  26.940  36.433  1.00  0.00     0.000 A 
ENDBRANCH  55  69
BRANCH  56  75
ATOM     75  C   UNL A   1      37.204  30.619  29.116  1.00  0.00    -0.014 A 
ATOM     76  C   UNL A   1      37.010  31.948  28.708  1.00  0.00     0.009 A 
ATOM     77  C   UNL A   1      36.251  29.654  28.753  1.00  0.00     0.009 A 
ATOM     78  C   UNL A   1      35.872  32.306  27.980  1.00  0.00     0.001 A 
ATOM     79  C   UNL A   1      35.132  30.008  27.997  1.00  0.00     0.001 A 
ATOM     80  C   UNL A   1      34.939  31.336  27.620  1.00  0.00     0.000 A 
ENDBRANCH  56  75
BRANCH  68  81
ATOM     81  C   UNL A   1      39.173  32.130  35.631  1.00  0.00    -0.014 A 
ATOM     82  C   UNL A   1      38.298  31.603  36.594  1.00  0.00     0.009 A 
ATOM     83  C   UNL A   1      39.534  33.484  35.711  1.00  0.00     0.009 A 
ATOM     84  C   UNL A   1      37.776  32.422  37.598  1.00  0.00     0.001 A 
ATOM     85  C   UNL A   1      39.037  34.293  36.734  1.00  0.00     0.001 A 
ATOM     86  C   UNL A   1      38.151  33.763  37.672  1.00  0.00     0.000 A 
ENDBRANCH  68  81
ENDBRANCH  42  43
ENDBRANCH  35  37
ENDBRANCH  34  35
ENDBRANCH  33  34
ENDBRANCH  32  33
ENDBRANCH  31  32
ENDBRANCH   1  31
TORSDOF 19
ENDMDL
