MODEL 1
REMARK VINA RESULT:      -7.4      0.000      0.000
REMARK SMILES CCCC#C[C@](C)(O)C[NH2+][C@H](C)C(=O)OCCOCCOC(=O)c1ccc(-c2c3nc(c(-c4ccccc4)c4ccc([nH]4)c(-c4ccccc4)c4nc(c(-c5ccccc5)c5ccc2[nH]5)C=C4)C=C3)cc1
REMARK SMILES IDX 16 1 15 2 13 3 14 4 11 5 12 6 10 7 9 10 6 11 7 12 5 13 4 14
REMARK SMILES IDX 3 15 2 16 1 17 8 18 17 20 18 21 19 22 20 23 21 24 22 25
REMARK SMILES IDX 23 26 24 27 25 28 71 29 26 30 70 31 27 32 28 33 29 34 64 35
REMARK SMILES IDX 30 36 69 37 63 38 65 39 31 40 68 41 62 42 61 43 32 45 54 46
REMARK SMILES IDX 39 47 53 48 40 49 43 50 52 51 66 52 41 53 42 54 51 56 67 57
REMARK SMILES IDX 44 58 33 59 34 60 38 61 35 62 37 63 36 64 55 65 56 66 60 67
REMARK SMILES IDX 57 68 59 69 58 70 45 71 46 72 50 73 47 74 49 75 48 76
REMARK H PARENT 10 8 10 9 8 19 65 44 43 55
REMARK Flexibility Score: inf
ROOT
ATOM      1  C   UNL A   1      44.685  19.200  24.643  1.00  0.00     0.261 C 
ENDROOT
BRANCH   1   2
ATOM      2  O   UNL A   1      43.658  19.111  25.643  1.00  0.00    -0.459 OA
BRANCH   2   3
ATOM      3  C   UNL A   1      42.908  20.238  25.807  1.00  0.00     0.364 C 
ATOM      4  O   UNL A   1      42.912  21.200  25.045  1.00  0.00    -0.245 OA
BRANCH   3   5
ATOM      5  C   UNL A   1      42.111  20.218  27.121  1.00  0.00     0.290 C 
ATOM      6  C   UNL A   1      42.120  18.847  27.787  1.00  0.00     0.088 C 
BRANCH   5   7
ATOM      7  N   UNL A   1      42.590  21.245  28.072  1.00  0.00    -0.332 N 
ATOM      8  H   UNL A   1      42.533  20.878  29.022  1.00  0.00     0.347 HD
ATOM      9  H   UNL A   1      43.556  21.481  27.847  1.00  0.00     0.347 HD
BRANCH   7  10
ATOM     10  C   UNL A   1      41.761  22.458  27.968  1.00  0.00     0.310 C 
BRANCH  10  11
ATOM     11  C   UNL A   1      42.522  23.720  27.522  1.00  0.00     0.171 C 
ATOM     12  C   UNL A   1      43.952  23.740  28.053  1.00  0.00     0.063 C 
BRANCH  11  13
ATOM     13  C   UNL A   1      41.745  24.862  28.021  1.00  0.00    -0.063 C 
ATOM     14  C   UNL A   1      41.025  25.877  28.409  1.00  0.00    -0.100 C 
BRANCH  14  15
ATOM     15  C   UNL A   1      40.186  27.060  28.861  1.00  0.00     0.089 C 
BRANCH  15  16
ATOM     16  C   UNL A   1      40.529  28.319  28.064  1.00  0.00     0.010 C 
ATOM     17  C   UNL A   1      39.309  29.170  27.734  1.00  0.00     0.005 C 
ENDBRANCH  15  16
ENDBRANCH  14  15
ENDBRANCH  11  13
BRANCH  11  18
ATOM     18  O   UNL A   1      42.546  23.777  26.092  1.00  0.00    -0.372 OA
ATOM     19  H   UNL A   1      43.096  23.056  25.749  1.00  0.00     0.212 HD
ENDBRANCH  11  18
ENDBRANCH  10  11
ENDBRANCH   7  10
ENDBRANCH   5   7
ENDBRANCH   3   5
ENDBRANCH   2   3
ENDBRANCH   1   2
BRANCH   1  20
ATOM     20  C   UNL A   1      46.044  19.570  25.239  1.00  0.00     0.202 C 
BRANCH  20  21
ATOM     21  O   UNL A   1      46.624  20.803  24.820  1.00  0.00    -0.374 OA
BRANCH  21  22
ATOM     22  C   UNL A   1      46.056  22.019  25.300  1.00  0.00     0.202 C 
BRANCH  22  23
ATOM     23  C   UNL A   1      45.692  23.080  24.259  1.00  0.00     0.261 C 
BRANCH  23  24
ATOM     24  O   UNL A   1      45.203  24.290  24.865  1.00  0.00    -0.460 OA
BRANCH  24  25
ATOM     25  C   UNL A   1      46.115  25.285  24.945  1.00  0.00     0.338 C 
ATOM     26  O   UNL A   1      47.159  25.389  24.306  1.00  0.00    -0.246 OA
BRANCH  25  27
ATOM     27  C   UNL A   1      45.622  26.370  25.809  1.00  0.00     0.060 A 
ATOM     28  C   UNL A   1      46.512  26.902  26.751  1.00  0.00     0.016 A 
ATOM     29  C   UNL A   1      44.290  26.786  25.773  1.00  0.00     0.016 A 
ATOM     30  C   UNL A   1      46.060  27.809  27.705  1.00  0.00     0.010 A 
ATOM     31  C   UNL A   1      43.835  27.687  26.740  1.00  0.00     0.010 A 
ATOM     32  C   UNL A   1      44.707  28.168  27.733  1.00  0.00    -0.014 A 
BRANCH  32  33
ATOM     33  C   UNL A   1      44.168  28.903  28.901  1.00  0.00     0.031 A 
ATOM     34  C   UNL A   1      43.953  30.387  28.784  1.00  0.00     0.074 A 
ATOM     35  C   UNL A   1      43.862  28.262  30.041  1.00  0.00     0.049 A 
ATOM     36  N   UNL A   1      43.565  31.243  29.694  1.00  0.00    -0.248 NA
ATOM     37  C   UNL A   1      44.213  30.985  27.464  1.00  0.00     0.031 C 
ATOM     38  C   UNL A   1      43.967  26.820  30.258  1.00  0.00     0.029 A 
ATOM     39  N   UNL A   1      43.405  28.753  31.237  1.00  0.00    -0.354 N 
ATOM     40  C   UNL A   1      43.547  32.480  29.063  1.00  0.00     0.074 A 
ATOM     41  C   UNL A   1      43.979  32.269  27.698  1.00  0.00     0.031 C 
ATOM     42  C   UNL A   1      43.598  26.544  31.521  1.00  0.00     0.029 A 
ATOM     43  C   UNL A   1      43.268  27.791  32.208  1.00  0.00     0.049 A 
ATOM     44  H   UNL A   1      43.195  29.704  31.386  1.00  0.00     0.167 HD
ATOM     45  C   UNL A   1      43.201  33.685  29.573  1.00  0.00     0.031 A 
ATOM     46  C   UNL A   1      42.944  27.911  33.509  1.00  0.00     0.031 A 
ATOM     47  C   UNL A   1      42.780  33.898  30.930  1.00  0.00     0.049 A 
ATOM     48  C   UNL A   1      42.651  29.274  34.077  1.00  0.00     0.074 A 
ATOM     49  C   UNL A   1      42.396  35.079  31.539  1.00  0.00     0.029 A 
ATOM     50  N   UNL A   1      42.697  32.904  31.892  1.00  0.00    -0.354 N 
ATOM     51  N   UNL A   1      42.625  30.435  33.469  1.00  0.00    -0.248 NA
ATOM     52  C   UNL A   1      42.345  29.342  35.514  1.00  0.00     0.031 C 
ATOM     53  C   UNL A   1      42.129  34.808  32.885  1.00  0.00     0.029 A 
ATOM     54  C   UNL A   1      42.295  33.450  33.098  1.00  0.00     0.049 A 
ATOM     55  H   UNL A   1      42.893  31.951  31.740  1.00  0.00     0.167 HD
ATOM     56  C   UNL A   1      42.272  31.365  34.439  1.00  0.00     0.074 A 
ATOM     57  C   UNL A   1      42.087  30.632  35.675  1.00  0.00     0.031 C 
ATOM     58  C   UNL A   1      42.112  32.705  34.316  1.00  0.00     0.031 A 
BRANCH  45  59
ATOM     59  C   UNL A   1      43.307  34.876  28.664  1.00  0.00    -0.014 A 
ATOM     60  C   UNL A   1      42.187  35.376  27.982  1.00  0.00     0.009 A 
ATOM     61  C   UNL A   1      44.542  35.525  28.514  1.00  0.00     0.009 A 
ATOM     62  C   UNL A   1      42.309  36.486  27.143  1.00  0.00     0.001 A 
ATOM     63  C   UNL A   1      44.656  36.648  27.693  1.00  0.00     0.001 A 
ATOM     64  C   UNL A   1      43.542  37.123  27.003  1.00  0.00     0.000 A 
ENDBRANCH  45  59
BRANCH  46  65
ATOM     65  C   UNL A   1      42.908  26.708  34.380  1.00  0.00    -0.014 A 
ATOM     66  C   UNL A   1      44.096  26.085  34.790  1.00  0.00     0.009 A 
ATOM     67  C   UNL A   1      41.680  26.166  34.791  1.00  0.00     0.009 A 
ATOM     68  C   UNL A   1      44.055  24.931  35.576  1.00  0.00     0.001 A 
ATOM     69  C   UNL A   1      41.642  25.028  35.599  1.00  0.00     0.001 A 
ATOM     70  C   UNL A   1      42.829  24.406  35.983  1.00  0.00     0.000 A 
ENDBRANCH  46  65
BRANCH  58  71
ATOM     71  C   UNL A   1      41.677  33.464  35.538  1.00  0.00    -0.014 A 
ATOM     72  C   UNL A   1      40.319  33.637  35.844  1.00  0.00     0.009 A 
ATOM     73  C   UNL A   1      42.645  33.960  36.425  1.00  0.00     0.009 A 
ATOM     74  C   UNL A   1      39.939  34.313  37.005  1.00  0.00     0.001 A 
ATOM     75  C   UNL A   1      42.262  34.613  37.598  1.00  0.00     0.001 A 
ATOM     76  C   UNL A   1      40.910  34.794  37.883  1.00  0.00     0.000 A 
ENDBRANCH  58  71
ENDBRANCH  32  33
ENDBRANCH  25  27
ENDBRANCH  24  25
ENDBRANCH  23  24
ENDBRANCH  22  23
ENDBRANCH  21  22
ENDBRANCH  20  21
ENDBRANCH   1  20
TORSDOF 21
ENDMDL
MODEL 2
REMARK VINA RESULT:      -7.3      0.753      6.089
REMARK SMILES CCCC#C[C@](C)(O)C[NH2+][C@H](C)C(=O)OCCOCCOC(=O)c1ccc(-c2c3nc(c(-c4ccccc4)c4ccc([nH]4)c(-c4ccccc4)c4nc(c(-c5ccccc5)c5ccc2[nH]5)C=C4)C=C3)cc1
REMARK SMILES IDX 16 1 15 2 13 3 14 4 11 5 12 6 10 7 9 10 6 11 7 12 5 13 4 14
REMARK SMILES IDX 3 15 2 16 1 17 8 18 17 20 18 21 19 22 20 23 21 24 22 25
REMARK SMILES IDX 23 26 24 27 25 28 71 29 26 30 70 31 27 32 28 33 29 34 64 35
REMARK SMILES IDX 30 36 69 37 63 38 65 39 31 40 68 41 62 42 61 43 32 45 54 46
REMARK SMILES IDX 39 47 53 48 40 49 43 50 52 51 66 52 41 53 42 54 51 56 67 57
REMARK SMILES IDX 44 58 33 59 34 60 38 61 35 62 37 63 36 64 55 65 56 66 60 67
REMARK SMILES IDX 57 68 59 69 58 70 45 71 46 72 50 73 47 74 49 75 48 76
REMARK H PARENT 10 8 10 9 8 19 65 44 43 55
REMARK Flexibility Score: inf
ROOT
ATOM      1  C   UNL A   1      44.585  19.615  24.604  1.00  0.00     0.261 C 
ENDROOT
BRANCH   1   2
ATOM      2  O   UNL A   1      43.601  19.455  25.637  1.00  0.00    -0.459 OA
BRANCH   2   3
ATOM      3  C   UNL A   1      42.804  20.540  25.853  1.00  0.00     0.364 C 
ATOM      4  O   UNL A   1      42.712  21.504  25.100  1.00  0.00    -0.245 OA
BRANCH   3   5
ATOM      5  C   UNL A   1      42.088  20.472  27.212  1.00  0.00     0.290 C 
ATOM      6  C   UNL A   1      42.008  19.051  27.758  1.00  0.00     0.088 C 
BRANCH   5   7
ATOM      7  N   UNL A   1      42.717  21.363  28.211  1.00  0.00    -0.332 N 
ATOM      8  H   UNL A   1      42.718  20.902  29.121  1.00  0.00     0.347 HD
ATOM      9  H   UNL A   1      43.673  21.564  27.922  1.00  0.00     0.347 HD
BRANCH   7  10
ATOM     10  C   UNL A   1      41.967  22.627  28.307  1.00  0.00     0.310 C 
BRANCH  10  11
ATOM     11  C   UNL A   1      42.737  23.870  27.825  1.00  0.00     0.171 C 
ATOM     12  C   UNL A   1      44.173  23.885  28.341  1.00  0.00     0.063 C 
BRANCH  11  13
ATOM     13  C   UNL A   1      41.979  25.031  28.308  1.00  0.00    -0.063 C 
ATOM     14  C   UNL A   1      41.302  26.083  28.677  1.00  0.00    -0.100 C 
BRANCH  14  15
ATOM     15  C   UNL A   1      40.513  27.308  29.106  1.00  0.00     0.089 C 
BRANCH  15  16
ATOM     16  C   UNL A   1      39.611  27.808  27.979  1.00  0.00     0.010 C 
ATOM     17  C   UNL A   1      40.166  29.035  27.266  1.00  0.00     0.005 C 
ENDBRANCH  15  16
ENDBRANCH  14  15
ENDBRANCH  11  13
BRANCH  11  18
ATOM     18  O   UNL A   1      42.746  23.896  26.394  1.00  0.00    -0.372 OA
ATOM     19  H   UNL A   1      42.161  24.604  26.081  1.00  0.00     0.212 HD
ENDBRANCH  11  18
ENDBRANCH  10  11
ENDBRANCH   7  10
ENDBRANCH   5   7
ENDBRANCH   3   5
ENDBRANCH   2   3
ENDBRANCH   1   2
BRANCH   1  20
ATOM     20  C   UNL A   1      45.986  19.855  25.170  1.00  0.00     0.202 C 
BRANCH  20  21
ATOM     21  O   UNL A   1      46.602  21.105  24.876  1.00  0.00    -0.374 OA
BRANCH  21  22
ATOM     22  C   UNL A   1      46.049  22.287  25.450  1.00  0.00     0.202 C 
BRANCH  22  23
ATOM     23  C   UNL A   1      45.700  23.431  24.495  1.00  0.00     0.261 C 
BRANCH  23  24
ATOM     24  O   UNL A   1      45.230  24.598  25.195  1.00  0.00    -0.460 OA
BRANCH  24  25
ATOM     25  C   UNL A   1      46.084  25.646  25.173  1.00  0.00     0.338 C 
ATOM     26  O   UNL A   1      47.061  25.793  24.446  1.00  0.00    -0.246 OA
BRANCH  25  27
ATOM     27  C   UNL A   1      45.600  26.724  26.051  1.00  0.00     0.060 A 
ATOM     28  C   UNL A   1      46.507  27.264  26.972  1.00  0.00     0.016 A 
ATOM     29  C   UNL A   1      44.264  27.126  26.048  1.00  0.00     0.016 A 
ATOM     30  C   UNL A   1      46.069  28.165  27.939  1.00  0.00     0.010 A 
ATOM     31  C   UNL A   1      43.822  28.020  27.027  1.00  0.00     0.010 A 
ATOM     32  C   UNL A   1      44.712  28.509  28.001  1.00  0.00    -0.014 A 
BRANCH  32  33
ATOM     33  C   UNL A   1      44.195  29.236  29.182  1.00  0.00     0.031 A 
ATOM     34  C   UNL A   1      43.931  28.465  30.447  1.00  0.00     0.074 A 
ATOM     35  C   UNL A   1      43.975  30.560  29.139  1.00  0.00     0.049 A 
ATOM     36  N   UNL A   1      43.411  28.875  31.575  1.00  0.00    -0.248 NA
ATOM     37  C   UNL A   1      44.304  27.040  30.435  1.00  0.00     0.031 C 
ATOM     38  C   UNL A   1      44.248  31.429  27.995  1.00  0.00     0.029 A 
ATOM     39  N   UNL A   1      43.460  31.404  30.090  1.00  0.00    -0.354 N 
ATOM     40  C   UNL A   1      43.380  27.759  32.401  1.00  0.00     0.074 A 
ATOM     41  C   UNL A   1      43.918  26.650  31.642  1.00  0.00     0.031 C 
ATOM     42  C   UNL A   1      43.883  32.685  28.307  1.00  0.00     0.029 A 
ATOM     43  C   UNL A   1      43.319  32.699  29.655  1.00  0.00     0.049 A 
ATOM     44  H   UNL A   1      43.215  31.110  30.998  1.00  0.00     0.167 HD
ATOM     45  C   UNL A   1      42.943  27.664  33.679  1.00  0.00     0.031 A 
ATOM     46  C   UNL A   1      42.767  33.765  30.265  1.00  0.00     0.031 A 
ATOM     47  C   UNL A   1      42.401  28.762  34.431  1.00  0.00     0.049 A 
ATOM     48  C   UNL A   1      42.206  33.614  31.654  1.00  0.00     0.074 A 
ATOM     49  C   UNL A   1      41.943  28.770  35.737  1.00  0.00     0.029 A 
ATOM     50  N   UNL A   1      42.235  30.046  33.938  1.00  0.00    -0.354 N 
ATOM     51  N   UNL A   1      42.193  32.558  32.431  1.00  0.00    -0.248 NA
ATOM     52  C   UNL A   1      41.579  34.805  32.248  1.00  0.00     0.031 C 
ATOM     53  C   UNL A   1      41.453  30.049  36.018  1.00  0.00     0.029 A 
ATOM     54  C   UNL A   1      41.655  30.849  34.906  1.00  0.00     0.049 A 
ATOM     55  H   UNL A   1      42.492  30.344  33.036  1.00  0.00     0.167 HD
ATOM     56  C   UNL A   1      41.586  32.963  33.613  1.00  0.00     0.074 A 
ATOM     57  C   UNL A   1      41.251  34.363  33.455  1.00  0.00     0.031 C 
ATOM     58  C   UNL A   1      41.333  32.241  34.732  1.00  0.00     0.031 A 
BRANCH  45  59
ATOM     59  C   UNL A   1      42.997  26.311  34.329  1.00  0.00    -0.014 A 
ATOM     60  C   UNL A   1      41.841  25.702  34.842  1.00  0.00     0.009 A 
ATOM     61  C   UNL A   1      44.218  25.623  34.398  1.00  0.00     0.009 A 
ATOM     62  C   UNL A   1      41.915  24.442  35.440  1.00  0.00     0.001 A 
ATOM     63  C   UNL A   1      44.284  24.355  34.975  1.00  0.00     0.001 A 
ATOM     64  C   UNL A   1      43.135  23.768  35.502  1.00  0.00     0.000 A 
ENDBRANCH  45  59
BRANCH  46  65
ATOM     65  C   UNL A   1      42.688  35.068  29.557  1.00  0.00    -0.014 A 
ATOM     66  C   UNL A   1      43.659  36.059  29.769  1.00  0.00     0.009 A 
ATOM     67  C   UNL A   1      41.627  35.334  28.677  1.00  0.00     0.009 A 
ATOM     68  C   UNL A   1      43.557  37.296  29.130  1.00  0.00     0.001 A 
ATOM     69  C   UNL A   1      41.542  36.563  28.019  1.00  0.00     0.001 A 
ATOM     70  C   UNL A   1      42.502  37.546  28.253  1.00  0.00     0.000 A 
ENDBRANCH  46  65
BRANCH  58  71
ATOM     71  C   UNL A   1      40.699  32.959  35.889  1.00  0.00    -0.014 A 
ATOM     72  C   UNL A   1      41.476  33.617  36.853  1.00  0.00     0.009 A 
ATOM     73  C   UNL A   1      39.300  33.025  35.979  1.00  0.00     0.009 A 
ATOM     74  C   UNL A   1      40.864  34.310  37.899  1.00  0.00     0.001 A 
ATOM     75  C   UNL A   1      38.690  33.739  37.011  1.00  0.00     0.001 A 
ATOM     76  C   UNL A   1      39.472  34.376  37.973  1.00  0.00     0.000 A 
ENDBRANCH  58  71
ENDBRANCH  32  33
ENDBRANCH  25  27
ENDBRANCH  24  25
ENDBRANCH  23  24
ENDBRANCH  22  23
ENDBRANCH  21  22
ENDBRANCH  20  21
ENDBRANCH   1  20
TORSDOF 21
ENDMDL
MODEL 3
REMARK VINA RESULT:      -7.3      4.939      7.980
REMARK SMILES CCCC#C[C@](C)(O)C[NH2+][C@H](C)C(=O)OCCOCCOC(=O)c1ccc(-c2c3nc(c(-c4ccccc4)c4ccc([nH]4)c(-c4ccccc4)c4nc(c(-c5ccccc5)c5ccc2[nH]5)C=C4)C=C3)cc1
REMARK SMILES IDX 16 1 15 2 13 3 14 4 11 5 12 6 10 7 9 10 6 11 7 12 5 13 4 14
REMARK SMILES IDX 3 15 2 16 1 17 8 18 17 20 18 21 19 22 20 23 21 24 22 25
REMARK SMILES IDX 23 26 24 27 25 28 71 29 26 30 70 31 27 32 28 33 29 34 64 35
REMARK SMILES IDX 30 36 69 37 63 38 65 39 31 40 68 41 62 42 61 43 32 45 54 46
REMARK SMILES IDX 39 47 53 48 40 49 43 50 52 51 66 52 41 53 42 54 51 56 67 57
REMARK SMILES IDX 44 58 33 59 34 60 38 61 35 62 37 63 36 64 55 65 56 66 60 67
REMARK SMILES IDX 57 68 59 69 58 70 45 71 46 72 50 73 47 74 49 75 48 76
REMARK H PARENT 10 8 10 9 8 19 65 44 43 55
REMARK Flexibility Score: inf
ROOT
ATOM      1  C   UNL A   1      35.366  21.594  24.685  1.00  0.00     0.261 C 
ENDROOT
BRANCH   1   2
ATOM      2  O   UNL A   1      34.902  22.355  25.811  1.00  0.00    -0.459 OA
BRANCH   2   3
ATOM      3  C   UNL A   1      33.810  21.844  26.447  1.00  0.00     0.364 C 
ATOM      4  O   UNL A   1      33.825  21.331  27.562  1.00  0.00    -0.245 OA
BRANCH   3   5
ATOM      5  C   UNL A   1      32.550  21.894  25.568  1.00  0.00     0.290 C 
ATOM      6  C   UNL A   1      32.148  20.518  25.048  1.00  0.00     0.088 C 
BRANCH   5   7
ATOM      7  N   UNL A   1      31.411  22.521  26.272  1.00  0.00    -0.332 N 
ATOM      8  H   UNL A   1      30.575  22.448  25.692  1.00  0.00     0.347 HD
ATOM      9  H   UNL A   1      31.263  22.041  27.159  1.00  0.00     0.347 HD
BRANCH   7  10
ATOM     10  C   UNL A   1      31.697  23.942  26.536  1.00  0.00     0.310 C 
BRANCH  10  11
ATOM     11  C   UNL A   1      30.649  24.923  25.980  1.00  0.00     0.171 C 
ATOM     12  C   UNL A   1      30.523  24.822  24.462  1.00  0.00     0.063 C 
BRANCH  11  13
ATOM     13  C   UNL A   1      31.084  26.262  26.396  1.00  0.00    -0.063 C 
ATOM     14  C   UNL A   1      31.428  27.476  26.725  1.00  0.00    -0.100 C 
BRANCH  14  15
ATOM     15  C   UNL A   1      31.829  28.891  27.109  1.00  0.00     0.089 C 
BRANCH  15  16
ATOM     16  C   UNL A   1      33.345  29.016  27.255  1.00  0.00     0.010 C 
ATOM     17  C   UNL A   1      34.107  28.547  26.021  1.00  0.00     0.005 C 
ENDBRANCH  15  16
ENDBRANCH  14  15
ENDBRANCH  11  13
BRANCH  11  18
ATOM     18  O   UNL A   1      29.380  24.651  26.581  1.00  0.00    -0.372 OA
ATOM     19  H   UNL A   1      29.496  24.516  27.535  1.00  0.00     0.212 HD
ENDBRANCH  11  18
ENDBRANCH  10  11
ENDBRANCH   7  10
ENDBRANCH   5   7
ENDBRANCH   3   5
ENDBRANCH   2   3
ENDBRANCH   1   2
BRANCH   1  20
ATOM     20  C   UNL A   1      36.776  21.043  24.899  1.00  0.00     0.202 C 
BRANCH  20  21
ATOM     21  O   UNL A   1      37.827  21.991  25.066  1.00  0.00    -0.374 OA
BRANCH  21  22
ATOM     22  C   UNL A   1      38.951  21.625  25.865  1.00  0.00     0.202 C 
BRANCH  22  23
ATOM     23  C   UNL A   1      39.496  20.205  25.698  1.00  0.00     0.261 C 
BRANCH  23  24
ATOM     24  O   UNL A   1      40.563  19.921  26.620  1.00  0.00    -0.460 OA
BRANCH  24  25
ATOM     25  C   UNL A   1      41.803  20.029  26.092  1.00  0.00     0.338 C 
ATOM     26  O   UNL A   1      42.339  19.267  25.292  1.00  0.00    -0.246 OA
BRANCH  25  27
ATOM     27  C   UNL A   1      42.417  21.311  26.474  1.00  0.00     0.060 A 
ATOM     28  C   UNL A   1      42.499  21.607  27.841  1.00  0.00     0.016 A 
ATOM     29  C   UNL A   1      42.809  22.249  25.518  1.00  0.00     0.016 A 
ATOM     30  C   UNL A   1      42.913  22.868  28.260  1.00  0.00     0.010 A 
ATOM     31  C   UNL A   1      43.213  23.519  25.939  1.00  0.00     0.010 A 
ATOM     32  C   UNL A   1      43.226  23.846  27.308  1.00  0.00    -0.014 A 
BRANCH  32  33
ATOM     33  C   UNL A   1      43.394  25.254  27.733  1.00  0.00     0.031 A 
ATOM     34  C   UNL A   1      44.786  25.786  27.937  1.00  0.00     0.074 A 
ATOM     35  C   UNL A   1      42.331  26.053  27.921  1.00  0.00     0.049 A 
ATOM     36  N   UNL A   1      45.171  26.957  28.376  1.00  0.00    -0.248 NA
ATOM     37  C   UNL A   1      45.893  24.873  27.602  1.00  0.00     0.031 C 
ATOM     38  C   UNL A   1      40.936  25.674  27.697  1.00  0.00     0.029 A 
ATOM     39  N   UNL A   1      42.265  27.352  28.354  1.00  0.00    -0.354 N 
ATOM     40  C   UNL A   1      46.559  26.918  28.383  1.00  0.00     0.074 A 
ATOM     41  C   UNL A   1      46.951  25.603  27.922  1.00  0.00     0.031 C 
ATOM     42  C   UNL A   1      40.148  26.718  28.010  1.00  0.00     0.029 A 
ATOM     43  C   UNL A   1      40.980  27.820  28.489  1.00  0.00     0.049 A 
ATOM     44  H   UNL A   1      43.061  27.898  28.549  1.00  0.00     0.167 HD
ATOM     45  C   UNL A   1      47.431  27.889  28.742  1.00  0.00     0.031 A 
ATOM     46  C   UNL A   1      40.529  28.992  28.974  1.00  0.00     0.031 A 
ATOM     47  C   UNL A   1      47.043  29.192  29.209  1.00  0.00     0.049 A 
ATOM     48  C   UNL A   1      41.516  30.023  29.452  1.00  0.00     0.074 A 
ATOM     49  C   UNL A   1      47.851  30.250  29.584  1.00  0.00     0.029 A 
ATOM     50  N   UNL A   1      45.732  29.609  29.372  1.00  0.00    -0.354 N 
ATOM     51  N   UNL A   1      42.827  29.982  29.444  1.00  0.00    -0.248 NA
ATOM     52  C   UNL A   1      40.959  31.265  30.010  1.00  0.00     0.031 C 
ATOM     53  C   UNL A   1      47.029  31.292  30.023  1.00  0.00     0.029 A 
ATOM     54  C   UNL A   1      45.709  30.901  29.870  1.00  0.00     0.049 A 
ATOM     55  H   UNL A   1      44.935  29.069  29.164  1.00  0.00     0.167 HD
ATOM     56  C   UNL A   1      43.250  31.198  29.965  1.00  0.00     0.074 A 
ATOM     57  C   UNL A   1      42.057  31.960  30.274  1.00  0.00     0.031 C 
ATOM     58  C   UNL A   1      44.513  31.645  30.166  1.00  0.00     0.031 A 
BRANCH  45  59
ATOM     59  C   UNL A   1      48.895  27.559  28.683  1.00  0.00    -0.014 A 
ATOM     60  C   UNL A   1      49.677  27.905  27.570  1.00  0.00     0.009 A 
ATOM     61  C   UNL A   1      49.506  26.921  29.773  1.00  0.00     0.009 A 
ATOM     62  C   UNL A   1      51.037  27.589  27.538  1.00  0.00     0.001 A 
ATOM     63  C   UNL A   1      50.870  26.628  29.749  1.00  0.00     0.001 A 
ATOM     64  C   UNL A   1      51.633  26.955  28.629  1.00  0.00     0.000 A 
ENDBRANCH  45  59
BRANCH  46  65
ATOM     65  C   UNL A   1      39.069  29.247  29.064  1.00  0.00    -0.014 A 
ATOM     66  C   UNL A   1      38.367  28.983  30.250  1.00  0.00     0.009 A 
ATOM     67  C   UNL A   1      38.365  29.742  27.954  1.00  0.00     0.009 A 
ATOM     68  C   UNL A   1      36.987  29.188  30.315  1.00  0.00     0.001 A 
ATOM     69  C   UNL A   1      36.990  29.971  28.031  1.00  0.00     0.001 A 
ATOM     70  C   UNL A   1      36.301  29.685  29.208  1.00  0.00     0.000 A 
ENDBRANCH  46  65
BRANCH  58  71
ATOM     71  C   UNL A   1      44.676  33.036  30.709  1.00  0.00    -0.014 A 
ATOM     72  C   UNL A   1      44.630  34.157  29.868  1.00  0.00     0.009 A 
ATOM     73  C   UNL A   1      44.816  33.227  32.093  1.00  0.00     0.009 A 
ATOM     74  C   UNL A   1      44.746  35.443  30.399  1.00  0.00     0.001 A 
ATOM     75  C   UNL A   1      44.906  34.514  32.625  1.00  0.00     0.001 A 
ATOM     76  C   UNL A   1      44.877  35.620  31.777  1.00  0.00     0.000 A 
ENDBRANCH  58  71
ENDBRANCH  32  33
ENDBRANCH  25  27
ENDBRANCH  24  25
ENDBRANCH  23  24
ENDBRANCH  22  23
ENDBRANCH  21  22
ENDBRANCH  20  21
ENDBRANCH   1  20
TORSDOF 21
ENDMDL
