MODEL 1
REMARK VINA RESULT:     -10.4      0.000      0.000
REMARK SMILES COc1ccc(C[N@@H+]2C[C@@H](C(=O)OCCOCCOC(=O)c3ccc(-c4c5nc(c(-c6ccccc6)c6ccc([nH]6)c(-c6ccccc6)c6nc(c(-c7ccccc7)c7ccc4[nH]7)C=C6)C=C5)cc3)[C@H](c3ccccc3OC)C2)c(OC)c1
REMARK SMILES IDX 15 1 14 2 13 3 11 4 12 5 10 6 8 7 9 8 79 9 70 11 7 12 6 13
REMARK SMILES IDX 3 14 4 15 83 16 5 17 80 18 2 19 1 20 81 21 82 22 71 23 72 24
REMARK SMILES IDX 76 25 73 26 75 27 74 28 77 29 78 30 16 31 17 32 18 33 19 34
REMARK SMILES IDX 20 35 21 36 22 37 23 38 69 39 24 40 68 41 25 42 26 43 27 44
REMARK SMILES IDX 62 45 28 46 67 47 61 48 63 49 29 50 66 51 60 52 59 53 30 55
REMARK SMILES IDX 52 56 37 57 51 58 38 59 41 60 50 61 64 62 39 63 40 64 49 66
REMARK SMILES IDX 65 67 42 68 31 69 32 70 36 71 33 72 35 73 34 74 53 75 54 76
REMARK SMILES IDX 58 77 55 78 57 79 56 80 43 81 44 82 48 83 45 84 47 85 46 86
REMARK H PARENT 8 10 63 54 41 65
REMARK Flexibility Score: inf
ROOT
ATOM      1  C   UNL A   1      34.536  29.952  27.177  1.00  0.00     0.202 C 
ENDROOT
BRANCH   1   2
ATOM      2  C   UNL A   1      33.826  28.603  27.299  1.00  0.00     0.261 C 
BRANCH   2   3
ATOM      3  O   UNL A   1      33.636  27.988  26.020  1.00  0.00    -0.463 OA
BRANCH   3   4
ATOM      4  C   UNL A   1      32.393  28.112  25.485  1.00  0.00     0.315 C 
ATOM      5  O   UNL A   1      31.555  28.911  25.891  1.00  0.00    -0.252 OA
BRANCH   4   6
ATOM      6  C   UNL A   1      32.100  27.095  24.415  1.00  0.00     0.167 C 
ATOM      7  N   UNL A   1      32.954  25.404  23.014  1.00  0.00    -0.330 N 
ATOM      8  C   UNL A   1      33.400  26.490  23.882  1.00  0.00     0.278 C 
ATOM      9  C   UNL A   1      31.726  25.945  22.377  1.00  0.00     0.272 C 
ATOM     10  H   UNL A   1      33.649  25.145  22.314  1.00  0.00     0.348 HD
ATOM     11  C   UNL A   1      31.299  27.269  23.117  1.00  0.00     0.098 C 
BRANCH   7  12
ATOM     12  C   UNL A   1      32.777  24.097  23.731  1.00  0.00     0.303 C 
BRANCH  12  13
ATOM     13  C   UNL A   1      34.027  23.361  24.222  1.00  0.00     0.048 A 
ATOM     14  C   UNL A   1      36.597  22.794  25.210  1.00  0.00     0.122 A 
ATOM     15  C   UNL A   1      36.406  22.961  23.843  1.00  0.00     0.047 A 
ATOM     16  C   UNL A   1      35.501  22.780  26.073  1.00  0.00     0.093 A 
ATOM     17  C   UNL A   1      35.122  23.200  23.345  1.00  0.00     0.017 A 
ATOM     18  C   UNL A   1      34.208  23.022  25.575  1.00  0.00     0.131 A 
BRANCH  14  19
ATOM     19  O   UNL A   1      37.888  22.838  25.661  1.00  0.00    -0.497 OA
ATOM     20  C   UNL A   1      38.222  24.063  26.298  1.00  0.00     0.278 C 
ENDBRANCH  14  19
BRANCH  18  21
ATOM     21  O   UNL A   1      33.106  23.045  26.389  1.00  0.00    -0.496 OA
ATOM     22  C   UNL A   1      33.254  22.254  27.568  1.00  0.00     0.278 C 
ENDBRANCH  18  21
ENDBRANCH  12  13
ENDBRANCH   7  12
BRANCH  11  23
ATOM     23  C   UNL A   1      29.792  27.504  23.245  1.00  0.00     0.004 A 
ATOM     24  C   UNL A   1      28.922  26.573  23.847  1.00  0.00     0.008 A 
ATOM     25  C   UNL A   1      29.195  28.665  22.720  1.00  0.00     0.122 A 
ATOM     26  C   UNL A   1      27.552  26.815  23.987  1.00  0.00     0.001 A 
ATOM     27  C   UNL A   1      27.825  28.932  22.890  1.00  0.00     0.047 A 
ATOM     28  C   UNL A   1      27.008  28.011  23.543  1.00  0.00     0.004 A 
BRANCH  25  29
ATOM     29  O   UNL A   1      29.936  29.444  21.868  1.00  0.00    -0.496 OA
ATOM     30  C   UNL A   1      29.259  30.620  21.440  1.00  0.00     0.278 C 
ENDBRANCH  25  29
ENDBRANCH  11  23
ENDBRANCH   4   6
ENDBRANCH   3   4
ENDBRANCH   2   3
ENDBRANCH   1   2
BRANCH   1  31
ATOM     31  O   UNL A   1      33.899  31.115  27.697  1.00  0.00    -0.374 OA
BRANCH  31  32
ATOM     32  C   UNL A   1      34.702  32.212  28.134  1.00  0.00     0.202 C 
BRANCH  32  33
ATOM     33  C   UNL A   1      34.869  32.458  29.639  1.00  0.00     0.261 C 
BRANCH  33  34
ATOM     34  O   UNL A   1      35.528  31.382  30.323  1.00  0.00    -0.460 OA
BRANCH  34  35
ATOM     35  C   UNL A   1      36.689  31.739  30.927  1.00  0.00     0.338 C 
ATOM     36  O   UNL A   1      36.841  32.512  31.853  1.00  0.00    -0.246 OA
BRANCH  35  37
ATOM     37  C   UNL A   1      37.780  30.885  30.431  1.00  0.00     0.060 A 
ATOM     38  C   UNL A   1      38.672  30.365  31.379  1.00  0.00     0.016 A 
ATOM     39  C   UNL A   1      37.977  30.678  29.066  1.00  0.00     0.016 A 
ATOM     40  C   UNL A   1      39.802  29.677  30.962  1.00  0.00     0.010 A 
ATOM     41  C   UNL A   1      39.125  30.003  28.646  1.00  0.00     0.010 A 
ATOM     42  C   UNL A   1      40.058  29.543  29.594  1.00  0.00    -0.014 A 
BRANCH  42  43
ATOM     43  C   UNL A   1      41.400  29.101  29.166  1.00  0.00     0.031 A 
ATOM     44  C   UNL A   1      41.575  27.682  28.710  1.00  0.00     0.074 A 
ATOM     45  C   UNL A   1      42.426  29.966  29.142  1.00  0.00     0.049 A 
ATOM     46  N   UNL A   1      42.656  27.066  28.309  1.00  0.00    -0.248 NA
ATOM     47  C   UNL A   1      40.366  26.841  28.712  1.00  0.00     0.031 C 
ATOM     48  C   UNL A   1      42.348  31.377  29.517  1.00  0.00     0.029 A 
ATOM     49  N   UNL A   1      43.736  29.776  28.795  1.00  0.00    -0.354 N 
ATOM     50  C   UNL A   1      42.262  25.764  28.030  1.00  0.00     0.074 A 
ATOM     51  C   UNL A   1      40.851  25.670  28.333  1.00  0.00     0.031 C 
ATOM     52  C   UNL A   1      43.569  31.924  29.394  1.00  0.00     0.029 A 
ATOM     53  C   UNL A   1      44.513  30.892  28.970  1.00  0.00     0.049 A 
ATOM     54  H   UNL A   1      44.086  28.922  28.452  1.00  0.00     0.167 HD
ATOM     55  C   UNL A   1      43.013  24.738  27.566  1.00  0.00     0.031 A 
ATOM     56  C   UNL A   1      45.842  31.051  28.833  1.00  0.00     0.031 A 
ATOM     57  C   UNL A   1      44.421  24.843  27.289  1.00  0.00     0.049 A 
ATOM     58  C   UNL A   1      46.671  29.883  28.376  1.00  0.00     0.074 A 
ATOM     59  C   UNL A   1      45.278  23.879  26.790  1.00  0.00     0.029 A 
ATOM     60  N   UNL A   1      45.182  25.983  27.505  1.00  0.00    -0.354 N 
ATOM     61  N   UNL A   1      46.287  28.663  28.081  1.00  0.00    -0.248 NA
ATOM     62  C   UNL A   1      48.112  30.116  28.222  1.00  0.00     0.031 C 
ATOM     63  C   UNL A   1      46.570  24.413  26.775  1.00  0.00     0.029 A 
ATOM     64  C   UNL A   1      46.507  25.735  27.190  1.00  0.00     0.049 A 
ATOM     65  H   UNL A   1      44.831  26.842  27.835  1.00  0.00     0.167 HD
ATOM     66  C   UNL A   1      47.435  27.987  27.687  1.00  0.00     0.074 A 
ATOM     67  C   UNL A   1      48.524  28.941  27.763  1.00  0.00     0.031 C 
ATOM     68  C   UNL A   1      47.577  26.697  27.292  1.00  0.00     0.031 A 
BRANCH  55  69
ATOM     69  C   UNL A   1      42.332  23.406  27.398  1.00  0.00    -0.014 A 
ATOM     70  C   UNL A   1      42.166  22.517  28.473  1.00  0.00     0.009 A 
ATOM     71  C   UNL A   1      41.857  23.031  26.132  1.00  0.00     0.009 A 
ATOM     72  C   UNL A   1      41.585  21.263  28.271  1.00  0.00     0.001 A 
ATOM     73  C   UNL A   1      41.245  21.791  25.939  1.00  0.00     0.001 A 
ATOM     74  C   UNL A   1      41.124  20.902  27.006  1.00  0.00     0.000 A 
ENDBRANCH  55  69
BRANCH  56  75
ATOM     75  C   UNL A   1      46.458  32.361  29.166  1.00  0.00    -0.014 A 
ATOM     76  C   UNL A   1      46.926  32.633  30.459  1.00  0.00     0.009 A 
ATOM     77  C   UNL A   1      46.611  33.339  28.168  1.00  0.00     0.009 A 
ATOM     78  C   UNL A   1      47.525  33.862  30.749  1.00  0.00     0.001 A 
ATOM     79  C   UNL A   1      47.237  34.553  28.454  1.00  0.00     0.001 A 
ATOM     80  C   UNL A   1      47.688  34.817  29.746  1.00  0.00     0.000 A 
ENDBRANCH  56  75
BRANCH  68  81
ATOM     81  C   UNL A   1      48.956  26.250  26.891  1.00  0.00    -0.014 A 
ATOM     82  C   UNL A   1      49.423  26.409  25.576  1.00  0.00     0.009 A 
ATOM     83  C   UNL A   1      49.816  25.702  27.856  1.00  0.00     0.009 A 
ATOM     84  C   UNL A   1      50.710  25.992  25.230  1.00  0.00     0.001 A 
ATOM     85  C   UNL A   1      51.113  25.320  27.515  1.00  0.00     0.001 A 
ATOM     86  C   UNL A   1      51.555  25.454  26.201  1.00  0.00     0.000 A 
ENDBRANCH  68  81
ENDBRANCH  42  43
ENDBRANCH  35  37
ENDBRANCH  34  35
ENDBRANCH  33  34
ENDBRANCH  32  33
ENDBRANCH  31  32
ENDBRANCH   1  31
TORSDOF 20
ENDMDL
MODEL 2
REMARK VINA RESULT:     -10.4      4.722      8.233
REMARK SMILES COc1ccc(C[N@@H+]2C[C@@H](C(=O)OCCOCCOC(=O)c3ccc(-c4c5nc(c(-c6ccccc6)c6ccc([nH]6)c(-c6ccccc6)c6nc(c(-c7ccccc7)c7ccc4[nH]7)C=C6)C=C5)cc3)[C@H](c3ccccc3OC)C2)c(OC)c1
REMARK SMILES IDX 15 1 14 2 13 3 11 4 12 5 10 6 8 7 9 8 79 9 70 11 7 12 6 13
REMARK SMILES IDX 3 14 4 15 83 16 5 17 80 18 2 19 1 20 81 21 82 22 71 23 72 24
REMARK SMILES IDX 76 25 73 26 75 27 74 28 77 29 78 30 16 31 17 32 18 33 19 34
REMARK SMILES IDX 20 35 21 36 22 37 23 38 69 39 24 40 68 41 25 42 26 43 27 44
REMARK SMILES IDX 62 45 28 46 67 47 61 48 63 49 29 50 66 51 60 52 59 53 30 55
REMARK SMILES IDX 52 56 37 57 51 58 38 59 41 60 50 61 64 62 39 63 40 64 49 66
REMARK SMILES IDX 65 67 42 68 31 69 32 70 36 71 33 72 35 73 34 74 53 75 54 76
REMARK SMILES IDX 58 77 55 78 57 79 56 80 43 81 44 82 48 83 45 84 47 85 46 86
REMARK H PARENT 8 10 63 54 41 65
REMARK Flexibility Score: inf
ROOT
ATOM      1  C   UNL A   1      34.012  31.647  28.476  1.00  0.00     0.202 C 
ENDROOT
BRANCH   1   2
ATOM      2  C   UNL A   1      33.648  31.314  27.027  1.00  0.00     0.261 C 
BRANCH   2   3
ATOM      3  O   UNL A   1      32.622  30.319  26.956  1.00  0.00    -0.463 OA
BRANCH   3   4
ATOM      4  C   UNL A   1      31.847  30.351  25.840  1.00  0.00     0.315 C 
ATOM      5  O   UNL A   1      31.020  31.228  25.612  1.00  0.00    -0.252 OA
BRANCH   4   6
ATOM      6  C   UNL A   1      32.020  29.144  24.958  1.00  0.00     0.167 C 
ATOM      7  N   UNL A   1      33.516  27.579  24.027  1.00  0.00    -0.330 N 
ATOM      8  C   UNL A   1      33.505  28.865  24.718  1.00  0.00     0.278 C 
ATOM      9  C   UNL A   1      32.319  27.642  23.150  1.00  0.00     0.272 C 
ATOM     10  H   UNL A   1      34.365  27.429  23.483  1.00  0.00     0.348 HD
ATOM     11  C   UNL A   1      31.439  28.882  23.561  1.00  0.00     0.098 C 
BRANCH   7  12
ATOM     12  C   UNL A   1      33.565  26.400  24.955  1.00  0.00     0.303 C 
BRANCH  12  13
ATOM     13  C   UNL A   1      33.416  24.998  24.358  1.00  0.00     0.048 A 
ATOM     14  C   UNL A   1      33.494  22.212  23.988  1.00  0.00     0.122 A 
ATOM     15  C   UNL A   1      34.592  22.987  23.628  1.00  0.00     0.047 A 
ATOM     16  C   UNL A   1      32.315  22.826  24.411  1.00  0.00     0.093 A 
ATOM     17  C   UNL A   1      34.539  24.376  23.769  1.00  0.00     0.017 A 
ATOM     18  C   UNL A   1      32.259  24.223  24.556  1.00  0.00     0.131 A 
BRANCH  14  19
ATOM     19  O   UNL A   1      33.698  20.863  24.086  1.00  0.00    -0.497 OA
ATOM     20  C   UNL A   1      32.494  20.109  24.068  1.00  0.00     0.278 C 
ENDBRANCH  14  19
BRANCH  18  21
ATOM     21  O   UNL A   1      31.131  24.866  24.994  1.00  0.00    -0.496 OA
ATOM     22  C   UNL A   1      30.723  24.469  26.303  1.00  0.00     0.278 C 
ENDBRANCH  18  21
ENDBRANCH  12  13
ENDBRANCH   7  12
BRANCH  11  23
ATOM     23  C   UNL A   1      29.924  28.689  23.453  1.00  0.00     0.004 A 
ATOM     24  C   UNL A   1      29.290  27.459  23.716  1.00  0.00     0.008 A 
ATOM     25  C   UNL A   1      29.090  29.745  23.038  1.00  0.00     0.122 A 
ATOM     26  C   UNL A   1      27.901  27.306  23.645  1.00  0.00     0.001 A 
ATOM     27  C   UNL A   1      27.692  29.608  23.001  1.00  0.00     0.047 A 
ATOM     28  C   UNL A   1      27.097  28.390  23.324  1.00  0.00     0.004 A 
BRANCH  25  29
ATOM     29  O   UNL A   1      29.678  30.853  22.483  1.00  0.00    -0.496 OA
ATOM     30  C   UNL A   1      28.838  32.001  22.482  1.00  0.00     0.278 C 
ENDBRANCH  25  29
ENDBRANCH  11  23
ENDBRANCH   4   6
ENDBRANCH   3   4
ENDBRANCH   2   3
ENDBRANCH   1   2
BRANCH   1  31
ATOM     31  O   UNL A   1      34.374  32.984  28.805  1.00  0.00    -0.374 OA
BRANCH  31  32
ATOM     32  C   UNL A   1      33.553  34.060  28.348  1.00  0.00     0.202 C 
BRANCH  32  33
ATOM     33  C   UNL A   1      33.270  35.233  29.294  1.00  0.00     0.261 C 
BRANCH  33  34
ATOM     34  O   UNL A   1      32.563  34.850  30.484  1.00  0.00    -0.460 OA
BRANCH  34  35
ATOM     35  C   UNL A   1      32.904  35.564  31.585  1.00  0.00     0.338 C 
ATOM     36  O   UNL A   1      32.324  36.520  32.063  1.00  0.00    -0.246 OA
BRANCH  35  37
ATOM     37  C   UNL A   1      34.009  34.888  32.283  1.00  0.00     0.060 A 
ATOM     38  C   UNL A   1      35.259  35.522  32.276  1.00  0.00     0.016 A 
ATOM     39  C   UNL A   1      33.845  33.624  32.848  1.00  0.00     0.016 A 
ATOM     40  C   UNL A   1      36.370  34.868  32.788  1.00  0.00     0.010 A 
ATOM     41  C   UNL A   1      34.967  32.958  33.345  1.00  0.00     0.010 A 
ATOM     42  C   UNL A   1      36.235  33.563  33.273  1.00  0.00    -0.014 A 
BRANCH  42  43
ATOM     43  C   UNL A   1      37.456  32.769  33.514  1.00  0.00     0.031 A 
ATOM     44  C   UNL A   1      38.223  33.003  34.782  1.00  0.00     0.074 A 
ATOM     45  C   UNL A   1      37.840  31.829  32.637  1.00  0.00     0.049 A 
ATOM     46  N   UNL A   1      39.328  32.441  35.199  1.00  0.00    -0.248 NA
ATOM     47  C   UNL A   1      37.672  34.011  35.704  1.00  0.00     0.031 C 
ATOM     48  C   UNL A   1      37.136  31.491  31.401  1.00  0.00     0.029 A 
ATOM     49  N   UNL A   1      38.923  30.993  32.653  1.00  0.00    -0.354 N 
ATOM     50  C   UNL A   1      39.613  33.041  36.419  1.00  0.00     0.074 A 
ATOM     51  C   UNL A   1      38.583  34.026  36.663  1.00  0.00     0.031 C 
ATOM     52  C   UNL A   1      37.820  30.524  30.765  1.00  0.00     0.029 A 
ATOM     53  C   UNL A   1      39.022  30.208  31.533  1.00  0.00     0.049 A 
ATOM     54  H   UNL A   1      39.569  30.958  33.396  1.00  0.00     0.167 HD
ATOM     55  C   UNL A   1      40.645  32.791  37.259  1.00  0.00     0.031 A 
ATOM     56  C   UNL A   1      39.993  29.355  31.157  1.00  0.00     0.031 A 
ATOM     57  C   UNL A   1      41.673  31.821  36.992  1.00  0.00     0.049 A 
ATOM     58  C   UNL A   1      41.164  29.137  32.074  1.00  0.00     0.074 A 
ATOM     59  C   UNL A   1      42.751  31.464  37.781  1.00  0.00     0.029 A 
ATOM     60  N   UNL A   1      41.757  31.063  35.832  1.00  0.00    -0.354 N 
ATOM     61  N   UNL A   1      41.411  29.681  33.243  1.00  0.00    -0.248 NA
ATOM     62  C   UNL A   1      42.184  28.180  31.627  1.00  0.00     0.031 C 
ATOM     63  C   UNL A   1      43.526  30.546  37.067  1.00  0.00     0.029 A 
ATOM     64  C   UNL A   1      42.891  30.270  35.865  1.00  0.00     0.049 A 
ATOM     65  H   UNL A   1      41.105  31.086  35.094  1.00  0.00     0.167 HD
ATOM     66  C   UNL A   1      42.603  29.118  33.681  1.00  0.00     0.074 A 
ATOM     67  C   UNL A   1      43.017  28.177  32.659  1.00  0.00     0.031 C 
ATOM     68  C   UNL A   1      43.292  29.353  34.826  1.00  0.00     0.031 A 
BRANCH  55  69
ATOM     69  C   UNL A   1      40.739  33.631  38.504  1.00  0.00    -0.014 A 
ATOM     70  C   UNL A   1      41.440  34.848  38.527  1.00  0.00     0.009 A 
ATOM     71  C   UNL A   1      40.118  33.187  39.682  1.00  0.00     0.009 A 
ATOM     72  C   UNL A   1      41.560  35.574  39.715  1.00  0.00     0.001 A 
ATOM     73  C   UNL A   1      40.211  33.931  40.860  1.00  0.00     0.001 A 
ATOM     74  C   UNL A   1      40.944  35.116  40.879  1.00  0.00     0.000 A 
ENDBRANCH  55  69
BRANCH  56  75
ATOM     75  C   UNL A   1      39.898  28.678  29.839  1.00  0.00    -0.014 A 
ATOM     76  C   UNL A   1      40.340  29.310  28.668  1.00  0.00     0.009 A 
ATOM     77  C   UNL A   1      39.392  27.370  29.755  1.00  0.00     0.009 A 
ATOM     78  C   UNL A   1      40.266  28.648  27.438  1.00  0.00     0.001 A 
ATOM     79  C   UNL A   1      39.348  26.702  28.532  1.00  0.00     0.001 A 
ATOM     80  C   UNL A   1      39.779  27.344  27.372  1.00  0.00     0.000 A 
ENDBRANCH  56  75
BRANCH  68  81
ATOM     81  C   UNL A   1      44.552  28.562  35.043  1.00  0.00    -0.014 A 
ATOM     82  C   UNL A   1      45.803  29.051  34.636  1.00  0.00     0.009 A 
ATOM     83  C   UNL A   1      44.488  27.326  35.706  1.00  0.00     0.009 A 
ATOM     84  C   UNL A   1      46.960  28.299  34.855  1.00  0.00     0.001 A 
ATOM     85  C   UNL A   1      45.650  26.594  35.956  1.00  0.00     0.001 A 
ATOM     86  C   UNL A   1      46.882  27.076  35.520  1.00  0.00     0.000 A 
ENDBRANCH  68  81
ENDBRANCH  42  43
ENDBRANCH  35  37
ENDBRANCH  34  35
ENDBRANCH  33  34
ENDBRANCH  32  33
ENDBRANCH  31  32
ENDBRANCH   1  31
TORSDOF 20
ENDMDL
MODEL 3
REMARK VINA RESULT:     -10.2      4.544     10.134
REMARK SMILES COc1ccc(C[N@@H+]2C[C@@H](C(=O)OCCOCCOC(=O)c3ccc(-c4c5nc(c(-c6ccccc6)c6ccc([nH]6)c(-c6ccccc6)c6nc(c(-c7ccccc7)c7ccc4[nH]7)C=C6)C=C5)cc3)[C@H](c3ccccc3OC)C2)c(OC)c1
REMARK SMILES IDX 15 1 14 2 13 3 11 4 12 5 10 6 8 7 9 8 79 9 70 11 7 12 6 13
REMARK SMILES IDX 3 14 4 15 83 16 5 17 80 18 2 19 1 20 81 21 82 22 71 23 72 24
REMARK SMILES IDX 76 25 73 26 75 27 74 28 77 29 78 30 16 31 17 32 18 33 19 34
REMARK SMILES IDX 20 35 21 36 22 37 23 38 69 39 24 40 68 41 25 42 26 43 27 44
REMARK SMILES IDX 62 45 28 46 67 47 61 48 63 49 29 50 66 51 60 52 59 53 30 55
REMARK SMILES IDX 52 56 37 57 51 58 38 59 41 60 50 61 64 62 39 63 40 64 49 66
REMARK SMILES IDX 65 67 42 68 31 69 32 70 36 71 33 72 35 73 34 74 53 75 54 76
REMARK SMILES IDX 58 77 55 78 57 79 56 80 43 81 44 82 48 83 45 84 47 85 46 86
REMARK H PARENT 8 10 63 54 41 65
REMARK Flexibility Score: inf
ROOT
ATOM      1  C   UNL A   1      39.327  21.507  26.568  1.00  0.00     0.202 C 
ENDROOT
BRANCH   1   2
ATOM      2  C   UNL A   1      38.286  21.918  25.525  1.00  0.00     0.261 C 
BRANCH   2   3
ATOM      3  O   UNL A   1      36.960  21.886  26.060  1.00  0.00    -0.463 OA
BRANCH   3   4
ATOM      4  C   UNL A   1      36.042  21.208  25.322  1.00  0.00     0.315 C 
ATOM      5  O   UNL A   1      36.276  20.145  24.756  1.00  0.00    -0.252 OA
BRANCH   4   6
ATOM      6  C   UNL A   1      34.737  21.943  25.171  1.00  0.00     0.167 C 
ATOM      7  N   UNL A   1      33.439  23.808  25.793  1.00  0.00    -0.330 N 
ATOM      8  C   UNL A   1      34.643  23.082  26.187  1.00  0.00     0.278 C 
ATOM      9  C   UNL A   1      32.511  22.736  25.352  1.00  0.00     0.272 C 
ATOM     10  H   UNL A   1      33.038  24.353  26.556  1.00  0.00     0.348 HD
ATOM     11  C   UNL A   1      33.308  21.383  25.220  1.00  0.00     0.098 C 
BRANCH   7  12
ATOM     12  C   UNL A   1      33.693  24.888  24.781  1.00  0.00     0.303 C 
BRANCH  12  13
ATOM     13  C   UNL A   1      32.782  26.118  24.786  1.00  0.00     0.048 A 
ATOM     14  C   UNL A   1      31.806  28.738  25.075  1.00  0.00     0.122 A 
ATOM     15  C   UNL A   1      31.766  27.865  26.156  1.00  0.00     0.047 A 
ATOM     16  C   UNL A   1      32.208  28.280  23.820  1.00  0.00     0.093 A 
ATOM     17  C   UNL A   1      32.210  26.549  26.003  1.00  0.00     0.017 A 
ATOM     18  C   UNL A   1      32.657  26.957  23.664  1.00  0.00     0.131 A 
BRANCH  14  19
ATOM     19  O   UNL A   1      31.620  30.066  25.348  1.00  0.00    -0.497 OA
ATOM     20  C   UNL A   1      32.143  30.461  26.609  1.00  0.00     0.278 C 
ENDBRANCH  14  19
BRANCH  18  21
ATOM     21  O   UNL A   1      33.088  26.471  22.456  1.00  0.00    -0.496 OA
ATOM     22  C   UNL A   1      32.033  25.963  21.640  1.00  0.00     0.278 C 
ENDBRANCH  18  21
ENDBRANCH  12  13
ENDBRANCH   7  12
BRANCH  11  23
ATOM     23  C   UNL A   1      32.871  20.462  24.077  1.00  0.00     0.004 A 
ATOM     24  C   UNL A   1      32.264  20.942  22.900  1.00  0.00     0.008 A 
ATOM     25  C   UNL A   1      33.027  19.067  24.175  1.00  0.00     0.122 A 
ATOM     26  C   UNL A   1      31.901  20.092  21.849  1.00  0.00     0.001 A 
ATOM     27  C   UNL A   1      32.698  18.212  23.109  1.00  0.00     0.047 A 
ATOM     28  C   UNL A   1      32.152  18.731  21.937  1.00  0.00     0.004 A 
BRANCH  25  29
ATOM     29  O   UNL A   1      33.323  18.535  25.404  1.00  0.00    -0.496 OA
ATOM     30  C   UNL A   1      32.542  17.392  25.731  1.00  0.00     0.278 C 
ENDBRANCH  25  29
ENDBRANCH  11  23
ENDBRANCH   4   6
ENDBRANCH   3   4
ENDBRANCH   2   3
ENDBRANCH   1   2
BRANCH   1  31
ATOM     31  O   UNL A   1      40.608  21.070  26.127  1.00  0.00    -0.374 OA
BRANCH  31  32
ATOM     32  C   UNL A   1      41.583  22.043  25.748  1.00  0.00     0.202 C 
BRANCH  32  33
ATOM     33  C   UNL A   1      41.694  23.339  26.562  1.00  0.00     0.261 C 
BRANCH  33  34
ATOM     34  O   UNL A   1      40.756  24.349  26.160  1.00  0.00    -0.460 OA
BRANCH  34  35
ATOM     35  C   UNL A   1      41.315  25.560  25.920  1.00  0.00     0.338 C 
ATOM     36  O   UNL A   1      42.006  25.889  24.974  1.00  0.00    -0.246 OA
BRANCH  35  37
ATOM     37  C   UNL A   1      40.798  26.539  26.890  1.00  0.00     0.060 A 
ATOM     38  C   UNL A   1      41.400  27.804  26.912  1.00  0.00     0.016 A 
ATOM     39  C   UNL A   1      39.815  26.193  27.816  1.00  0.00     0.016 A 
ATOM     40  C   UNL A   1      41.058  28.717  27.898  1.00  0.00     0.010 A 
ATOM     41  C   UNL A   1      39.485  27.104  28.821  1.00  0.00     0.010 A 
ATOM     42  C   UNL A   1      40.141  28.347  28.887  1.00  0.00    -0.014 A 
BRANCH  42  43
ATOM     43  C   UNL A   1      40.026  29.188  30.095  1.00  0.00     0.031 A 
ATOM     44  C   UNL A   1      38.973  30.257  30.125  1.00  0.00     0.074 A 
ATOM     45  C   UNL A   1      40.817  28.967  31.156  1.00  0.00     0.049 A 
ATOM     46  N   UNL A   1      38.698  31.124  31.064  1.00  0.00    -0.248 NA
ATOM     47  C   UNL A   1      38.116  30.365  28.932  1.00  0.00     0.031 C 
ATOM     48  C   UNL A   1      41.836  27.922  31.245  1.00  0.00     0.029 A 
ATOM     49  N   UNL A   1      40.888  29.617  32.358  1.00  0.00    -0.354 N 
ATOM     50  C   UNL A   1      37.651  31.892  30.567  1.00  0.00     0.074 A 
ATOM     51  C   UNL A   1      37.360  31.407  29.237  1.00  0.00     0.031 C 
ATOM     52  C   UNL A   1      42.445  28.015  32.438  1.00  0.00     0.029 A 
ATOM     53  C   UNL A   1      41.884  29.145  33.174  1.00  0.00     0.049 A 
ATOM     54  H   UNL A   1      40.284  30.352  32.612  1.00  0.00     0.167 HD
ATOM     55  C   UNL A   1      36.996  32.912  31.169  1.00  0.00     0.031 A 
ATOM     56  C   UNL A   1      42.312  29.597  34.367  1.00  0.00     0.031 A 
ATOM     57  C   UNL A   1      37.313  33.396  32.487  1.00  0.00     0.049 A 
ATOM     58  C   UNL A   1      41.612  30.772  34.993  1.00  0.00     0.074 A 
ATOM     59  C   UNL A   1      36.701  34.404  33.208  1.00  0.00     0.029 A 
ATOM     60  N   UNL A   1      38.348  32.911  33.274  1.00  0.00    -0.354 N 
ATOM     61  N   UNL A   1      40.601  31.472  34.534  1.00  0.00    -0.248 NA
ATOM     62  C   UNL A   1      42.104  31.211  36.304  1.00  0.00     0.031 C 
ATOM     63  C   UNL A   1      37.411  34.578  34.399  1.00  0.00     0.029 A 
ATOM     64  C   UNL A   1      38.419  33.627  34.457  1.00  0.00     0.049 A 
ATOM     65  H   UNL A   1      38.945  32.167  33.028  1.00  0.00     0.167 HD
ATOM     66  C   UNL A   1      40.322  32.421  35.508  1.00  0.00     0.074 A 
ATOM     67  C   UNL A   1      41.259  32.193  36.590  1.00  0.00     0.031 C 
ATOM     68  C   UNL A   1      39.374  33.392  35.512  1.00  0.00     0.031 A 
BRANCH  55  69
ATOM     69  C   UNL A   1      35.924  33.607  30.374  1.00  0.00    -0.014 A 
ATOM     70  C   UNL A   1      36.152  34.071  29.068  1.00  0.00     0.009 A 
ATOM     71  C   UNL A   1      34.661  33.809  30.952  1.00  0.00     0.009 A 
ATOM     72  C   UNL A   1      35.155  34.767  28.380  1.00  0.00     0.001 A 
ATOM     73  C   UNL A   1      33.654  34.474  30.249  1.00  0.00     0.001 A 
ATOM     74  C   UNL A   1      33.907  34.966  28.969  1.00  0.00     0.000 A 
ENDBRANCH  55  69
BRANCH  56  75
ATOM     75  C   UNL A   1      43.478  28.947  35.017  1.00  0.00    -0.014 A 
ATOM     76  C   UNL A   1      44.782  29.413  34.796  1.00  0.00     0.009 A 
ATOM     77  C   UNL A   1      43.282  27.870  35.898  1.00  0.00     0.009 A 
ATOM     78  C   UNL A   1      45.866  28.805  35.435  1.00  0.00     0.001 A 
ATOM     79  C   UNL A   1      44.363  27.285  36.558  1.00  0.00     0.001 A 
ATOM     80  C   UNL A   1      45.656  27.749  36.321  1.00  0.00     0.000 A 
ENDBRANCH  56  75
BRANCH  68  81
ATOM     81  C   UNL A   1      39.290  34.264  36.735  1.00  0.00    -0.014 A 
ATOM     82  C   UNL A   1      38.601  33.847  37.885  1.00  0.00     0.009 A 
ATOM     83  C   UNL A   1      39.948  35.504  36.749  1.00  0.00     0.009 A 
ATOM     84  C   UNL A   1      38.542  34.672  39.010  1.00  0.00     0.001 A 
ATOM     85  C   UNL A   1      39.918  36.310  37.888  1.00  0.00     0.001 A 
ATOM     86  C   UNL A   1      39.207  35.899  39.012  1.00  0.00     0.000 A 
ENDBRANCH  68  81
ENDBRANCH  42  43
ENDBRANCH  35  37
ENDBRANCH  34  35
ENDBRANCH  33  34
ENDBRANCH  32  33
ENDBRANCH  31  32
ENDBRANCH   1  31
TORSDOF 20
ENDMDL
