MODEL 1
REMARK VINA RESULT:      -9.2      0.000      0.000
REMARK SMILES CC(C)C[C@H](CNC(=O)c1ccc(O)cc1O)C(=O)OCCOCCOC(=O)c1ccc(-c2c3nc(c(-c4ccccc4)c4ccc([nH]4)c(-c4ccccc4)c4nc(c(-c5ccccc5)c5ccc2[nH]5)C=C4)C=C3)cc1
REMARK SMILES IDX 22 1 21 2 20 3 18 4 19 5 5 6 4 7 2 8 1 9 3 10 6 11 7 12 8 13
REMARK SMILES IDX 9 15 10 16 11 17 16 18 12 19 15 20 13 21 17 22 14 24 23 26
REMARK SMILES IDX 24 27 25 28 26 29 27 30 28 31 29 32 30 33 76 34 31 35 75 36
REMARK SMILES IDX 32 37 33 38 34 39 69 40 35 41 74 42 68 43 70 44 36 45 73 46
REMARK SMILES IDX 67 47 66 48 37 50 59 51 44 52 58 53 45 54 48 55 57 56 71 57
REMARK SMILES IDX 46 58 47 59 56 61 72 62 49 63 38 64 39 65 43 66 40 67 42 68
REMARK SMILES IDX 41 69 60 70 61 71 65 72 62 73 64 74 63 75 50 76 51 77 55 78
REMARK SMILES IDX 52 79 54 80 53 81
REMARK H PARENT 7 14 17 23 14 25 70 49 48 60
REMARK Flexibility Score: inf
ROOT
ATOM      1  C   UNL A   1      33.830  30.265  27.021  1.00  0.00     0.202 C 
ENDROOT
BRANCH   1   2
ATOM      2  C   UNL A   1      33.882  28.794  27.439  1.00  0.00     0.261 C 
BRANCH   2   3
ATOM      3  O   UNL A   1      33.078  27.961  26.582  1.00  0.00    -0.463 OA
BRANCH   3   4
ATOM      4  C   UNL A   1      31.827  27.682  27.037  1.00  0.00     0.310 C 
ATOM      5  O   UNL A   1      31.449  27.838  28.191  1.00  0.00    -0.252 OA
BRANCH   4   6
ATOM      6  C   UNL A   1      30.922  27.107  25.969  1.00  0.00     0.118 C 
BRANCH   6   7
ATOM      7  C   UNL A   1      31.313  25.678  25.555  1.00  0.00     0.020 C 
BRANCH   7   8
ATOM      8  C   UNL A   1      31.668  24.666  26.663  1.00  0.00    -0.017 C 
ATOM      9  C   UNL A   1      30.700  23.479  26.715  1.00  0.00     0.007 C 
ATOM     10  C   UNL A   1      33.082  24.129  26.406  1.00  0.00     0.007 C 
ENDBRANCH   7   8
ENDBRANCH   6   7
BRANCH   6  11
ATOM     11  C   UNL A   1      30.550  28.033  24.800  1.00  0.00     0.131 C 
BRANCH  11  12
ATOM     12  N   UNL A   1      31.619  28.857  24.271  1.00  0.00    -0.351 N 
ATOM     13  C   UNL A   1      32.683  28.526  23.474  1.00  0.00     0.255 C 
ATOM     14  H   UNL A   1      31.573  29.807  24.524  1.00  0.00     0.163 HD
ATOM     15  O   UNL A   1      33.588  29.337  23.285  1.00  0.00    -0.269 OA
BRANCH  13  16
ATOM     16  C   UNL A   1      32.824  27.174  22.896  1.00  0.00     0.081 A 
ATOM     17  C   UNL A   1      33.781  26.269  23.375  1.00  0.00     0.021 A 
ATOM     18  C   UNL A   1      31.944  26.777  21.881  1.00  0.00     0.132 A 
ATOM     19  C   UNL A   1      33.910  25.009  22.781  1.00  0.00     0.047 A 
ATOM     20  C   UNL A   1      32.079  25.528  21.281  1.00  0.00     0.093 A 
ATOM     21  C   UNL A   1      33.067  24.657  21.730  1.00  0.00     0.119 A 
BRANCH  18  22
ATOM     22  O   UNL A   1      30.922  27.574  21.438  1.00  0.00    -0.507 OA
ATOM     23  H   UNL A   1      30.162  27.187  21.049  1.00  0.00     0.293 HD
ENDBRANCH  18  22
BRANCH  21  24
ATOM     24  O   UNL A   1      33.167  23.443  21.116  1.00  0.00    -0.508 OA
ATOM     25  H   UNL A   1      33.982  23.178  20.735  1.00  0.00     0.293 HD
ENDBRANCH  21  24
ENDBRANCH  13  16
ENDBRANCH  11  12
ENDBRANCH   6  11
ENDBRANCH   4   6
ENDBRANCH   3   4
ENDBRANCH   2   3
ENDBRANCH   1   2
BRANCH   1  26
ATOM     26  O   UNL A   1      32.688  30.671  26.270  1.00  0.00    -0.374 OA
BRANCH  26  27
ATOM     27  C   UNL A   1      31.768  31.561  26.898  1.00  0.00     0.202 C 
BRANCH  27  28
ATOM     28  C   UNL A   1      32.110  33.056  26.843  1.00  0.00     0.261 C 
BRANCH  28  29
ATOM     29  O   UNL A   1      32.128  33.665  28.147  1.00  0.00    -0.460 OA
BRANCH  29  30
ATOM     30  C   UNL A   1      33.201  34.456  28.389  1.00  0.00     0.338 C 
ATOM     31  O   UNL A   1      33.224  35.677  28.455  1.00  0.00    -0.246 OA
BRANCH  30  32
ATOM     32  C   UNL A   1      34.372  33.635  28.744  1.00  0.00     0.060 A 
ATOM     33  C   UNL A   1      34.237  32.732  29.806  1.00  0.00     0.016 A 
ATOM     34  C   UNL A   1      35.603  33.808  28.110  1.00  0.00     0.016 A 
ATOM     35  C   UNL A   1      35.345  32.016  30.260  1.00  0.00     0.010 A 
ATOM     36  C   UNL A   1      36.716  33.101  28.578  1.00  0.00     0.010 A 
ATOM     37  C   UNL A   1      36.597  32.220  29.669  1.00  0.00    -0.014 A 
BRANCH  37  38
ATOM     38  C   UNL A   1      37.806  31.585  30.246  1.00  0.00     0.031 A 
ATOM     39  C   UNL A   1      38.521  32.254  31.386  1.00  0.00     0.074 A 
ATOM     40  C   UNL A   1      38.270  30.426  29.745  1.00  0.00     0.049 A 
ATOM     41  N   UNL A   1      39.638  31.913  31.976  1.00  0.00    -0.248 NA
ATOM     42  C   UNL A   1      37.895  33.468  31.935  1.00  0.00     0.031 C 
ATOM     43  C   UNL A   1      37.646  29.661  28.667  1.00  0.00     0.029 A 
ATOM     44  N   UNL A   1      39.391  29.703  30.069  1.00  0.00    -0.354 N 
ATOM     45  C   UNL A   1      39.860  32.876  32.950  1.00  0.00     0.074 A 
ATOM     46  C   UNL A   1      38.765  33.820  32.872  1.00  0.00     0.031 C 
ATOM     47  C   UNL A   1      38.409  28.588  28.398  1.00  0.00     0.029 A 
ATOM     48  C   UNL A   1      39.591  28.614  29.256  1.00  0.00     0.049 A 
ATOM     49  H   UNL A   1      39.992  29.942  30.811  1.00  0.00     0.167 HD
ATOM     50  C   UNL A   1      40.887  32.968  33.828  1.00  0.00     0.031 A 
ATOM     51  C   UNL A   1      40.631  27.760  29.185  1.00  0.00     0.031 A 
ATOM     52  C   UNL A   1      41.977  32.033  33.904  1.00  0.00     0.049 A 
ATOM     53  C   UNL A   1      41.801  27.936  30.116  1.00  0.00     0.074 A 
ATOM     54  C   UNL A   1      43.035  32.016  34.798  1.00  0.00     0.029 A 
ATOM     55  N   UNL A   1      42.158  30.962  33.046  1.00  0.00    -0.354 N 
ATOM     56  N   UNL A   1      41.971  28.817  31.072  1.00  0.00    -0.248 NA
ATOM     57  C   UNL A   1      42.924  27.001  29.954  1.00  0.00     0.031 C 
ATOM     58  C   UNL A   1      43.890  30.969  34.439  1.00  0.00     0.029 A 
ATOM     59  C   UNL A   1      43.336  30.304  33.357  1.00  0.00     0.049 A 
ATOM     60  H   UNL A   1      41.542  30.707  32.322  1.00  0.00     0.167 HD
ATOM     61  C   UNL A   1      43.210  28.533  31.634  1.00  0.00     0.074 A 
ATOM     62  C   UNL A   1      43.739  27.385  30.927  1.00  0.00     0.031 C 
ATOM     63  C   UNL A   1      43.851  29.167  32.644  1.00  0.00     0.031 A 
BRANCH  50  64
ATOM     64  C   UNL A   1      40.910  34.146  34.759  1.00  0.00    -0.014 A 
ATOM     65  C   UNL A   1      41.501  35.361  34.386  1.00  0.00     0.009 A 
ATOM     66  C   UNL A   1      40.262  34.055  36.002  1.00  0.00     0.009 A 
ATOM     67  C   UNL A   1      41.459  36.459  35.248  1.00  0.00     0.001 A 
ATOM     68  C   UNL A   1      40.204  35.160  36.852  1.00  0.00     0.001 A 
ATOM     69  C   UNL A   1      40.806  36.360  36.477  1.00  0.00     0.000 A 
ENDBRANCH  50  64
BRANCH  51  70
ATOM     70  C   UNL A   1      40.651  26.695  28.149  1.00  0.00    -0.014 A 
ATOM     71  C   UNL A   1      41.173  26.944  26.871  1.00  0.00     0.009 A 
ATOM     72  C   UNL A   1      40.109  25.430  28.426  1.00  0.00     0.009 A 
ATOM     73  C   UNL A   1      41.128  25.955  25.885  1.00  0.00     0.001 A 
ATOM     74  C   UNL A   1      40.091  24.435  27.448  1.00  0.00     0.001 A 
ATOM     75  C   UNL A   1      40.590  24.701  26.175  1.00  0.00     0.000 A 
ENDBRANCH  51  70
BRANCH  63  76
ATOM     76  C   UNL A   1      45.190  28.626  33.060  1.00  0.00    -0.014 A 
ATOM     77  C   UNL A   1      46.378  29.128  32.505  1.00  0.00     0.009 A 
ATOM     78  C   UNL A   1      45.265  27.642  34.058  1.00  0.00     0.009 A 
ATOM     79  C   UNL A   1      47.614  28.638  32.927  1.00  0.00     0.001 A 
ATOM     80  C   UNL A   1      46.504  27.173  34.496  1.00  0.00     0.001 A 
ATOM     81  C   UNL A   1      47.677  27.666  33.926  1.00  0.00     0.000 A 
ENDBRANCH  63  76
ENDBRANCH  37  38
ENDBRANCH  30  32
ENDBRANCH  29  30
ENDBRANCH  28  29
ENDBRANCH  27  28
ENDBRANCH  26  27
ENDBRANCH   1  26
TORSDOF 21
ENDMDL
MODEL 2
REMARK VINA RESULT:      -9.2      1.348      6.292
REMARK SMILES CC(C)C[C@H](CNC(=O)c1ccc(O)cc1O)C(=O)OCCOCCOC(=O)c1ccc(-c2c3nc(c(-c4ccccc4)c4ccc([nH]4)c(-c4ccccc4)c4nc(c(-c5ccccc5)c5ccc2[nH]5)C=C4)C=C3)cc1
REMARK SMILES IDX 22 1 21 2 20 3 18 4 19 5 5 6 4 7 2 8 1 9 3 10 6 11 7 12 8 13
REMARK SMILES IDX 9 15 10 16 11 17 16 18 12 19 15 20 13 21 17 22 14 24 23 26
REMARK SMILES IDX 24 27 25 28 26 29 27 30 28 31 29 32 30 33 76 34 31 35 75 36
REMARK SMILES IDX 32 37 33 38 34 39 69 40 35 41 74 42 68 43 70 44 36 45 73 46
REMARK SMILES IDX 67 47 66 48 37 50 59 51 44 52 58 53 45 54 48 55 57 56 71 57
REMARK SMILES IDX 46 58 47 59 56 61 72 62 49 63 38 64 39 65 43 66 40 67 42 68
REMARK SMILES IDX 41 69 60 70 61 71 65 72 62 73 64 74 63 75 50 76 51 77 55 78
REMARK SMILES IDX 52 79 54 80 53 81
REMARK H PARENT 7 14 17 23 14 25 70 49 48 60
REMARK Flexibility Score: inf
ROOT
ATOM      1  C   UNL A   1      33.841  29.836  26.799  1.00  0.00     0.202 C 
ENDROOT
BRANCH   1   2
ATOM      2  C   UNL A   1      33.983  28.462  26.142  1.00  0.00     0.261 C 
BRANCH   2   3
ATOM      3  O   UNL A   1      33.363  27.424  26.924  1.00  0.00    -0.463 OA
BRANCH   3   4
ATOM      4  C   UNL A   1      32.009  27.343  26.829  1.00  0.00     0.310 C 
ATOM      5  O   UNL A   1      31.220  27.754  27.672  1.00  0.00    -0.252 OA
BRANCH   4   6
ATOM      6  C   UNL A   1      31.543  26.646  25.570  1.00  0.00     0.118 C 
BRANCH   6   7
ATOM      7  C   UNL A   1      31.035  27.622  24.495  1.00  0.00     0.020 C 
BRANCH   7   8
ATOM      8  C   UNL A   1      31.717  27.610  23.113  1.00  0.00    -0.017 C 
ATOM      9  C   UNL A   1      32.421  28.932  22.787  1.00  0.00     0.007 C 
ATOM     10  C   UNL A   1      32.760  26.485  23.087  1.00  0.00     0.007 C 
ENDBRANCH   7   8
ENDBRANCH   6   7
BRANCH   6  11
ATOM     11  C   UNL A   1      30.681  25.387  25.751  1.00  0.00     0.131 C 
BRANCH  11  12
ATOM     12  N   UNL A   1      31.063  24.500  26.832  1.00  0.00    -0.351 N 
ATOM     13  C   UNL A   1      32.086  23.593  26.916  1.00  0.00     0.255 C 
ATOM     14  H   UNL A   1      30.496  24.558  27.635  1.00  0.00     0.163 HD
ATOM     15  O   UNL A   1      32.130  22.799  27.855  1.00  0.00    -0.269 OA
BRANCH  13  16
ATOM     16  C   UNL A   1      33.106  23.479  25.855  1.00  0.00     0.081 A 
ATOM     17  C   UNL A   1      34.252  24.286  25.850  1.00  0.00     0.021 A 
ATOM     18  C   UNL A   1      32.943  22.503  24.862  1.00  0.00     0.132 A 
ATOM     19  C   UNL A   1      35.181  24.174  24.810  1.00  0.00     0.047 A 
ATOM     20  C   UNL A   1      33.860  22.400  23.820  1.00  0.00     0.093 A 
ATOM     21  C   UNL A   1      34.968  23.242  23.798  1.00  0.00     0.119 A 
BRANCH  18  22
ATOM     22  O   UNL A   1      31.900  21.616  24.865  1.00  0.00    -0.507 OA
ATOM     23  H   UNL A   1      31.605  21.243  25.672  1.00  0.00     0.293 HD
ENDBRANCH  18  22
BRANCH  21  24
ATOM     24  O   UNL A   1      35.842  23.109  22.760  1.00  0.00    -0.508 OA
ATOM     25  H   UNL A   1      36.049  23.851  22.225  1.00  0.00     0.293 HD
ENDBRANCH  21  24
ENDBRANCH  13  16
ENDBRANCH  11  12
ENDBRANCH   6  11
ENDBRANCH   4   6
ENDBRANCH   3   4
ENDBRANCH   2   3
ENDBRANCH   1   2
BRANCH   1  26
ATOM     26  O   UNL A   1      32.975  30.764  26.148  1.00  0.00    -0.374 OA
BRANCH  26  27
ATOM     27  C   UNL A   1      31.709  31.019  26.751  1.00  0.00     0.202 C 
BRANCH  27  28
ATOM     28  C   UNL A   1      31.388  32.481  27.086  1.00  0.00     0.261 C 
BRANCH  28  29
ATOM     29  O   UNL A   1      32.514  33.353  26.875  1.00  0.00    -0.460 OA
BRANCH  29  30
ATOM     30  C   UNL A   1      32.993  33.942  27.998  1.00  0.00     0.338 C 
ATOM     31  O   UNL A   1      32.426  34.761  28.707  1.00  0.00    -0.246 OA
BRANCH  30  32
ATOM     32  C   UNL A   1      34.279  33.334  28.385  1.00  0.00     0.060 A 
ATOM     33  C   UNL A   1      34.269  32.394  29.423  1.00  0.00     0.016 A 
ATOM     34  C   UNL A   1      35.482  33.742  27.806  1.00  0.00     0.016 A 
ATOM     35  C   UNL A   1      35.470  31.876  29.908  1.00  0.00     0.010 A 
ATOM     36  C   UNL A   1      36.685  33.233  28.305  1.00  0.00     0.010 A 
ATOM     37  C   UNL A   1      36.686  32.317  29.374  1.00  0.00    -0.014 A 
BRANCH  37  38
ATOM     38  C   UNL A   1      37.968  31.893  29.987  1.00  0.00     0.031 A 
ATOM     39  C   UNL A   1      38.650  30.649  29.489  1.00  0.00     0.074 A 
ATOM     40  C   UNL A   1      38.510  32.605  30.990  1.00  0.00     0.049 A 
ATOM     41  N   UNL A   1      39.726  30.059  29.942  1.00  0.00    -0.248 NA
ATOM     42  C   UNL A   1      38.040  29.982  28.327  1.00  0.00     0.031 C 
ATOM     43  C   UNL A   1      37.966  33.847  31.537  1.00  0.00     0.029 A 
ATOM     44  N   UNL A   1      39.634  32.368  31.743  1.00  0.00    -0.354 N 
ATOM     45  C   UNL A   1      39.913  28.944  29.137  1.00  0.00     0.074 A 
ATOM     46  C   UNL A   1      38.837  28.934  28.168  1.00  0.00     0.031 C 
ATOM     47  C   UNL A   1      38.741  34.249  32.557  1.00  0.00     0.029 A 
ATOM     48  C   UNL A   1      39.810  33.274  32.760  1.00  0.00     0.049 A 
ATOM     49  H   UNL A   1      40.252  31.622  31.570  1.00  0.00     0.167 HD
ATOM     50  C   UNL A   1      40.891  28.009  29.202  1.00  0.00     0.031 A 
ATOM     51  C   UNL A   1      40.706  33.291  33.765  1.00  0.00     0.031 A 
ATOM     52  C   UNL A   1      41.957  28.016  30.166  1.00  0.00     0.049 A 
ATOM     53  C   UNL A   1      41.731  32.192  33.864  1.00  0.00     0.074 A 
ATOM     54  C   UNL A   1      43.024  27.139  30.275  1.00  0.00     0.029 A 
ATOM     55  N   UNL A   1      42.084  28.932  31.196  1.00  0.00    -0.354 N 
ATOM     56  N   UNL A   1      41.932  31.174  33.062  1.00  0.00    -0.248 NA
ATOM     57  C   UNL A   1      42.649  32.242  35.012  1.00  0.00     0.031 C 
ATOM     58  C   UNL A   1      43.762  27.490  31.411  1.00  0.00     0.029 A 
ATOM     59  C   UNL A   1      43.184  28.615  31.975  1.00  0.00     0.049 A 
ATOM     60  H   UNL A   1      41.482  29.695  31.351  1.00  0.00     0.167 HD
ATOM     61  C   UNL A   1      43.007  30.475  33.598  1.00  0.00     0.074 A 
ATOM     62  C   UNL A   1      43.428  31.194  34.782  1.00  0.00     0.031 C 
ATOM     63  C   UNL A   1      43.590  29.338  33.150  1.00  0.00     0.031 A 
BRANCH  50  64
ATOM     64  C   UNL A   1      40.835  26.869  28.227  1.00  0.00    -0.014 A 
ATOM     65  C   UNL A   1      41.481  26.937  26.985  1.00  0.00     0.009 A 
ATOM     66  C   UNL A   1      40.185  25.679  28.594  1.00  0.00     0.009 A 
ATOM     67  C   UNL A   1      41.461  25.841  26.119  1.00  0.00     0.001 A 
ATOM     68  C   UNL A   1      40.185  24.579  27.736  1.00  0.00     0.001 A 
ATOM     69  C   UNL A   1      40.819  24.662  26.498  1.00  0.00     0.000 A 
ENDBRANCH  50  64
BRANCH  51  70
ATOM     70  C   UNL A   1      40.640  34.349  34.805  1.00  0.00    -0.014 A 
ATOM     71  C   UNL A   1      41.366  35.541  34.668  1.00  0.00     0.009 A 
ATOM     72  C   UNL A   1      39.875  34.151  35.967  1.00  0.00     0.009 A 
ATOM     73  C   UNL A   1      41.347  36.501  35.682  1.00  0.00     0.001 A 
ATOM     74  C   UNL A   1      39.835  35.125  36.966  1.00  0.00     0.001 A 
ATOM     75  C   UNL A   1      40.580  36.294  36.829  1.00  0.00     0.000 A 
ENDBRANCH  51  70
BRANCH  63  76
ATOM     76  C   UNL A   1      44.759  28.807  33.931  1.00  0.00    -0.014 A 
ATOM     77  C   UNL A   1      44.580  27.855  34.945  1.00  0.00     0.009 A 
ATOM     78  C   UNL A   1      46.060  29.225  33.608  1.00  0.00     0.009 A 
ATOM     79  C   UNL A   1      45.681  27.347  35.637  1.00  0.00     0.001 A 
ATOM     80  C   UNL A   1      47.160  28.696  34.284  1.00  0.00     0.001 A 
ATOM     81  C   UNL A   1      46.969  27.764  35.303  1.00  0.00     0.000 A 
ENDBRANCH  63  76
ENDBRANCH  37  38
ENDBRANCH  30  32
ENDBRANCH  29  30
ENDBRANCH  28  29
ENDBRANCH  27  28
ENDBRANCH  26  27
ENDBRANCH   1  26
TORSDOF 21
ENDMDL
MODEL 3
REMARK VINA RESULT:      -9.1      1.876      3.045
REMARK SMILES CC(C)C[C@H](CNC(=O)c1ccc(O)cc1O)C(=O)OCCOCCOC(=O)c1ccc(-c2c3nc(c(-c4ccccc4)c4ccc([nH]4)c(-c4ccccc4)c4nc(c(-c5ccccc5)c5ccc2[nH]5)C=C4)C=C3)cc1
REMARK SMILES IDX 22 1 21 2 20 3 18 4 19 5 5 6 4 7 2 8 1 9 3 10 6 11 7 12 8 13
REMARK SMILES IDX 9 15 10 16 11 17 16 18 12 19 15 20 13 21 17 22 14 24 23 26
REMARK SMILES IDX 24 27 25 28 26 29 27 30 28 31 29 32 30 33 76 34 31 35 75 36
REMARK SMILES IDX 32 37 33 38 34 39 69 40 35 41 74 42 68 43 70 44 36 45 73 46
REMARK SMILES IDX 67 47 66 48 37 50 59 51 44 52 58 53 45 54 48 55 57 56 71 57
REMARK SMILES IDX 46 58 47 59 56 61 72 62 49 63 38 64 39 65 43 66 40 67 42 68
REMARK SMILES IDX 41 69 60 70 61 71 65 72 62 73 64 74 63 75 50 76 51 77 55 78
REMARK SMILES IDX 52 79 54 80 53 81
REMARK H PARENT 7 14 17 23 14 25 70 49 48 60
REMARK Flexibility Score: inf
ROOT
ATOM      1  C   UNL A   1      33.048  30.652  27.039  1.00  0.00     0.202 C 
ENDROOT
BRANCH   1   2
ATOM      2  C   UNL A   1      33.594  29.455  26.257  1.00  0.00     0.261 C 
BRANCH   2   3
ATOM      3  O   UNL A   1      33.610  28.254  27.052  1.00  0.00    -0.463 OA
BRANCH   3   4
ATOM      4  C   UNL A   1      32.470  27.514  27.024  1.00  0.00     0.310 C 
ATOM      5  O   UNL A   1      31.399  27.856  27.511  1.00  0.00    -0.252 OA
BRANCH   4   6
ATOM      6  C   UNL A   1      32.651  26.170  26.352  1.00  0.00     0.118 C 
BRANCH   6   7
ATOM      7  C   UNL A   1      33.934  26.088  25.509  1.00  0.00     0.020 C 
BRANCH   7   8
ATOM      8  C   UNL A   1      34.352  24.716  24.943  1.00  0.00    -0.017 C 
ATOM      9  C   UNL A   1      34.317  24.670  23.411  1.00  0.00     0.007 C 
ATOM     10  C   UNL A   1      35.781  24.406  25.406  1.00  0.00     0.007 C 
ENDBRANCH   7   8
ENDBRANCH   6   7
BRANCH   6  11
ATOM     11  C   UNL A   1      31.409  25.550  25.693  1.00  0.00     0.131 C 
BRANCH  11  12
ATOM     12  N   UNL A   1      30.552  24.761  26.556  1.00  0.00    -0.351 N 
ATOM     13  C   UNL A   1      30.680  23.470  26.993  1.00  0.00     0.255 C 
ATOM     14  H   UNL A   1      29.748  25.229  26.880  1.00  0.00     0.163 HD
ATOM     15  O   UNL A   1      29.745  22.919  27.573  1.00  0.00    -0.269 OA
BRANCH  13  16
ATOM     16  C   UNL A   1      31.893  22.675  26.710  1.00  0.00     0.081 A 
ATOM     17  C   UNL A   1      32.873  22.461  27.689  1.00  0.00     0.021 A 
ATOM     18  C   UNL A   1      32.034  22.082  25.449  1.00  0.00     0.132 A 
ATOM     19  C   UNL A   1      34.025  21.732  27.376  1.00  0.00     0.047 A 
ATOM     20  C   UNL A   1      33.185  21.367  25.132  1.00  0.00     0.093 A 
ATOM     21  C   UNL A   1      34.176  21.205  26.096  1.00  0.00     0.119 A 
BRANCH  18  22
ATOM     22  O   UNL A   1      31.067  22.167  24.482  1.00  0.00    -0.507 OA
ATOM     23  H   UNL A   1      31.126  22.825  23.818  1.00  0.00     0.293 HD
ENDBRANCH  18  22
BRANCH  21  24
ATOM     24  O   UNL A   1      35.289  20.498  25.746  1.00  0.00    -0.508 OA
ATOM     25  H   UNL A   1      35.286  19.563  25.805  1.00  0.00     0.293 HD
ENDBRANCH  21  24
ENDBRANCH  13  16
ENDBRANCH  11  12
ENDBRANCH   6  11
ENDBRANCH   4   6
ENDBRANCH   3   4
ENDBRANCH   2   3
ENDBRANCH   1   2
BRANCH   1  26
ATOM     26  O   UNL A   1      31.822  31.210  26.573  1.00  0.00    -0.374 OA
BRANCH  26  27
ATOM     27  C   UNL A   1      31.599  32.599  26.805  1.00  0.00     0.202 C 
BRANCH  27  28
ATOM     28  C   UNL A   1      32.739  33.377  27.474  1.00  0.00     0.261 C 
BRANCH  28  29
ATOM     29  O   UNL A   1      32.259  34.359  28.410  1.00  0.00    -0.460 OA
BRANCH  29  30
ATOM     30  C   UNL A   1      33.155  35.326  28.727  1.00  0.00     0.338 C 
ATOM     31  O   UNL A   1      33.046  36.529  28.540  1.00  0.00    -0.246 OA
BRANCH  30  32
ATOM     32  C   UNL A   1      34.266  34.757  29.510  1.00  0.00     0.060 A 
ATOM     33  C   UNL A   1      35.531  34.713  28.909  1.00  0.00     0.016 A 
ATOM     34  C   UNL A   1      34.058  34.195  30.770  1.00  0.00     0.016 A 
ATOM     35  C   UNL A   1      36.591  34.080  29.558  1.00  0.00     0.010 A 
ATOM     36  C   UNL A   1      35.119  33.546  31.410  1.00  0.00     0.010 A 
ATOM     37  C   UNL A   1      36.383  33.465  30.798  1.00  0.00    -0.014 A 
BRANCH  37  38
ATOM     38  C   UNL A   1      37.459  32.656  31.419  1.00  0.00     0.031 A 
ATOM     39  C   UNL A   1      38.058  33.100  32.724  1.00  0.00     0.074 A 
ATOM     40  C   UNL A   1      37.907  31.541  30.815  1.00  0.00     0.049 A 
ATOM     41  N   UNL A   1      39.061  32.588  33.390  1.00  0.00    -0.248 NA
ATOM     42  C   UNL A   1      37.447  34.276  33.364  1.00  0.00     0.031 C 
ATOM     43  C   UNL A   1      37.383  30.986  29.568  1.00  0.00     0.029 A 
ATOM     44  N   UNL A   1      38.923  30.688  31.164  1.00  0.00    -0.354 N 
ATOM     45  C   UNL A   1      39.215  33.386  34.515  1.00  0.00     0.074 A 
ATOM     46  C   UNL A   1      38.206  34.422  34.442  1.00  0.00     0.031 C 
ATOM     47  C   UNL A   1      38.102  29.899  29.240  1.00  0.00     0.029 A 
ATOM     48  C   UNL A   1      39.158  29.707  30.232  1.00  0.00     0.049 A 
ATOM     49  H   UNL A   1      39.435  30.771  32.001  1.00  0.00     0.167 HD
ATOM     50  C   UNL A   1      40.119  33.270  35.516  1.00  0.00     0.031 A 
ATOM     51  C   UNL A   1      40.138  28.786  30.164  1.00  0.00     0.031 A 
ATOM     52  C   UNL A   1      41.124  32.244  35.587  1.00  0.00     0.049 A 
ATOM     53  C   UNL A   1      41.182  28.733  31.247  1.00  0.00     0.074 A 
ATOM     54  C   UNL A   1      42.050  32.015  36.592  1.00  0.00     0.029 A 
ATOM     55  N   UNL A   1      41.347  31.289  34.610  1.00  0.00    -0.354 N 
ATOM     56  N   UNL A   1      41.282  29.457  32.335  1.00  0.00    -0.248 NA
ATOM     57  C   UNL A   1      42.252  27.737  31.089  1.00  0.00     0.031 C 
ATOM     58  C   UNL A   1      42.874  30.958  36.191  1.00  0.00     0.029 A 
ATOM     59  C   UNL A   1      42.426  30.497  34.964  1.00  0.00     0.049 A 
ATOM     60  H   UNL A   1      40.817  31.188  33.787  1.00  0.00     0.167 HD
ATOM     61  C   UNL A   1      42.412  28.994  32.997  1.00  0.00     0.074 A 
ATOM     62  C   UNL A   1      42.954  27.913  32.200  1.00  0.00     0.031 C 
ATOM     63  C   UNL A   1      42.955  29.428  34.160  1.00  0.00     0.031 A 
BRANCH  50  64
ATOM     64  C   UNL A   1      40.096  34.303  36.604  1.00  0.00    -0.014 A 
ATOM     65  C   UNL A   1      39.403  34.086  37.804  1.00  0.00     0.009 A 
ATOM     66  C   UNL A   1      40.842  35.484  36.451  1.00  0.00     0.009 A 
ATOM     67  C   UNL A   1      39.444  35.041  38.823  1.00  0.00     0.001 A 
ATOM     68  C   UNL A   1      40.897  36.425  37.479  1.00  0.00     0.001 A 
ATOM     69  C   UNL A   1      40.195  36.205  38.663  1.00  0.00     0.000 A 
ENDBRANCH  50  64
BRANCH  51  70
ATOM     70  C   UNL A   1      40.225  27.875  28.994  1.00  0.00    -0.014 A 
ATOM     71  C   UNL A   1      40.914  28.257  27.833  1.00  0.00     0.009 A 
ATOM     72  C   UNL A   1      39.582  26.626  29.021  1.00  0.00     0.009 A 
ATOM     73  C   UNL A   1      40.935  27.419  26.716  1.00  0.00     0.001 A 
ATOM     74  C   UNL A   1      39.628  25.779  27.913  1.00  0.00     0.001 A 
ATOM     75  C   UNL A   1      40.295  26.180  26.757  1.00  0.00     0.000 A 
ENDBRANCH  51  70
BRANCH  63  76
ATOM     76  C   UNL A   1      44.187  28.723  34.653  1.00  0.00    -0.014 A 
ATOM     77  C   UNL A   1      44.093  27.574  35.453  1.00  0.00     0.009 A 
ATOM     78  C   UNL A   1      45.456  29.184  34.267  1.00  0.00     0.009 A 
ATOM     79  C   UNL A   1      45.247  26.912  35.874  1.00  0.00     0.001 A 
ATOM     80  C   UNL A   1      46.607  28.506  34.669  1.00  0.00     0.001 A 
ATOM     81  C   UNL A   1      46.502  27.375  35.478  1.00  0.00     0.000 A 
ENDBRANCH  63  76
ENDBRANCH  37  38
ENDBRANCH  30  32
ENDBRANCH  29  30
ENDBRANCH  28  29
ENDBRANCH  27  28
ENDBRANCH  26  27
ENDBRANCH   1  26
TORSDOF 21
ENDMDL
