MODEL 1
REMARK VINA RESULT:     -12.3      0.000      0.000
REMARK SMILES CC1=C([C@H](NC(=O)c2cccc3ccccc23)C(=O)OCCOCCOC(=O)c2ccc(-c3c4nc(c(-c5ccccc5)c5ccc([nH]5)c(-c5ccccc5)c5nc(c(-c6ccccc6)c6ccc3[nH]6)C=C5)C=C4)cc2)[C@H](C)N=N1
REMARK SMILES IDX 23 1 22 2 21 3 20 4 18 5 19 6 4 7 3 8 1 9 2 10 80 11 77 12
REMARK SMILES IDX 79 13 78 14 5 15 6 16 7 18 8 19 9 20 17 21 10 22 12 23 16 24
REMARK SMILES IDX 11 25 13 26 15 27 14 28 24 29 25 30 26 31 27 32 28 33 29 34
REMARK SMILES IDX 30 35 76 36 31 37 75 38 32 39 33 40 34 41 69 42 35 43 74 44
REMARK SMILES IDX 68 45 70 46 36 47 73 48 67 49 66 50 37 52 59 53 44 54 58 55
REMARK SMILES IDX 45 56 48 57 57 58 71 59 46 60 47 61 56 63 72 64 49 65 38 66
REMARK SMILES IDX 39 67 43 68 40 69 42 70 41 71 60 72 61 73 65 74 62 75 64 76
REMARK SMILES IDX 63 77 50 78 51 79 55 80 52 81 54 82 53 83
REMARK H PARENT 5 17 70 51 48 62
REMARK Flexibility Score: inf
ROOT
ATOM      1  O   UNL A   1      34.046  30.528  28.074  1.00  0.00    -0.374 OA
ENDROOT
BRANCH   1   2
ATOM      2  C   UNL A   1      32.998  31.040  27.239  1.00  0.00     0.202 C 
BRANCH   2   3
ATOM      3  C   UNL A   1      32.604  30.180  26.047  1.00  0.00     0.261 C 
BRANCH   3   4
ATOM      4  O   UNL A   1      32.331  28.837  26.482  1.00  0.00    -0.461 OA
BRANCH   4   5
ATOM      5  C   UNL A   1      33.124  27.851  26.012  1.00  0.00     0.333 C 
ATOM      6  O   UNL A   1      34.348  27.886  26.063  1.00  0.00    -0.249 OA
BRANCH   5   7
ATOM      7  C   UNL A   1      32.329  26.648  25.398  1.00  0.00     0.223 C 
BRANCH   7   8
ATOM      8  C   UNL A   1      31.591  26.967  24.132  1.00  0.00     0.012 C 
ATOM      9  C   UNL A   1      33.516  26.465  22.568  1.00  0.00     0.069 C 
ATOM     10  C   UNL A   1      32.128  26.877  22.911  1.00  0.00     0.064 C 
ATOM     11  N   UNL A   1      31.267  27.245  21.915  1.00  0.00    -0.160 NA
ATOM     12  C   UNL A   1      30.186  27.451  23.887  1.00  0.00     0.156 C 
ATOM     13  N   UNL A   1      30.156  27.582  22.401  1.00  0.00    -0.181 NA
ATOM     14  C   UNL A   1      28.975  26.593  24.259  1.00  0.00     0.040 C 
ENDBRANCH   7   8
BRANCH   7  15
ATOM     15  N   UNL A   1      31.559  25.689  26.151  1.00  0.00    -0.335 N 
ATOM     16  C   UNL A   1      31.629  24.343  26.200  1.00  0.00     0.252 C 
ATOM     17  H   UNL A   1      30.864  26.084  26.727  1.00  0.00     0.165 HD
ATOM     18  O   UNL A   1      31.236  23.773  27.220  1.00  0.00    -0.269 OA
BRANCH  16  19
ATOM     19  C   UNL A   1      31.990  23.552  25.025  1.00  0.00     0.047 A 
ATOM     20  C   UNL A   1      31.140  23.179  23.985  1.00  0.00     0.014 A 
ATOM     21  C   UNL A   1      33.337  23.335  24.949  1.00  0.00    -0.006 A 
ATOM     22  C   UNL A   1      31.591  22.591  22.787  1.00  0.00     0.001 A 
ATOM     23  C   UNL A   1      33.962  22.916  23.347  1.00  0.00    -0.018 A 
ATOM     24  C   UNL A   1      34.389  23.761  26.365  1.00  0.00     0.009 A 
ATOM     25  C   UNL A   1      32.954  22.498  22.443  1.00  0.00     0.009 A 
ATOM     26  C   UNL A   1      35.782  23.035  23.173  1.00  0.00     0.009 A 
ATOM     27  C   UNL A   1      36.102  23.734  26.369  1.00  0.00     0.001 A 
ATOM     28  C   UNL A   1      36.866  23.365  24.852  1.00  0.00     0.001 A 
ENDBRANCH  16  19
ENDBRANCH   7  15
ENDBRANCH   5   7
ENDBRANCH   4   5
ENDBRANCH   3   4
ENDBRANCH   2   3
ENDBRANCH   1   2
BRANCH   1  29
ATOM     29  C   UNL A   1      35.415  30.758  27.728  1.00  0.00     0.202 C 
BRANCH  29  30
ATOM     30  C   UNL A   1      36.149  31.721  28.624  1.00  0.00     0.261 C 
BRANCH  30  31
ATOM     31  O   UNL A   1      36.955  30.885  29.433  1.00  0.00    -0.460 OA
BRANCH  31  32
ATOM     32  C   UNL A   1      38.266  30.797  29.207  1.00  0.00     0.338 C 
ATOM     33  O   UNL A   1      39.095  31.596  29.618  1.00  0.00    -0.246 OA
BRANCH  32  34
ATOM     34  C   UNL A   1      38.610  29.625  28.255  1.00  0.00     0.060 A 
ATOM     35  C   UNL A   1      38.508  28.190  29.398  1.00  0.00     0.016 A 
ATOM     36  C   UNL A   1      39.788  29.326  26.636  1.00  0.00     0.016 A 
ATOM     37  C   UNL A   1      39.592  26.803  29.066  1.00  0.00     0.010 A 
ATOM     38  C   UNL A   1      40.744  27.975  26.440  1.00  0.00     0.010 A 
ATOM     39  C   UNL A   1      40.754  26.845  27.703  1.00  0.00    -0.014 A 
BRANCH  39  40
ATOM     40  C   UNL A   1      42.196  26.408  27.530  1.00  0.00     0.031 A 
ATOM     41  C   UNL A   1      41.888  24.962  27.434  1.00  0.00     0.074 A 
ATOM     42  C   UNL A   1      43.347  27.098  27.089  1.00  0.00     0.049 A 
ATOM     43  N   UNL A   1      41.776  24.255  28.517  1.00  0.00    -0.248 NA
ATOM     44  C   UNL A   1      41.056  24.381  26.321  1.00  0.00     0.031 C 
ATOM     45  C   UNL A   1      43.681  28.552  26.924  1.00  0.00     0.029 A 
ATOM     46  N   UNL A   1      44.577  26.577  26.628  1.00  0.00    -0.354 N 
ATOM     47  C   UNL A   1      41.429  23.015  28.036  1.00  0.00     0.074 A 
ATOM     48  C   UNL A   1      40.596  23.268  26.904  1.00  0.00     0.031 C 
ATOM     49  C   UNL A   1      44.849  28.755  26.230  1.00  0.00     0.029 A 
ATOM     50  C   UNL A   1      45.495  27.485  25.956  1.00  0.00     0.049 A 
ATOM     51  H   UNL A   1      44.806  25.629  26.758  1.00  0.00     0.167 HD
ATOM     52  C   UNL A   1      42.372  22.045  28.162  1.00  0.00     0.031 A 
ATOM     53  C   UNL A   1      46.736  27.209  25.370  1.00  0.00     0.031 A 
ATOM     54  C   UNL A   1      43.381  22.458  29.125  1.00  0.00     0.049 A 
ATOM     55  C   UNL A   1      47.194  25.932  25.963  1.00  0.00     0.074 A 
ATOM     56  C   UNL A   1      43.324  22.952  30.417  1.00  0.00     0.029 A 
ATOM     57  N   UNL A   1      44.535  22.953  28.567  1.00  0.00    -0.354 N 
ATOM     58  N   UNL A   1      47.509  25.821  27.219  1.00  0.00    -0.248 NA
ATOM     59  C   UNL A   1      46.702  24.743  25.295  1.00  0.00     0.031 C 
ATOM     60  C   UNL A   1      44.311  23.977  30.491  1.00  0.00     0.029 A 
ATOM     61  C   UNL A   1      45.081  23.948  29.332  1.00  0.00     0.049 A 
ATOM     62  H   UNL A   1      44.920  22.632  27.719  1.00  0.00     0.167 HD
ATOM     63  C   UNL A   1      46.715  24.769  27.636  1.00  0.00     0.074 A 
ATOM     64  C   UNL A   1      46.254  24.126  26.392  1.00  0.00     0.031 C 
ATOM     65  C   UNL A   1      46.187  24.773  28.897  1.00  0.00     0.031 A 
BRANCH  52  66
ATOM     66  C   UNL A   1      42.667  21.071  27.053  1.00  0.00    -0.014 A 
ATOM     67  C   UNL A   1      42.173  19.776  27.213  1.00  0.00     0.009 A 
ATOM     68  C   UNL A   1      43.570  21.287  25.986  1.00  0.00     0.009 A 
ATOM     69  C   UNL A   1      42.561  18.747  26.353  1.00  0.00     0.001 A 
ATOM     70  C   UNL A   1      43.935  20.270  25.103  1.00  0.00     0.001 A 
ATOM     71  C   UNL A   1      43.435  18.994  25.298  1.00  0.00     0.000 A 
ENDBRANCH  52  66
BRANCH  53  72
ATOM     72  C   UNL A   1      47.566  27.693  24.172  1.00  0.00    -0.014 A 
ATOM     73  C   UNL A   1      48.913  27.273  23.914  1.00  0.00     0.009 A 
ATOM     74  C   UNL A   1      46.904  28.252  23.073  1.00  0.00     0.009 A 
ATOM     75  C   UNL A   1      49.518  27.369  22.630  1.00  0.00     0.001 A 
ATOM     76  C   UNL A   1      47.500  28.334  21.792  1.00  0.00     0.001 A 
ATOM     77  C   UNL A   1      48.796  27.882  21.561  1.00  0.00     0.000 A 
ENDBRANCH  53  72
BRANCH  65  78
ATOM     78  C   UNL A   1      46.732  25.767  29.906  1.00  0.00    -0.014 A 
ATOM     79  C   UNL A   1      47.976  25.689  30.565  1.00  0.00     0.009 A 
ATOM     80  C   UNL A   1      45.967  26.927  30.083  1.00  0.00     0.009 A 
ATOM     81  C   UNL A   1      48.406  26.734  31.403  1.00  0.00     0.001 A 
ATOM     82  C   UNL A   1      46.405  27.972  30.895  1.00  0.00     0.001 A 
ATOM     83  C   UNL A   1      47.617  27.872  31.567  1.00  0.00     0.000 A 
ENDBRANCH  65  78
ENDBRANCH  39  40
ENDBRANCH  32  34
ENDBRANCH  31  32
ENDBRANCH  30  31
ENDBRANCH  29  30
ENDBRANCH   1  29
TORSDOF 17
ENDMDL
MODEL 2
REMARK VINA RESULT:     -11.3      2.451      5.411
REMARK SMILES CC1=C([C@H](NC(=O)c2cccc3ccccc23)C(=O)OCCOCCOC(=O)c2ccc(-c3c4nc(c(-c5ccccc5)c5ccc([nH]5)c(-c5ccccc5)c5nc(c(-c6ccccc6)c6ccc3[nH]6)C=C5)C=C4)cc2)[C@H](C)N=N1
REMARK SMILES IDX 23 1 22 2 21 3 20 4 18 5 19 6 4 7 3 8 1 9 2 10 80 11 77 12
REMARK SMILES IDX 79 13 78 14 5 15 6 16 7 18 8 19 9 20 17 21 10 22 12 23 16 24
REMARK SMILES IDX 11 25 13 26 15 27 14 28 24 29 25 30 26 31 27 32 28 33 29 34
REMARK SMILES IDX 30 35 76 36 31 37 75 38 32 39 33 40 34 41 69 42 35 43 74 44
REMARK SMILES IDX 68 45 70 46 36 47 73 48 67 49 66 50 37 52 59 53 44 54 58 55
REMARK SMILES IDX 45 56 48 57 57 58 71 59 46 60 47 61 56 63 72 64 49 65 38 66
REMARK SMILES IDX 39 67 43 68 40 69 42 70 41 71 60 72 61 73 65 74 62 75 64 76
REMARK SMILES IDX 63 77 50 78 51 79 55 80 52 81 54 82 53 83
REMARK H PARENT 5 17 70 51 48 62
REMARK Flexibility Score: inf
ROOT
ATOM      1  O   UNL A   1      33.668  30.975  27.346  1.00  0.00    -0.374 OA
ENDROOT
BRANCH   1   2
ATOM      2  C   UNL A   1      34.422  29.768  27.523  1.00  0.00     0.202 C 
BRANCH   2   3
ATOM      3  C   UNL A   1      34.100  28.625  26.573  1.00  0.00     0.261 C 
BRANCH   3   4
ATOM      4  O   UNL A   1      32.708  28.665  26.214  1.00  0.00    -0.461 OA
BRANCH   4   5
ATOM      5  C   UNL A   1      31.867  27.834  26.865  1.00  0.00     0.333 C 
ATOM      6  O   UNL A   1      31.512  28.006  28.026  1.00  0.00    -0.249 OA
BRANCH   5   7
ATOM      7  C   UNL A   1      31.381  26.627  25.994  1.00  0.00     0.223 C 
BRANCH   7   8
ATOM      8  C   UNL A   1      31.082  26.967  24.564  1.00  0.00     0.012 C 
ATOM      9  C   UNL A   1      33.375  26.387  23.666  1.00  0.00     0.069 C 
ATOM     10  C   UNL A   1      31.966  26.852  23.568  1.00  0.00     0.064 C 
ATOM     11  N   UNL A   1      31.468  27.247  22.358  1.00  0.00    -0.160 NA
ATOM     12  C   UNL A   1      29.840  27.501  23.901  1.00  0.00     0.156 C 
ATOM     13  N   UNL A   1      30.275  27.627  22.479  1.00  0.00    -0.181 NA
ATOM     14  C   UNL A   1      28.542  26.691  23.875  1.00  0.00     0.040 C 
ENDBRANCH   7   8
BRANCH   7  15
ATOM     15  N   UNL A   1      30.458  25.607  26.427  1.00  0.00    -0.335 N 
ATOM     16  C   UNL A   1      30.508  24.264  26.313  1.00  0.00     0.252 C 
ATOM     17  H   UNL A   1      29.655  25.948  26.884  1.00  0.00     0.165 HD
ATOM     18  O   UNL A   1      29.896  23.582  27.138  1.00  0.00    -0.269 OA
BRANCH  16  19
ATOM     19  C   UNL A   1      31.115  23.617  25.151  1.00  0.00     0.047 A 
ATOM     20  C   UNL A   1      30.652  23.670  23.837  1.00  0.00     0.014 A 
ATOM     21  C   UNL A   1      32.325  23.058  25.452  1.00  0.00    -0.006 A 
ATOM     22  C   UNL A   1      31.390  23.195  22.735  1.00  0.00     0.001 A 
ATOM     23  C   UNL A   1      33.402  22.765  24.078  1.00  0.00    -0.018 A 
ATOM     24  C   UNL A   1      32.843  22.935  27.187  1.00  0.00     0.009 A 
ATOM     25  C   UNL A   1      32.737  22.796  22.827  1.00  0.00     0.009 A 
ATOM     26  C   UNL A   1      35.144  22.413  24.523  1.00  0.00     0.009 A 
ATOM     27  C   UNL A   1      34.394  22.445  27.724  1.00  0.00     0.001 A 
ATOM     28  C   UNL A   1      35.576  22.146  26.484  1.00  0.00     0.001 A 
ENDBRANCH  16  19
ENDBRANCH   7  15
ENDBRANCH   5   7
ENDBRANCH   4   5
ENDBRANCH   3   4
ENDBRANCH   2   3
ENDBRANCH   1   2
BRANCH   1  29
ATOM     29  C   UNL A   1      34.104  32.190  27.962  1.00  0.00     0.202 C 
BRANCH  29  30
ATOM     30  C   UNL A   1      34.723  32.028  29.326  1.00  0.00     0.261 C 
BRANCH  30  31
ATOM     31  O   UNL A   1      35.678  33.071  29.392  1.00  0.00    -0.460 OA
BRANCH  31  32
ATOM     32  C   UNL A   1      36.975  32.801  29.246  1.00  0.00     0.338 C 
ATOM     33  O   UNL A   1      37.694  33.299  28.392  1.00  0.00    -0.246 OA
BRANCH  32  34
ATOM     34  C   UNL A   1      37.444  31.686  30.212  1.00  0.00     0.060 A 
ATOM     35  C   UNL A   1      38.975  32.429  30.906  1.00  0.00     0.016 A 
ATOM     36  C   UNL A   1      37.390  29.664  30.280  1.00  0.00     0.016 A 
ATOM     37  C   UNL A   1      40.294  31.307  31.364  1.00  0.00     0.010 A 
ATOM     38  C   UNL A   1      38.690  28.730  30.742  1.00  0.00     0.010 A 
ATOM     39  C   UNL A   1      40.133  29.540  31.108  1.00  0.00    -0.014 A 
BRANCH  39  40
ATOM     40  C   UNL A   1      41.069  28.455  30.612  1.00  0.00     0.031 A 
ATOM     41  C   UNL A   1      41.584  28.099  31.955  1.00  0.00     0.074 A 
ATOM     42  C   UNL A   1      41.084  27.686  29.428  1.00  0.00     0.049 A 
ATOM     43  N   UNL A   1      42.579  28.763  32.460  1.00  0.00    -0.248 NA
ATOM     44  C   UNL A   1      40.703  27.538  33.041  1.00  0.00     0.031 C 
ATOM     45  C   UNL A   1      40.412  27.831  28.093  1.00  0.00     0.029 A 
ATOM     46  N   UNL A   1      41.760  26.475  29.158  1.00  0.00    -0.354 N 
ATOM     47  C   UNL A   1      42.720  28.201  33.706  1.00  0.00     0.074 A 
ATOM     48  C   UNL A   1      41.393  27.889  34.132  1.00  0.00     0.031 C 
ATOM     49  C   UNL A   1      40.528  26.707  27.313  1.00  0.00     0.029 A 
ATOM     50  C   UNL A   1      41.381  25.731  27.966  1.00  0.00     0.049 A 
ATOM     51  H   UNL A   1      42.466  26.144  29.759  1.00  0.00     0.167 HD
ATOM     52  C   UNL A   1      43.840  27.457  33.898  1.00  0.00     0.031 A 
ATOM     53  C   UNL A   1      41.856  24.495  27.511  1.00  0.00     0.031 A 
ATOM     54  C   UNL A   1      44.813  27.751  32.857  1.00  0.00     0.049 A 
ATOM     55  C   UNL A   1      43.158  24.285  28.183  1.00  0.00     0.074 A 
ATOM     56  C   UNL A   1      45.348  28.923  32.351  1.00  0.00     0.029 A 
ATOM     57  N   UNL A   1      44.855  26.829  31.839  1.00  0.00    -0.354 N 
ATOM     58  N   UNL A   1      44.196  25.028  27.939  1.00  0.00    -0.248 NA
ATOM     59  C   UNL A   1      43.071  23.678  29.496  1.00  0.00     0.031 C 
ATOM     60  C   UNL A   1      45.423  28.745  30.940  1.00  0.00     0.029 A 
ATOM     61  C   UNL A   1      45.137  27.418  30.635  1.00  0.00     0.049 A 
ATOM     62  H   UNL A   1      44.700  25.865  31.960  1.00  0.00     0.167 HD
ATOM     63  C   UNL A   1      44.557  25.462  29.201  1.00  0.00     0.074 A 
ATOM     64  C   UNL A   1      43.836  24.572  30.129  1.00  0.00     0.031 C 
ATOM     65  C   UNL A   1      45.059  26.722  29.370  1.00  0.00     0.031 A 
BRANCH  52  66
ATOM     66  C   UNL A   1      43.806  26.138  34.621  1.00  0.00    -0.014 A 
ATOM     67  C   UNL A   1      44.398  26.104  35.884  1.00  0.00     0.009 A 
ATOM     68  C   UNL A   1      43.431  24.897  34.055  1.00  0.00     0.009 A 
ATOM     69  C   UNL A   1      44.606  24.894  36.549  1.00  0.00     0.001 A 
ATOM     70  C   UNL A   1      43.605  23.688  34.729  1.00  0.00     0.001 A 
ATOM     71  C   UNL A   1      44.206  23.690  35.976  1.00  0.00     0.000 A 
ENDBRANCH  52  66
BRANCH  53  72
ATOM     72  C   UNL A   1      41.312  23.267  26.766  1.00  0.00    -0.014 A 
ATOM     73  C   UNL A   1      42.112  22.128  26.417  1.00  0.00     0.009 A 
ATOM     74  C   UNL A   1      39.931  23.041  26.754  1.00  0.00     0.009 A 
ATOM     75  C   UNL A   1      41.552  20.853  26.128  1.00  0.00     0.001 A 
ATOM     76  C   UNL A   1      39.375  21.769  26.482  1.00  0.00     0.001 A 
ATOM     77  C   UNL A   1      40.177  20.671  26.184  1.00  0.00     0.000 A 
ENDBRANCH  53  72
BRANCH  65  78
ATOM     78  C   UNL A   1      45.496  27.497  28.140  1.00  0.00    -0.014 A 
ATOM     79  C   UNL A   1      44.686  28.347  27.359  1.00  0.00     0.009 A 
ATOM     80  C   UNL A   1      46.866  27.449  27.850  1.00  0.00     0.009 A 
ATOM     81  C   UNL A   1      45.242  29.088  26.300  1.00  0.00     0.001 A 
ATOM     82  C   UNL A   1      47.420  28.201  26.816  1.00  0.00     0.001 A 
ATOM     83  C   UNL A   1      46.607  29.010  26.030  1.00  0.00     0.000 A 
ENDBRANCH  65  78
ENDBRANCH  39  40
ENDBRANCH  32  34
ENDBRANCH  31  32
ENDBRANCH  30  31
ENDBRANCH  29  30
ENDBRANCH   1  29
TORSDOF 17
ENDMDL
MODEL 3
REMARK VINA RESULT:     -11.2      3.984      8.930
REMARK SMILES CC1=C([C@H](NC(=O)c2cccc3ccccc23)C(=O)OCCOCCOC(=O)c2ccc(-c3c4nc(c(-c5ccccc5)c5ccc([nH]5)c(-c5ccccc5)c5nc(c(-c6ccccc6)c6ccc3[nH]6)C=C5)C=C4)cc2)[C@H](C)N=N1
REMARK SMILES IDX 23 1 22 2 21 3 20 4 18 5 19 6 4 7 3 8 1 9 2 10 80 11 77 12
REMARK SMILES IDX 79 13 78 14 5 15 6 16 7 18 8 19 9 20 17 21 10 22 12 23 16 24
REMARK SMILES IDX 11 25 13 26 15 27 14 28 24 29 25 30 26 31 27 32 28 33 29 34
REMARK SMILES IDX 30 35 76 36 31 37 75 38 32 39 33 40 34 41 69 42 35 43 74 44
REMARK SMILES IDX 68 45 70 46 36 47 73 48 67 49 66 50 37 52 59 53 44 54 58 55
REMARK SMILES IDX 45 56 48 57 57 58 71 59 46 60 47 61 56 63 72 64 49 65 38 66
REMARK SMILES IDX 39 67 43 68 40 69 42 70 41 71 60 72 61 73 65 74 62 75 64 76
REMARK SMILES IDX 63 77 50 78 51 79 55 80 52 81 54 82 53 83
REMARK H PARENT 5 17 70 51 48 62
REMARK Flexibility Score: inf
ROOT
ATOM      1  O   UNL A   1      38.724  21.908  26.413  1.00  0.00    -0.374 OA
ENDROOT
BRANCH   1   2
ATOM      2  C   UNL A   1      38.296  21.309  25.182  1.00  0.00     0.202 C 
BRANCH   2   3
ATOM      3  C   UNL A   1      36.815  21.425  24.853  1.00  0.00     0.261 C 
BRANCH   3   4
ATOM      4  O   UNL A   1      36.547  22.704  24.253  1.00  0.00    -0.461 OA
BRANCH   4   5
ATOM      5  C   UNL A   1      35.847  23.603  24.977  1.00  0.00     0.333 C 
ATOM      6  O   UNL A   1      36.261  24.101  26.018  1.00  0.00    -0.249 OA
BRANCH   5   7
ATOM      7  C   UNL A   1      34.452  23.955  24.358  1.00  0.00     0.223 C 
BRANCH   7   8
ATOM      8  C   UNL A   1      33.393  22.913  24.566  1.00  0.00     0.012 C 
ATOM      9  C   UNL A   1      32.539  23.836  26.762  1.00  0.00     0.069 C 
ATOM     10  C   UNL A   1      32.571  22.883  25.619  1.00  0.00     0.064 C 
ATOM     11  N   UNL A   1      31.709  21.823  25.600  1.00  0.00    -0.160 NA
ATOM     12  C   UNL A   1      32.999  21.710  23.751  1.00  0.00     0.156 C 
ATOM     13  N   UNL A   1      31.902  21.122  24.574  1.00  0.00    -0.181 NA
ATOM     14  C   UNL A   1      32.433  21.859  22.338  1.00  0.00     0.040 C 
ENDBRANCH   7   8
BRANCH   7  15
ATOM     15  N   UNL A   1      34.245  24.571  23.070  1.00  0.00    -0.335 N 
ATOM     16  C   UNL A   1      33.470  25.612  22.703  1.00  0.00     0.252 C 
ATOM     17  H   UNL A   1      34.757  24.162  22.334  1.00  0.00     0.165 HD
ATOM     18  O   UNL A   1      33.792  26.259  21.704  1.00  0.00    -0.269 OA
BRANCH  16  19
ATOM     19  C   UNL A   1      32.185  25.874  23.348  1.00  0.00     0.047 A 
ATOM     20  C   UNL A   1      30.987  25.201  23.114  1.00  0.00     0.014 A 
ATOM     21  C   UNL A   1      32.301  26.775  24.369  1.00  0.00    -0.006 A 
ATOM     22  C   UNL A   1      29.836  25.365  23.909  1.00  0.00     0.001 A 
ATOM     23  C   UNL A   1      31.001  26.751  25.570  1.00  0.00    -0.018 A 
ATOM     24  C   UNL A   1      33.855  27.689  24.579  1.00  0.00     0.009 A 
ATOM     25  C   UNL A   1      29.838  26.075  25.125  1.00  0.00     0.009 A 
ATOM     26  C   UNL A   1      31.367  27.651  27.123  1.00  0.00     0.009 A 
ATOM     27  C   UNL A   1      34.235  28.703  25.906  1.00  0.00     0.001 A 
ATOM     28  C   UNL A   1      33.060  28.762  27.188  1.00  0.00     0.001 A 
ENDBRANCH  16  19
ENDBRANCH   7  15
ENDBRANCH   5   7
ENDBRANCH   4   5
ENDBRANCH   3   4
ENDBRANCH   2   3
ENDBRANCH   1   2
BRANCH   1  29
ATOM     29  C   UNL A   1      40.107  21.885  26.778  1.00  0.00     0.202 C 
BRANCH  29  30
ATOM     30  C   UNL A   1      40.787  23.229  26.794  1.00  0.00     0.261 C 
BRANCH  30  31
ATOM     31  O   UNL A   1      42.159  22.919  26.633  1.00  0.00    -0.460 OA
BRANCH  31  32
ATOM     32  C   UNL A   1      42.797  23.266  25.515  1.00  0.00     0.338 C 
ATOM     33  O   UNL A   1      43.217  22.474  24.684  1.00  0.00    -0.246 OA
BRANCH  32  34
ATOM     34  C   UNL A   1      43.054  24.791  25.448  1.00  0.00     0.060 A 
ATOM     35  C   UNL A   1      44.482  24.967  26.592  1.00  0.00     0.016 A 
ATOM     36  C   UNL A   1      41.951  26.473  25.221  1.00  0.00     0.016 A 
ATOM     37  C   UNL A   1      44.612  26.502  27.506  1.00  0.00     0.010 A 
ATOM     38  C   UNL A   1      42.184  27.848  26.131  1.00  0.00     0.010 A 
ATOM     39  C   UNL A   1      43.371  27.784  27.339  1.00  0.00    -0.014 A 
BRANCH  39  40
ATOM     40  C   UNL A   1      42.674  28.712  28.314  1.00  0.00     0.031 A 
ATOM     41  C   UNL A   1      43.591  29.854  28.092  1.00  0.00     0.074 A 
ATOM     42  C   UNL A   1      41.363  28.721  28.840  1.00  0.00     0.049 A 
ATOM     43  N   UNL A   1      44.697  29.933  28.767  1.00  0.00    -0.248 NA
ATOM     44  C   UNL A   1      43.723  30.543  26.758  1.00  0.00     0.031 C 
ATOM     45  C   UNL A   1      40.269  27.695  28.907  1.00  0.00     0.029 A 
ATOM     46  N   UNL A   1      40.661  29.773  29.470  1.00  0.00    -0.354 N 
ATOM     47  C   UNL A   1      45.291  31.059  28.248  1.00  0.00     0.074 A 
ATOM     48  C   UNL A   1      44.952  31.060  26.861  1.00  0.00     0.031 C 
ATOM     49  C   UNL A   1      39.064  28.224  29.299  1.00  0.00     0.029 A 
ATOM     50  C   UNL A   1      39.225  29.622  29.657  1.00  0.00     0.049 A 
ATOM     51  H   UNL A   1      41.128  30.584  29.772  1.00  0.00     0.167 HD
ATOM     52  C   UNL A   1      45.356  32.131  29.079  1.00  0.00     0.031 A 
ATOM     53  C   UNL A   1      38.307  30.529  30.199  1.00  0.00     0.031 A 
ATOM     54  C   UNL A   1      45.124  31.709  30.452  1.00  0.00     0.049 A 
ATOM     55  C   UNL A   1      39.102  31.489  30.997  1.00  0.00     0.074 A 
ATOM     56  C   UNL A   1      45.662  30.714  31.250  1.00  0.00     0.029 A 
ATOM     57  N   UNL A   1      43.848  31.932  30.910  1.00  0.00    -0.354 N 
ATOM     58  N   UNL A   1      39.737  31.139  32.076  1.00  0.00    -0.248 NA
ATOM     59  C   UNL A   1      39.640  32.604  30.243  1.00  0.00     0.031 C 
ATOM     60  C   UNL A   1      44.571  30.163  31.982  1.00  0.00     0.029 A 
ATOM     61  C   UNL A   1      43.444  30.954  31.780  1.00  0.00     0.049 A 
ATOM     62  H   UNL A   1      43.292  32.700  30.644  1.00  0.00     0.167 HD
ATOM     63  C   UNL A   1      41.027  31.565  31.817  1.00  0.00     0.074 A 
ATOM     64  C   UNL A   1      40.899  32.488  30.674  1.00  0.00     0.031 C 
ATOM     65  C   UNL A   1      42.089  30.832  32.268  1.00  0.00     0.031 A 
BRANCH  52  66
ATOM     66  C   UNL A   1      45.054  33.527  28.603  1.00  0.00    -0.014 A 
ATOM     67  C   UNL A   1      46.030  34.493  28.848  1.00  0.00     0.009 A 
ATOM     68  C   UNL A   1      43.801  33.985  28.134  1.00  0.00     0.009 A 
ATOM     69  C   UNL A   1      45.769  35.849  28.638  1.00  0.00     0.001 A 
ATOM     70  C   UNL A   1      43.546  35.335  27.890  1.00  0.00     0.001 A 
ATOM     71  C   UNL A   1      44.533  36.268  28.155  1.00  0.00     0.000 A 
ENDBRANCH  52  66
BRANCH  53  72
ATOM     72  C   UNL A   1      36.839  30.930  29.990  1.00  0.00    -0.014 A 
ATOM     73  C   UNL A   1      36.071  31.670  30.949  1.00  0.00     0.009 A 
ATOM     74  C   UNL A   1      36.317  30.932  28.692  1.00  0.00     0.009 A 
ATOM     75  C   UNL A   1      34.897  32.394  30.602  1.00  0.00     0.001 A 
ATOM     76  C   UNL A   1      35.158  31.664  28.343  1.00  0.00     0.001 A 
ATOM     77  C   UNL A   1      34.454  32.407  29.287  1.00  0.00     0.000 A 
ENDBRANCH  53  72
BRANCH  65  78
ATOM     78  C   UNL A   1      41.833  29.748  33.299  1.00  0.00    -0.014 A 
ATOM     79  C   UNL A   1      41.584  28.385  33.033  1.00  0.00     0.009 A 
ATOM     80  C   UNL A   1      41.992  30.136  34.636  1.00  0.00     0.009 A 
ATOM     81  C   UNL A   1      41.464  27.462  34.087  1.00  0.00     0.001 A 
ATOM     82  C   UNL A   1      41.896  29.216  35.679  1.00  0.00     0.001 A 
ATOM     83  C   UNL A   1      41.617  27.882  35.408  1.00  0.00     0.000 A 
ENDBRANCH  65  78
ENDBRANCH  39  40
ENDBRANCH  32  34
ENDBRANCH  31  32
ENDBRANCH  30  31
ENDBRANCH  29  30
ENDBRANCH   1  29
TORSDOF 17
ENDMDL
