MODEL 1
REMARK VINA RESULT:     -11.4      0.000      0.000
REMARK SMILES CCOC(=O)c1cccc(Nc2c(-c3ccc(C(=O)OCCOCCOC(=O)c4ccc(-c5c6nc(c(-c7ccccc7)c7ccc([nH]7)c(-c7ccccc7)c7nc(c(-c8ccccc8)c8ccc5[nH]8)C=C7)C=C6)cc4)cc3)nc3cnccn23)c1
REMARK SMILES IDX 21 1 20 2 18 3 19 4 17 5 14 6 15 7 78 8 16 9 77 10 13 11
REMARK SMILES IDX 12 12 85 13 79 14 80 15 84 16 81 17 83 18 82 19 11 20 10 22
REMARK SMILES IDX 6 23 7 24 86 25 8 26 9 27 4 28 5 29 3 30 2 31 1 32 22 33
REMARK SMILES IDX 23 34 24 35 25 36 26 37 27 38 28 39 29 40 30 41 76 42 31 43
REMARK SMILES IDX 75 44 32 45 33 46 34 47 69 48 35 49 74 50 68 51 70 52 36 53
REMARK SMILES IDX 73 54 67 55 66 56 37 58 59 59 44 60 58 61 45 62 48 63 57 64
REMARK SMILES IDX 71 65 46 66 47 67 56 69 72 70 49 71 38 72 39 73 43 74 40 75
REMARK SMILES IDX 42 76 41 77 60 78 61 79 65 80 62 81 64 82 63 83 50 84 51 85
REMARK SMILES IDX 55 86 52 87 54 88 53 89
REMARK H PARENT 11 21 70 57 48 68
REMARK Flexibility Score: inf
ROOT
ATOM      1  C   UNL A   1      39.180  19.356  25.781  1.00  0.00     0.261 C 
ENDROOT
BRANCH   1   2
ATOM      2  O   UNL A   1      38.673  20.469  25.023  1.00  0.00    -0.460 OA
BRANCH   2   3
ATOM      3  C   UNL A   1      38.489  21.605  25.737  1.00  0.00     0.338 C 
ATOM      4  O   UNL A   1      39.282  22.114  26.516  1.00  0.00    -0.246 OA
BRANCH   3   5
ATOM      5  C   UNL A   1      37.218  22.261  25.354  1.00  0.00     0.060 A 
ATOM      6  C   UNL A   1      34.949  23.668  24.498  1.00  0.00     0.004 A 
ATOM      7  C   UNL A   1      35.881  23.203  23.563  1.00  0.00     0.011 A 
ATOM      8  C   UNL A   1      35.133  23.379  25.859  1.00  0.00     0.011 A 
ATOM      9  C   UNL A   1      37.013  22.510  23.991  1.00  0.00     0.016 A 
ATOM     10  C   UNL A   1      36.258  22.664  26.289  1.00  0.00     0.016 A 
BRANCH   6  11
ATOM     11  C   UNL A   1      33.905  24.585  24.086  1.00  0.00     0.114 A 
ATOM     12  C   UNL A   1      32.746  24.276  23.377  1.00  0.00     0.143 A 
ATOM     13  N   UNL A   1      32.168  25.510  23.129  1.00  0.00    -0.283 N 
ATOM     14  N   UNL A   1      34.063  25.945  24.242  1.00  0.00    -0.225 NA
ATOM     15  C   UNL A   1      33.030  26.459  23.622  1.00  0.00     0.157 A 
ATOM     16  C   UNL A   1      30.985  25.917  22.530  1.00  0.00     0.115 A 
ATOM     17  C   UNL A   1      32.721  27.847  23.422  1.00  0.00     0.158 A 
ATOM     18  C   UNL A   1      30.753  27.235  22.397  1.00  0.00     0.129 A 
ATOM     19  N   UNL A   1      31.622  28.227  22.824  1.00  0.00    -0.259 NA
BRANCH  12  20
ATOM     20  N   UNL A   1      32.196  23.081  23.015  1.00  0.00    -0.339 N 
ATOM     21  H   UNL A   1      31.664  23.075  22.188  1.00  0.00     0.168 HD
BRANCH  20  22
ATOM     22  C   UNL A   1      32.309  21.848  23.707  1.00  0.00     0.040 A 
ATOM     23  C   UNL A   1      32.532  19.422  23.608  1.00  0.00     0.062 A 
ATOM     24  C   UNL A   1      32.484  19.345  25.001  1.00  0.00     0.016 A 
ATOM     25  C   UNL A   1      32.470  20.666  22.963  1.00  0.00     0.041 A 
ATOM     26  C   UNL A   1      32.380  20.511  25.750  1.00  0.00     0.003 A 
ATOM     27  C   UNL A   1      32.285  21.749  25.107  1.00  0.00     0.026 A 
BRANCH  23  28
ATOM     28  C   UNL A   1      32.538  18.158  22.846  1.00  0.00     0.338 C 
ATOM     29  O   UNL A   1      32.156  18.084  21.687  1.00  0.00    -0.246 OA
BRANCH  28  30
ATOM     30  O   UNL A   1      32.974  17.141  23.624  1.00  0.00    -0.462 OA
BRANCH  30  31
ATOM     31  C   UNL A   1      34.395  17.099  23.831  1.00  0.00     0.230 C 
ATOM     32  C   UNL A   1      34.777  16.195  24.992  1.00  0.00     0.049 C 
ENDBRANCH  30  31
ENDBRANCH  28  30
ENDBRANCH  23  28
ENDBRANCH  20  22
ENDBRANCH  12  20
ENDBRANCH   6  11
ENDBRANCH   3   5
ENDBRANCH   2   3
ENDBRANCH   1   2
BRANCH   1  33
ATOM     33  C   UNL A   1      40.567  19.667  26.347  1.00  0.00     0.202 C 
BRANCH  33  34
ATOM     34  O   UNL A   1      41.632  19.671  25.398  1.00  0.00    -0.374 OA
BRANCH  34  35
ATOM     35  C   UNL A   1      42.947  19.918  25.904  1.00  0.00     0.202 C 
BRANCH  35  36
ATOM     36  C   UNL A   1      43.636  21.173  25.359  1.00  0.00     0.261 C 
BRANCH  36  37
ATOM     37  O   UNL A   1      42.828  22.346  25.574  1.00  0.00    -0.460 OA
BRANCH  37  38
ATOM     38  C   UNL A   1      43.464  23.526  25.392  1.00  0.00     0.338 C 
ATOM     39  O   UNL A   1      44.345  23.779  24.580  1.00  0.00    -0.246 OA
BRANCH  38  40
ATOM     40  C   UNL A   1      42.822  24.567  26.215  1.00  0.00     0.060 A 
ATOM     41  C   UNL A   1      43.398  25.845  26.218  1.00  0.00     0.016 A 
ATOM     42  C   UNL A   1      41.714  24.286  27.016  1.00  0.00     0.016 A 
ATOM     43  C   UNL A   1      42.898  26.836  27.060  1.00  0.00     0.010 A 
ATOM     44  C   UNL A   1      41.220  25.277  27.869  1.00  0.00     0.010 A 
ATOM     45  C   UNL A   1      41.832  26.544  27.920  1.00  0.00    -0.014 A 
BRANCH  45  46
ATOM     46  C   UNL A   1      41.457  27.492  28.994  1.00  0.00     0.031 A 
ATOM     47  C   UNL A   1      42.220  27.452  30.288  1.00  0.00     0.074 A 
ATOM     48  C   UNL A   1      40.444  28.362  28.830  1.00  0.00     0.049 A 
ATOM     49  N   UNL A   1      41.991  28.092  31.405  1.00  0.00    -0.248 NA
ATOM     50  C   UNL A   1      43.394  26.566  30.327  1.00  0.00     0.031 C 
ATOM     51  C   UNL A   1      39.666  28.538  27.606  1.00  0.00     0.029 A 
ATOM     52  N   UNL A   1      39.889  29.249  29.716  1.00  0.00    -0.354 N 
ATOM     53  C   UNL A   1      42.980  27.672  32.286  1.00  0.00     0.074 A 
ATOM     54  C   UNL A   1      43.801  26.713  31.579  1.00  0.00     0.031 C 
ATOM     55  C   UNL A   1      38.717  29.464  27.826  1.00  0.00     0.029 A 
ATOM     56  C   UNL A   1      38.797  29.912  29.214  1.00  0.00     0.049 A 
ATOM     57  H   UNL A   1      40.240  29.397  30.625  1.00  0.00     0.167 HD
ATOM     58  C   UNL A   1      43.184  28.049  33.569  1.00  0.00     0.031 A 
ATOM     59  C   UNL A   1      37.940  30.759  29.818  1.00  0.00     0.031 A 
ATOM     60  C   UNL A   1      42.363  28.994  34.275  1.00  0.00     0.049 A 
ATOM     61  C   UNL A   1      38.139  31.102  31.271  1.00  0.00     0.074 A 
ATOM     62  C   UNL A   1      42.492  29.447  35.576  1.00  0.00     0.029 A 
ATOM     63  N   UNL A   1      41.254  29.626  33.737  1.00  0.00    -0.354 N 
ATOM     64  N   UNL A   1      39.080  30.704  32.093  1.00  0.00    -0.248 NA
ATOM     65  C   UNL A   1      37.155  32.012  31.879  1.00  0.00     0.031 C 
ATOM     66  C   UNL A   1      41.432  30.320  35.840  1.00  0.00     0.029 A 
ATOM     67  C   UNL A   1      40.675  30.449  34.686  1.00  0.00     0.049 A 
ATOM     68  H   UNL A   1      40.926  29.508  32.816  1.00  0.00     0.167 HD
ATOM     69  C   UNL A   1      38.821  31.338  33.302  1.00  0.00     0.074 A 
ATOM     70  C   UNL A   1      37.637  32.149  33.107  1.00  0.00     0.031 C 
ATOM     71  C   UNL A   1      39.505  31.260  34.469  1.00  0.00     0.031 A 
BRANCH  58  72
ATOM     72  C   UNL A   1      44.321  27.402  34.306  1.00  0.00    -0.014 A 
ATOM     73  C   UNL A   1      44.208  26.102  34.826  1.00  0.00     0.009 A 
ATOM     74  C   UNL A   1      45.534  28.093  34.457  1.00  0.00     0.009 A 
ATOM     75  C   UNL A   1      45.279  25.522  35.511  1.00  0.00     0.001 A 
ATOM     76  C   UNL A   1      46.609  27.500  35.119  1.00  0.00     0.001 A 
ATOM     77  C   UNL A   1      46.478  26.219  35.653  1.00  0.00     0.000 A 
ENDBRANCH  58  72
BRANCH  59  78
ATOM     78  C   UNL A   1      36.792  31.320  29.062  1.00  0.00    -0.014 A 
ATOM     79  C   UNL A   1      36.763  32.677  28.706  1.00  0.00     0.009 A 
ATOM     80  C   UNL A   1      35.708  30.502  28.704  1.00  0.00     0.009 A 
ATOM     81  C   UNL A   1      35.663  33.208  28.028  1.00  0.00     0.001 A 
ATOM     82  C   UNL A   1      34.622  31.029  28.003  1.00  0.00     0.001 A 
ATOM     83  C   UNL A   1      34.597  32.383  27.673  1.00  0.00     0.000 A 
ENDBRANCH  59  78
BRANCH  71  84
ATOM     84  C   UNL A   1      39.029  32.110  35.612  1.00  0.00    -0.014 A 
ATOM     85  C   UNL A   1      38.156  31.603  36.586  1.00  0.00     0.009 A 
ATOM     86  C   UNL A   1      39.522  33.418  35.751  1.00  0.00     0.009 A 
ATOM     87  C   UNL A   1      37.770  32.399  37.667  1.00  0.00     0.001 A 
ATOM     88  C   UNL A   1      39.154  34.201  36.845  1.00  0.00     0.001 A 
ATOM     89  C   UNL A   1      38.274  33.694  37.798  1.00  0.00     0.000 A 
ENDBRANCH  71  84
ENDBRANCH  45  46
ENDBRANCH  38  40
ENDBRANCH  37  38
ENDBRANCH  36  37
ENDBRANCH  35  36
ENDBRANCH  34  35
ENDBRANCH  33  34
ENDBRANCH   1  33
TORSDOF 20
ENDMDL
MODEL 2
REMARK VINA RESULT:     -11.3      5.211     10.424
REMARK SMILES CCOC(=O)c1cccc(Nc2c(-c3ccc(C(=O)OCCOCCOC(=O)c4ccc(-c5c6nc(c(-c7ccccc7)c7ccc([nH]7)c(-c7ccccc7)c7nc(c(-c8ccccc8)c8ccc5[nH]8)C=C7)C=C6)cc4)cc3)nc3cnccn23)c1
REMARK SMILES IDX 21 1 20 2 18 3 19 4 17 5 14 6 15 7 78 8 16 9 77 10 13 11
REMARK SMILES IDX 12 12 85 13 79 14 80 15 84 16 81 17 83 18 82 19 11 20 10 22
REMARK SMILES IDX 6 23 7 24 86 25 8 26 9 27 4 28 5 29 3 30 2 31 1 32 22 33
REMARK SMILES IDX 23 34 24 35 25 36 26 37 27 38 28 39 29 40 30 41 76 42 31 43
REMARK SMILES IDX 75 44 32 45 33 46 34 47 69 48 35 49 74 50 68 51 70 52 36 53
REMARK SMILES IDX 73 54 67 55 66 56 37 58 59 59 44 60 58 61 45 62 48 63 57 64
REMARK SMILES IDX 71 65 46 66 47 67 56 69 72 70 49 71 38 72 39 73 43 74 40 75
REMARK SMILES IDX 42 76 41 77 60 78 61 79 65 80 62 81 64 82 63 83 50 84 51 85
REMARK SMILES IDX 55 86 52 87 54 88 53 89
REMARK H PARENT 11 21 70 57 48 68
REMARK Flexibility Score: inf
ROOT
ATOM      1  C   UNL A   1      33.785  33.593  28.219  1.00  0.00     0.261 C 
ENDROOT
BRANCH   1   2
ATOM      2  O   UNL A   1      33.811  32.250  27.703  1.00  0.00    -0.460 OA
BRANCH   2   3
ATOM      3  C   UNL A   1      32.613  31.782  27.278  1.00  0.00     0.338 C 
ATOM      4  O   UNL A   1      31.592  32.434  27.111  1.00  0.00    -0.246 OA
BRANCH   3   5
ATOM      5  C   UNL A   1      32.717  30.356  26.895  1.00  0.00     0.060 A 
ATOM      6  C   UNL A   1      32.983  27.732  25.942  1.00  0.00     0.004 A 
ATOM      7  C   UNL A   1      34.043  28.637  25.812  1.00  0.00     0.011 A 
ATOM      8  C   UNL A   1      31.809  28.133  26.598  1.00  0.00     0.011 A 
ATOM      9  C   UNL A   1      33.906  29.944  26.280  1.00  0.00     0.016 A 
ATOM     10  C   UNL A   1      31.678  29.439  27.088  1.00  0.00     0.016 A 
BRANCH   6  11
ATOM     11  C   UNL A   1      33.030  26.458  25.253  1.00  0.00     0.114 A 
ATOM     12  C   UNL A   1      32.355  26.108  24.086  1.00  0.00     0.143 A 
ATOM     13  N   UNL A   1      32.635  24.760  23.931  1.00  0.00    -0.283 N 
ATOM     14  N   UNL A   1      33.669  25.376  25.820  1.00  0.00    -0.225 NA
ATOM     15  C   UNL A   1      33.373  24.379  25.024  1.00  0.00     0.157 A 
ATOM     16  C   UNL A   1      32.330  23.819  22.959  1.00  0.00     0.115 A 
ATOM     17  C   UNL A   1      33.731  22.996  25.170  1.00  0.00     0.158 A 
ATOM     18  C   UNL A   1      32.718  22.545  23.154  1.00  0.00     0.129 A 
ATOM     19  N   UNL A   1      33.411  22.104  24.270  1.00  0.00    -0.259 NA
BRANCH  12  20
ATOM     20  N   UNL A   1      31.621  26.848  23.207  1.00  0.00    -0.339 N 
ATOM     21  H   UNL A   1      32.091  27.173  22.405  1.00  0.00     0.168 HD
BRANCH  20  22
ATOM     22  C   UNL A   1      30.253  27.201  23.326  1.00  0.00     0.040 A 
ATOM     23  C   UNL A   1      28.523  28.911  23.146  1.00  0.00     0.062 A 
ATOM     24  C   UNL A   1      27.558  28.004  23.589  1.00  0.00     0.016 A 
ATOM     25  C   UNL A   1      29.858  28.509  22.990  1.00  0.00     0.041 A 
ATOM     26  C   UNL A   1      27.926  26.694  23.871  1.00  0.00     0.003 A 
ATOM     27  C   UNL A   1      29.262  26.301  23.748  1.00  0.00     0.026 A 
BRANCH  23  28
ATOM     28  C   UNL A   1      28.115  30.316  22.956  1.00  0.00     0.338 C 
ATOM     29  O   UNL A   1      27.740  31.026  23.878  1.00  0.00    -0.246 OA
BRANCH  28  30
ATOM     30  O   UNL A   1      28.182  30.654  21.648  1.00  0.00    -0.462 OA
BRANCH  30  31
ATOM     31  C   UNL A   1      28.097  32.063  21.377  1.00  0.00     0.230 C 
ATOM     32  C   UNL A   1      28.011  32.354  19.888  1.00  0.00     0.049 C 
ENDBRANCH  30  31
ENDBRANCH  28  30
ENDBRANCH  23  28
ENDBRANCH  20  22
ENDBRANCH  12  20
ENDBRANCH   6  11
ENDBRANCH   3   5
ENDBRANCH   2   3
ENDBRANCH   1   2
BRANCH   1  33
ATOM     33  C   UNL A   1      34.408  33.654  29.616  1.00  0.00     0.202 C 
BRANCH  33  34
ATOM     34  O   UNL A   1      33.612  34.288  30.616  1.00  0.00    -0.374 OA
BRANCH  34  35
ATOM     35  C   UNL A   1      34.055  34.160  31.969  1.00  0.00     0.202 C 
BRANCH  35  36
ATOM     36  C   UNL A   1      35.495  33.668  32.146  1.00  0.00     0.261 C 
BRANCH  36  37
ATOM     37  O   UNL A   1      35.527  32.321  32.654  1.00  0.00    -0.460 OA
BRANCH  37  38
ATOM     38  C   UNL A   1      36.666  31.972  33.293  1.00  0.00     0.338 C 
ATOM     39  O   UNL A   1      36.893  32.028  34.495  1.00  0.00    -0.246 OA
BRANCH  38  40
ATOM     40  C   UNL A   1      37.590  31.327  32.342  1.00  0.00     0.060 A 
ATOM     41  C   UNL A   1      38.698  30.647  32.867  1.00  0.00     0.016 A 
ATOM     42  C   UNL A   1      37.412  31.434  30.962  1.00  0.00     0.016 A 
ATOM     43  C   UNL A   1      39.660  30.113  32.013  1.00  0.00     0.010 A 
ATOM     44  C   UNL A   1      38.383  30.908  30.106  1.00  0.00     0.010 A 
ATOM     45  C   UNL A   1      39.528  30.278  30.629  1.00  0.00    -0.014 A 
BRANCH  45  46
ATOM     46  C   UNL A   1      40.655  29.948  29.726  1.00  0.00     0.031 A 
ATOM     47  C   UNL A   1      40.693  28.586  29.093  1.00  0.00     0.074 A 
ATOM     48  C   UNL A   1      41.636  30.835  29.486  1.00  0.00     0.049 A 
ATOM     49  N   UNL A   1      41.636  28.032  28.374  1.00  0.00    -0.248 NA
ATOM     50  C   UNL A   1      39.512  27.733  29.302  1.00  0.00     0.031 C 
ATOM     51  C   UNL A   1      41.685  32.204  29.993  1.00  0.00     0.029 A 
ATOM     52  N   UNL A   1      42.794  30.699  28.763  1.00  0.00    -0.354 N 
ATOM     53  C   UNL A   1      41.171  26.759  28.064  1.00  0.00     0.074 A 
ATOM     54  C   UNL A   1      39.871  26.619  28.682  1.00  0.00     0.031 C 
ATOM     55  C   UNL A   1      42.828  32.779  29.582  1.00  0.00     0.029 A 
ATOM     56  C   UNL A   1      43.606  31.804  28.820  1.00  0.00     0.049 A 
ATOM     57  H   UNL A   1      43.021  29.888  28.253  1.00  0.00     0.167 HD
ATOM     58  C   UNL A   1      41.775  25.795  27.332  1.00  0.00     0.031 A 
ATOM     59  C   UNL A   1      44.851  31.994  28.340  1.00  0.00     0.031 A 
ATOM     60  C   UNL A   1      43.071  25.931  26.727  1.00  0.00     0.049 A 
ATOM     61  C   UNL A   1      45.536  30.878  27.598  1.00  0.00     0.074 A 
ATOM     62  C   UNL A   1      43.766  25.013  25.960  1.00  0.00     0.029 A 
ATOM     63  N   UNL A   1      43.870  27.059  26.826  1.00  0.00    -0.354 N 
ATOM     64  N   UNL A   1      45.087  29.681  27.305  1.00  0.00    -0.248 NA
ATOM     65  C   UNL A   1      46.904  31.139  27.121  1.00  0.00     0.031 C 
ATOM     66  C   UNL A   1      45.007  25.568  25.634  1.00  0.00     0.029 A 
ATOM     67  C   UNL A   1      45.061  26.852  26.154  1.00  0.00     0.049 A 
ATOM     68  H   UNL A   1      43.627  27.885  27.304  1.00  0.00     0.167 HD
ATOM     69  C   UNL A   1      46.099  29.061  26.584  1.00  0.00     0.074 A 
ATOM     70  C   UNL A   1      47.186  30.013  26.480  1.00  0.00     0.031 C 
ATOM     71  C   UNL A   1      46.125  27.816  26.050  1.00  0.00     0.031 A 
BRANCH  58  72
ATOM     72  C   UNL A   1      41.051  24.488  27.184  1.00  0.00    -0.014 A 
ATOM     73  C   UNL A   1      41.525  23.317  27.797  1.00  0.00     0.009 A 
ATOM     74  C   UNL A   1      39.860  24.434  26.442  1.00  0.00     0.009 A 
ATOM     75  C   UNL A   1      40.837  22.112  27.641  1.00  0.00     0.001 A 
ATOM     76  C   UNL A   1      39.162  23.233  26.310  1.00  0.00     0.001 A 
ATOM     77  C   UNL A   1      39.655  22.072  26.902  1.00  0.00     0.000 A 
ENDBRANCH  58  72
BRANCH  59  78
ATOM     78  C   UNL A   1      45.549  33.285  28.572  1.00  0.00    -0.014 A 
ATOM     79  C   UNL A   1      46.334  33.478  29.718  1.00  0.00     0.009 A 
ATOM     80  C   UNL A   1      45.419  34.339  27.653  1.00  0.00     0.009 A 
ATOM     81  C   UNL A   1      46.957  34.707  29.951  1.00  0.00     0.001 A 
ATOM     82  C   UNL A   1      46.065  35.556  27.874  1.00  0.00     0.001 A 
ATOM     83  C   UNL A   1      46.825  35.743  29.027  1.00  0.00     0.000 A 
ENDBRANCH  59  78
BRANCH  71  84
ATOM     84  C   UNL A   1      47.341  27.423  25.260  1.00  0.00    -0.014 A 
ATOM     85  C   UNL A   1      48.420  26.759  25.860  1.00  0.00     0.009 A 
ATOM     86  C   UNL A   1      47.371  27.663  23.876  1.00  0.00     0.009 A 
ATOM     87  C   UNL A   1      49.515  26.359  25.091  1.00  0.00     0.001 A 
ATOM     88  C   UNL A   1      48.455  27.241  23.107  1.00  0.00     0.001 A 
ATOM     89  C   UNL A   1      49.529  26.595  23.716  1.00  0.00     0.000 A 
ENDBRANCH  71  84
ENDBRANCH  45  46
ENDBRANCH  38  40
ENDBRANCH  37  38
ENDBRANCH  36  37
ENDBRANCH  35  36
ENDBRANCH  34  35
ENDBRANCH  33  34
ENDBRANCH   1  33
TORSDOF 20
ENDMDL
MODEL 3
REMARK VINA RESULT:     -11.1      5.077     10.133
REMARK SMILES CCOC(=O)c1cccc(Nc2c(-c3ccc(C(=O)OCCOCCOC(=O)c4ccc(-c5c6nc(c(-c7ccccc7)c7ccc([nH]7)c(-c7ccccc7)c7nc(c(-c8ccccc8)c8ccc5[nH]8)C=C7)C=C6)cc4)cc3)nc3cnccn23)c1
REMARK SMILES IDX 21 1 20 2 18 3 19 4 17 5 14 6 15 7 78 8 16 9 77 10 13 11
REMARK SMILES IDX 12 12 85 13 79 14 80 15 84 16 81 17 83 18 82 19 11 20 10 22
REMARK SMILES IDX 6 23 7 24 86 25 8 26 9 27 4 28 5 29 3 30 2 31 1 32 22 33
REMARK SMILES IDX 23 34 24 35 25 36 26 37 27 38 28 39 29 40 30 41 76 42 31 43
REMARK SMILES IDX 75 44 32 45 33 46 34 47 69 48 35 49 74 50 68 51 70 52 36 53
REMARK SMILES IDX 73 54 67 55 66 56 37 58 59 59 44 60 58 61 45 62 48 63 57 64
REMARK SMILES IDX 71 65 46 66 47 67 56 69 72 70 49 71 38 72 39 73 43 74 40 75
REMARK SMILES IDX 42 76 41 77 60 78 61 79 65 80 62 81 64 82 63 83 50 84 51 85
REMARK SMILES IDX 55 86 52 87 54 88 53 89
REMARK H PARENT 11 21 70 57 48 68
REMARK Flexibility Score: inf
ROOT
ATOM      1  C   UNL A   1      34.298  31.572  27.514  1.00  0.00     0.261 C 
ENDROOT
BRANCH   1   2
ATOM      2  O   UNL A   1      33.514  30.408  27.832  1.00  0.00    -0.460 OA
BRANCH   2   3
ATOM      3  C   UNL A   1      32.597  30.068  26.894  1.00  0.00     0.338 C 
ATOM      4  O   UNL A   1      31.917  30.834  26.227  1.00  0.00    -0.246 OA
BRANCH   3   5
ATOM      5  C   UNL A   1      32.606  28.606  26.662  1.00  0.00     0.060 A 
ATOM      6  C   UNL A   1      32.739  25.883  26.006  1.00  0.00     0.004 A 
ATOM      7  C   UNL A   1      33.899  26.666  25.991  1.00  0.00     0.011 A 
ATOM      8  C   UNL A   1      31.522  26.459  26.402  1.00  0.00     0.011 A 
ATOM      9  C   UNL A   1      33.830  28.022  26.310  1.00  0.00     0.016 A 
ATOM     10  C   UNL A   1      31.455  27.816  26.745  1.00  0.00     0.016 A 
BRANCH   6  11
ATOM     11  C   UNL A   1      32.762  24.544  25.451  1.00  0.00     0.114 A 
ATOM     12  C   UNL A   1      32.497  24.176  24.134  1.00  0.00     0.143 A 
ATOM     13  N   UNL A   1      32.522  22.791  24.164  1.00  0.00    -0.283 N 
ATOM     14  N   UNL A   1      32.908  23.447  26.271  1.00  0.00    -0.225 NA
ATOM     15  C   UNL A   1      32.717  22.426  25.473  1.00  0.00     0.157 A 
ATOM     16  C   UNL A   1      32.398  21.804  23.197  1.00  0.00     0.115 A 
ATOM     17  C   UNL A   1      32.697  21.031  25.813  1.00  0.00     0.158 A 
ATOM     18  C   UNL A   1      32.410  20.517  23.588  1.00  0.00     0.129 A 
ATOM     19  N   UNL A   1      32.543  20.103  24.905  1.00  0.00    -0.259 NA
BRANCH  12  20
ATOM     20  N   UNL A   1      32.304  24.919  23.006  1.00  0.00    -0.339 N 
ATOM     21  H   UNL A   1      32.286  24.427  22.154  1.00  0.00     0.168 HD
BRANCH  20  22
ATOM     22  C   UNL A   1      32.130  26.324  22.931  1.00  0.00     0.040 A 
ATOM     23  C   UNL A   1      30.613  28.234  22.923  1.00  0.00     0.062 A 
ATOM     24  C   UNL A   1      31.687  29.106  22.736  1.00  0.00     0.016 A 
ATOM     25  C   UNL A   1      30.832  26.854  23.046  1.00  0.00     0.041 A 
ATOM     26  C   UNL A   1      32.980  28.600  22.676  1.00  0.00     0.003 A 
ATOM     27  C   UNL A   1      33.196  27.222  22.765  1.00  0.00     0.026 A 
BRANCH  23  28
ATOM     28  C   UNL A   1      29.249  28.796  22.878  1.00  0.00     0.338 C 
ATOM     29  O   UNL A   1      28.247  28.111  23.018  1.00  0.00    -0.246 OA
BRANCH  28  30
ATOM     30  O   UNL A   1      29.296  30.124  22.623  1.00  0.00    -0.462 OA
BRANCH  30  31
ATOM     31  C   UNL A   1      28.018  30.751  22.424  1.00  0.00     0.230 C 
ATOM     32  C   UNL A   1      27.514  31.433  23.686  1.00  0.00     0.049 C 
ENDBRANCH  30  31
ENDBRANCH  28  30
ENDBRANCH  23  28
ENDBRANCH  20  22
ENDBRANCH  12  20
ENDBRANCH   6  11
ENDBRANCH   3   5
ENDBRANCH   2   3
ENDBRANCH   1   2
BRANCH   1  33
ATOM     33  C   UNL A   1      33.931  32.745  28.425  1.00  0.00     0.202 C 
BRANCH  33  34
ATOM     34  O   UNL A   1      34.940  33.143  29.351  1.00  0.00    -0.374 OA
BRANCH  34  35
ATOM     35  C   UNL A   1      34.772  32.726  30.708  1.00  0.00     0.202 C 
BRANCH  35  36
ATOM     36  C   UNL A   1      35.445  31.400  31.076  1.00  0.00     0.261 C 
BRANCH  36  37
ATOM     37  O   UNL A   1      36.107  31.487  32.353  1.00  0.00    -0.460 OA
BRANCH  37  38
ATOM     38  C   UNL A   1      37.270  32.176  32.353  1.00  0.00     0.338 C 
ATOM     39  O   UNL A   1      37.530  33.199  32.975  1.00  0.00    -0.246 OA
BRANCH  38  40
ATOM     40  C   UNL A   1      38.294  31.419  31.610  1.00  0.00     0.060 A 
ATOM     41  C   UNL A   1      39.237  30.693  32.352  1.00  0.00     0.016 A 
ATOM     42  C   UNL A   1      38.372  31.466  30.217  1.00  0.00     0.016 A 
ATOM     43  C   UNL A   1      40.290  30.050  31.706  1.00  0.00     0.010 A 
ATOM     44  C   UNL A   1      39.435  30.830  29.571  1.00  0.00     0.010 A 
ATOM     45  C   UNL A   1      40.417  30.150  30.315  1.00  0.00    -0.014 A 
BRANCH  45  46
ATOM     46  C   UNL A   1      41.657  29.696  29.643  1.00  0.00     0.031 A 
ATOM     47  C   UNL A   1      41.722  28.285  29.134  1.00  0.00     0.074 A 
ATOM     48  C   UNL A   1      42.712  30.518  29.503  1.00  0.00     0.049 A 
ATOM     49  N   UNL A   1      42.738  27.631  28.629  1.00  0.00    -0.248 NA
ATOM     50  C   UNL A   1      40.477  27.503  29.208  1.00  0.00     0.031 C 
ATOM     51  C   UNL A   1      42.754  31.922  29.903  1.00  0.00     0.029 A 
ATOM     52  N   UNL A   1      43.963  30.271  28.998  1.00  0.00    -0.354 N 
ATOM     53  C   UNL A   1      42.259  26.358  28.346  1.00  0.00     0.074 A 
ATOM     54  C   UNL A   1      40.869  26.326  28.745  1.00  0.00     0.031 C 
ATOM     55  C   UNL A   1      43.979  32.410  29.646  1.00  0.00     0.029 A 
ATOM     56  C   UNL A   1      44.816  31.342  29.104  1.00  0.00     0.049 A 
ATOM     57  H   UNL A   1      44.225  29.410  28.598  1.00  0.00     0.167 HD
ATOM     58  C   UNL A   1      42.920  25.309  27.803  1.00  0.00     0.031 A 
ATOM     59  C   UNL A   1      46.131  31.437  28.827  1.00  0.00     0.031 A 
ATOM     60  C   UNL A   1      44.303  25.337  27.416  1.00  0.00     0.049 A 
ATOM     61  C   UNL A   1      46.866  30.232  28.300  1.00  0.00     0.074 A 
ATOM     62  C   UNL A   1      45.062  24.328  26.851  1.00  0.00     0.029 A 
ATOM     63  N   UNL A   1      45.137  26.435  27.560  1.00  0.00    -0.354 N 
ATOM     64  N   UNL A   1      46.404  29.035  28.030  1.00  0.00    -0.248 NA
ATOM     65  C   UNL A   1      48.305  30.393  28.041  1.00  0.00     0.031 C 
ATOM     66  C   UNL A   1      46.369  24.800  26.696  1.00  0.00     0.029 A 
ATOM     67  C   UNL A   1      46.409  26.120  27.115  1.00  0.00     0.049 A 
ATOM     68  H   UNL A   1      44.865  27.308  27.924  1.00  0.00     0.167 HD
ATOM     69  C   UNL A   1      47.485  28.312  27.540  1.00  0.00     0.074 A 
ATOM     70  C   UNL A   1      48.625  29.205  27.547  1.00  0.00     0.031 C 
ATOM     71  C   UNL A   1      47.527  27.026  27.117  1.00  0.00     0.031 A 
BRANCH  58  72
ATOM     72  C   UNL A   1      42.158  24.026  27.638  1.00  0.00    -0.014 A 
ATOM     73  C   UNL A   1      41.332  23.805  26.524  1.00  0.00     0.009 A 
ATOM     74  C   UNL A   1      42.291  23.011  28.599  1.00  0.00     0.009 A 
ATOM     75  C   UNL A   1      40.629  22.605  26.395  1.00  0.00     0.001 A 
ATOM     76  C   UNL A   1      41.607  21.804  28.453  1.00  0.00     0.001 A 
ATOM     77  C   UNL A   1      40.770  21.605  27.356  1.00  0.00     0.000 A 
ENDBRANCH  58  72
BRANCH  59  78
ATOM     78  C   UNL A   1      46.853  32.712  29.072  1.00  0.00    -0.014 A 
ATOM     79  C   UNL A   1      47.451  32.969  30.314  1.00  0.00     0.009 A 
ATOM     80  C   UNL A   1      46.932  33.688  28.065  1.00  0.00     0.009 A 
ATOM     81  C   UNL A   1      48.096  34.185  30.552  1.00  0.00     0.001 A 
ATOM     82  C   UNL A   1      47.601  34.892  28.296  1.00  0.00     0.001 A 
ATOM     83  C   UNL A   1      48.173  35.143  29.542  1.00  0.00     0.000 A 
ENDBRANCH  59  78
BRANCH  71  84
ATOM     84  C   UNL A   1      48.833  26.516  26.575  1.00  0.00    -0.014 A 
ATOM     85  C   UNL A   1      49.259  26.833  25.278  1.00  0.00     0.009 A 
ATOM     86  C   UNL A   1      49.677  25.762  27.407  1.00  0.00     0.009 A 
ATOM     87  C   UNL A   1      50.501  26.389  24.818  1.00  0.00     0.001 A 
ATOM     88  C   UNL A   1      50.926  25.340  26.953  1.00  0.00     0.001 A 
ATOM     89  C   UNL A   1      51.335  25.649  25.656  1.00  0.00     0.000 A 
ENDBRANCH  71  84
ENDBRANCH  45  46
ENDBRANCH  38  40
ENDBRANCH  37  38
ENDBRANCH  36  37
ENDBRANCH  35  36
ENDBRANCH  34  35
ENDBRANCH  33  34
ENDBRANCH   1  33
TORSDOF 20
ENDMDL
