MODEL 1
REMARK VINA RESULT:     -12.0      0.000      0.000
REMARK SMILES COc1ccc(N2C(=O)/C(=C/c3c(C(=O)OCCOCCOC(=O)c4ccc(-c5c6nc(c(-c7ccccc7)c7ccc([nH]7)c(-c7ccccc7)c7nc(c(-c8ccccc8)c8ccc5[nH]8)C=C7)C=C6)cc4)[nH]c4cc(OC)ccc34)SC2=S)cc1
REMARK SMILES IDX 18 1 17 2 16 3 14 4 15 5 13 6 12 7 81 8 73 9 74 10 80 11
REMARK SMILES IDX 75 13 79 14 76 15 11 16 7 17 8 18 83 19 9 20 10 21 82 22
REMARK SMILES IDX 84 23 6 24 3 25 4 26 86 27 5 28 85 29 2 30 1 31 77 32 78 33
REMARK SMILES IDX 19 34 20 35 21 36 22 37 23 38 24 39 25 40 26 41 72 42 27 43
REMARK SMILES IDX 71 44 28 45 29 46 30 47 65 48 31 49 70 50 64 51 66 52 32 53
REMARK SMILES IDX 69 54 63 55 62 56 33 58 55 59 40 60 54 61 41 62 44 63 53 64
REMARK SMILES IDX 67 65 42 66 43 67 52 69 68 70 45 71 34 72 35 73 39 74 36 75
REMARK SMILES IDX 38 76 37 77 56 78 57 79 61 80 58 81 60 82 59 83 46 84 47 85
REMARK SMILES IDX 51 86 48 87 50 88 49 89
REMARK H PARENT 73 12 66 57 44 68
REMARK Flexibility Score: inf
ROOT
ATOM      1  C   UNL A   1      40.462  20.684  26.653  1.00  0.00     0.202 C 
ENDROOT
BRANCH   1   2
ATOM      2  C   UNL A   1      39.605  21.911  26.317  1.00  0.00     0.261 C 
BRANCH   2   3
ATOM      3  O   UNL A   1      38.373  21.566  25.670  1.00  0.00    -0.459 OA
BRANCH   3   4
ATOM      4  C   UNL A   1      37.421  22.547  25.718  1.00  0.00     0.355 C 
ATOM      5  O   UNL A   1      37.612  23.701  26.039  1.00  0.00    -0.244 OA
BRANCH   4   6
ATOM      6  C   UNL A   1      36.169  22.074  25.165  1.00  0.00     0.133 A 
ATOM      7  C   UNL A   1      35.060  22.667  24.563  1.00  0.00     0.016 A 
ATOM      8  C   UNL A   1      34.098  21.622  24.305  1.00  0.00     0.008 A 
ATOM      9  N   UNL A   1      35.900  20.731  25.261  1.00  0.00    -0.348 N 
ATOM     10  C   UNL A   1      34.626  20.453  24.855  1.00  0.00     0.050 A 
ATOM     11  C   UNL A   1      32.818  21.522  23.709  1.00  0.00     0.015 A 
ATOM     12  H   UNL A   1      36.542  20.056  25.580  1.00  0.00     0.167 HD
ATOM     13  C   UNL A   1      33.927  19.248  24.950  1.00  0.00     0.073 A 
ATOM     14  C   UNL A   1      32.117  20.294  23.740  1.00  0.00     0.047 A 
ATOM     15  C   UNL A   1      32.659  19.182  24.381  1.00  0.00     0.120 A 
BRANCH   7  16
ATOM     16  C   UNL A   1      34.913  24.092  24.405  1.00  0.00     0.032 C 
ATOM     17  N   UNL A   1      32.182  26.422  24.745  1.00  0.00    -0.261 N 
ATOM     18  C   UNL A   1      33.496  26.144  24.337  1.00  0.00     0.270 C 
ATOM     19  C   UNL A   1      31.633  25.518  25.649  1.00  0.00     0.152 C 
ATOM     20  O   UNL A   1      34.198  26.787  23.565  1.00  0.00    -0.268 OA
ATOM     21  C   UNL A   1      33.950  24.857  24.953  1.00  0.00     0.081 C 
ATOM     22  S   UNL A   1      32.877  24.415  26.219  1.00  0.00    -0.054 SA
ATOM     23  S   UNL A   1      30.039  25.275  26.103  1.00  0.00    -0.051 S 
BRANCH  17  24
ATOM     24  C   UNL A   1      31.442  27.514  24.181  1.00  0.00     0.051 A 
ATOM     25  C   UNL A   1      29.901  29.644  23.125  1.00  0.00     0.119 A 
ATOM     26  C   UNL A   1      29.928  28.404  22.498  1.00  0.00     0.048 A 
ATOM     27  C   UNL A   1      30.624  29.824  24.296  1.00  0.00     0.048 A 
ATOM     28  C   UNL A   1      30.710  27.354  23.001  1.00  0.00     0.030 A 
ATOM     29  C   UNL A   1      31.391  28.768  24.813  1.00  0.00     0.030 A 
BRANCH  25  30
ATOM     30  O   UNL A   1      29.115  30.592  22.533  1.00  0.00    -0.497 OA
ATOM     31  C   UNL A   1      28.048  31.068  23.345  1.00  0.00     0.278 C 
ENDBRANCH  25  30
ENDBRANCH  17  24
ENDBRANCH   7  16
BRANCH  15  32
ATOM     32  O   UNL A   1      31.998  18.004  24.598  1.00  0.00    -0.497 OA
ATOM     33  C   UNL A   1      32.681  17.081  25.435  1.00  0.00     0.278 C 
ENDBRANCH  15  32
ENDBRANCH   4   6
ENDBRANCH   3   4
ENDBRANCH   2   3
ENDBRANCH   1   2
BRANCH   1  34
ATOM     34  O   UNL A   1      41.417  20.281  25.677  1.00  0.00    -0.374 OA
BRANCH  34  35
ATOM     35  C   UNL A   1      42.803  20.440  25.978  1.00  0.00     0.202 C 
BRANCH  35  36
ATOM     36  C   UNL A   1      43.457  21.783  25.644  1.00  0.00     0.261 C 
BRANCH  36  37
ATOM     37  O   UNL A   1      42.958  22.867  26.456  1.00  0.00    -0.460 OA
BRANCH  37  38
ATOM     38  C   UNL A   1      42.967  24.079  25.850  1.00  0.00     0.338 C 
ATOM     39  O   UNL A   1      43.293  24.320  24.699  1.00  0.00    -0.246 OA
BRANCH  38  40
ATOM     40  C   UNL A   1      42.411  25.123  26.733  1.00  0.00     0.060 A 
ATOM     41  C   UNL A   1      43.119  26.324  26.836  1.00  0.00     0.016 A 
ATOM     42  C   UNL A   1      41.304  24.886  27.555  1.00  0.00     0.016 A 
ATOM     43  C   UNL A   1      42.746  27.269  27.790  1.00  0.00     0.010 A 
ATOM     44  C   UNL A   1      40.941  25.834  28.523  1.00  0.00     0.010 A 
ATOM     45  C   UNL A   1      41.673  27.022  28.662  1.00  0.00    -0.014 A 
BRANCH  45  46
ATOM     46  C   UNL A   1      41.427  27.970  29.783  1.00  0.00     0.031 A 
ATOM     47  C   UNL A   1      40.226  28.874  29.715  1.00  0.00     0.074 A 
ATOM     48  C   UNL A   1      42.201  27.972  30.885  1.00  0.00     0.049 A 
ATOM     49  N   UNL A   1      39.753  29.694  30.618  1.00  0.00    -0.248 NA
ATOM     50  C   UNL A   1      39.462  28.857  28.456  1.00  0.00     0.031 C 
ATOM     51  C   UNL A   1      43.378  27.134  31.089  1.00  0.00     0.029 A 
ATOM     52  N   UNL A   1      42.063  28.645  32.078  1.00  0.00    -0.354 N 
ATOM     53  C   UNL A   1      38.664  30.319  30.023  1.00  0.00     0.074 A 
ATOM     54  C   UNL A   1      38.513  29.746  28.703  1.00  0.00     0.031 C 
ATOM     55  C   UNL A   1      43.760  27.222  32.375  1.00  0.00     0.029 A 
ATOM     56  C   UNL A   1      42.914  28.193  33.062  1.00  0.00     0.049 A 
ATOM     57  H   UNL A   1      41.419  29.377  32.213  1.00  0.00     0.167 HD
ATOM     58  C   UNL A   1      37.896  31.323  30.507  1.00  0.00     0.031 A 
ATOM     59  C   UNL A   1      42.985  28.518  34.370  1.00  0.00     0.031 A 
ATOM     60  C   UNL A   1      38.088  31.946  31.786  1.00  0.00     0.049 A 
ATOM     61  C   UNL A   1      42.105  29.624  34.890  1.00  0.00     0.074 A 
ATOM     62  C   UNL A   1      37.453  33.058  32.312  1.00  0.00     0.029 A 
ATOM     63  N   UNL A   1      38.991  31.508  32.741  1.00  0.00    -0.354 N 
ATOM     64  N   UNL A   1      41.111  30.241  34.301  1.00  0.00    -0.248 NA
ATOM     65  C   UNL A   1      42.392  30.109  36.250  1.00  0.00     0.031 C 
ATOM     66  C   UNL A   1      38.001  33.316  33.574  1.00  0.00     0.029 A 
ATOM     67  C   UNL A   1      38.939  32.334  33.850  1.00  0.00     0.049 A 
ATOM     68  H   UNL A   1      39.581  30.727  32.646  1.00  0.00     0.167 HD
ATOM     69  C   UNL A   1      40.673  31.201  35.205  1.00  0.00     0.074 A 
ATOM     70  C   UNL A   1      41.464  31.042  36.408  1.00  0.00     0.031 C 
ATOM     71  C   UNL A   1      39.729  32.157  35.039  1.00  0.00     0.031 A 
BRANCH  58  72
ATOM     72  C   UNL A   1      36.863  31.887  29.577  1.00  0.00    -0.014 A 
ATOM     73  C   UNL A   1      37.111  33.036  28.812  1.00  0.00     0.009 A 
ATOM     74  C   UNL A   1      35.608  31.265  29.491  1.00  0.00     0.009 A 
ATOM     75  C   UNL A   1      36.105  33.569  28.002  1.00  0.00     0.001 A 
ATOM     76  C   UNL A   1      34.613  31.787  28.666  1.00  0.00     0.001 A 
ATOM     77  C   UNL A   1      34.859  32.944  27.930  1.00  0.00     0.000 A 
ENDBRANCH  58  72
BRANCH  59  78
ATOM     78  C   UNL A   1      43.912  27.812  35.301  1.00  0.00    -0.014 A 
ATOM     79  C   UNL A   1      45.238  28.261  35.439  1.00  0.00     0.009 A 
ATOM     80  C   UNL A   1      43.516  26.669  36.010  1.00  0.00     0.009 A 
ATOM     81  C   UNL A   1      46.145  27.578  36.254  1.00  0.00     0.001 A 
ATOM     82  C   UNL A   1      44.417  26.004  36.847  1.00  0.00     0.001 A 
ATOM     83  C   UNL A   1      45.732  26.454  36.962  1.00  0.00     0.000 A 
ENDBRANCH  59  78
BRANCH  71  84
ATOM     84  C   UNL A   1      39.508  33.114  36.175  1.00  0.00    -0.014 A 
ATOM     85  C   UNL A   1      40.218  34.323  36.244  1.00  0.00     0.009 A 
ATOM     86  C   UNL A   1      38.536  32.836  37.148  1.00  0.00     0.009 A 
ATOM     87  C   UNL A   1      39.976  35.225  37.281  1.00  0.00     0.001 A 
ATOM     88  C   UNL A   1      38.280  33.751  38.171  1.00  0.00     0.001 A 
ATOM     89  C   UNL A   1      39.004  34.941  38.240  1.00  0.00     0.000 A 
ENDBRANCH  71  84
ENDBRANCH  45  46
ENDBRANCH  38  40
ENDBRANCH  37  38
ENDBRANCH  36  37
ENDBRANCH  35  36
ENDBRANCH  34  35
ENDBRANCH   1  34
TORSDOF 18
ENDMDL
MODEL 2
REMARK VINA RESULT:     -11.9      3.621      6.903
REMARK SMILES COc1ccc(N2C(=O)/C(=C/c3c(C(=O)OCCOCCOC(=O)c4ccc(-c5c6nc(c(-c7ccccc7)c7ccc([nH]7)c(-c7ccccc7)c7nc(c(-c8ccccc8)c8ccc5[nH]8)C=C7)C=C6)cc4)[nH]c4cc(OC)ccc34)SC2=S)cc1
REMARK SMILES IDX 18 1 17 2 16 3 14 4 15 5 13 6 12 7 81 8 73 9 74 10 80 11
REMARK SMILES IDX 75 13 79 14 76 15 11 16 7 17 8 18 83 19 9 20 10 21 82 22
REMARK SMILES IDX 84 23 6 24 3 25 4 26 86 27 5 28 85 29 2 30 1 31 77 32 78 33
REMARK SMILES IDX 19 34 20 35 21 36 22 37 23 38 24 39 25 40 26 41 72 42 27 43
REMARK SMILES IDX 71 44 28 45 29 46 30 47 65 48 31 49 70 50 64 51 66 52 32 53
REMARK SMILES IDX 69 54 63 55 62 56 33 58 55 59 40 60 54 61 41 62 44 63 53 64
REMARK SMILES IDX 67 65 42 66 43 67 52 69 68 70 45 71 34 72 35 73 39 74 36 75
REMARK SMILES IDX 38 76 37 77 56 78 57 79 61 80 58 81 60 82 59 83 46 84 47 85
REMARK SMILES IDX 51 86 48 87 50 88 49 89
REMARK H PARENT 73 12 66 57 44 68
REMARK Flexibility Score: inf
ROOT
ATOM      1  C   UNL A   1      38.760  22.015  25.784  1.00  0.00     0.202 C 
ENDROOT
BRANCH   1   2
ATOM      2  C   UNL A   1      37.766  23.172  25.938  1.00  0.00     0.261 C 
BRANCH   2   3
ATOM      3  O   UNL A   1      36.501  22.750  26.461  1.00  0.00    -0.459 OA
BRANCH   3   4
ATOM      4  C   UNL A   1      35.428  23.107  25.691  1.00  0.00     0.355 C 
ATOM      5  O   UNL A   1      35.157  24.236  25.339  1.00  0.00    -0.244 OA
BRANCH   4   6
ATOM      6  C   UNL A   1      34.738  21.934  25.196  1.00  0.00     0.133 A 
ATOM      7  C   UNL A   1      33.419  21.615  24.879  1.00  0.00     0.016 A 
ATOM      8  C   UNL A   1      33.388  20.222  24.505  1.00  0.00     0.008 A 
ATOM      9  N   UNL A   1      35.479  20.792  25.014  1.00  0.00    -0.348 N 
ATOM     10  C   UNL A   1      34.678  19.729  24.708  1.00  0.00     0.050 A 
ATOM     11  C   UNL A   1      32.417  19.294  24.057  1.00  0.00     0.015 A 
ATOM     12  H   UNL A   1      36.459  20.746  25.094  1.00  0.00     0.167 HD
ATOM     13  C   UNL A   1      35.025  18.380  24.608  1.00  0.00     0.073 A 
ATOM     14  C   UNL A   1      32.764  17.933  23.889  1.00  0.00     0.047 A 
ATOM     15  C   UNL A   1      34.047  17.483  24.192  1.00  0.00     0.120 A 
BRANCH   7  16
ATOM     16  C   UNL A   1      32.317  22.527  25.068  1.00  0.00     0.032 C 
ATOM     17  N   UNL A   1      31.250  25.588  23.490  1.00  0.00    -0.261 N 
ATOM     18  C   UNL A   1      31.134  24.656  24.533  1.00  0.00     0.270 C 
ATOM     19  C   UNL A   1      31.903  25.131  22.350  1.00  0.00     0.152 C 
ATOM     20  O   UNL A   1      30.598  24.809  25.625  1.00  0.00    -0.268 OA
ATOM     21  C   UNL A   1      31.835  23.389  24.153  1.00  0.00     0.081 C 
ATOM     22  S   UNL A   1      32.162  23.396  22.467  1.00  0.00    -0.054 SA
ATOM     23  S   UNL A   1      32.553  25.980  21.060  1.00  0.00    -0.051 S 
BRANCH  17  24
ATOM     24  C   UNL A   1      30.805  26.943  23.648  1.00  0.00     0.051 A 
ATOM     25  C   UNL A   1      29.972  29.642  23.872  1.00  0.00     0.119 A 
ATOM     26  C   UNL A   1      31.165  29.214  24.441  1.00  0.00     0.048 A 
ATOM     27  C   UNL A   1      29.197  28.731  23.166  1.00  0.00     0.048 A 
ATOM     28  C   UNL A   1      31.570  27.874  24.357  1.00  0.00     0.030 A 
ATOM     29  C   UNL A   1      29.610  27.394  23.062  1.00  0.00     0.030 A 
BRANCH  25  30
ATOM     30  O   UNL A   1      29.678  30.966  24.034  1.00  0.00    -0.497 OA
ATOM     31  C   UNL A   1      28.399  31.353  23.544  1.00  0.00     0.278 C 
ENDBRANCH  25  30
ENDBRANCH  17  24
ENDBRANCH   7  16
BRANCH  15  32
ATOM     32  O   UNL A   1      34.431  16.170  24.211  1.00  0.00    -0.497 OA
ATOM     33  C   UNL A   1      35.202  15.791  25.343  1.00  0.00     0.278 C 
ENDBRANCH  15  32
ENDBRANCH   4   6
ENDBRANCH   3   4
ENDBRANCH   2   3
ENDBRANCH   1   2
BRANCH   1  34
ATOM     34  O   UNL A   1      38.301  20.864  25.081  1.00  0.00    -0.374 OA
BRANCH  34  35
ATOM     35  C   UNL A   1      38.984  19.627  25.285  1.00  0.00     0.202 C 
BRANCH  35  36
ATOM     36  C   UNL A   1      40.235  19.639  26.168  1.00  0.00     0.261 C 
BRANCH  36  37
ATOM     37  O   UNL A   1      41.344  18.929  25.580  1.00  0.00    -0.460 OA
BRANCH  37  38
ATOM     38  C   UNL A   1      42.514  19.611  25.573  1.00  0.00     0.338 C 
ATOM     39  O   UNL A   1      43.549  19.283  25.015  1.00  0.00    -0.246 OA
BRANCH  38  40
ATOM     40  C   UNL A   1      42.379  20.914  26.254  1.00  0.00     0.060 A 
ATOM     41  C   UNL A   1      42.485  22.065  25.468  1.00  0.00     0.016 A 
ATOM     42  C   UNL A   1      42.296  21.016  27.646  1.00  0.00     0.016 A 
ATOM     43  C   UNL A   1      42.552  23.317  26.078  1.00  0.00     0.010 A 
ATOM     44  C   UNL A   1      42.377  22.277  28.257  1.00  0.00     0.010 A 
ATOM     45  C   UNL A   1      42.527  23.434  27.478  1.00  0.00    -0.014 A 
BRANCH  45  46
ATOM     46  C   UNL A   1      42.787  24.766  28.091  1.00  0.00     0.031 A 
ATOM     47  C   UNL A   1      44.208  25.248  28.194  1.00  0.00     0.074 A 
ATOM     48  C   UNL A   1      41.779  25.574  28.469  1.00  0.00     0.049 A 
ATOM     49  N   UNL A   1      44.662  26.412  28.585  1.00  0.00    -0.248 NA
ATOM     50  C   UNL A   1      45.258  24.288  27.815  1.00  0.00     0.031 C 
ATOM     51  C   UNL A   1      40.360  25.239  28.402  1.00  0.00     0.029 A 
ATOM     52  N   UNL A   1      41.791  26.878  28.907  1.00  0.00    -0.354 N 
ATOM     53  C   UNL A   1      46.047  26.309  28.537  1.00  0.00     0.074 A 
ATOM     54  C   UNL A   1      46.359  24.990  28.030  1.00  0.00     0.031 C 
ATOM     55  C   UNL A   1      39.637  26.349  28.630  1.00  0.00     0.029 A 
ATOM     56  C   UNL A   1      40.538  27.451  28.952  1.00  0.00     0.049 A 
ATOM     57  H   UNL A   1      42.613  27.355  29.162  1.00  0.00     0.167 HD
ATOM     58  C   UNL A   1      46.977  27.207  28.938  1.00  0.00     0.031 A 
ATOM     59  C   UNL A   1      40.171  28.724  29.208  1.00  0.00     0.031 A 
ATOM     60  C   UNL A   1      46.672  28.489  29.511  1.00  0.00     0.049 A 
ATOM     61  C   UNL A   1      41.226  29.712  29.631  1.00  0.00     0.074 A 
ATOM     62  C   UNL A   1      47.535  29.413  30.072  1.00  0.00     0.029 A 
ATOM     63  N   UNL A   1      45.397  29.022  29.597  1.00  0.00    -0.354 N 
ATOM     64  N   UNL A   1      42.531  29.585  29.629  1.00  0.00    -0.248 NA
ATOM     65  C   UNL A   1      40.749  31.009  30.138  1.00  0.00     0.031 C 
ATOM     66  C   UNL A   1      46.774  30.494  30.535  1.00  0.00     0.029 A 
ATOM     67  C   UNL A   1      45.447  30.260  30.214  1.00  0.00     0.049 A 
ATOM     68  H   UNL A   1      44.578  28.587  29.270  1.00  0.00     0.167 HD
ATOM     69  C   UNL A   1      43.026  30.772  30.156  1.00  0.00     0.074 A 
ATOM     70  C   UNL A   1      41.888  31.632  30.404  1.00  0.00     0.031 C 
ATOM     71  C   UNL A   1      44.306  31.104  30.447  1.00  0.00     0.031 A 
BRANCH  58  72
ATOM     72  C   UNL A   1      48.408  26.762  28.884  1.00  0.00    -0.014 A 
ATOM     73  C   UNL A   1      48.956  25.927  29.868  1.00  0.00     0.009 A 
ATOM     74  C   UNL A   1      49.227  27.216  27.838  1.00  0.00     0.009 A 
ATOM     75  C   UNL A   1      50.309  25.581  29.821  1.00  0.00     0.001 A 
ATOM     76  C   UNL A   1      50.571  26.852  27.782  1.00  0.00     0.001 A 
ATOM     77  C   UNL A   1      51.113  26.043  28.778  1.00  0.00     0.000 A 
ENDBRANCH  58  72
BRANCH  59  78
ATOM     78  C   UNL A   1      38.752  29.167  29.085  1.00  0.00    -0.014 A 
ATOM     79  C   UNL A   1      37.882  29.035  30.182  1.00  0.00     0.009 A 
ATOM     80  C   UNL A   1      38.237  29.667  27.880  1.00  0.00     0.009 A 
ATOM     81  C   UNL A   1      36.533  29.381  30.073  1.00  0.00     0.001 A 
ATOM     82  C   UNL A   1      36.894  30.039  27.781  1.00  0.00     0.001 A 
ATOM     83  C   UNL A   1      36.041  29.888  28.874  1.00  0.00     0.000 A 
ENDBRANCH  59  78
BRANCH  71  84
ATOM     84  C   UNL A   1      44.544  32.445  31.080  1.00  0.00    -0.014 A 
ATOM     85  C   UNL A   1      44.555  32.588  32.476  1.00  0.00     0.009 A 
ATOM     86  C   UNL A   1      44.826  33.560  30.276  1.00  0.00     0.009 A 
ATOM     87  C   UNL A   1      44.820  33.830  33.056  1.00  0.00     0.001 A 
ATOM     88  C   UNL A   1      45.112  34.796  30.860  1.00  0.00     0.001 A 
ATOM     89  C   UNL A   1      45.103  34.931  32.248  1.00  0.00     0.000 A 
ENDBRANCH  71  84
ENDBRANCH  45  46
ENDBRANCH  38  40
ENDBRANCH  37  38
ENDBRANCH  36  37
ENDBRANCH  35  36
ENDBRANCH  34  35
ENDBRANCH   1  34
TORSDOF 18
ENDMDL
MODEL 3
REMARK VINA RESULT:     -11.9      3.429      4.643
REMARK SMILES COc1ccc(N2C(=O)/C(=C/c3c(C(=O)OCCOCCOC(=O)c4ccc(-c5c6nc(c(-c7ccccc7)c7ccc([nH]7)c(-c7ccccc7)c7nc(c(-c8ccccc8)c8ccc5[nH]8)C=C7)C=C6)cc4)[nH]c4cc(OC)ccc34)SC2=S)cc1
REMARK SMILES IDX 18 1 17 2 16 3 14 4 15 5 13 6 12 7 81 8 73 9 74 10 80 11
REMARK SMILES IDX 75 13 79 14 76 15 11 16 7 17 8 18 83 19 9 20 10 21 82 22
REMARK SMILES IDX 84 23 6 24 3 25 4 26 86 27 5 28 85 29 2 30 1 31 77 32 78 33
REMARK SMILES IDX 19 34 20 35 21 36 22 37 23 38 24 39 25 40 26 41 72 42 27 43
REMARK SMILES IDX 71 44 28 45 29 46 30 47 65 48 31 49 70 50 64 51 66 52 32 53
REMARK SMILES IDX 69 54 63 55 62 56 33 58 55 59 40 60 54 61 41 62 44 63 53 64
REMARK SMILES IDX 67 65 42 66 43 67 52 69 68 70 45 71 34 72 35 73 39 74 36 75
REMARK SMILES IDX 38 76 37 77 56 78 57 79 61 80 58 81 60 82 59 83 46 84 47 85
REMARK SMILES IDX 51 86 48 87 50 88 49 89
REMARK H PARENT 73 12 66 57 44 68
REMARK Flexibility Score: inf
ROOT
ATOM      1  C   UNL A   1      37.036  23.184  24.826  1.00  0.00     0.202 C 
ENDROOT
BRANCH   1   2
ATOM      2  C   UNL A   1      35.782  23.760  25.495  1.00  0.00     0.261 C 
BRANCH   2   3
ATOM      3  O   UNL A   1      35.345  22.982  26.616  1.00  0.00    -0.459 OA
BRANCH   3   4
ATOM      4  C   UNL A   1      33.999  22.738  26.639  1.00  0.00     0.355 C 
ATOM      5  O   UNL A   1      33.178  23.366  27.275  1.00  0.00    -0.244 OA
BRANCH   4   6
ATOM      6  C   UNL A   1      33.644  21.729  25.663  1.00  0.00     0.133 A 
ATOM      7  C   UNL A   1      32.643  21.582  24.703  1.00  0.00     0.016 A 
ATOM      8  C   UNL A   1      32.809  20.280  24.102  1.00  0.00     0.008 A 
ATOM      9  N   UNL A   1      34.390  20.577  25.641  1.00  0.00    -0.348 N 
ATOM     10  C   UNL A   1      33.845  19.653  24.795  1.00  0.00     0.050 A 
ATOM     11  C   UNL A   1      32.183  19.529  23.079  1.00  0.00     0.015 A 
ATOM     12  H   UNL A   1      35.210  20.435  26.166  1.00  0.00     0.167 HD
ATOM     13  C   UNL A   1      34.209  18.317  24.617  1.00  0.00     0.073 A 
ATOM     14  C   UNL A   1      32.579  18.192  22.839  1.00  0.00     0.047 A 
ATOM     15  C   UNL A   1      33.561  17.590  23.624  1.00  0.00     0.120 A 
BRANCH   7  16
ATOM     16  C   UNL A   1      31.580  22.537  24.516  1.00  0.00     0.032 C 
ATOM     17  N   UNL A   1      31.395  25.941  23.339  1.00  0.00    -0.261 N 
ATOM     18  C   UNL A   1      30.787  24.834  23.950  1.00  0.00     0.270 C 
ATOM     19  C   UNL A   1      32.544  25.662  22.606  1.00  0.00     0.152 C 
ATOM     20  O   UNL A   1      29.770  24.815  24.634  1.00  0.00    -0.268 OA
ATOM     21  C   UNL A   1      31.609  23.608  23.700  1.00  0.00     0.081 C 
ATOM     22  S   UNL A   1      32.744  23.923  22.449  1.00  0.00    -0.054 SA
ATOM     23  S   UNL A   1      33.740  26.687  22.035  1.00  0.00    -0.051 S 
BRANCH  17  24
ATOM     24  C   UNL A   1      30.905  27.273  23.551  1.00  0.00     0.051 A 
ATOM     25  C   UNL A   1      30.000  29.935  23.896  1.00  0.00     0.119 A 
ATOM     26  C   UNL A   1      31.033  29.426  24.674  1.00  0.00     0.048 A 
ATOM     27  C   UNL A   1      29.426  29.127  22.925  1.00  0.00     0.048 A 
ATOM     28  C   UNL A   1      31.468  28.101  24.526  1.00  0.00     0.030 A 
ATOM     29  C   UNL A   1      29.873  27.806  22.760  1.00  0.00     0.030 A 
BRANCH  25  30
ATOM     30  O   UNL A   1      29.656  31.234  24.144  1.00  0.00    -0.497 OA
ATOM     31  C   UNL A   1      28.443  31.652  23.528  1.00  0.00     0.278 C 
ENDBRANCH  25  30
ENDBRANCH  17  24
ENDBRANCH   7  16
BRANCH  15  32
ATOM     32  O   UNL A   1      33.900  16.266  23.572  1.00  0.00    -0.497 OA
ATOM     33  C   UNL A   1      34.004  15.628  24.838  1.00  0.00     0.278 C 
ENDBRANCH  15  32
ENDBRANCH   4   6
ENDBRANCH   3   4
ENDBRANCH   2   3
ENDBRANCH   1   2
BRANCH   1  34
ATOM     34  O   UNL A   1      36.947  21.851  24.334  1.00  0.00    -0.374 OA
BRANCH  34  35
ATOM     35  C   UNL A   1      37.758  20.847  24.944  1.00  0.00     0.202 C 
BRANCH  35  36
ATOM     36  C   UNL A   1      39.013  21.301  25.694  1.00  0.00     0.261 C 
BRANCH  36  37
ATOM     37  O   UNL A   1      39.706  20.212  26.339  1.00  0.00    -0.460 OA
BRANCH  37  38
ATOM     38  C   UNL A   1      41.029  20.137  26.057  1.00  0.00     0.338 C 
ATOM     39  O   UNL A   1      41.591  19.269  25.408  1.00  0.00    -0.246 OA
BRANCH  38  40
ATOM     40  C   UNL A   1      41.750  21.327  26.548  1.00  0.00     0.060 A 
ATOM     41  C   UNL A   1      41.747  21.559  27.927  1.00  0.00     0.016 A 
ATOM     42  C   UNL A   1      42.294  22.276  25.676  1.00  0.00     0.016 A 
ATOM     43  C   UNL A   1      42.249  22.758  28.430  1.00  0.00     0.010 A 
ATOM     44  C   UNL A   1      42.785  23.487  26.185  1.00  0.00     0.010 A 
ATOM     45  C   UNL A   1      42.746  23.746  27.563  1.00  0.00    -0.014 A 
BRANCH  45  46
ATOM     46  C   UNL A   1      43.098  25.080  28.123  1.00  0.00     0.031 A 
ATOM     47  C   UNL A   1      41.989  26.047  28.437  1.00  0.00     0.074 A 
ATOM     48  C   UNL A   1      44.369  25.399  28.433  1.00  0.00     0.049 A 
ATOM     49  N   UNL A   1      42.049  27.212  29.030  1.00  0.00    -0.248 NA
ATOM     50  C   UNL A   1      40.635  25.652  28.018  1.00  0.00     0.031 C 
ATOM     51  C   UNL A   1      45.532  24.547  28.203  1.00  0.00     0.029 A 
ATOM     52  N   UNL A   1      44.886  26.494  29.087  1.00  0.00    -0.354 N 
ATOM     53  C   UNL A   1      40.750  27.705  29.019  1.00  0.00     0.074 A 
ATOM     54  C   UNL A   1      39.916  26.692  28.409  1.00  0.00     0.031 C 
ATOM     55  C   UNL A   1      46.592  25.071  28.841  1.00  0.00     0.029 A 
ATOM     56  C   UNL A   1      46.207  26.342  29.446  1.00  0.00     0.049 A 
ATOM     57  H   UNL A   1      44.362  27.305  29.279  1.00  0.00     0.167 HD
ATOM     58  C   UNL A   1      40.301  28.916  29.421  1.00  0.00     0.031 A 
ATOM     59  C   UNL A   1      47.004  27.136  30.192  1.00  0.00     0.031 A 
ATOM     60  C   UNL A   1      41.136  29.953  29.959  1.00  0.00     0.049 A 
ATOM     61  C   UNL A   1      46.474  28.471  30.649  1.00  0.00     0.074 A 
ATOM     62  C   UNL A   1      40.803  31.259  30.271  1.00  0.00     0.029 A 
ATOM     63  N   UNL A   1      42.479  29.796  30.262  1.00  0.00    -0.354 N 
ATOM     64  N   UNL A   1      45.254  28.945  30.587  1.00  0.00    -0.248 NA
ATOM     65  C   UNL A   1      47.451  29.399  31.240  1.00  0.00     0.031 C 
ATOM     66  C   UNL A   1      41.958  31.906  30.727  1.00  0.00     0.029 A 
ATOM     67  C   UNL A   1      42.994  30.986  30.746  1.00  0.00     0.049 A 
ATOM     68  H   UNL A   1      42.991  28.964  30.149  1.00  0.00     0.167 HD
ATOM     69  C   UNL A   1      45.323  30.233  31.105  1.00  0.00     0.074 A 
ATOM     70  C   UNL A   1      46.689  30.442  31.539  1.00  0.00     0.031 C 
ATOM     71  C   UNL A   1      44.353  31.174  31.177  1.00  0.00     0.031 A 
BRANCH  58  72
ATOM     72  C   UNL A   1      38.853  29.215  29.165  1.00  0.00    -0.014 A 
ATOM     73  C   UNL A   1      38.407  29.674  27.917  1.00  0.00     0.009 A 
ATOM     74  C   UNL A   1      37.927  29.059  30.209  1.00  0.00     0.009 A 
ATOM     75  C   UNL A   1      37.062  30.001  27.731  1.00  0.00     0.001 A 
ATOM     76  C   UNL A   1      36.582  29.367  30.014  1.00  0.00     0.001 A 
ATOM     77  C   UNL A   1      36.152  29.846  28.778  1.00  0.00     0.000 A 
ENDBRANCH  58  72
BRANCH  59  78
ATOM     78  C   UNL A   1      48.386  26.723  30.569  1.00  0.00    -0.014 A 
ATOM     79  C   UNL A   1      49.464  27.038  29.721  1.00  0.00     0.009 A 
ATOM     80  C   UNL A   1      48.643  25.974  31.726  1.00  0.00     0.009 A 
ATOM     81  C   UNL A   1      50.759  26.606  30.017  1.00  0.00     0.001 A 
ATOM     82  C   UNL A   1      49.945  25.567  32.035  1.00  0.00     0.001 A 
ATOM     83  C   UNL A   1      50.999  25.875  31.177  1.00  0.00     0.000 A 
ENDBRANCH  59  78
BRANCH  71  84
ATOM     84  C   UNL A   1      44.732  32.517  31.730  1.00  0.00    -0.014 A 
ATOM     85  C   UNL A   1      45.190  33.538  30.883  1.00  0.00     0.009 A 
ATOM     86  C   UNL A   1      44.569  32.785  33.097  1.00  0.00     0.009 A 
ATOM     87  C   UNL A   1      45.500  34.797  31.400  1.00  0.00     0.001 A 
ATOM     88  C   UNL A   1      44.859  34.052  33.607  1.00  0.00     0.001 A 
ATOM     89  C   UNL A   1      45.330  35.054  32.760  1.00  0.00     0.000 A 
ENDBRANCH  71  84
ENDBRANCH  45  46
ENDBRANCH  38  40
ENDBRANCH  37  38
ENDBRANCH  36  37
ENDBRANCH  35  36
ENDBRANCH  34  35
ENDBRANCH   1  34
TORSDOF 18
ENDMDL
