MODEL 1
REMARK VINA RESULT:     -10.8      0.000      0.000
REMARK SMILES COc1nc2c(cc1C(=O)NCc1ccc(C(=O)OCCOCCOC(=O)c3ccc(-c4c5nc(c(-c6ccccc6)c6ccc([nH]6)c(-c6ccccc6)c6nc(c(-c7ccccc7)c7ccc4[nH]7)C=C6)C=C5)cc3)s1)CCC2
REMARK SMILES IDX 21 1 20 2 19 3 17 4 18 5 16 6 13 7 14 8 76 9 15 10 12 11
REMARK SMILES IDX 11 12 9 13 10 14 8 16 3 17 4 18 5 19 7 20 6 21 79 22 77 23
REMARK SMILES IDX 78 24 2 25 1 26 22 27 23 28 24 29 25 30 26 31 27 32 28 33
REMARK SMILES IDX 29 34 75 35 30 36 74 37 31 38 32 39 33 40 68 41 34 42 73 43
REMARK SMILES IDX 67 44 69 45 35 46 72 47 66 48 65 49 36 51 58 52 43 53 57 54
REMARK SMILES IDX 44 55 47 56 56 57 70 58 45 59 46 60 55 62 71 63 48 64 37 65
REMARK SMILES IDX 38 66 42 67 39 68 41 69 40 70 59 71 60 72 64 73 61 74 63 75
REMARK SMILES IDX 62 76 49 77 50 78 54 79 51 80 53 81 52 82
REMARK H PARENT 11 15 69 50 47 61
REMARK Flexibility Score: inf
ROOT
ATOM      1  C   UNL A   1      33.373  35.367  30.109  1.00  0.00     0.202 C 
ENDROOT
BRANCH   1   2
ATOM      2  C   UNL A   1      34.539  34.576  29.511  1.00  0.00     0.261 C 
BRANCH   2   3
ATOM      3  O   UNL A   1      34.089  33.266  29.141  1.00  0.00    -0.459 OA
BRANCH   3   4
ATOM      4  C   UNL A   1      34.764  32.697  28.095  1.00  0.00     0.348 C 
ATOM      5  O   UNL A   1      35.847  33.065  27.687  1.00  0.00    -0.245 OA
BRANCH   4   6
ATOM      6  C   UNL A   1      34.028  31.526  27.652  1.00  0.00     0.112 A 
ATOM      7  C   UNL A   1      33.472  29.205  27.036  1.00  0.00     0.025 A 
ATOM      8  C   UNL A   1      32.375  30.036  26.953  1.00  0.00     0.018 A 
ATOM      9  S   UNL A   1      34.845  30.025  27.634  1.00  0.00    -0.131 S 
ATOM     10  C   UNL A   1      32.700  31.381  27.292  1.00  0.00     0.028 A 
BRANCH   7  11
ATOM     11  C   UNL A   1      33.628  27.829  26.501  1.00  0.00     0.163 C 
BRANCH  11  12
ATOM     12  N   UNL A   1      32.402  27.269  25.989  1.00  0.00    -0.347 N 
ATOM     13  C   UNL A   1      32.223  26.098  25.288  1.00  0.00     0.257 C 
ATOM     14  O   UNL A   1      31.072  25.708  25.089  1.00  0.00    -0.269 OA
ATOM     15  H   UNL A   1      31.587  27.793  26.162  1.00  0.00     0.164 HD
BRANCH  13  16
ATOM     16  C   UNL A   1      33.343  25.341  24.667  1.00  0.00     0.102 A 
ATOM     17  C   UNL A   1      33.705  25.336  23.312  1.00  0.00     0.226 A 
ATOM     18  N   UNL A   1      34.607  24.481  22.766  1.00  0.00    -0.218 NA
ATOM     19  C   UNL A   1      35.239  23.675  23.631  1.00  0.00     0.048 A 
ATOM     20  C   UNL A   1      34.110  24.552  25.542  1.00  0.00     0.025 A 
ATOM     21  C   UNL A   1      35.071  23.718  25.006  1.00  0.00    -0.025 A 
ATOM     22  C   UNL A   1      36.242  22.629  23.237  1.00  0.00     0.057 C 
ATOM     23  C   UNL A   1      36.048  22.823  25.690  1.00  0.00     0.038 C 
ATOM     24  C   UNL A   1      36.407  21.854  24.556  1.00  0.00     0.011 C 
BRANCH  17  25
ATOM     25  O   UNL A   1      33.124  26.155  22.382  1.00  0.00    -0.480 OA
ATOM     26  C   UNL A   1      32.697  25.420  21.243  1.00  0.00     0.280 C 
ENDBRANCH  17  25
ENDBRANCH  13  16
ENDBRANCH  11  12
ENDBRANCH   7  11
ENDBRANCH   4   6
ENDBRANCH   3   4
ENDBRANCH   2   3
ENDBRANCH   1   2
BRANCH   1  27
ATOM     27  O   UNL A   1      32.931  34.918  31.391  1.00  0.00    -0.374 OA
BRANCH  27  28
ATOM     28  C   UNL A   1      33.894  34.908  32.448  1.00  0.00     0.202 C 
BRANCH  28  29
ATOM     29  C   UNL A   1      34.016  33.594  33.228  1.00  0.00     0.261 C 
BRANCH  29  30
ATOM     30  O   UNL A   1      34.934  32.696  32.574  1.00  0.00    -0.460 OA
BRANCH  30  31
ATOM     31  C   UNL A   1      36.069  32.428  33.261  1.00  0.00     0.338 C 
ATOM     32  O   UNL A   1      36.292  32.628  34.442  1.00  0.00    -0.246 OA
BRANCH  31  33
ATOM     33  C   UNL A   1      36.980  31.651  32.404  1.00  0.00     0.060 A 
ATOM     34  C   UNL A   1      38.034  30.970  33.025  1.00  0.00     0.016 A 
ATOM     35  C   UNL A   1      36.860  31.667  31.013  1.00  0.00     0.016 A 
ATOM     36  C   UNL A   1      38.997  30.328  32.253  1.00  0.00     0.010 A 
ATOM     37  C   UNL A   1      37.841  31.043  30.238  1.00  0.00     0.010 A 
ATOM     38  C   UNL A   1      38.929  30.402  30.856  1.00  0.00    -0.014 A 
BRANCH  38  39
ATOM     39  C   UNL A   1      40.090  29.951  30.058  1.00  0.00     0.031 A 
ATOM     40  C   UNL A   1      41.240  30.897  29.858  1.00  0.00     0.074 A 
ATOM     41  C   UNL A   1      40.145  28.702  29.566  1.00  0.00     0.049 A 
ATOM     42  N   UNL A   1      42.362  30.707  29.214  1.00  0.00    -0.248 NA
ATOM     43  C   UNL A   1      41.115  32.229  30.474  1.00  0.00     0.031 C 
ATOM     44  C   UNL A   1      39.122  27.675  29.748  1.00  0.00     0.029 A 
ATOM     45  N   UNL A   1      41.116  28.087  28.818  1.00  0.00    -0.354 N 
ATOM     46  C   UNL A   1      43.080  31.888  29.357  1.00  0.00     0.074 A 
ATOM     47  C   UNL A   1      42.262  32.797  30.127  1.00  0.00     0.031 C 
ATOM     48  C   UNL A   1      39.523  26.550  29.129  1.00  0.00     0.029 A 
ATOM     49  C   UNL A   1      40.816  26.788  28.489  1.00  0.00     0.049 A 
ATOM     50  H   UNL A   1      41.950  28.533  28.543  1.00  0.00     0.167 HD
ATOM     51  C   UNL A   1      44.315  32.183  28.894  1.00  0.00     0.031 A 
ATOM     52  C   UNL A   1      41.501  25.897  27.747  1.00  0.00     0.031 A 
ATOM     53  C   UNL A   1      45.124  31.290  28.113  1.00  0.00     0.049 A 
ATOM     54  C   UNL A   1      42.826  26.286  27.153  1.00  0.00     0.074 A 
ATOM     55  C   UNL A   1      46.388  31.508  27.596  1.00  0.00     0.029 A 
ATOM     56  N   UNL A   1      44.743  30.015  27.731  1.00  0.00    -0.354 N 
ATOM     57  N   UNL A   1      43.492  27.406  27.292  1.00  0.00    -0.248 NA
ATOM     58  C   UNL A   1      43.492  25.292  26.298  1.00  0.00     0.031 C 
ATOM     59  C   UNL A   1      46.758  30.375  26.865  1.00  0.00     0.029 A 
ATOM     60  C   UNL A   1      45.740  29.441  26.964  1.00  0.00     0.049 A 
ATOM     61  H   UNL A   1      43.892  29.581  27.972  1.00  0.00     0.167 HD
ATOM     62  C   UNL A   1      44.660  27.248  26.557  1.00  0.00     0.074 A 
ATOM     63  C   UNL A   1      44.616  25.923  25.975  1.00  0.00     0.031 C 
ATOM     64  C   UNL A   1      45.679  28.124  26.388  1.00  0.00     0.031 A 
BRANCH  51  65
ATOM     65  C   UNL A   1      44.869  33.540  29.205  1.00  0.00    -0.014 A 
ATOM     66  C   UNL A   1      44.527  34.651  28.421  1.00  0.00     0.009 A 
ATOM     67  C   UNL A   1      45.680  33.721  30.335  1.00  0.00     0.009 A 
ATOM     68  C   UNL A   1      44.996  35.922  28.760  1.00  0.00     0.001 A 
ATOM     69  C   UNL A   1      46.134  34.995  30.680  1.00  0.00     0.001 A 
ATOM     70  C   UNL A   1      45.793  36.093  29.892  1.00  0.00     0.000 A 
ENDBRANCH  51  65
BRANCH  52  71
ATOM     71  C   UNL A   1      40.934  24.545  27.524  1.00  0.00    -0.014 A 
ATOM     72  C   UNL A   1      39.870  24.359  26.631  1.00  0.00     0.009 A 
ATOM     73  C   UNL A   1      41.479  23.429  28.179  1.00  0.00     0.009 A 
ATOM     74  C   UNL A   1      39.361  23.079  26.398  1.00  0.00     0.001 A 
ATOM     75  C   UNL A   1      40.978  22.150  27.932  1.00  0.00     0.001 A 
ATOM     76  C   UNL A   1      39.919  21.976  27.043  1.00  0.00     0.000 A 
ENDBRANCH  52  71
BRANCH  64  77
ATOM     77  C   UNL A   1      46.845  27.697  25.547  1.00  0.00    -0.014 A 
ATOM     78  C   UNL A   1      47.865  26.902  26.087  1.00  0.00     0.009 A 
ATOM     79  C   UNL A   1      46.853  27.983  24.172  1.00  0.00     0.009 A 
ATOM     80  C   UNL A   1      48.874  26.399  25.264  1.00  0.00     0.001 A 
ATOM     81  C   UNL A   1      47.854  27.465  23.350  1.00  0.00     0.001 A 
ATOM     82  C   UNL A   1      48.862  26.672  23.896  1.00  0.00     0.000 A 
ENDBRANCH  64  77
ENDBRANCH  38  39
ENDBRANCH  31  33
ENDBRANCH  30  31
ENDBRANCH  29  30
ENDBRANCH  28  29
ENDBRANCH  27  28
ENDBRANCH   1  27
TORSDOF 18
ENDMDL
MODEL 2
REMARK VINA RESULT:     -10.8      3.792      8.516
REMARK SMILES COc1nc2c(cc1C(=O)NCc1ccc(C(=O)OCCOCCOC(=O)c3ccc(-c4c5nc(c(-c6ccccc6)c6ccc([nH]6)c(-c6ccccc6)c6nc(c(-c7ccccc7)c7ccc4[nH]7)C=C6)C=C5)cc3)s1)CCC2
REMARK SMILES IDX 21 1 20 2 19 3 17 4 18 5 16 6 13 7 14 8 76 9 15 10 12 11
REMARK SMILES IDX 11 12 9 13 10 14 8 16 3 17 4 18 5 19 7 20 6 21 79 22 77 23
REMARK SMILES IDX 78 24 2 25 1 26 22 27 23 28 24 29 25 30 26 31 27 32 28 33
REMARK SMILES IDX 29 34 75 35 30 36 74 37 31 38 32 39 33 40 68 41 34 42 73 43
REMARK SMILES IDX 67 44 69 45 35 46 72 47 66 48 65 49 36 51 58 52 43 53 57 54
REMARK SMILES IDX 44 55 47 56 56 57 70 58 45 59 46 60 55 62 71 63 48 64 37 65
REMARK SMILES IDX 38 66 42 67 39 68 41 69 40 70 59 71 60 72 64 73 61 74 63 75
REMARK SMILES IDX 62 76 49 77 50 78 54 79 51 80 53 81 52 82
REMARK H PARENT 11 15 69 50 47 61
REMARK Flexibility Score: inf
ROOT
ATOM      1  C   UNL A   1      37.999  23.557  26.121  1.00  0.00     0.202 C 
ENDROOT
BRANCH   1   2
ATOM      2  C   UNL A   1      36.621  23.572  25.455  1.00  0.00     0.261 C 
BRANCH   2   3
ATOM      3  O   UNL A   1      35.603  23.461  26.459  1.00  0.00    -0.459 OA
BRANCH   3   4
ATOM      4  C   UNL A   1      34.682  22.473  26.242  1.00  0.00     0.348 C 
ATOM      5  O   UNL A   1      34.847  21.301  26.512  1.00  0.00    -0.245 OA
BRANCH   4   6
ATOM      6  C   UNL A   1      33.456  23.083  25.758  1.00  0.00     0.112 A 
ATOM      7  C   UNL A   1      31.642  23.825  24.264  1.00  0.00     0.025 A 
ATOM      8  C   UNL A   1      31.394  24.159  25.578  1.00  0.00     0.018 A 
ATOM      9  S   UNL A   1      33.078  22.917  24.099  1.00  0.00    -0.131 S 
ATOM     10  C   UNL A   1      32.451  23.745  26.440  1.00  0.00     0.028 A 
BRANCH   7  11
ATOM     11  C   UNL A   1      30.953  24.316  23.044  1.00  0.00     0.163 C 
BRANCH  11  12
ATOM     12  N   UNL A   1      31.850  24.872  22.061  1.00  0.00    -0.347 N 
ATOM     13  C   UNL A   1      32.577  26.039  22.130  1.00  0.00     0.257 C 
ATOM     14  O   UNL A   1      33.419  26.252  21.257  1.00  0.00    -0.269 OA
ATOM     15  H   UNL A   1      31.955  24.350  21.234  1.00  0.00     0.164 HD
BRANCH  13  16
ATOM     16  C   UNL A   1      32.320  27.101  23.139  1.00  0.00     0.102 A 
ATOM     17  C   UNL A   1      31.313  28.076  23.096  1.00  0.00     0.226 A 
ATOM     18  N   UNL A   1      31.242  29.139  23.938  1.00  0.00    -0.218 NA
ATOM     19  C   UNL A   1      32.156  29.163  24.917  1.00  0.00     0.048 A 
ATOM     20  C   UNL A   1      33.185  27.117  24.247  1.00  0.00     0.025 A 
ATOM     21  C   UNL A   1      33.088  28.163  25.144  1.00  0.00    -0.025 A 
ATOM     22  C   UNL A   1      32.283  30.264  25.931  1.00  0.00     0.057 C 
ATOM     23  C   UNL A   1      33.833  28.404  26.413  1.00  0.00     0.038 C 
ATOM     24  C   UNL A   1      33.627  29.914  26.594  1.00  0.00     0.011 C 
BRANCH  17  25
ATOM     25  O   UNL A   1      30.330  28.092  22.143  1.00  0.00    -0.480 OA
ATOM     26  C   UNL A   1      29.075  28.453  22.704  1.00  0.00     0.280 C 
ENDBRANCH  17  25
ENDBRANCH  13  16
ENDBRANCH  11  12
ENDBRANCH   7  11
ENDBRANCH   4   6
ENDBRANCH   3   4
ENDBRANCH   2   3
ENDBRANCH   1   2
BRANCH   1  27
ATOM     27  O   UNL A   1      38.629  22.277  26.179  1.00  0.00    -0.374 OA
BRANCH  27  28
ATOM     28  C   UNL A   1      38.132  21.263  25.301  1.00  0.00     0.202 C 
BRANCH  28  29
ATOM     29  C   UNL A   1      38.958  19.974  25.234  1.00  0.00     0.261 C 
BRANCH  29  30
ATOM     30  O   UNL A   1      39.807  19.851  26.393  1.00  0.00    -0.460 OA
BRANCH  30  31
ATOM     31  C   UNL A   1      41.132  19.773  26.132  1.00  0.00     0.338 C 
ATOM     32  O   UNL A   1      41.720  18.912  25.503  1.00  0.00    -0.246 OA
BRANCH  31  33
ATOM     33  C   UNL A   1      41.784  21.020  26.566  1.00  0.00     0.060 A 
ATOM     34  C   UNL A   1      41.888  21.253  27.943  1.00  0.00     0.016 A 
ATOM     35  C   UNL A   1      42.200  21.982  25.644  1.00  0.00     0.016 A 
ATOM     36  C   UNL A   1      42.378  22.470  28.406  1.00  0.00     0.010 A 
ATOM     37  C   UNL A   1      42.668  23.214  26.110  1.00  0.00     0.010 A 
ATOM     38  C   UNL A   1      42.726  23.472  27.491  1.00  0.00    -0.014 A 
BRANCH  38  39
ATOM     39  C   UNL A   1      42.987  24.839  27.991  1.00  0.00     0.031 A 
ATOM     40  C   UNL A   1      44.409  25.261  28.232  1.00  0.00     0.074 A 
ATOM     41  C   UNL A   1      41.981  25.710  28.175  1.00  0.00     0.049 A 
ATOM     42  N   UNL A   1      44.869  26.412  28.648  1.00  0.00    -0.248 NA
ATOM     43  C   UNL A   1      45.452  24.257  27.958  1.00  0.00     0.031 C 
ATOM     44  C   UNL A   1      40.569  25.439  27.914  1.00  0.00     0.029 A 
ATOM     45  N   UNL A   1      42.003  27.009  28.616  1.00  0.00    -0.354 N 
ATOM     46  C   UNL A   1      46.251  26.275  28.674  1.00  0.00     0.074 A 
ATOM     47  C   UNL A   1      46.557  24.925  28.256  1.00  0.00     0.031 C 
ATOM     48  C   UNL A   1      39.856  26.544  28.197  1.00  0.00     0.029 A 
ATOM     49  C   UNL A   1      40.759  27.588  28.681  1.00  0.00     0.049 A 
ATOM     50  H   UNL A   1      42.830  27.482  28.862  1.00  0.00     0.167 HD
ATOM     51  C   UNL A   1      47.182  27.197  29.009  1.00  0.00     0.031 A 
ATOM     52  C   UNL A   1      40.391  28.815  29.096  1.00  0.00     0.031 A 
ATOM     53  C   UNL A   1      46.883  28.531  29.443  1.00  0.00     0.049 A 
ATOM     54  C   UNL A   1      41.438  29.787  29.565  1.00  0.00     0.074 A 
ATOM     55  C   UNL A   1      47.765  29.533  29.808  1.00  0.00     0.029 A 
ATOM     56  N   UNL A   1      45.605  29.047  29.576  1.00  0.00    -0.354 N 
ATOM     57  N   UNL A   1      42.740  29.644  29.589  1.00  0.00    -0.248 NA
ATOM     58  C   UNL A   1      40.965  31.086  30.068  1.00  0.00     0.031 C 
ATOM     59  C   UNL A   1      47.016  30.646  30.202  1.00  0.00     0.029 A 
ATOM     60  C   UNL A   1      45.673  30.347  30.042  1.00  0.00     0.049 A 
ATOM     61  H   UNL A   1      44.773  28.562  29.369  1.00  0.00     0.167 HD
ATOM     62  C   UNL A   1      43.244  30.836  30.093  1.00  0.00     0.074 A 
ATOM     63  C   UNL A   1      42.109  31.694  30.360  1.00  0.00     0.031 C 
ATOM     64  C   UNL A   1      44.534  31.186  30.308  1.00  0.00     0.031 A 
BRANCH  51  65
ATOM     65  C   UNL A   1      48.622  26.789  28.936  1.00  0.00    -0.014 A 
ATOM     66  C   UNL A   1      49.344  26.917  27.740  1.00  0.00     0.009 A 
ATOM     67  C   UNL A   1      49.281  26.343  30.091  1.00  0.00     0.009 A 
ATOM     68  C   UNL A   1      50.703  26.596  27.701  1.00  0.00     0.001 A 
ATOM     69  C   UNL A   1      50.643  26.038  30.052  1.00  0.00     0.001 A 
ATOM     70  C   UNL A   1      51.351  26.164  28.858  1.00  0.00     0.000 A 
ENDBRANCH  51  65
BRANCH  52  71
ATOM     71  C   UNL A   1      38.955  29.187  29.086  1.00  0.00    -0.014 A 
ATOM     72  C   UNL A   1      38.363  29.704  27.927  1.00  0.00     0.009 A 
ATOM     73  C   UNL A   1      38.164  28.992  30.230  1.00  0.00     0.009 A 
ATOM     74  C   UNL A   1      37.003  30.022  27.912  1.00  0.00     0.001 A 
ATOM     75  C   UNL A   1      36.801  29.295  30.206  1.00  0.00     0.001 A 
ATOM     76  C   UNL A   1      36.222  29.811  29.048  1.00  0.00     0.000 A 
ENDBRANCH  52  71
BRANCH  64  77
ATOM     77  C   UNL A   1      44.814  32.555  30.853  1.00  0.00    -0.014 A 
ATOM     78  C   UNL A   1      44.968  32.760  32.231  1.00  0.00     0.009 A 
ATOM     79  C   UNL A   1      45.053  33.620  29.970  1.00  0.00     0.009 A 
ATOM     80  C   UNL A   1      45.360  34.009  32.715  1.00  0.00     0.001 A 
ATOM     81  C   UNL A   1      45.461  34.863  30.457  1.00  0.00     0.001 A 
ATOM     82  C   UNL A   1      45.615  35.055  31.828  1.00  0.00     0.000 A 
ENDBRANCH  64  77
ENDBRANCH  38  39
ENDBRANCH  31  33
ENDBRANCH  30  31
ENDBRANCH  29  30
ENDBRANCH  28  29
ENDBRANCH  27  28
ENDBRANCH   1  27
TORSDOF 18
ENDMDL
MODEL 3
REMARK VINA RESULT:     -10.3      4.047      6.274
REMARK SMILES COc1nc2c(cc1C(=O)NCc1ccc(C(=O)OCCOCCOC(=O)c3ccc(-c4c5nc(c(-c6ccccc6)c6ccc([nH]6)c(-c6ccccc6)c6nc(c(-c7ccccc7)c7ccc4[nH]7)C=C6)C=C5)cc3)s1)CCC2
REMARK SMILES IDX 21 1 20 2 19 3 17 4 18 5 16 6 13 7 14 8 76 9 15 10 12 11
REMARK SMILES IDX 11 12 9 13 10 14 8 16 3 17 4 18 5 19 7 20 6 21 79 22 77 23
REMARK SMILES IDX 78 24 2 25 1 26 22 27 23 28 24 29 25 30 26 31 27 32 28 33
REMARK SMILES IDX 29 34 75 35 30 36 74 37 31 38 32 39 33 40 68 41 34 42 73 43
REMARK SMILES IDX 67 44 69 45 35 46 72 47 66 48 65 49 36 51 58 52 43 53 57 54
REMARK SMILES IDX 44 55 47 56 56 57 70 58 45 59 46 60 55 62 71 63 48 64 37 65
REMARK SMILES IDX 38 66 42 67 39 68 41 69 40 70 59 71 60 72 64 73 61 74 63 75
REMARK SMILES IDX 62 76 49 77 50 78 54 79 51 80 53 81 52 82
REMARK H PARENT 11 15 69 50 47 61
REMARK Flexibility Score: inf
ROOT
ATOM      1  C   UNL A   1      33.056  29.341  27.123  1.00  0.00     0.202 C 
ENDROOT
BRANCH   1   2
ATOM      2  C   UNL A   1      33.663  29.006  25.759  1.00  0.00     0.261 C 
BRANCH   2   3
ATOM      3  O   UNL A   1      32.615  28.866  24.790  1.00  0.00    -0.459 OA
BRANCH   3   4
ATOM      4  C   UNL A   1      33.031  28.525  23.533  1.00  0.00     0.348 C 
ATOM      5  O   UNL A   1      33.652  29.255  22.786  1.00  0.00    -0.245 OA
BRANCH   4   6
ATOM      6  C   UNL A   1      32.715  27.126  23.304  1.00  0.00     0.112 A 
ATOM      7  C   UNL A   1      31.547  24.956  23.331  1.00  0.00     0.025 A 
ATOM      8  C   UNL A   1      32.706  24.907  22.585  1.00  0.00     0.018 A 
ATOM      9  S   UNL A   1      31.235  26.528  23.918  1.00  0.00    -0.131 S 
ATOM     10  C   UNL A   1      33.390  26.157  22.585  1.00  0.00     0.028 A 
BRANCH   7  11
ATOM     11  C   UNL A   1      30.716  23.825  23.815  1.00  0.00     0.163 C 
BRANCH  11  12
ATOM     12  N   UNL A   1      30.655  23.731  25.253  1.00  0.00    -0.347 N 
ATOM     13  C   UNL A   1      31.677  23.475  26.137  1.00  0.00     0.257 C 
ATOM     14  O   UNL A   1      31.453  23.607  27.341  1.00  0.00    -0.269 OA
ATOM     15  H   UNL A   1      29.766  23.867  25.653  1.00  0.00     0.164 HD
BRANCH  13  16
ATOM     16  C   UNL A   1      33.002  22.943  25.721  1.00  0.00     0.102 A 
ATOM     17  C   UNL A   1      33.266  21.679  25.174  1.00  0.00     0.226 A 
ATOM     18  N   UNL A   1      34.512  21.170  24.992  1.00  0.00    -0.218 NA
ATOM     19  C   UNL A   1      35.524  22.001  25.276  1.00  0.00     0.048 A 
ATOM     20  C   UNL A   1      34.095  23.808  25.899  1.00  0.00     0.025 A 
ATOM     21  C   UNL A   1      35.367  23.322  25.664  1.00  0.00    -0.025 A 
ATOM     22  C   UNL A   1      36.977  21.630  25.185  1.00  0.00     0.057 C 
ATOM     23  C   UNL A   1      36.682  24.021  25.725  1.00  0.00     0.038 C 
ATOM     24  C   UNL A   1      37.641  22.833  25.877  1.00  0.00     0.011 C 
BRANCH  17  25
ATOM     25  O   UNL A   1      32.280  20.794  24.831  1.00  0.00    -0.480 OA
ATOM     26  C   UNL A   1      32.647  19.460  25.158  1.00  0.00     0.280 C 
ENDBRANCH  17  25
ENDBRANCH  13  16
ENDBRANCH  11  12
ENDBRANCH   7  11
ENDBRANCH   4   6
ENDBRANCH   3   4
ENDBRANCH   2   3
ENDBRANCH   1   2
BRANCH   1  27
ATOM     27  O   UNL A   1      32.485  30.646  27.228  1.00  0.00    -0.374 OA
BRANCH  27  28
ATOM     28  C   UNL A   1      33.323  31.689  27.734  1.00  0.00     0.202 C 
BRANCH  28  29
ATOM     29  C   UNL A   1      32.946  33.113  27.312  1.00  0.00     0.261 C 
BRANCH  29  30
ATOM     30  O   UNL A   1      32.325  33.821  28.402  1.00  0.00    -0.460 OA
BRANCH  30  31
ATOM     31  C   UNL A   1      32.978  34.930  28.818  1.00  0.00     0.338 C 
ATOM     32  O   UNL A   1      32.589  36.084  28.784  1.00  0.00    -0.246 OA
BRANCH  31  33
ATOM     33  C   UNL A   1      34.205  34.530  29.528  1.00  0.00     0.060 A 
ATOM     34  C   UNL A   1      35.410  34.576  28.817  1.00  0.00     0.016 A 
ATOM     35  C   UNL A   1      34.162  34.032  30.831  1.00  0.00     0.016 A 
ATOM     36  C   UNL A   1      36.578  34.088  29.397  1.00  0.00     0.010 A 
ATOM     37  C   UNL A   1      35.329  33.520  31.403  1.00  0.00     0.010 A 
ATOM     38  C   UNL A   1      36.532  33.516  30.674  1.00  0.00    -0.014 A 
BRANCH  38  39
ATOM     39  C   UNL A   1      37.708  32.767  31.166  1.00  0.00     0.031 A 
ATOM     40  C   UNL A   1      38.382  33.228  32.429  1.00  0.00     0.074 A 
ATOM     41  C   UNL A   1      38.139  31.664  30.532  1.00  0.00     0.049 A 
ATOM     42  N   UNL A   1      39.411  32.713  33.050  1.00  0.00    -0.248 NA
ATOM     43  C   UNL A   1      37.813  34.419  33.084  1.00  0.00     0.031 C 
ATOM     44  C   UNL A   1      37.530  31.083  29.337  1.00  0.00     0.029 A 
ATOM     45  N   UNL A   1      39.188  30.829  30.819  1.00  0.00    -0.354 N 
ATOM     46  C   UNL A   1      39.605  33.508  34.173  1.00  0.00     0.074 A 
ATOM     47  C   UNL A   1      38.606  34.552  34.138  1.00  0.00     0.031 C 
ATOM     48  C   UNL A   1      38.217  29.980  28.994  1.00  0.00     0.029 A 
ATOM     49  C   UNL A   1      39.325  29.793  29.930  1.00  0.00     0.049 A 
ATOM     50  H   UNL A   1      39.786  30.959  31.591  1.00  0.00     0.167 HD
ATOM     51  C   UNL A   1      40.530  33.372  35.149  1.00  0.00     0.031 A 
ATOM     52  C   UNL A   1      40.246  28.812  29.871  1.00  0.00     0.031 A 
ATOM     53  C   UNL A   1      41.536  32.349  35.178  1.00  0.00     0.049 A 
ATOM     54  C   UNL A   1      41.330  28.745  30.911  1.00  0.00     0.074 A 
ATOM     55  C   UNL A   1      42.519  32.138  36.129  1.00  0.00     0.029 A 
ATOM     56  N   UNL A   1      41.690  31.371  34.211  1.00  0.00    -0.354 N 
ATOM     57  N   UNL A   1      41.506  29.505  31.964  1.00  0.00    -0.248 NA
ATOM     58  C   UNL A   1      42.344  27.692  30.752  1.00  0.00     0.031 C 
ATOM     59  C   UNL A   1      43.296  31.053  35.714  1.00  0.00     0.029 A 
ATOM     60  C   UNL A   1      42.769  30.566  34.528  1.00  0.00     0.049 A 
ATOM     61  H   UNL A   1      41.117  31.263  33.417  1.00  0.00     0.167 HD
ATOM     62  C   UNL A   1      42.637  29.013  32.602  1.00  0.00     0.074 A 
ATOM     63  C   UNL A   1      43.107  27.889  31.821  1.00  0.00     0.031 C 
ATOM     64  C   UNL A   1      43.227  29.455  33.738  1.00  0.00     0.031 A 
BRANCH  51  65
ATOM     65  C   UNL A   1      40.511  34.369  36.268  1.00  0.00    -0.014 A 
ATOM     66  C   UNL A   1      41.207  35.582  36.159  1.00  0.00     0.009 A 
ATOM     67  C   UNL A   1      39.732  34.125  37.408  1.00  0.00     0.009 A 
ATOM     68  C   UNL A   1      41.129  36.532  37.181  1.00  0.00     0.001 A 
ATOM     69  C   UNL A   1      39.643  35.083  38.420  1.00  0.00     0.001 A 
ATOM     70  C   UNL A   1      40.342  36.283  38.305  1.00  0.00     0.000 A 
ENDBRANCH  51  65
BRANCH  52  71
ATOM     71  C   UNL A   1      40.178  27.813  28.776  1.00  0.00    -0.014 A 
ATOM     72  C   UNL A   1      40.798  28.065  27.545  1.00  0.00     0.009 A 
ATOM     73  C   UNL A   1      39.521  26.588  28.972  1.00  0.00     0.009 A 
ATOM     74  C   UNL A   1      40.761  27.109  26.528  1.00  0.00     0.001 A 
ATOM     75  C   UNL A   1      39.501  25.627  27.959  1.00  0.00     0.001 A 
ATOM     76  C   UNL A   1      40.119  25.889  26.738  1.00  0.00     0.000 A 
ENDBRANCH  52  71
BRANCH  64  77
ATOM     77  C   UNL A   1      44.446  28.731  34.228  1.00  0.00    -0.014 A 
ATOM     78  C   UNL A   1      44.326  27.591  35.035  1.00  0.00     0.009 A 
ATOM     79  C   UNL A   1      45.716  29.117  33.771  1.00  0.00     0.009 A 
ATOM     80  C   UNL A   1      45.459  26.848  35.373  1.00  0.00     0.001 A 
ATOM     81  C   UNL A   1      46.843  28.363  34.097  1.00  0.00     0.001 A 
ATOM     82  C   UNL A   1      46.713  27.229  34.897  1.00  0.00     0.000 A 
ENDBRANCH  64  77
ENDBRANCH  38  39
ENDBRANCH  31  33
ENDBRANCH  30  31
ENDBRANCH  29  30
ENDBRANCH  28  29
ENDBRANCH  27  28
ENDBRANCH   1  27
TORSDOF 18
ENDMDL
