MODEL 1
REMARK VINA RESULT:      -9.6      0.000      0.000
REMARK SMILES CC[C@](O)(c1ccc(OC)cc1)[C@@H](F)C(=O)OCCOCCOC(=O)c1ccc(-c2c3nc(c(-c4ccccc4)c4ccc([nH]4)c(-c4ccccc4)c4nc(c(-c5ccccc5)c5ccc2[nH]5)C=C4)C=C3)cc1
REMARK SMILES IDX 19 1 18 2 17 3 15 4 16 5 13 6 14 7 3 8 2 9 1 10 5 11 6 12
REMARK SMILES IDX 12 13 7 14 11 15 8 16 9 17 10 18 4 19 20 21 21 22 22 23
REMARK SMILES IDX 23 24 24 25 25 26 26 27 27 28 73 29 28 30 72 31 29 32 30 33
REMARK SMILES IDX 31 34 66 35 32 36 71 37 65 38 67 39 33 40 70 41 64 42 63 43
REMARK SMILES IDX 34 45 56 46 41 47 55 48 42 49 45 50 54 51 68 52 43 53 44 54
REMARK SMILES IDX 53 56 69 57 46 58 35 59 36 60 40 61 37 62 39 63 38 64 57 65
REMARK SMILES IDX 58 66 62 67 59 68 61 69 60 70 47 71 48 72 52 73 49 74 51 75
REMARK SMILES IDX 50 76
REMARK H PARENT 4 20 67 44 45 55
REMARK Flexibility Score: inf
ROOT
ATOM      1  C   UNL A   1      31.428  27.456  24.583  1.00  0.00     0.202 C 
ENDROOT
BRANCH   1   2
ATOM      2  C   UNL A   1      31.009  26.038  24.989  1.00  0.00     0.261 C 
BRANCH   2   3
ATOM      3  O   UNL A   1      31.990  25.024  24.694  1.00  0.00    -0.461 OA
BRANCH   3   4
ATOM      4  C   UNL A   1      31.502  23.876  24.152  1.00  0.00     0.344 C 
ATOM      5  O   UNL A   1      30.735  23.857  23.189  1.00  0.00    -0.249 OA
BRANCH   4   6
ATOM      6  C   UNL A   1      31.986  22.575  24.790  1.00  0.00     0.311 C 
ATOM      7  F   UNL A   1      32.695  22.892  25.926  1.00  0.00    -0.231 F 
BRANCH   6   8
ATOM      8  C   UNL A   1      32.820  21.554  23.962  1.00  0.00     0.131 C 
BRANCH   8   9
ATOM      9  C   UNL A   1      32.343  20.090  24.191  1.00  0.00     0.040 C 
ATOM     10  C   UNL A   1      32.199  19.243  22.930  1.00  0.00     0.007 C 
ENDBRANCH   8   9
BRANCH   8  11
ATOM     11  C   UNL A   1      34.306  21.737  24.369  1.00  0.00    -0.013 A 
ATOM     12  C   UNL A   1      35.005  20.706  25.020  1.00  0.00     0.010 A 
ATOM     13  C   UNL A   1      35.049  22.871  23.987  1.00  0.00     0.010 A 
ATOM     14  C   UNL A   1      36.369  20.825  25.313  1.00  0.00     0.047 A 
ATOM     15  C   UNL A   1      36.416  22.988  24.282  1.00  0.00     0.047 A 
ATOM     16  C   UNL A   1      37.081  21.968  24.954  1.00  0.00     0.118 A 
BRANCH  16  17
ATOM     17  O   UNL A   1      38.406  21.951  25.291  1.00  0.00    -0.497 OA
ATOM     18  C   UNL A   1      38.844  22.924  26.231  1.00  0.00     0.278 C 
ENDBRANCH  16  17
ENDBRANCH   8  11
BRANCH   8  19
ATOM     19  O   UNL A   1      32.669  21.836  22.561  1.00  0.00    -0.381 OA
ATOM     20  H   UNL A   1      32.503  22.784  22.437  1.00  0.00     0.212 HD
ENDBRANCH   8  19
ENDBRANCH   6   8
ENDBRANCH   4   6
ENDBRANCH   3   4
ENDBRANCH   2   3
ENDBRANCH   1   2
BRANCH   1  21
ATOM     21  O   UNL A   1      31.401  28.455  25.600  1.00  0.00    -0.374 OA
BRANCH  21  22
ATOM     22  C   UNL A   1      32.187  29.627  25.393  1.00  0.00     0.202 C 
BRANCH  22  23
ATOM     23  C   UNL A   1      31.862  30.820  26.304  1.00  0.00     0.261 C 
BRANCH  23  24
ATOM     24  O   UNL A   1      32.672  30.829  27.496  1.00  0.00    -0.460 OA
BRANCH  24  25
ATOM     25  C   UNL A   1      33.477  31.909  27.597  1.00  0.00     0.338 C 
ATOM     26  O   UNL A   1      33.130  33.086  27.652  1.00  0.00    -0.246 OA
BRANCH  25  27
ATOM     27  C   UNL A   1      34.874  31.501  27.821  1.00  0.00     0.060 A 
ATOM     28  C   UNL A   1      35.124  30.139  28.021  1.00  0.00     0.016 A 
ATOM     29  C   UNL A   1      35.894  32.440  27.988  1.00  0.00     0.016 A 
ATOM     30  C   UNL A   1      36.379  29.720  28.458  1.00  0.00     0.010 A 
ATOM     31  C   UNL A   1      37.159  32.014  28.420  1.00  0.00     0.010 A 
ATOM     32  C   UNL A   1      37.393  30.657  28.707  1.00  0.00    -0.014 A 
BRANCH  32  33
ATOM     33  C   UNL A   1      38.624  30.196  29.402  1.00  0.00     0.031 A 
ATOM     34  C   UNL A   1      38.825  30.524  30.859  1.00  0.00     0.074 A 
ATOM     35  C   UNL A   1      39.508  29.398  28.776  1.00  0.00     0.049 A 
ATOM     36  N   UNL A   1      39.712  30.049  31.700  1.00  0.00    -0.248 NA
ATOM     37  C   UNL A   1      37.905  31.508  31.450  1.00  0.00     0.031 C 
ATOM     38  C   UNL A   1      39.441  28.999  27.372  1.00  0.00     0.029 A 
ATOM     39  N   UNL A   1      40.623  28.754  29.258  1.00  0.00    -0.354 N 
ATOM     40  C   UNL A   1      39.445  30.663  32.918  1.00  0.00     0.074 A 
ATOM     41  C   UNL A   1      38.347  31.579  32.697  1.00  0.00     0.031 C 
ATOM     42  C   UNL A   1      40.456  28.156  27.111  1.00  0.00     0.029 A 
ATOM     43  C   UNL A   1      41.241  27.956  28.327  1.00  0.00     0.049 A 
ATOM     44  H   UNL A   1      40.947  28.857  30.182  1.00  0.00     0.167 HD
ATOM     45  C   UNL A   1      40.046  30.475  34.117  1.00  0.00     0.031 A 
ATOM     46  C   UNL A   1      42.304  27.138  28.445  1.00  0.00     0.031 A 
ATOM     47  C   UNL A   1      41.148  29.580  34.349  1.00  0.00     0.049 A 
ATOM     48  C   UNL A   1      42.970  26.961  29.782  1.00  0.00     0.074 A 
ATOM     49  C   UNL A   1      41.802  29.305  35.538  1.00  0.00     0.029 A 
ATOM     50  N   UNL A   1      41.767  28.821  33.370  1.00  0.00    -0.354 N 
ATOM     51  N   UNL A   1      42.659  27.493  30.939  1.00  0.00    -0.248 NA
ATOM     52  C   UNL A   1      44.120  26.044  29.832  1.00  0.00     0.031 C 
ATOM     53  C   UNL A   1      42.846  28.413  35.270  1.00  0.00     0.029 A 
ATOM     54  C   UNL A   1      42.810  28.097  33.922  1.00  0.00     0.049 A 
ATOM     55  H   UNL A   1      41.504  28.802  32.421  1.00  0.00     0.167 HD
ATOM     56  C   UNL A   1      43.557  26.959  31.856  1.00  0.00     0.074 A 
ATOM     57  C   UNL A   1      44.413  26.048  31.124  1.00  0.00     0.031 C 
ATOM     58  C   UNL A   1      43.662  27.200  33.186  1.00  0.00     0.031 A 
BRANCH  45  59
ATOM     59  C   UNL A   1      39.523  31.269  35.280  1.00  0.00    -0.014 A 
ATOM     60  C   UNL A   1      40.110  32.490  35.645  1.00  0.00     0.009 A 
ATOM     61  C   UNL A   1      38.408  30.809  35.997  1.00  0.00     0.009 A 
ATOM     62  C   UNL A   1      39.610  33.221  36.725  1.00  0.00     0.001 A 
ATOM     63  C   UNL A   1      37.896  31.552  37.062  1.00  0.00     0.001 A 
ATOM     64  C   UNL A   1      38.501  32.752  37.431  1.00  0.00     0.000 A 
ENDBRANCH  45  59
BRANCH  46  65
ATOM     65  C   UNL A   1      42.793  26.387  27.260  1.00  0.00    -0.014 A 
ATOM     66  C   UNL A   1      42.272  25.122  26.947  1.00  0.00     0.009 A 
ATOM     67  C   UNL A   1      43.798  26.930  26.445  1.00  0.00     0.009 A 
ATOM     68  C   UNL A   1      42.764  24.407  25.854  1.00  0.00     0.001 A 
ATOM     69  C   UNL A   1      44.270  26.222  25.339  1.00  0.00     0.001 A 
ATOM     70  C   UNL A   1      43.759  24.958  25.049  1.00  0.00     0.000 A 
ENDBRANCH  46  65
BRANCH  58  71
ATOM     71  C   UNL A   1      44.727  26.452  33.937  1.00  0.00    -0.014 A 
ATOM     72  C   UNL A   1      46.009  26.994  34.112  1.00  0.00     0.009 A 
ATOM     73  C   UNL A   1      44.435  25.197  34.494  1.00  0.00     0.009 A 
ATOM     74  C   UNL A   1      46.992  26.274  34.796  1.00  0.00     0.001 A 
ATOM     75  C   UNL A   1      45.412  24.492  35.199  1.00  0.00     0.001 A 
ATOM     76  C   UNL A   1      46.692  25.026  35.340  1.00  0.00     0.000 A 
ENDBRANCH  58  71
ENDBRANCH  32  33
ENDBRANCH  25  27
ENDBRANCH  24  25
ENDBRANCH  23  24
ENDBRANCH  22  23
ENDBRANCH  21  22
ENDBRANCH   1  21
TORSDOF 19
ENDMDL
MODEL 2
REMARK VINA RESULT:      -9.5      3.488      8.665
REMARK SMILES CC[C@](O)(c1ccc(OC)cc1)[C@@H](F)C(=O)OCCOCCOC(=O)c1ccc(-c2c3nc(c(-c4ccccc4)c4ccc([nH]4)c(-c4ccccc4)c4nc(c(-c5ccccc5)c5ccc2[nH]5)C=C4)C=C3)cc1
REMARK SMILES IDX 19 1 18 2 17 3 15 4 16 5 13 6 14 7 3 8 2 9 1 10 5 11 6 12
REMARK SMILES IDX 12 13 7 14 11 15 8 16 9 17 10 18 4 19 20 21 21 22 22 23
REMARK SMILES IDX 23 24 24 25 25 26 26 27 27 28 73 29 28 30 72 31 29 32 30 33
REMARK SMILES IDX 31 34 66 35 32 36 71 37 65 38 67 39 33 40 70 41 64 42 63 43
REMARK SMILES IDX 34 45 56 46 41 47 55 48 42 49 45 50 54 51 68 52 43 53 44 54
REMARK SMILES IDX 53 56 69 57 46 58 35 59 36 60 40 61 37 62 39 63 38 64 57 65
REMARK SMILES IDX 58 66 62 67 59 68 61 69 60 70 47 71 48 72 52 73 49 74 51 75
REMARK SMILES IDX 50 76
REMARK H PARENT 4 20 67 44 45 55
REMARK Flexibility Score: inf
ROOT
ATOM      1  C   UNL A   1      34.450  23.307  22.773  1.00  0.00     0.202 C 
ENDROOT
BRANCH   1   2
ATOM      2  C   UNL A   1      33.106  22.654  23.113  1.00  0.00     0.261 C 
BRANCH   2   3
ATOM      3  O   UNL A   1      33.211  21.296  23.587  1.00  0.00    -0.461 OA
BRANCH   3   4
ATOM      4  C   UNL A   1      32.763  21.081  24.853  1.00  0.00     0.344 C 
ATOM      5  O   UNL A   1      32.105  20.092  25.177  1.00  0.00    -0.249 OA
BRANCH   4   6
ATOM      6  C   UNL A   1      33.150  22.135  25.889  1.00  0.00     0.311 C 
ATOM      7  F   UNL A   1      33.927  21.528  26.849  1.00  0.00    -0.231 F 
BRANCH   6   8
ATOM      8  C   UNL A   1      32.052  22.975  26.607  1.00  0.00     0.131 C 
BRANCH   8   9
ATOM      9  C   UNL A   1      30.624  22.627  26.095  1.00  0.00     0.040 C 
ATOM     10  C   UNL A   1      29.542  22.557  27.168  1.00  0.00     0.007 C 
ENDBRANCH   8   9
BRANCH   8  11
ATOM     11  C   UNL A   1      32.391  24.470  26.373  1.00  0.00    -0.013 A 
ATOM     12  C   UNL A   1      33.702  24.869  26.056  1.00  0.00     0.010 A 
ATOM     13  C   UNL A   1      31.393  25.463  26.331  1.00  0.00     0.010 A 
ATOM     14  C   UNL A   1      34.003  26.203  25.757  1.00  0.00     0.047 A 
ATOM     15  C   UNL A   1      31.698  26.800  26.031  1.00  0.00     0.047 A 
ATOM     16  C   UNL A   1      33.007  27.178  25.750  1.00  0.00     0.118 A 
BRANCH  16  17
ATOM     17  O   UNL A   1      33.435  28.437  25.433  1.00  0.00    -0.497 OA
ATOM     18  C   UNL A   1      33.282  28.849  24.080  1.00  0.00     0.278 C 
ENDBRANCH  16  17
ENDBRANCH   8  11
BRANCH   8  19
ATOM     19  O   UNL A   1      32.078  22.692  28.016  1.00  0.00    -0.381 OA
ATOM     20  H   UNL A   1      31.979  23.520  28.514  1.00  0.00     0.212 HD
ENDBRANCH   8  19
ENDBRANCH   6   8
ENDBRANCH   4   6
ENDBRANCH   3   4
ENDBRANCH   2   3
ENDBRANCH   1   2
BRANCH   1  21
ATOM     21  O   UNL A   1      35.453  23.289  23.786  1.00  0.00    -0.374 OA
BRANCH  21  22
ATOM     22  C   UNL A   1      36.666  22.594  23.500  1.00  0.00     0.202 C 
BRANCH  22  23
ATOM     23  C   UNL A   1      37.015  21.440  24.450  1.00  0.00     0.261 C 
BRANCH  23  24
ATOM     24  O   UNL A   1      37.434  21.911  25.745  1.00  0.00    -0.460 OA
BRANCH  24  25
ATOM     25  C   UNL A   1      38.763  21.795  25.962  1.00  0.00     0.338 C 
ATOM     26  O   UNL A   1      39.522  20.967  25.466  1.00  0.00    -0.246 OA
BRANCH  25  27
ATOM     27  C   UNL A   1      39.264  22.928  26.758  1.00  0.00     0.060 A 
ATOM     28  C   UNL A   1      38.693  24.183  26.523  1.00  0.00     0.016 A 
ATOM     29  C   UNL A   1      40.370  22.800  27.601  1.00  0.00     0.016 A 
ATOM     30  C   UNL A   1      39.273  25.325  27.075  1.00  0.00     0.010 A 
ATOM     31  C   UNL A   1      40.947  23.950  28.161  1.00  0.00     0.010 A 
ATOM     32  C   UNL A   1      40.432  25.223  27.859  1.00  0.00    -0.014 A 
BRANCH  32  33
ATOM     33  C   UNL A   1      41.152  26.473  28.219  1.00  0.00     0.031 A 
ATOM     34  C   UNL A   1      42.489  26.770  27.593  1.00  0.00     0.074 A 
ATOM     35  C   UNL A   1      40.575  27.395  29.012  1.00  0.00     0.049 A 
ATOM     36  N   UNL A   1      43.182  27.884  27.605  1.00  0.00    -0.248 NA
ATOM     37  C   UNL A   1      43.130  25.674  26.849  1.00  0.00     0.031 C 
ATOM     38  C   UNL A   1      39.287  27.244  29.685  1.00  0.00     0.029 A 
ATOM     39  N   UNL A   1      40.991  28.657  29.358  1.00  0.00    -0.354 N 
ATOM     40  C   UNL A   1      44.326  27.626  26.861  1.00  0.00     0.074 A 
ATOM     41  C   UNL A   1      44.260  26.240  26.451  1.00  0.00     0.031 C 
ATOM     42  C   UNL A   1      39.003  28.382  30.343  1.00  0.00     0.029 A 
ATOM     43  C   UNL A   1      40.089  29.339  30.137  1.00  0.00     0.049 A 
ATOM     44  H   UNL A   1      41.855  29.036  29.076  1.00  0.00     0.167 HD
ATOM     45  C   UNL A   1      45.335  28.468  26.531  1.00  0.00     0.031 A 
ATOM     46  C   UNL A   1      40.119  30.599  30.611  1.00  0.00     0.031 A 
ATOM     47  C   UNL A   1      45.422  29.843  26.942  1.00  0.00     0.049 A 
ATOM     48  C   UNL A   1      41.261  31.509  30.251  1.00  0.00     0.074 A 
ATOM     49  C   UNL A   1      46.397  30.777  26.633  1.00  0.00     0.029 A 
ATOM     50  N   UNL A   1      44.506  30.480  27.763  1.00  0.00    -0.354 N 
ATOM     51  N   UNL A   1      42.299  31.272  29.486  1.00  0.00    -0.248 NA
ATOM     52  C   UNL A   1      41.219  32.873  30.801  1.00  0.00     0.031 C 
ATOM     53  C   UNL A   1      46.092  31.968  27.302  1.00  0.00     0.029 A 
ATOM     54  C   UNL A   1      44.903  31.787  27.989  1.00  0.00     0.049 A 
ATOM     55  H   UNL A   1      43.693  30.063  28.130  1.00  0.00     0.167 HD
ATOM     56  C   UNL A   1      43.018  32.461  29.443  1.00  0.00     0.074 A 
ATOM     57  C   UNL A   1      42.289  33.422  30.244  1.00  0.00     0.031 C 
ATOM     58  C   UNL A   1      44.177  32.733  28.795  1.00  0.00     0.031 A 
BRANCH  45  59
ATOM     59  C   UNL A   1      46.444  27.911  25.682  1.00  0.00    -0.014 A 
ATOM     60  C   UNL A   1      47.521  27.221  26.260  1.00  0.00     0.009 A 
ATOM     61  C   UNL A   1      46.393  28.048  24.287  1.00  0.00     0.009 A 
ATOM     62  C   UNL A   1      48.541  26.705  25.458  1.00  0.00     0.001 A 
ATOM     63  C   UNL A   1      47.403  27.512  23.486  1.00  0.00     0.001 A 
ATOM     64  C   UNL A   1      48.480  26.848  24.072  1.00  0.00     0.000 A 
ENDBRANCH  45  59
BRANCH  46  65
ATOM     65  C   UNL A   1      39.006  31.096  31.461  1.00  0.00    -0.014 A 
ATOM     66  C   UNL A   1      37.889  31.720  30.885  1.00  0.00     0.009 A 
ATOM     67  C   UNL A   1      39.067  30.960  32.855  1.00  0.00     0.009 A 
ATOM     68  C   UNL A   1      36.865  32.218  31.693  1.00  0.00     0.001 A 
ATOM     69  C   UNL A   1      38.030  31.437  33.658  1.00  0.00     0.001 A 
ATOM     70  C   UNL A   1      36.933  32.073  33.078  1.00  0.00     0.000 A 
ENDBRANCH  46  65
BRANCH  58  71
ATOM     71  C   UNL A   1      44.717  34.130  28.912  1.00  0.00    -0.014 A 
ATOM     72  C   UNL A   1      45.576  34.493  29.961  1.00  0.00     0.009 A 
ATOM     73  C   UNL A   1      44.377  35.091  27.947  1.00  0.00     0.009 A 
ATOM     74  C   UNL A   1      46.051  35.803  30.064  1.00  0.00     0.001 A 
ATOM     75  C   UNL A   1      44.874  36.392  28.038  1.00  0.00     0.001 A 
ATOM     76  C   UNL A   1      45.702  36.750  29.102  1.00  0.00     0.000 A 
ENDBRANCH  58  71
ENDBRANCH  32  33
ENDBRANCH  25  27
ENDBRANCH  24  25
ENDBRANCH  23  24
ENDBRANCH  22  23
ENDBRANCH  21  22
ENDBRANCH   1  21
TORSDOF 19
ENDMDL
MODEL 3
REMARK VINA RESULT:      -9.4      1.373      2.184
REMARK SMILES CC[C@](O)(c1ccc(OC)cc1)[C@@H](F)C(=O)OCCOCCOC(=O)c1ccc(-c2c3nc(c(-c4ccccc4)c4ccc([nH]4)c(-c4ccccc4)c4nc(c(-c5ccccc5)c5ccc2[nH]5)C=C4)C=C3)cc1
REMARK SMILES IDX 19 1 18 2 17 3 15 4 16 5 13 6 14 7 3 8 2 9 1 10 5 11 6 12
REMARK SMILES IDX 12 13 7 14 11 15 8 16 9 17 10 18 4 19 20 21 21 22 22 23
REMARK SMILES IDX 23 24 24 25 25 26 26 27 27 28 73 29 28 30 72 31 29 32 30 33
REMARK SMILES IDX 31 34 66 35 32 36 71 37 65 38 67 39 33 40 70 41 64 42 63 43
REMARK SMILES IDX 34 45 56 46 41 47 55 48 42 49 45 50 54 51 68 52 43 53 44 54
REMARK SMILES IDX 53 56 69 57 46 58 35 59 36 60 40 61 37 62 39 63 38 64 57 65
REMARK SMILES IDX 58 66 62 67 59 68 61 69 60 70 47 71 48 72 52 73 49 74 51 75
REMARK SMILES IDX 50 76
REMARK H PARENT 4 20 67 44 45 55
REMARK Flexibility Score: inf
ROOT
ATOM      1  C   UNL A   1      31.331  26.977  25.286  1.00  0.00     0.202 C 
ENDROOT
BRANCH   1   2
ATOM      2  C   UNL A   1      32.380  26.059  25.924  1.00  0.00     0.261 C 
BRANCH   2   3
ATOM      3  O   UNL A   1      33.620  25.980  25.195  1.00  0.00    -0.461 OA
BRANCH   3   4
ATOM      4  C   UNL A   1      33.566  25.302  24.017  1.00  0.00     0.344 C 
ATOM      5  O   UNL A   1      33.679  25.847  22.919  1.00  0.00    -0.249 OA
BRANCH   4   6
ATOM      6  C   UNL A   1      33.385  23.789  24.123  1.00  0.00     0.311 C 
ATOM      7  F   UNL A   1      34.575  23.190  23.780  1.00  0.00    -0.231 F 
BRANCH   6   8
ATOM      8  C   UNL A   1      32.237  23.077  23.348  1.00  0.00     0.131 C 
BRANCH   8   9
ATOM      9  C   UNL A   1      30.832  23.530  23.841  1.00  0.00     0.040 C 
ATOM     10  C   UNL A   1      30.235  24.728  23.109  1.00  0.00     0.007 C 
ENDBRANCH   8   9
BRANCH   8  11
ATOM     11  C   UNL A   1      32.438  21.550  23.529  1.00  0.00    -0.013 A 
ATOM     12  C   UNL A   1      32.765  21.012  24.787  1.00  0.00     0.010 A 
ATOM     13  C   UNL A   1      32.171  20.634  22.493  1.00  0.00     0.010 A 
ATOM     14  C   UNL A   1      32.863  19.630  24.983  1.00  0.00     0.047 A 
ATOM     15  C   UNL A   1      32.270  19.248  22.693  1.00  0.00     0.047 A 
ATOM     16  C   UNL A   1      32.624  18.739  23.938  1.00  0.00     0.118 A 
BRANCH  16  17
ATOM     17  O   UNL A   1      32.745  17.419  24.267  1.00  0.00    -0.497 OA
ATOM     18  C   UNL A   1      32.656  17.087  25.647  1.00  0.00     0.278 C 
ENDBRANCH  16  17
ENDBRANCH   8  11
BRANCH   8  19
ATOM     19  O   UNL A   1      32.324  23.409  21.951  1.00  0.00    -0.381 OA
ATOM     20  H   UNL A   1      32.925  24.162  21.835  1.00  0.00     0.212 HD
ENDBRANCH   8  19
ENDBRANCH   6   8
ENDBRANCH   4   6
ENDBRANCH   3   4
ENDBRANCH   2   3
ENDBRANCH   1   2
BRANCH   1  21
ATOM     21  O   UNL A   1      31.205  28.290  25.826  1.00  0.00    -0.374 OA
BRANCH  21  22
ATOM     22  C   UNL A   1      32.189  29.254  25.451  1.00  0.00     0.202 C 
BRANCH  22  23
ATOM     23  C   UNL A   1      32.019  30.653  26.059  1.00  0.00     0.261 C 
BRANCH  23  24
ATOM     24  O   UNL A   1      32.611  30.750  27.369  1.00  0.00    -0.460 OA
BRANCH  24  25
ATOM     25  C   UNL A   1      33.370  31.854  27.542  1.00  0.00     0.338 C 
ATOM     26  O   UNL A   1      32.975  33.012  27.645  1.00  0.00    -0.246 OA
BRANCH  25  27
ATOM     27  C   UNL A   1      34.777  31.491  27.780  1.00  0.00     0.060 A 
ATOM     28  C   UNL A   1      35.070  30.134  27.959  1.00  0.00     0.016 A 
ATOM     29  C   UNL A   1      35.761  32.460  27.981  1.00  0.00     0.016 A 
ATOM     30  C   UNL A   1      36.333  29.750  28.408  1.00  0.00     0.010 A 
ATOM     31  C   UNL A   1      37.034  32.070  28.425  1.00  0.00     0.010 A 
ATOM     32  C   UNL A   1      37.310  30.717  28.691  1.00  0.00    -0.014 A 
BRANCH  32  33
ATOM     33  C   UNL A   1      38.546  30.284  29.396  1.00  0.00     0.031 A 
ATOM     34  C   UNL A   1      38.729  30.621  30.853  1.00  0.00     0.074 A 
ATOM     35  C   UNL A   1      39.451  29.503  28.779  1.00  0.00     0.049 A 
ATOM     36  N   UNL A   1      39.619  30.169  31.703  1.00  0.00    -0.248 NA
ATOM     37  C   UNL A   1      37.783  31.587  31.433  1.00  0.00     0.031 C 
ATOM     38  C   UNL A   1      39.404  29.098  27.376  1.00  0.00     0.029 A 
ATOM     39  N   UNL A   1      40.576  28.886  29.272  1.00  0.00    -0.354 N 
ATOM     40  C   UNL A   1      39.331  30.781  32.916  1.00  0.00     0.074 A 
ATOM     41  C   UNL A   1      38.214  31.672  32.684  1.00  0.00     0.031 C 
ATOM     42  C   UNL A   1      40.438  28.276  27.125  1.00  0.00     0.029 A 
ATOM     43  C   UNL A   1      41.218  28.098  28.348  1.00  0.00     0.049 A 
ATOM     44  H   UNL A   1      40.891  28.999  30.197  1.00  0.00     0.167 HD
ATOM     45  C   UNL A   1      39.927  30.610  34.120  1.00  0.00     0.031 A 
ATOM     46  C   UNL A   1      42.297  27.304  28.477  1.00  0.00     0.031 A 
ATOM     47  C   UNL A   1      41.046  29.740  34.364  1.00  0.00     0.049 A 
ATOM     48  C   UNL A   1      42.957  27.145  29.819  1.00  0.00     0.074 A 
ATOM     49  C   UNL A   1      41.697  29.484  35.558  1.00  0.00     0.029 A 
ATOM     50  N   UNL A   1      41.688  28.992  33.391  1.00  0.00    -0.354 N 
ATOM     51  N   UNL A   1      42.626  27.675  30.972  1.00  0.00    -0.248 NA
ATOM     52  C   UNL A   1      44.127  26.254  29.880  1.00  0.00     0.031 C 
ATOM     53  C   UNL A   1      42.761  28.613  35.301  1.00  0.00     0.029 A 
ATOM     54  C   UNL A   1      42.743  28.292  33.954  1.00  0.00     0.049 A 
ATOM     55  H   UNL A   1      41.433  28.963  32.441  1.00  0.00     0.167 HD
ATOM     56  C   UNL A   1      43.529  27.163  31.897  1.00  0.00     0.074 A 
ATOM     57  C   UNL A   1      44.410  26.269  31.175  1.00  0.00     0.031 C 
ATOM     58  C   UNL A   1      43.619  27.412  33.227  1.00  0.00     0.031 A 
BRANCH  45  59
ATOM     59  C   UNL A   1      39.377  31.397  35.277  1.00  0.00    -0.014 A 
ATOM     60  C   UNL A   1      38.375  30.865  36.103  1.00  0.00     0.009 A 
ATOM     61  C   UNL A   1      39.891  32.670  35.564  1.00  0.00     0.009 A 
ATOM     62  C   UNL A   1      37.878  31.606  37.177  1.00  0.00     0.001 A 
ATOM     63  C   UNL A   1      39.408  33.400  36.651  1.00  0.00     0.001 A 
ATOM     64  C   UNL A   1      38.397  32.871  37.452  1.00  0.00     0.000 A 
ENDBRANCH  45  59
BRANCH  46  65
ATOM     65  C   UNL A   1      42.812  26.560  27.298  1.00  0.00    -0.014 A 
ATOM     66  C   UNL A   1      42.252  25.327  26.928  1.00  0.00     0.009 A 
ATOM     67  C   UNL A   1      43.878  27.076  26.547  1.00  0.00     0.009 A 
ATOM     68  C   UNL A   1      42.766  24.616  25.842  1.00  0.00     0.001 A 
ATOM     69  C   UNL A   1      44.373  26.374  25.447  1.00  0.00     0.001 A 
ATOM     70  C   UNL A   1      43.823  25.141  25.100  1.00  0.00     0.000 A 
ENDBRANCH  46  65
BRANCH  58  71
ATOM     71  C   UNL A   1      44.694  26.690  33.988  1.00  0.00    -0.014 A 
ATOM     72  C   UNL A   1      45.966  27.256  34.165  1.00  0.00     0.009 A 
ATOM     73  C   UNL A   1      44.424  25.434  34.555  1.00  0.00     0.009 A 
ATOM     74  C   UNL A   1      46.959  26.560  34.859  1.00  0.00     0.001 A 
ATOM     75  C   UNL A   1      45.410  24.753  35.269  1.00  0.00     0.001 A 
ATOM     76  C   UNL A   1      46.680  25.311  35.411  1.00  0.00     0.000 A 
ENDBRANCH  58  71
ENDBRANCH  32  33
ENDBRANCH  25  27
ENDBRANCH  24  25
ENDBRANCH  23  24
ENDBRANCH  22  23
ENDBRANCH  21  22
ENDBRANCH   1  21
TORSDOF 19
ENDMDL
