MODEL 1
REMARK VINA RESULT:     -10.4      0.000      0.000
REMARK SMILES [NH3+]Cc1c(-c2ccccc2)c(C(=O)OCCOCCOC(=O)c2ccc(-c3c4nc(c(-c5ccccc5)c5ccc([nH]5)c(-c5ccccc5)c5nc(c(-c6ccccc6)c6ccc3[nH]6)C=C5)C=C4)cc2)c2ccccn12
REMARK SMILES IDX 17 1 16 2 15 3 14 4 12 5 13 6 11 7 3 8 4 9 76 10 71 11 75 12
REMARK SMILES IDX 72 13 74 14 73 15 2 16 1 17 5 21 6 22 10 23 7 24 9 25 8 26
REMARK SMILES IDX 18 27 19 28 20 29 21 30 22 31 23 32 24 33 70 34 25 35 69 36
REMARK SMILES IDX 26 37 27 38 28 39 63 40 29 41 68 42 62 43 64 44 30 45 67 46
REMARK SMILES IDX 61 47 60 48 31 50 53 51 38 52 52 53 39 54 42 55 51 56 65 57
REMARK SMILES IDX 40 58 41 59 50 61 66 62 43 63 32 64 33 65 37 66 34 67 36 68
REMARK SMILES IDX 35 69 54 70 55 71 59 72 56 73 58 74 57 75 44 76 45 77 49 78
REMARK SMILES IDX 46 79 48 80 47 81
REMARK H PARENT 1 18 1 19 1 20 64 49 42 60
REMARK Flexibility Score: inf
ROOT
ATOM      1  O   UNL A   1      39.150  22.191  26.093  1.00  0.00    -0.374 OA
ENDROOT
BRANCH   1   2
ATOM      2  C   UNL A   1      38.393  23.371  26.382  1.00  0.00     0.202 C 
BRANCH   2   3
ATOM      3  C   UNL A   1      36.906  23.277  26.037  1.00  0.00     0.261 C 
BRANCH   3   4
ATOM      4  O   UNL A   1      36.645  24.051  24.852  1.00  0.00    -0.460 OA
BRANCH   4   5
ATOM      5  C   UNL A   1      36.083  23.371  23.814  1.00  0.00     0.341 C 
ATOM      6  O   UNL A   1      36.694  23.017  22.812  1.00  0.00    -0.246 OA
BRANCH   5   7
ATOM      7  C   UNL A   1      34.690  23.013  24.062  1.00  0.00     0.093 A 
ATOM      8  C   UNL A   1      32.427  23.218  24.340  1.00  0.00     0.086 A 
ATOM      9  C   UNL A   1      33.573  23.898  23.956  1.00  0.00     0.024 A 
ATOM     10  N   UNL A   1      32.794  21.906  24.596  1.00  0.00    -0.314 N 
ATOM     11  C   UNL A   1      34.169  21.770  24.388  1.00  0.00     0.061 A 
ATOM     12  C   UNL A   1      31.989  20.833  25.002  1.00  0.00     0.092 A 
ATOM     13  C   UNL A   1      34.732  20.468  24.570  1.00  0.00     0.027 A 
ATOM     14  C   UNL A   1      32.530  19.620  25.187  1.00  0.00     0.018 A 
ATOM     15  C   UNL A   1      33.948  19.441  24.947  1.00  0.00     0.004 A 
BRANCH   8  16
ATOM     16  C   UNL A   1      31.024  23.707  24.460  1.00  0.00     0.315 C 
BRANCH  16  17
ATOM     17  N   UNL A   1      30.386  23.712  23.150  1.00  0.00    -0.353 N 
ATOM     18  H   UNL A   1      30.100  24.661  22.914  1.00  0.00     0.344 HD
ATOM     19  H   UNL A   1      29.567  23.104  23.169  1.00  0.00     0.344 HD
ATOM     20  H   UNL A   1      31.046  23.371  22.450  1.00  0.00     0.344 HD
ENDBRANCH  16  17
ENDBRANCH   8  16
BRANCH   9  21
ATOM     21  C   UNL A   1      33.573  25.253  23.435  1.00  0.00    -0.015 A 
ATOM     22  C   UNL A   1      33.766  26.325  24.318  1.00  0.00     0.009 A 
ATOM     23  C   UNL A   1      33.295  25.505  22.092  1.00  0.00     0.009 A 
ATOM     24  C   UNL A   1      33.651  27.638  23.866  1.00  0.00     0.001 A 
ATOM     25  C   UNL A   1      33.192  26.822  21.638  1.00  0.00     0.001 A 
ATOM     26  C   UNL A   1      33.361  27.887  22.527  1.00  0.00     0.000 A 
ENDBRANCH   9  21
ENDBRANCH   5   7
ENDBRANCH   4   5
ENDBRANCH   3   4
ENDBRANCH   2   3
ENDBRANCH   1   2
BRANCH   1  27
ATOM     27  C   UNL A   1      38.435  21.099  25.519  1.00  0.00     0.202 C 
BRANCH  27  28
ATOM     28  C   UNL A   1      39.230  19.797  25.378  1.00  0.00     0.261 C 
BRANCH  28  29
ATOM     29  O   UNL A   1      40.039  19.541  26.536  1.00  0.00    -0.460 OA
BRANCH  29  30
ATOM     30  C   UNL A   1      41.363  19.431  26.271  1.00  0.00     0.338 C 
ATOM     31  O   UNL A   1      41.941  18.493  25.749  1.00  0.00    -0.246 OA
BRANCH  30  32
ATOM     32  C   UNL A   1      42.035  20.710  26.567  1.00  0.00     0.060 A 
ATOM     33  C   UNL A   1      42.113  21.095  27.909  1.00  0.00     0.016 A 
ATOM     34  C   UNL A   1      42.535  21.538  25.557  1.00  0.00     0.016 A 
ATOM     35  C   UNL A   1      42.646  22.336  28.247  1.00  0.00     0.010 A 
ATOM     36  C   UNL A   1      43.063  22.787  25.896  1.00  0.00     0.010 A 
ATOM     37  C   UNL A   1      43.086  23.204  27.239  1.00  0.00    -0.014 A 
BRANCH  37  38
ATOM     38  C   UNL A   1      43.427  24.601  27.592  1.00  0.00     0.031 A 
ATOM     39  C   UNL A   1      44.863  25.039  27.515  1.00  0.00     0.074 A 
ATOM     40  C   UNL A   1      42.467  25.478  27.928  1.00  0.00     0.049 A 
ATOM     41  N   UNL A   1      45.380  26.222  27.729  1.00  0.00    -0.248 NA
ATOM     42  C   UNL A   1      45.847  24.008  27.147  1.00  0.00     0.031 C 
ATOM     43  C   UNL A   1      41.038  25.180  28.009  1.00  0.00     0.029 A 
ATOM     44  N   UNL A   1      42.557  26.806  28.260  1.00  0.00    -0.354 N 
ATOM     45  C   UNL A   1      46.745  26.079  27.518  1.00  0.00     0.074 A 
ATOM     46  C   UNL A   1      46.982  24.689  27.192  1.00  0.00     0.031 C 
ATOM     47  C   UNL A   1      40.382  26.298  28.366  1.00  0.00     0.029 A 
ATOM     48  C   UNL A   1      41.346  27.380  28.556  1.00  0.00     0.049 A 
ATOM     49  H   UNL A   1      43.408  27.299  28.284  1.00  0.00     0.167 HD
ATOM     50  C   UNL A   1      47.715  27.021  27.581  1.00  0.00     0.031 A 
ATOM     51  C   UNL A   1      41.051  28.636  28.941  1.00  0.00     0.031 A 
ATOM     52  C   UNL A   1      47.485  28.398  27.920  1.00  0.00     0.049 A 
ATOM     53  C   UNL A   1      42.155  29.651  29.063  1.00  0.00     0.074 A 
ATOM     54  C   UNL A   1      48.402  29.433  27.994  1.00  0.00     0.029 A 
ATOM     55  N   UNL A   1      46.250  28.931  28.251  1.00  0.00    -0.354 N 
ATOM     56  N   UNL A   1      43.435  29.512  28.821  1.00  0.00    -0.248 NA
ATOM     57  C   UNL A   1      41.767  31.000  29.500  1.00  0.00     0.031 C 
ATOM     58  C   UNL A   1      47.725  30.584  28.415  1.00  0.00     0.029 A 
ATOM     59  C   UNL A   1      46.382  30.276  28.555  1.00  0.00     0.049 A 
ATOM     60  H   UNL A   1      45.404  28.429  28.266  1.00  0.00     0.167 HD
ATOM     61  C   UNL A   1      44.002  30.760  29.050  1.00  0.00     0.074 A 
ATOM     62  C   UNL A   1      42.924  31.645  29.440  1.00  0.00     0.031 C 
ATOM     63  C   UNL A   1      45.299  31.140  28.943  1.00  0.00     0.031 A 
BRANCH  50  64
ATOM     64  C   UNL A   1      49.121  26.576  27.301  1.00  0.00    -0.014 A 
ATOM     65  C   UNL A   1      50.005  26.262  28.346  1.00  0.00     0.009 A 
ATOM     66  C   UNL A   1      49.561  26.452  25.975  1.00  0.00     0.009 A 
ATOM     67  C   UNL A   1      51.313  25.862  28.067  1.00  0.00     0.001 A 
ATOM     68  C   UNL A   1      50.864  26.031  25.699  1.00  0.00     0.001 A 
ATOM     69  C   UNL A   1      51.740  25.744  26.745  1.00  0.00     0.000 A 
ENDBRANCH  50  64
BRANCH  51  70
ATOM     70  C   UNL A   1      39.645  29.007  29.242  1.00  0.00    -0.014 A 
ATOM     71  C   UNL A   1      39.117  28.823  30.529  1.00  0.00     0.009 A 
ATOM     72  C   UNL A   1      38.821  29.540  28.238  1.00  0.00     0.009 A 
ATOM     73  C   UNL A   1      37.785  29.146  30.798  1.00  0.00     0.001 A 
ATOM     74  C   UNL A   1      37.497  29.883  28.516  1.00  0.00     0.001 A 
ATOM     75  C   UNL A   1      36.978  29.678  29.793  1.00  0.00     0.000 A 
ENDBRANCH  51  70
BRANCH  63  76
ATOM     76  C   UNL A   1      45.618  32.581  29.221  1.00  0.00    -0.014 A 
ATOM     77  C   UNL A   1      45.552  33.548  28.208  1.00  0.00     0.009 A 
ATOM     78  C   UNL A   1      45.941  32.980  30.527  1.00  0.00     0.009 A 
ATOM     79  C   UNL A   1      45.835  34.886  28.493  1.00  0.00     0.001 A 
ATOM     80  C   UNL A   1      46.200  34.321  30.813  1.00  0.00     0.001 A 
ATOM     81  C   UNL A   1      46.153  35.272  29.794  1.00  0.00     0.000 A 
ENDBRANCH  63  76
ENDBRANCH  37  38
ENDBRANCH  30  32
ENDBRANCH  29  30
ENDBRANCH  28  29
ENDBRANCH  27  28
ENDBRANCH   1  27
TORSDOF 17
ENDMDL
MODEL 2
REMARK VINA RESULT:     -10.3      1.678      3.158
REMARK SMILES [NH3+]Cc1c(-c2ccccc2)c(C(=O)OCCOCCOC(=O)c2ccc(-c3c4nc(c(-c5ccccc5)c5ccc([nH]5)c(-c5ccccc5)c5nc(c(-c6ccccc6)c6ccc3[nH]6)C=C5)C=C4)cc2)c2ccccn12
REMARK SMILES IDX 17 1 16 2 15 3 14 4 12 5 13 6 11 7 3 8 4 9 76 10 71 11 75 12
REMARK SMILES IDX 72 13 74 14 73 15 2 16 1 17 5 21 6 22 10 23 7 24 9 25 8 26
REMARK SMILES IDX 18 27 19 28 20 29 21 30 22 31 23 32 24 33 70 34 25 35 69 36
REMARK SMILES IDX 26 37 27 38 28 39 63 40 29 41 68 42 62 43 64 44 30 45 67 46
REMARK SMILES IDX 61 47 60 48 31 50 53 51 38 52 52 53 39 54 42 55 51 56 65 57
REMARK SMILES IDX 40 58 41 59 50 61 66 62 43 63 32 64 33 65 37 66 34 67 36 68
REMARK SMILES IDX 35 69 54 70 55 71 59 72 56 73 58 74 57 75 44 76 45 77 49 78
REMARK SMILES IDX 46 79 48 80 47 81
REMARK H PARENT 1 18 1 19 1 20 64 49 42 60
REMARK Flexibility Score: inf
ROOT
ATOM      1  O   UNL A   1      38.842  21.993  25.595  1.00  0.00    -0.374 OA
ENDROOT
BRANCH   1   2
ATOM      2  C   UNL A   1      37.922  22.987  26.060  1.00  0.00     0.202 C 
BRANCH   2   3
ATOM      3  C   UNL A   1      37.079  23.640  24.964  1.00  0.00     0.261 C 
BRANCH   3   4
ATOM      4  O   UNL A   1      35.984  22.770  24.625  1.00  0.00    -0.460 OA
BRANCH   4   5
ATOM      5  C   UNL A   1      35.026  23.310  23.822  1.00  0.00     0.341 C 
ATOM      6  O   UNL A   1      35.121  23.403  22.604  1.00  0.00    -0.246 OA
BRANCH   5   7
ATOM      7  C   UNL A   1      33.817  23.677  24.554  1.00  0.00     0.093 A 
ATOM      8  C   UNL A   1      31.719  23.539  25.459  1.00  0.00     0.086 A 
ATOM      9  C   UNL A   1      32.703  22.816  24.802  1.00  0.00     0.024 A 
ATOM     10  N   UNL A   1      32.231  24.805  25.703  1.00  0.00    -0.314 N 
ATOM     11  C   UNL A   1      33.527  24.876  25.185  1.00  0.00     0.061 A 
ATOM     12  C   UNL A   1      31.622  25.888  26.348  1.00  0.00     0.092 A 
ATOM     13  C   UNL A   1      34.239  26.102  25.373  1.00  0.00     0.027 A 
ATOM     14  C   UNL A   1      32.291  27.041  26.504  1.00  0.00     0.018 A 
ATOM     15  C   UNL A   1      33.650  27.134  26.006  1.00  0.00     0.004 A 
BRANCH   8  16
ATOM     16  C   UNL A   1      30.353  23.120  25.887  1.00  0.00     0.315 C 
BRANCH  16  17
ATOM     17  N   UNL A   1      30.415  22.496  27.202  1.00  0.00    -0.353 N 
ATOM     18  H   UNL A   1      30.536  23.215  27.914  1.00  0.00     0.344 HD
ATOM     19  H   UNL A   1      31.204  21.850  27.234  1.00  0.00     0.344 HD
ATOM     20  H   UNL A   1      29.550  21.985  27.376  1.00  0.00     0.344 HD
ENDBRANCH  16  17
ENDBRANCH   8  16
BRANCH   9  21
ATOM     21  C   UNL A   1      32.616  21.393  24.531  1.00  0.00    -0.015 A 
ATOM     22  C   UNL A   1      32.991  20.483  25.530  1.00  0.00     0.009 A 
ATOM     23  C   UNL A   1      32.253  20.923  23.269  1.00  0.00     0.009 A 
ATOM     24  C   UNL A   1      33.032  19.117  25.258  1.00  0.00     0.001 A 
ATOM     25  C   UNL A   1      32.283  19.552  23.003  1.00  0.00     0.001 A 
ATOM     26  C   UNL A   1      32.680  18.652  23.993  1.00  0.00     0.000 A 
ENDBRANCH   9  21
ENDBRANCH   5   7
ENDBRANCH   4   5
ENDBRANCH   3   4
ENDBRANCH   2   3
ENDBRANCH   1   2
BRANCH   1  27
ATOM     27  C   UNL A   1      38.321  20.678  25.412  1.00  0.00     0.202 C 
BRANCH  27  28
ATOM     28  C   UNL A   1      39.363  19.555  25.422  1.00  0.00     0.261 C 
BRANCH  28  29
ATOM     29  O   UNL A   1      40.315  19.722  26.483  1.00  0.00    -0.460 OA
BRANCH  29  30
ATOM     30  C   UNL A   1      41.587  19.913  26.059  1.00  0.00     0.338 C 
ATOM     31  O   UNL A   1      42.219  19.229  25.272  1.00  0.00    -0.246 OA
BRANCH  30  32
ATOM     32  C   UNL A   1      42.093  21.200  26.573  1.00  0.00     0.060 A 
ATOM     33  C   UNL A   1      42.075  21.385  27.960  1.00  0.00     0.016 A 
ATOM     34  C   UNL A   1      42.530  22.220  25.723  1.00  0.00     0.016 A 
ATOM     35  C   UNL A   1      42.445  22.613  28.502  1.00  0.00     0.010 A 
ATOM     36  C   UNL A   1      42.895  23.455  26.268  1.00  0.00     0.010 A 
ATOM     37  C   UNL A   1      42.818  23.666  27.656  1.00  0.00    -0.014 A 
BRANCH  37  38
ATOM     38  C   UNL A   1      42.980  25.022  28.225  1.00  0.00     0.031 A 
ATOM     39  C   UNL A   1      44.350  25.476  28.643  1.00  0.00     0.074 A 
ATOM     40  C   UNL A   1      41.930  25.855  28.323  1.00  0.00     0.049 A 
ATOM     41  N   UNL A   1      44.730  26.635  29.117  1.00  0.00    -0.248 NA
ATOM     42  C   UNL A   1      45.438  24.494  28.508  1.00  0.00     0.031 C 
ATOM     43  C   UNL A   1      40.560  25.541  27.924  1.00  0.00     0.029 A 
ATOM     44  N   UNL A   1      41.862  27.144  28.787  1.00  0.00    -0.354 N 
ATOM     45  C   UNL A   1      46.097  26.524  29.332  1.00  0.00     0.074 A 
ATOM     46  C   UNL A   1      46.476  25.175  28.970  1.00  0.00     0.031 C 
ATOM     47  C   UNL A   1      39.783  26.613  28.159  1.00  0.00     0.029 A 
ATOM     48  C   UNL A   1      40.598  27.678  28.741  1.00  0.00     0.049 A 
ATOM     49  H   UNL A   1      42.644  27.639  29.122  1.00  0.00     0.167 HD
ATOM     50  C   UNL A   1      46.963  27.461  29.783  1.00  0.00     0.031 A 
ATOM     51  C   UNL A   1      40.151  28.887  29.127  1.00  0.00     0.031 A 
ATOM     52  C   UNL A   1      46.588  28.797  30.158  1.00  0.00     0.049 A 
ATOM     53  C   UNL A   1      41.123  29.892  29.683  1.00  0.00     0.074 A 
ATOM     54  C   UNL A   1      47.395  29.825  30.611  1.00  0.00     0.029 A 
ATOM     55  N   UNL A   1      45.291  29.285  30.132  1.00  0.00    -0.354 N 
ATOM     56  N   UNL A   1      42.419  29.787  29.843  1.00  0.00    -0.248 NA
ATOM     57  C   UNL A   1      40.568  31.188  30.099  1.00  0.00     0.031 C 
ATOM     58  C   UNL A   1      46.579  30.924  30.903  1.00  0.00     0.029 A 
ATOM     59  C   UNL A   1      45.271  30.594  30.585  1.00  0.00     0.049 A 
ATOM     60  H   UNL A   1      44.502  28.778  29.836  1.00  0.00     0.167 HD
ATOM     61  C   UNL A   1      42.839  31.010  30.352  1.00  0.00     0.074 A 
ATOM     62  C   UNL A   1      41.660  31.844  30.465  1.00  0.00     0.031 C 
ATOM     63  C   UNL A   1      44.089  31.407  30.692  1.00  0.00     0.031 A 
BRANCH  50  64
ATOM     64  C   UNL A   1      48.402  27.057  29.918  1.00  0.00    -0.014 A 
ATOM     65  C   UNL A   1      48.880  26.453  31.092  1.00  0.00     0.009 A 
ATOM     66  C   UNL A   1      49.287  27.264  28.850  1.00  0.00     0.009 A 
ATOM     67  C   UNL A   1      50.224  26.094  31.205  1.00  0.00     0.001 A 
ATOM     68  C   UNL A   1      50.627  26.884  28.958  1.00  0.00     0.001 A 
ATOM     69  C   UNL A   1      51.095  26.308  30.137  1.00  0.00     0.000 A 
ENDBRANCH  50  64
BRANCH  51  70
ATOM     70  C   UNL A   1      38.708  29.217  29.006  1.00  0.00    -0.014 A 
ATOM     71  C   UNL A   1      38.174  29.652  27.784  1.00  0.00     0.009 A 
ATOM     72  C   UNL A   1      37.860  29.107  30.119  1.00  0.00     0.009 A 
ATOM     73  C   UNL A   1      36.822  29.991  27.686  1.00  0.00     0.001 A 
ATOM     74  C   UNL A   1      36.505  29.424  30.012  1.00  0.00     0.001 A 
ATOM     75  C   UNL A   1      35.989  29.873  28.797  1.00  0.00     0.000 A 
ENDBRANCH  51  70
BRANCH  63  76
ATOM     76  C   UNL A   1      44.251  32.816  31.188  1.00  0.00    -0.014 A 
ATOM     77  C   UNL A   1      44.184  33.116  32.556  1.00  0.00     0.009 A 
ATOM     78  C   UNL A   1      44.522  33.846  30.275  1.00  0.00     0.009 A 
ATOM     79  C   UNL A   1      44.356  34.430  32.999  1.00  0.00     0.001 A 
ATOM     80  C   UNL A   1      44.718  35.154  30.722  1.00  0.00     0.001 A 
ATOM     81  C   UNL A   1      44.627  35.446  32.082  1.00  0.00     0.000 A 
ENDBRANCH  63  76
ENDBRANCH  37  38
ENDBRANCH  30  32
ENDBRANCH  29  30
ENDBRANCH  28  29
ENDBRANCH  27  28
ENDBRANCH   1  27
TORSDOF 17
ENDMDL
MODEL 3
REMARK VINA RESULT:     -10.3      1.511      6.580
REMARK SMILES [NH3+]Cc1c(-c2ccccc2)c(C(=O)OCCOCCOC(=O)c2ccc(-c3c4nc(c(-c5ccccc5)c5ccc([nH]5)c(-c5ccccc5)c5nc(c(-c6ccccc6)c6ccc3[nH]6)C=C5)C=C4)cc2)c2ccccn12
REMARK SMILES IDX 17 1 16 2 15 3 14 4 12 5 13 6 11 7 3 8 4 9 76 10 71 11 75 12
REMARK SMILES IDX 72 13 74 14 73 15 2 16 1 17 5 21 6 22 10 23 7 24 9 25 8 26
REMARK SMILES IDX 18 27 19 28 20 29 21 30 22 31 23 32 24 33 70 34 25 35 69 36
REMARK SMILES IDX 26 37 27 38 28 39 63 40 29 41 68 42 62 43 64 44 30 45 67 46
REMARK SMILES IDX 61 47 60 48 31 50 53 51 38 52 52 53 39 54 42 55 51 56 65 57
REMARK SMILES IDX 40 58 41 59 50 61 66 62 43 63 32 64 33 65 37 66 34 67 36 68
REMARK SMILES IDX 35 69 54 70 55 71 59 72 56 73 58 74 57 75 44 76 45 77 49 78
REMARK SMILES IDX 46 79 48 80 47 81
REMARK H PARENT 1 18 1 19 1 20 64 49 42 60
REMARK Flexibility Score: inf
ROOT
ATOM      1  O   UNL A   1      38.520  21.453  25.809  1.00  0.00    -0.374 OA
ENDROOT
BRANCH   1   2
ATOM      2  C   UNL A   1      37.279  22.156  25.684  1.00  0.00     0.202 C 
BRANCH   2   3
ATOM      3  C   UNL A   1      36.837  22.424  24.244  1.00  0.00     0.261 C 
BRANCH   3   4
ATOM      4  O   UNL A   1      36.085  23.650  24.200  1.00  0.00    -0.460 OA
BRANCH   4   5
ATOM      5  C   UNL A   1      34.916  23.601  23.502  1.00  0.00     0.341 C 
ATOM      6  O   UNL A   1      34.838  23.327  22.310  1.00  0.00    -0.246 OA
BRANCH   5   7
ATOM      7  C   UNL A   1      33.745  23.810  24.347  1.00  0.00     0.093 A 
ATOM      8  C   UNL A   1      31.771  23.408  25.435  1.00  0.00     0.086 A 
ATOM      9  C   UNL A   1      32.771  22.817  24.677  1.00  0.00     0.024 A 
ATOM     10  N   UNL A   1      32.146  24.724  25.657  1.00  0.00    -0.314 N 
ATOM     11  C   UNL A   1      33.371  24.960  25.026  1.00  0.00     0.061 A 
ATOM     12  C   UNL A   1      31.472  25.719  26.377  1.00  0.00     0.092 A 
ATOM     13  C   UNL A   1      33.943  26.262  25.174  1.00  0.00     0.027 A 
ATOM     14  C   UNL A   1      32.007  26.943  26.494  1.00  0.00     0.018 A 
ATOM     15  C   UNL A   1      33.293  27.208  25.879  1.00  0.00     0.004 A 
BRANCH   8  16
ATOM     16  C   UNL A   1      30.512  22.821  25.975  1.00  0.00     0.315 C 
BRANCH  16  17
ATOM     17  N   UNL A   1      30.685  22.486  27.382  1.00  0.00    -0.353 N 
ATOM     18  H   UNL A   1      31.417  21.784  27.477  1.00  0.00     0.344 HD
ATOM     19  H   UNL A   1      29.810  22.116  27.753  1.00  0.00     0.344 HD
ATOM     20  H   UNL A   1      30.946  23.325  27.901  1.00  0.00     0.344 HD
ENDBRANCH  16  17
ENDBRANCH   8  16
BRANCH   9  21
ATOM     21  C   UNL A   1      32.833  21.396  24.386  1.00  0.00    -0.015 A 
ATOM     22  C   UNL A   1      32.260  20.917  23.199  1.00  0.00     0.009 A 
ATOM     23  C   UNL A   1      33.370  20.498  25.307  1.00  0.00     0.009 A 
ATOM     24  C   UNL A   1      32.198  19.546  22.951  1.00  0.00     0.001 A 
ATOM     25  C   UNL A   1      33.318  19.126  25.051  1.00  0.00     0.001 A 
ATOM     26  C   UNL A   1      32.724  18.651  23.879  1.00  0.00     0.000 A 
ENDBRANCH   9  21
ENDBRANCH   5   7
ENDBRANCH   4   5
ENDBRANCH   3   4
ENDBRANCH   2   3
ENDBRANCH   1   2
BRANCH   1  27
ATOM     27  C   UNL A   1      38.582  20.158  25.215  1.00  0.00     0.202 C 
BRANCH  27  28
ATOM     28  C   UNL A   1      39.636  19.216  25.807  1.00  0.00     0.261 C 
BRANCH  28  29
ATOM     29  O   UNL A   1      40.929  19.433  25.223  1.00  0.00    -0.460 OA
BRANCH  29  30
ATOM     30  C   UNL A   1      41.933  19.529  26.126  1.00  0.00     0.338 C 
ATOM     31  O   UNL A   1      42.760  18.680  26.412  1.00  0.00    -0.246 OA
BRANCH  30  32
ATOM     32  C   UNL A   1      42.005  20.909  26.642  1.00  0.00     0.060 A 
ATOM     33  C   UNL A   1      42.318  21.918  25.725  1.00  0.00     0.016 A 
ATOM     34  C   UNL A   1      41.820  21.209  27.994  1.00  0.00     0.016 A 
ATOM     35  C   UNL A   1      42.499  23.227  26.165  1.00  0.00     0.010 A 
ATOM     36  C   UNL A   1      42.009  22.521  28.437  1.00  0.00     0.010 A 
ATOM     37  C   UNL A   1      42.385  23.527  27.528  1.00  0.00    -0.014 A 
BRANCH  37  38
ATOM     38  C   UNL A   1      42.808  24.861  28.009  1.00  0.00     0.031 A 
ATOM     39  C   UNL A   1      41.763  25.919  28.227  1.00  0.00     0.074 A 
ATOM     40  C   UNL A   1      44.097  25.111  28.293  1.00  0.00     0.049 A 
ATOM     41  N   UNL A   1      41.901  27.135  28.689  1.00  0.00    -0.248 NA
ATOM     42  C   UNL A   1      40.379  25.558  27.881  1.00  0.00     0.031 C 
ATOM     43  C   UNL A   1      45.196  24.159  28.151  1.00  0.00     0.029 A 
ATOM     44  N   UNL A   1      44.694  26.251  28.768  1.00  0.00    -0.354 N 
ATOM     45  C   UNL A   1      40.625  27.683  28.693  1.00  0.00     0.074 A 
ATOM     46  C   UNL A   1      39.730  26.680  28.157  1.00  0.00     0.031 C 
ATOM     47  C   UNL A   1      46.339  24.755  28.534  1.00  0.00     0.029 A 
ATOM     48  C   UNL A   1      46.052  26.132  28.929  1.00  0.00     0.049 A 
ATOM     49  H   UNL A   1      44.197  27.075  28.973  1.00  0.00     0.167 HD
ATOM     50  C   UNL A   1      40.229  28.907  29.113  1.00  0.00     0.031 A 
ATOM     51  C   UNL A   1      46.960  27.035  29.345  1.00  0.00     0.031 A 
ATOM     52  C   UNL A   1      41.116  29.911  29.631  1.00  0.00     0.049 A 
ATOM     53  C   UNL A   1      46.504  28.411  29.749  1.00  0.00     0.074 A 
ATOM     54  C   UNL A   1      40.809  31.178  30.097  1.00  0.00     0.029 A 
ATOM     55  N   UNL A   1      42.490  29.765  29.742  1.00  0.00    -0.354 N 
ATOM     56  N   UNL A   1      45.289  28.901  29.786  1.00  0.00    -0.248 NA
ATOM     57  C   UNL A   1      47.547  29.352  30.181  1.00  0.00     0.031 C 
ATOM     58  C   UNL A   1      42.004  31.815  30.449  1.00  0.00     0.029 A 
ATOM     59  C   UNL A   1      43.049  30.927  30.246  1.00  0.00     0.049 A 
ATOM     60  H   UNL A   1      42.993  28.955  29.499  1.00  0.00     0.167 HD
ATOM     61  C   UNL A   1      45.417  30.197  30.269  1.00  0.00     0.074 A 
ATOM     62  C   UNL A   1      46.827  30.413  30.521  1.00  0.00     0.031 C 
ATOM     63  C   UNL A   1      44.453  31.125  30.488  1.00  0.00     0.031 A 
BRANCH  50  64
ATOM     64  C   UNL A   1      38.768  29.232  28.999  1.00  0.00    -0.014 A 
ATOM     65  C   UNL A   1      38.220  29.704  27.795  1.00  0.00     0.009 A 
ATOM     66  C   UNL A   1      37.924  29.045  30.104  1.00  0.00     0.009 A 
ATOM     67  C   UNL A   1      36.861  30.012  27.712  1.00  0.00     0.001 A 
ATOM     68  C   UNL A   1      36.561  29.333  30.010  1.00  0.00     0.001 A 
ATOM     69  C   UNL A   1      36.033  29.824  28.817  1.00  0.00     0.000 A 
ENDBRANCH  50  64
BRANCH  51  70
ATOM     70  C   UNL A   1      48.397  26.669  29.399  1.00  0.00    -0.014 A 
ATOM     71  C   UNL A   1      49.232  26.878  28.291  1.00  0.00     0.009 A 
ATOM     72  C   UNL A   1      48.940  26.097  30.561  1.00  0.00     0.009 A 
ATOM     73  C   UNL A   1      50.576  26.502  28.338  1.00  0.00     0.001 A 
ATOM     74  C   UNL A   1      50.289  25.744  30.613  1.00  0.00     0.001 A 
ATOM     75  C   UNL A   1      51.104  25.939  29.499  1.00  0.00     0.000 A 
ENDBRANCH  51  70
BRANCH  63  76
ATOM     76  C   UNL A   1      44.887  32.445  31.056  1.00  0.00    -0.014 A 
ATOM     77  C   UNL A   1      44.974  32.647  32.441  1.00  0.00     0.009 A 
ATOM     78  C   UNL A   1      45.260  33.485  30.190  1.00  0.00     0.009 A 
ATOM     79  C   UNL A   1      45.397  33.877  32.949  1.00  0.00     0.001 A 
ATOM     80  C   UNL A   1      45.706  34.705  30.700  1.00  0.00     0.001 A 
ATOM     81  C   UNL A   1      45.767  34.903  32.079  1.00  0.00     0.000 A 
ENDBRANCH  63  76
ENDBRANCH  37  38
ENDBRANCH  30  32
ENDBRANCH  29  30
ENDBRANCH  28  29
ENDBRANCH  27  28
ENDBRANCH   1  27
TORSDOF 17
ENDMDL
