MODEL 1
REMARK VINA RESULT:      -9.1      0.000      0.000
REMARK SMILES C[C@H]([NH2+][C@@H](C)Cc1cccs1)[C@@H](C)C(=O)OCCOCCOC(=O)c1ccc(-c2c3nc(c(-c4ccccc4)c4ccc([nH]4)c(-c4ccccc4)c4nc(c(-c5ccccc5)c5ccc2[nH]5)C=C4)C=C3)cc1
REMARK SMILES IDX 17 1 16 2 14 3 15 4 12 5 13 6 2 7 1 8 3 9 4 12 5 13 6 14
REMARK SMILES IDX 7 15 8 16 11 17 9 18 10 19 18 20 19 21 20 22 21 23 22 24
REMARK SMILES IDX 23 25 24 26 25 27 26 28 72 29 27 30 71 31 28 32 29 33 30 34
REMARK SMILES IDX 65 35 31 36 70 37 64 38 66 39 32 40 69 41 63 42 62 43 33 45
REMARK SMILES IDX 55 46 40 47 54 48 41 49 44 50 53 51 67 52 42 53 43 54 52 56
REMARK SMILES IDX 68 57 45 58 34 59 35 60 39 61 36 62 38 63 37 64 56 65 57 66
REMARK SMILES IDX 61 67 58 68 60 69 59 70 46 71 47 72 51 73 48 74 50 75 49 76
REMARK H PARENT 3 10 3 11 66 44 44 55
REMARK Flexibility Score: inf
ROOT
ATOM      1  C   UNL A   1      34.565  23.708  25.814  1.00  0.00     0.261 C 
ENDROOT
BRANCH   1   2
ATOM      2  O   UNL A   1      33.461  24.618  25.624  1.00  0.00    -0.463 OA
BRANCH   2   3
ATOM      3  C   UNL A   1      32.351  24.268  26.326  1.00  0.00     0.314 C 
ATOM      4  O   UNL A   1      32.385  23.601  27.360  1.00  0.00    -0.252 OA
BRANCH   3   5
ATOM      5  C   UNL A   1      31.022  24.631  25.687  1.00  0.00     0.154 C 
ATOM      6  C   UNL A   1      30.908  23.836  24.379  1.00  0.00     0.026 C 
BRANCH   5   7
ATOM      7  C   UNL A   1      30.549  26.093  25.500  1.00  0.00     0.193 C 
ATOM      8  C   UNL A   1      29.633  26.439  24.330  1.00  0.00     0.076 C 
BRANCH   7   9
ATOM      9  N   UNL A   1      31.684  27.045  25.555  1.00  0.00    -0.341 N 
ATOM     10  H   UNL A   1      32.049  27.122  24.605  1.00  0.00     0.346 HD
ATOM     11  H   UNL A   1      32.296  26.638  26.262  1.00  0.00     0.346 HD
BRANCH   9  12
ATOM     12  C   UNL A   1      31.471  28.425  26.044  1.00  0.00     0.184 C 
ATOM     13  C   UNL A   1      31.530  28.272  27.578  1.00  0.00     0.075 C 
BRANCH  12  14
ATOM     14  C   UNL A   1      32.536  29.494  25.659  1.00  0.00     0.111 C 
BRANCH  14  15
ATOM     15  C   UNL A   1      33.657  29.806  26.624  1.00  0.00     0.010 A 
ATOM     16  C   UNL A   1      34.717  28.967  26.933  1.00  0.00     0.015 A 
ATOM     17  S   UNL A   1      33.762  31.251  27.539  1.00  0.00    -0.149 S 
ATOM     18  C   UNL A   1      35.713  29.609  27.722  1.00  0.00     0.012 A 
ATOM     19  C   UNL A   1      35.357  30.899  28.043  1.00  0.00     0.065 A 
ENDBRANCH  14  15
ENDBRANCH  12  14
ENDBRANCH   9  12
ENDBRANCH   7   9
ENDBRANCH   5   7
ENDBRANCH   3   5
ENDBRANCH   2   3
ENDBRANCH   1   2
BRANCH   1  20
ATOM     20  C   UNL A   1      34.448  22.318  25.165  1.00  0.00     0.202 C 
BRANCH  20  21
ATOM     21  O   UNL A   1      35.049  21.194  25.789  1.00  0.00    -0.374 OA
BRANCH  21  22
ATOM     22  C   UNL A   1      35.723  20.256  24.953  1.00  0.00     0.202 C 
BRANCH  22  23
ATOM     23  C   UNL A   1      37.251  20.363  24.834  1.00  0.00     0.261 C 
BRANCH  23  24
ATOM     24  O   UNL A   1      37.776  21.459  25.611  1.00  0.00    -0.460 OA
BRANCH  24  25
ATOM     25  C   UNL A   1      39.020  21.265  26.103  1.00  0.00     0.338 C 
ATOM     26  O   UNL A   1      39.743  20.290  25.940  1.00  0.00    -0.246 OA
BRANCH  25  27
ATOM     27  C   UNL A   1      39.516  22.511  26.708  1.00  0.00     0.060 A 
ATOM     28  C   UNL A   1      38.926  23.710  26.288  1.00  0.00     0.016 A 
ATOM     29  C   UNL A   1      40.596  22.519  27.593  1.00  0.00     0.016 A 
ATOM     30  C   UNL A   1      39.451  24.928  26.703  1.00  0.00     0.010 A 
ATOM     31  C   UNL A   1      41.132  23.745  28.000  1.00  0.00     0.010 A 
ATOM     32  C   UNL A   1      40.589  24.953  27.519  1.00  0.00    -0.014 A 
BRANCH  32  33
ATOM     33  C   UNL A   1      41.310  26.234  27.698  1.00  0.00     0.031 A 
ATOM     34  C   UNL A   1      40.701  27.284  28.588  1.00  0.00     0.074 A 
ATOM     35  C   UNL A   1      42.516  26.430  27.140  1.00  0.00     0.049 A 
ATOM     36  N   UNL A   1      41.157  28.469  28.906  1.00  0.00    -0.248 NA
ATOM     37  C   UNL A   1      39.407  26.951  29.206  1.00  0.00     0.031 C 
ATOM     38  C   UNL A   1      43.233  25.459  26.314  1.00  0.00     0.029 A 
ATOM     39  N   UNL A   1      43.356  27.512  27.195  1.00  0.00    -0.354 N 
ATOM     40  C   UNL A   1      40.205  29.021  29.755  1.00  0.00     0.074 A 
ATOM     41  C   UNL A   1      39.133  28.059  29.876  1.00  0.00     0.031 C 
ATOM     42  C   UNL A   1      44.410  25.991  25.941  1.00  0.00     0.029 A 
ATOM     43  C   UNL A   1      44.511  27.349  26.472  1.00  0.00     0.049 A 
ATOM     44  H   UNL A   1      43.150  28.329  27.705  1.00  0.00     0.167 HD
ATOM     45  C   UNL A   1      40.226  30.221  30.383  1.00  0.00     0.031 A 
ATOM     46  C   UNL A   1      45.525  28.207  26.251  1.00  0.00     0.031 A 
ATOM     47  C   UNL A   1      41.287  31.182  30.244  1.00  0.00     0.049 A 
ATOM     48  C   UNL A   1      45.479  29.572  26.883  1.00  0.00     0.074 A 
ATOM     49  C   UNL A   1      41.406  32.428  30.834  1.00  0.00     0.029 A 
ATOM     50  N   UNL A   1      42.410  31.004  29.450  1.00  0.00    -0.354 N 
ATOM     51  N   UNL A   1      44.581  30.080  27.693  1.00  0.00    -0.248 NA
ATOM     52  C   UNL A   1      46.594  30.481  26.575  1.00  0.00     0.031 C 
ATOM     53  C   UNL A   1      42.572  33.029  30.348  1.00  0.00     0.029 A 
ATOM     54  C   UNL A   1      43.212  32.130  29.510  1.00  0.00     0.049 A 
ATOM     55  H   UNL A   1      42.606  30.197  28.921  1.00  0.00     0.167 HD
ATOM     56  C   UNL A   1      45.035  31.353  28.015  1.00  0.00     0.074 A 
ATOM     57  C   UNL A   1      46.297  31.533  27.325  1.00  0.00     0.031 C 
ATOM     58  C   UNL A   1      44.463  32.289  28.813  1.00  0.00     0.031 A 
BRANCH  45  59
ATOM     59  C   UNL A   1      39.040  30.573  31.241  1.00  0.00    -0.014 A 
ATOM     60  C   UNL A   1      39.011  30.273  32.612  1.00  0.00     0.009 A 
ATOM     61  C   UNL A   1      37.941  31.232  30.669  1.00  0.00     0.009 A 
ATOM     62  C   UNL A   1      37.891  30.592  33.384  1.00  0.00     0.001 A 
ATOM     63  C   UNL A   1      36.835  31.577  31.448  1.00  0.00     0.001 A 
ATOM     64  C   UNL A   1      36.806  31.247  32.802  1.00  0.00     0.000 A 
ENDBRANCH  45  59
BRANCH  46  65
ATOM     65  C   UNL A   1      46.661  27.810  25.378  1.00  0.00    -0.014 A 
ATOM     66  C   UNL A   1      47.796  27.181  25.914  1.00  0.00     0.009 A 
ATOM     67  C   UNL A   1      46.623  28.072  23.998  1.00  0.00     0.009 A 
ATOM     68  C   UNL A   1      48.875  26.845  25.092  1.00  0.00     0.001 A 
ATOM     69  C   UNL A   1      47.690  27.707  23.174  1.00  0.00     0.001 A 
ATOM     70  C   UNL A   1      48.818  27.103  23.723  1.00  0.00     0.000 A 
ENDBRANCH  46  65
BRANCH  58  71
ATOM     71  C   UNL A   1      45.216  33.576  29.011  1.00  0.00    -0.014 A 
ATOM     72  C   UNL A   1      46.175  33.716  30.025  1.00  0.00     0.009 A 
ATOM     73  C   UNL A   1      44.988  34.652  28.138  1.00  0.00     0.009 A 
ATOM     74  C   UNL A   1      46.865  34.919  30.184  1.00  0.00     0.001 A 
ATOM     75  C   UNL A   1      45.701  35.842  28.279  1.00  0.00     0.001 A 
ATOM     76  C   UNL A   1      46.631  35.978  29.307  1.00  0.00     0.000 A 
ENDBRANCH  58  71
ENDBRANCH  32  33
ENDBRANCH  25  27
ENDBRANCH  24  25
ENDBRANCH  23  24
ENDBRANCH  22  23
ENDBRANCH  21  22
ENDBRANCH  20  21
ENDBRANCH   1  20
TORSDOF 19
ENDMDL
MODEL 2
REMARK VINA RESULT:      -9.0      4.202      8.347
REMARK SMILES C[C@H]([NH2+][C@@H](C)Cc1cccs1)[C@@H](C)C(=O)OCCOCCOC(=O)c1ccc(-c2c3nc(c(-c4ccccc4)c4ccc([nH]4)c(-c4ccccc4)c4nc(c(-c5ccccc5)c5ccc2[nH]5)C=C4)C=C3)cc1
REMARK SMILES IDX 17 1 16 2 14 3 15 4 12 5 13 6 2 7 1 8 3 9 4 12 5 13 6 14
REMARK SMILES IDX 7 15 8 16 11 17 9 18 10 19 18 20 19 21 20 22 21 23 22 24
REMARK SMILES IDX 23 25 24 26 25 27 26 28 72 29 27 30 71 31 28 32 29 33 30 34
REMARK SMILES IDX 65 35 31 36 70 37 64 38 66 39 32 40 69 41 63 42 62 43 33 45
REMARK SMILES IDX 55 46 40 47 54 48 41 49 44 50 53 51 67 52 42 53 43 54 52 56
REMARK SMILES IDX 68 57 45 58 34 59 35 60 39 61 36 62 38 63 37 64 56 65 57 66
REMARK SMILES IDX 61 67 58 68 60 69 59 70 46 71 47 72 51 73 48 74 50 75 49 76
REMARK H PARENT 3 10 3 11 66 44 44 55
REMARK Flexibility Score: inf
ROOT
ATOM      1  C   UNL A   1      39.191  21.937  26.155  1.00  0.00     0.261 C 
ENDROOT
BRANCH   1   2
ATOM      2  O   UNL A   1      37.924  21.417  25.702  1.00  0.00    -0.463 OA
BRANCH   2   3
ATOM      3  C   UNL A   1      37.032  22.388  25.371  1.00  0.00     0.314 C 
ATOM      4  O   UNL A   1      36.779  23.350  26.095  1.00  0.00    -0.252 OA
BRANCH   3   5
ATOM      5  C   UNL A   1      36.241  22.154  24.095  1.00  0.00     0.154 C 
ATOM      6  C   UNL A   1      36.876  23.016  22.995  1.00  0.00     0.026 C 
BRANCH   5   7
ATOM      7  C   UNL A   1      34.696  22.218  24.040  1.00  0.00     0.193 C 
ATOM      8  C   UNL A   1      34.022  23.293  23.193  1.00  0.00     0.076 C 
BRANCH   7   9
ATOM      9  N   UNL A   1      34.099  22.193  25.397  1.00  0.00    -0.341 N 
ATOM     10  H   UNL A   1      33.198  22.666  25.330  1.00  0.00     0.346 HD
ATOM     11  H   UNL A   1      34.817  22.629  25.976  1.00  0.00     0.346 HD
BRANCH   9  12
ATOM     12  C   UNL A   1      33.854  20.901  26.075  1.00  0.00     0.184 C 
ATOM     13  C   UNL A   1      33.339  21.323  27.467  1.00  0.00     0.075 C 
BRANCH  12  14
ATOM     14  C   UNL A   1      32.773  19.963  25.462  1.00  0.00     0.111 C 
BRANCH  14  15
ATOM     15  C   UNL A   1      33.097  18.503  25.240  1.00  0.00     0.010 A 
ATOM     16  C   UNL A   1      32.570  17.439  25.955  1.00  0.00     0.015 A 
ATOM     17  S   UNL A   1      34.224  17.936  24.081  1.00  0.00    -0.149 S 
ATOM     18  C   UNL A   1      32.912  16.176  25.392  1.00  0.00     0.012 A 
ATOM     19  C   UNL A   1      33.738  16.312  24.300  1.00  0.00     0.065 A 
ENDBRANCH  14  15
ENDBRANCH  12  14
ENDBRANCH   9  12
ENDBRANCH   7   9
ENDBRANCH   5   7
ENDBRANCH   3   5
ENDBRANCH   2   3
ENDBRANCH   1   2
BRANCH   1  20
ATOM     20  C   UNL A   1      40.376  20.957  26.199  1.00  0.00     0.202 C 
BRANCH  20  21
ATOM     21  O   UNL A   1      41.588  21.285  25.537  1.00  0.00    -0.374 OA
BRANCH  21  22
ATOM     22  C   UNL A   1      42.810  20.922  26.177  1.00  0.00     0.202 C 
BRANCH  22  23
ATOM     23  C   UNL A   1      44.099  21.621  25.719  1.00  0.00     0.261 C 
BRANCH  23  24
ATOM     24  O   UNL A   1      44.307  22.871  26.408  1.00  0.00    -0.460 OA
BRANCH  24  25
ATOM     25  C   UNL A   1      44.070  23.977  25.667  1.00  0.00     0.338 C 
ATOM     26  O   UNL A   1      44.293  24.138  24.474  1.00  0.00    -0.246 OA
BRANCH  25  27
ATOM     27  C   UNL A   1      43.274  24.937  26.447  1.00  0.00     0.060 A 
ATOM     28  C   UNL A   1      43.788  26.232  26.593  1.00  0.00     0.016 A 
ATOM     29  C   UNL A   1      42.100  24.559  27.102  1.00  0.00     0.016 A 
ATOM     30  C   UNL A   1      43.165  27.139  27.442  1.00  0.00     0.010 A 
ATOM     31  C   UNL A   1      41.481  25.468  27.966  1.00  0.00     0.010 A 
ATOM     32  C   UNL A   1      42.038  26.745  28.173  1.00  0.00    -0.014 A 
BRANCH  32  33
ATOM     33  C   UNL A   1      41.575  27.604  29.287  1.00  0.00     0.031 A 
ATOM     34  C   UNL A   1      42.333  27.570  30.586  1.00  0.00     0.074 A 
ATOM     35  C   UNL A   1      40.546  28.452  29.120  1.00  0.00     0.049 A 
ATOM     36  N   UNL A   1      42.123  28.245  31.688  1.00  0.00    -0.248 NA
ATOM     37  C   UNL A   1      43.485  26.656  30.650  1.00  0.00     0.031 C 
ATOM     38  C   UNL A   1      39.780  28.620  27.886  1.00  0.00     0.029 A 
ATOM     39  N   UNL A   1      39.977  29.342  29.995  1.00  0.00    -0.354 N 
ATOM     40  C   UNL A   1      43.112  27.833  32.574  1.00  0.00     0.074 A 
ATOM     41  C   UNL A   1      43.899  26.827  31.896  1.00  0.00     0.031 C 
ATOM     42  C   UNL A   1      38.840  29.560  28.082  1.00  0.00     0.029 A 
ATOM     43  C   UNL A   1      38.916  30.032  29.463  1.00  0.00     0.049 A 
ATOM     44  H   UNL A   1      40.298  29.472  30.917  1.00  0.00     0.167 HD
ATOM     45  C   UNL A   1      43.347  28.259  33.838  1.00  0.00     0.031 A 
ATOM     46  C   UNL A   1      38.091  30.930  30.035  1.00  0.00     0.031 A 
ATOM     47  C   UNL A   1      42.548  29.245  34.514  1.00  0.00     0.049 A 
ATOM     48  C   UNL A   1      38.314  31.317  31.473  1.00  0.00     0.074 A 
ATOM     49  C   UNL A   1      42.698  29.748  35.794  1.00  0.00     0.029 A 
ATOM     50  N   UNL A   1      41.442  29.875  33.962  1.00  0.00    -0.354 N 
ATOM     51  N   UNL A   1      39.258  30.930  32.297  1.00  0.00    -0.248 NA
ATOM     52  C   UNL A   1      37.359  32.271  32.056  1.00  0.00     0.031 C 
ATOM     53  C   UNL A   1      41.645  30.636  36.039  1.00  0.00     0.029 A 
ATOM     54  C   UNL A   1      40.881  30.737  34.887  1.00  0.00     0.049 A 
ATOM     55  H   UNL A   1      41.106  29.728  33.049  1.00  0.00     0.167 HD
ATOM     56  C   UNL A   1      39.030  31.615  33.485  1.00  0.00     0.074 A 
ATOM     57  C   UNL A   1      37.868  32.452  33.268  1.00  0.00     0.031 C 
ATOM     58  C   UNL A   1      39.722  31.560  34.650  1.00  0.00     0.031 A 
BRANCH  45  59
ATOM     59  C   UNL A   1      44.489  27.621  34.582  1.00  0.00    -0.014 A 
ATOM     60  C   UNL A   1      44.309  26.454  35.343  1.00  0.00     0.009 A 
ATOM     61  C   UNL A   1      45.770  28.187  34.505  1.00  0.00     0.009 A 
ATOM     62  C   UNL A   1      45.380  25.892  36.041  1.00  0.00     0.001 A 
ATOM     63  C   UNL A   1      46.846  27.606  35.179  1.00  0.00     0.001 A 
ATOM     64  C   UNL A   1      46.648  26.466  35.955  1.00  0.00     0.000 A 
ENDBRANCH  45  59
BRANCH  46  65
ATOM     65  C   UNL A   1      36.967  31.512  29.256  1.00  0.00    -0.014 A 
ATOM     66  C   UNL A   1      37.029  32.830  28.776  1.00  0.00     0.009 A 
ATOM     67  C   UNL A   1      35.813  30.753  28.998  1.00  0.00     0.009 A 
ATOM     68  C   UNL A   1      35.953  33.381  28.077  1.00  0.00     0.001 A 
ATOM     69  C   UNL A   1      34.751  31.297  28.272  1.00  0.00     0.001 A 
ATOM     70  C   UNL A   1      34.818  32.612  27.821  1.00  0.00     0.000 A 
ENDBRANCH  46  65
BRANCH  58  71
ATOM     71  C   UNL A   1      39.261  32.457  35.766  1.00  0.00    -0.014 A 
ATOM     72  C   UNL A   1      38.328  32.021  36.720  1.00  0.00     0.009 A 
ATOM     73  C   UNL A   1      39.805  33.746  35.887  1.00  0.00     0.009 A 
ATOM     74  C   UNL A   1      37.922  32.872  37.749  1.00  0.00     0.001 A 
ATOM     75  C   UNL A   1      39.421  34.582  36.935  1.00  0.00     0.001 A 
ATOM     76  C   UNL A   1      38.473  34.148  37.859  1.00  0.00     0.000 A 
ENDBRANCH  58  71
ENDBRANCH  32  33
ENDBRANCH  25  27
ENDBRANCH  24  25
ENDBRANCH  23  24
ENDBRANCH  22  23
ENDBRANCH  21  22
ENDBRANCH  20  21
ENDBRANCH   1  20
TORSDOF 19
ENDMDL
MODEL 3
REMARK VINA RESULT:      -9.0      0.335      6.088
REMARK SMILES C[C@H]([NH2+][C@@H](C)Cc1cccs1)[C@@H](C)C(=O)OCCOCCOC(=O)c1ccc(-c2c3nc(c(-c4ccccc4)c4ccc([nH]4)c(-c4ccccc4)c4nc(c(-c5ccccc5)c5ccc2[nH]5)C=C4)C=C3)cc1
REMARK SMILES IDX 17 1 16 2 14 3 15 4 12 5 13 6 2 7 1 8 3 9 4 12 5 13 6 14
REMARK SMILES IDX 7 15 8 16 11 17 9 18 10 19 18 20 19 21 20 22 21 23 22 24
REMARK SMILES IDX 23 25 24 26 25 27 26 28 72 29 27 30 71 31 28 32 29 33 30 34
REMARK SMILES IDX 65 35 31 36 70 37 64 38 66 39 32 40 69 41 63 42 62 43 33 45
REMARK SMILES IDX 55 46 40 47 54 48 41 49 44 50 53 51 67 52 42 53 43 54 52 56
REMARK SMILES IDX 68 57 45 58 34 59 35 60 39 61 36 62 38 63 37 64 56 65 57 66
REMARK SMILES IDX 61 67 58 68 60 69 59 70 46 71 47 72 51 73 48 74 50 75 49 76
REMARK H PARENT 3 10 3 11 66 44 44 55
REMARK Flexibility Score: inf
ROOT
ATOM      1  C   UNL A   1      34.577  23.743  25.661  1.00  0.00     0.261 C 
ENDROOT
BRANCH   1   2
ATOM      2  O   UNL A   1      33.496  24.673  25.441  1.00  0.00    -0.463 OA
BRANCH   2   3
ATOM      3  C   UNL A   1      32.366  24.353  26.125  1.00  0.00     0.314 C 
ATOM      4  O   UNL A   1      32.368  23.709  27.174  1.00  0.00    -0.252 OA
BRANCH   3   5
ATOM      5  C   UNL A   1      31.056  24.717  25.448  1.00  0.00     0.154 C 
ATOM      6  C   UNL A   1      31.033  24.016  24.082  1.00  0.00     0.026 C 
BRANCH   5   7
ATOM      7  C   UNL A   1      30.540  26.172  25.343  1.00  0.00     0.193 C 
ATOM      8  C   UNL A   1      29.601  26.552  24.201  1.00  0.00     0.076 C 
BRANCH   7   9
ATOM      9  N   UNL A   1      31.647  27.153  25.436  1.00  0.00    -0.341 N 
ATOM     10  H   UNL A   1      31.967  27.327  24.484  1.00  0.00     0.346 HD
ATOM     11  H   UNL A   1      32.302  26.706  26.078  1.00  0.00     0.346 HD
BRANCH   9  12
ATOM     12  C   UNL A   1      31.415  28.476  26.057  1.00  0.00     0.184 C 
ATOM     13  C   UNL A   1      31.545  28.188  27.567  1.00  0.00     0.075 C 
BRANCH  12  14
ATOM     14  C   UNL A   1      32.430  29.611  25.728  1.00  0.00     0.111 C 
BRANCH  14  15
ATOM     15  C   UNL A   1      33.617  29.832  26.638  1.00  0.00     0.010 A 
ATOM     16  C   UNL A   1      34.649  28.933  26.855  1.00  0.00     0.015 A 
ATOM     17  S   UNL A   1      33.843  31.234  27.595  1.00  0.00    -0.149 S 
ATOM     18  C   UNL A   1      35.718  29.496  27.609  1.00  0.00     0.012 A 
ATOM     19  C   UNL A   1      35.444  30.788  27.995  1.00  0.00     0.065 A 
ENDBRANCH  14  15
ENDBRANCH  12  14
ENDBRANCH   9  12
ENDBRANCH   7   9
ENDBRANCH   5   7
ENDBRANCH   3   5
ENDBRANCH   2   3
ENDBRANCH   1   2
BRANCH   1  20
ATOM     20  C   UNL A   1      34.426  22.336  25.058  1.00  0.00     0.202 C 
BRANCH  20  21
ATOM     21  O   UNL A   1      34.977  21.216  25.732  1.00  0.00    -0.374 OA
BRANCH  21  22
ATOM     22  C   UNL A   1      35.638  20.229  24.944  1.00  0.00     0.202 C 
BRANCH  22  23
ATOM     23  C   UNL A   1      37.166  20.318  24.809  1.00  0.00     0.261 C 
BRANCH  23  24
ATOM     24  O   UNL A   1      37.705  21.446  25.528  1.00  0.00    -0.460 OA
BRANCH  24  25
ATOM     25  C   UNL A   1      38.959  21.274  26.002  1.00  0.00     0.338 C 
ATOM     26  O   UNL A   1      39.724  20.345  25.769  1.00  0.00    -0.246 OA
BRANCH  25  27
ATOM     27  C   UNL A   1      39.404  22.495  26.691  1.00  0.00     0.060 A 
ATOM     28  C   UNL A   1      38.750  23.692  26.367  1.00  0.00     0.016 A 
ATOM     29  C   UNL A   1      40.496  22.494  27.561  1.00  0.00     0.016 A 
ATOM     30  C   UNL A   1      39.221  24.901  26.864  1.00  0.00     0.010 A 
ATOM     31  C   UNL A   1      40.978  23.712  28.049  1.00  0.00     0.010 A 
ATOM     32  C   UNL A   1      40.369  24.922  27.665  1.00  0.00    -0.014 A 
BRANCH  32  33
ATOM     33  C   UNL A   1      41.029  26.222  27.929  1.00  0.00     0.031 A 
ATOM     34  C   UNL A   1      42.366  26.493  27.293  1.00  0.00     0.074 A 
ATOM     35  C   UNL A   1      40.417  27.169  28.660  1.00  0.00     0.049 A 
ATOM     36  N   UNL A   1      43.119  27.561  27.366  1.00  0.00    -0.248 NA
ATOM     37  C   UNL A   1      42.925  25.418  26.457  1.00  0.00     0.031 C 
ATOM     38  C   UNL A   1      39.094  27.044  29.269  1.00  0.00     0.029 A 
ATOM     39  N   UNL A   1      40.829  28.432  29.002  1.00  0.00    -0.354 N 
ATOM     40  C   UNL A   1      44.240  27.282  26.593  1.00  0.00     0.074 A 
ATOM     41  C   UNL A   1      44.085  25.937  26.087  1.00  0.00     0.031 C 
ATOM     42  C   UNL A   1      38.801  28.188  29.911  1.00  0.00     0.029 A 
ATOM     43  C   UNL A   1      39.929  29.109  29.787  1.00  0.00     0.049 A 
ATOM     44  H   UNL A   1      41.690  28.815  28.714  1.00  0.00     0.167 HD
ATOM     45  C   UNL A   1      45.301  28.080  26.323  1.00  0.00     0.031 A 
ATOM     46  C   UNL A   1      40.017  30.328  30.353  1.00  0.00     0.031 A 
ATOM     47  C   UNL A   1      45.458  29.410  26.845  1.00  0.00     0.049 A 
ATOM     48  C   UNL A   1      41.250  31.158  30.116  1.00  0.00     0.074 A 
ATOM     49  C   UNL A   1      46.495  30.303  26.635  1.00  0.00     0.029 A 
ATOM     50  N   UNL A   1      44.554  30.037  27.688  1.00  0.00    -0.354 N 
ATOM     51  N   UNL A   1      42.298  30.890  29.374  1.00  0.00    -0.248 NA
ATOM     52  C   UNL A   1      41.308  32.463  30.791  1.00  0.00     0.031 C 
ATOM     53  C   UNL A   1      46.247  31.446  27.402  1.00  0.00     0.029 A 
ATOM     54  C   UNL A   1      45.023  31.292  28.034  1.00  0.00     0.049 A 
ATOM     55  H   UNL A   1      43.704  29.646  27.997  1.00  0.00     0.167 HD
ATOM     56  C   UNL A   1      43.125  32.003  29.468  1.00  0.00     0.074 A 
ATOM     57  C   UNL A   1      42.449  32.954  30.326  1.00  0.00     0.031 C 
ATOM     58  C   UNL A   1      44.334  32.222  28.892  1.00  0.00     0.031 A 
BRANCH  45  59
ATOM     59  C   UNL A   1      46.393  27.509  25.458  1.00  0.00    -0.014 A 
ATOM     60  C   UNL A   1      46.674  28.035  24.187  1.00  0.00     0.009 A 
ATOM     61  C   UNL A   1      47.164  26.437  25.932  1.00  0.00     0.009 A 
ATOM     62  C   UNL A   1      47.679  27.476  23.395  1.00  0.00     0.001 A 
ATOM     63  C   UNL A   1      48.189  25.898  25.151  1.00  0.00     0.001 A 
ATOM     64  C   UNL A   1      48.438  26.410  23.879  1.00  0.00     0.000 A 
ENDBRANCH  45  59
BRANCH  46  65
ATOM     65  C   UNL A   1      38.914  30.830  31.214  1.00  0.00    -0.014 A 
ATOM     66  C   UNL A   1      37.886  31.622  30.678  1.00  0.00     0.009 A 
ATOM     67  C   UNL A   1      38.892  30.533  32.586  1.00  0.00     0.009 A 
ATOM     68  C   UNL A   1      36.874  32.122  31.502  1.00  0.00     0.001 A 
ATOM     69  C   UNL A   1      37.862  31.008  33.402  1.00  0.00     0.001 A 
ATOM     70  C   UNL A   1      36.860  31.809  32.860  1.00  0.00     0.000 A 
ENDBRANCH  46  65
BRANCH  58  71
ATOM     71  C   UNL A   1      44.983  33.555  29.144  1.00  0.00    -0.014 A 
ATOM     72  C   UNL A   1      44.752  34.654  28.302  1.00  0.00     0.009 A 
ATOM     73  C   UNL A   1      45.807  33.721  30.269  1.00  0.00     0.009 A 
ATOM     74  C   UNL A   1      45.363  35.882  28.562  1.00  0.00     0.001 A 
ATOM     75  C   UNL A   1      46.390  34.958  30.544  1.00  0.00     0.001 A 
ATOM     76  C   UNL A   1      46.176  36.034  29.685  1.00  0.00     0.000 A 
ENDBRANCH  58  71
ENDBRANCH  32  33
ENDBRANCH  25  27
ENDBRANCH  24  25
ENDBRANCH  23  24
ENDBRANCH  22  23
ENDBRANCH  21  22
ENDBRANCH  20  21
ENDBRANCH   1  20
TORSDOF 19
ENDMDL
