MODEL 1
REMARK VINA RESULT:      -9.9      0.000      0.000
REMARK SMILES [NH3+][C@H](CO)c1ccc(Cl)c(C(=O)OCCOCCOC(=O)c2ccc(-c3c4nc(c(-c5ccccc5)c5ccc([nH]5)c(-c5ccccc5)c5nc(c(-c6ccccc6)c6ccc3[nH]6)C=C5)C=C4)cc2)c1
REMARK SMILES IDX 15 1 14 2 13 3 11 4 12 5 10 6 5 7 6 8 70 9 7 10 8 11 9 12
REMARK SMILES IDX 2 13 1 14 3 18 4 19 16 21 17 22 18 23 19 24 20 25 21 26
REMARK SMILES IDX 22 27 23 28 69 29 24 30 68 31 25 32 26 33 27 34 62 35 28 36
REMARK SMILES IDX 67 37 61 38 63 39 29 40 66 41 60 42 59 43 30 45 52 46 37 47
REMARK SMILES IDX 51 48 38 49 41 50 50 51 64 52 39 53 40 54 49 56 65 57 42 58
REMARK SMILES IDX 31 59 32 60 36 61 33 62 35 63 34 64 53 65 54 66 58 67 55 68
REMARK SMILES IDX 57 69 56 70 43 71 44 72 48 73 45 74 47 75 46 76
REMARK H PARENT 1 15 1 16 1 17 4 20 63 44 41 55
REMARK Flexibility Score: inf
ROOT
ATOM      1  C   UNL A   1      35.851  21.661  25.980  1.00  0.00     0.202 C 
ENDROOT
BRANCH   1   2
ATOM      2  C   UNL A   1      34.463  22.305  26.006  1.00  0.00     0.261 C 
BRANCH   2   3
ATOM      3  O   UNL A   1      33.710  21.889  24.855  1.00  0.00    -0.460 OA
BRANCH   3   4
ATOM      4  C   UNL A   1      32.566  21.218  25.111  1.00  0.00     0.339 C 
ATOM      5  O   UNL A   1      31.567  21.661  25.662  1.00  0.00    -0.246 OA
BRANCH   4   6
ATOM      6  C   UNL A   1      32.582  19.908  24.432  1.00  0.00     0.079 A 
ATOM      7  C   UNL A   1      32.957  17.493  24.712  1.00  0.00     0.012 A 
ATOM      8  C   UNL A   1      32.737  17.333  23.339  1.00  0.00     0.011 A 
ATOM      9  C   UNL A   1      32.890  18.798  25.238  1.00  0.00     0.027 A 
ATOM     10  C   UNL A   1      32.413  18.432  22.532  1.00  0.00     0.022 A 
ATOM     11  C   UNL A   1      32.332  19.722  23.072  1.00  0.00     0.055 A 
ATOM     12  Cl  UNL A   1      31.983  21.018  21.986  1.00  0.00    -0.083 Cl
BRANCH   7  13
ATOM     13  C   UNL A   1      33.349  16.358  25.647  1.00  0.00     0.237 C 
BRANCH  13  14
ATOM     14  N   UNL A   1      34.768  16.036  25.439  1.00  0.00    -0.349 N 
ATOM     15  H   UNL A   1      34.908  15.720  24.479  1.00  0.00     0.345 HD
ATOM     16  H   UNL A   1      35.046  15.295  26.083  1.00  0.00     0.345 HD
ATOM     17  H   UNL A   1      35.334  16.866  25.610  1.00  0.00     0.345 HD
ENDBRANCH  13  14
BRANCH  13  18
ATOM     18  C   UNL A   1      32.440  15.095  25.629  1.00  0.00     0.226 C 
BRANCH  18  19
ATOM     19  O   UNL A   1      33.201  13.881  25.622  1.00  0.00    -0.390 OA
ATOM     20  H   UNL A   1      33.907  13.939  26.284  1.00  0.00     0.210 HD
ENDBRANCH  18  19
ENDBRANCH  13  18
ENDBRANCH   7  13
ENDBRANCH   4   6
ENDBRANCH   3   4
ENDBRANCH   2   3
ENDBRANCH   1   2
BRANCH   1  21
ATOM     21  O   UNL A   1      36.109  20.812  24.859  1.00  0.00    -0.374 OA
BRANCH  21  22
ATOM     22  C   UNL A   1      37.421  20.259  24.752  1.00  0.00     0.202 C 
BRANCH  22  23
ATOM     23  C   UNL A   1      38.536  21.041  25.453  1.00  0.00     0.261 C 
BRANCH  23  24
ATOM     24  O   UNL A   1      39.236  20.241  26.423  1.00  0.00    -0.460 OA
BRANCH  24  25
ATOM     25  C   UNL A   1      40.561  20.095  26.190  1.00  0.00     0.338 C 
ATOM     26  O   UNL A   1      41.109  19.202  25.560  1.00  0.00    -0.246 OA
BRANCH  25  27
ATOM     27  C   UNL A   1      41.296  21.277  26.676  1.00  0.00     0.060 A 
ATOM     28  C   UNL A   1      41.289  21.522  28.055  1.00  0.00     0.016 A 
ATOM     29  C   UNL A   1      41.913  22.172  25.799  1.00  0.00     0.016 A 
ATOM     30  C   UNL A   1      41.859  22.690  28.559  1.00  0.00     0.010 A 
ATOM     31  C   UNL A   1      42.476  23.348  26.307  1.00  0.00     0.010 A 
ATOM     32  C   UNL A   1      42.423  23.628  27.684  1.00  0.00    -0.014 A 
BRANCH  32  33
ATOM     33  C   UNL A   1      42.834  24.956  28.200  1.00  0.00     0.031 A 
ATOM     34  C   UNL A   1      41.788  26.016  28.413  1.00  0.00     0.074 A 
ATOM     35  C   UNL A   1      44.120  25.210  28.500  1.00  0.00     0.049 A 
ATOM     36  N   UNL A   1      41.930  27.248  28.832  1.00  0.00    -0.248 NA
ATOM     37  C   UNL A   1      40.398  25.637  28.115  1.00  0.00     0.031 C 
ATOM     38  C   UNL A   1      45.222  24.256  28.380  1.00  0.00     0.029 A 
ATOM     39  N   UNL A   1      44.714  26.356  28.968  1.00  0.00    -0.354 N 
ATOM     40  C   UNL A   1      40.652  27.792  28.841  1.00  0.00     0.074 A 
ATOM     41  C   UNL A   1      39.750  26.766  28.362  1.00  0.00     0.031 C 
ATOM     42  C   UNL A   1      46.362  24.860  28.761  1.00  0.00     0.029 A 
ATOM     43  C   UNL A   1      46.074  26.246  29.120  1.00  0.00     0.049 A 
ATOM     44  H   UNL A   1      44.212  27.176  29.176  1.00  0.00     0.167 HD
ATOM     45  C   UNL A   1      40.262  29.033  29.218  1.00  0.00     0.031 A 
ATOM     46  C   UNL A   1      46.986  27.168  29.489  1.00  0.00     0.031 A 
ATOM     47  C   UNL A   1      41.154  30.058  29.687  1.00  0.00     0.049 A 
ATOM     48  C   UNL A   1      46.534  28.563  29.829  1.00  0.00     0.074 A 
ATOM     49  C   UNL A   1      40.848  31.340  30.111  1.00  0.00     0.029 A 
ATOM     50  N   UNL A   1      42.529  29.919  29.789  1.00  0.00    -0.354 N 
ATOM     51  N   UNL A   1      45.319  29.055  29.861  1.00  0.00    -0.248 NA
ATOM     52  C   UNL A   1      47.583  29.528  30.191  1.00  0.00     0.031 C 
ATOM     53  C   UNL A   1      42.045  31.995  30.419  1.00  0.00     0.029 A 
ATOM     54  C   UNL A   1      43.089  31.103  30.242  1.00  0.00     0.049 A 
ATOM     55  H   UNL A   1      43.032  29.102  29.572  1.00  0.00     0.167 HD
ATOM     56  C   UNL A   1      45.456  30.374  30.275  1.00  0.00     0.074 A 
ATOM     57  C   UNL A   1      46.869  30.603  30.494  1.00  0.00     0.031 C 
ATOM     58  C   UNL A   1      44.496  31.314  30.459  1.00  0.00     0.031 A 
BRANCH  45  59
ATOM     59  C   UNL A   1      38.799  29.363  29.108  1.00  0.00    -0.014 A 
ATOM     60  C   UNL A   1      38.236  29.778  27.892  1.00  0.00     0.009 A 
ATOM     61  C   UNL A   1      37.967  29.211  30.228  1.00  0.00     0.009 A 
ATOM     62  C   UNL A   1      36.870  30.058  27.806  1.00  0.00     0.001 A 
ATOM     63  C   UNL A   1      36.599  29.468  30.133  1.00  0.00     0.001 A 
ATOM     64  C   UNL A   1      36.053  29.898  28.925  1.00  0.00     0.000 A 
ENDBRANCH  45  59
BRANCH  46  65
ATOM     65  C   UNL A   1      48.429  26.815  29.536  1.00  0.00    -0.014 A 
ATOM     66  C   UNL A   1      49.240  26.962  28.400  1.00  0.00     0.009 A 
ATOM     67  C   UNL A   1      48.993  26.294  30.711  1.00  0.00     0.009 A 
ATOM     68  C   UNL A   1      50.580  26.568  28.432  1.00  0.00     0.001 A 
ATOM     69  C   UNL A   1      50.340  25.928  30.748  1.00  0.00     0.001 A 
ATOM     70  C   UNL A   1      51.129  26.055  29.606  1.00  0.00     0.000 A 
ENDBRANCH  46  65
BRANCH  58  71
ATOM     71  C   UNL A   1      44.934  32.661  30.959  1.00  0.00    -0.014 A 
ATOM     72  C   UNL A   1      44.917  32.974  32.327  1.00  0.00     0.009 A 
ATOM     73  C   UNL A   1      45.412  33.617  30.048  1.00  0.00     0.009 A 
ATOM     74  C   UNL A   1      45.340  34.229  32.769  1.00  0.00     0.001 A 
ATOM     75  C   UNL A   1      45.860  34.860  30.495  1.00  0.00     0.001 A 
ATOM     76  C   UNL A   1      45.815  35.169  31.854  1.00  0.00     0.000 A 
ENDBRANCH  58  71
ENDBRANCH  32  33
ENDBRANCH  25  27
ENDBRANCH  24  25
ENDBRANCH  23  24
ENDBRANCH  22  23
ENDBRANCH  21  22
ENDBRANCH   1  21
TORSDOF 18
ENDMDL
MODEL 2
REMARK VINA RESULT:      -9.7      2.073      6.827
REMARK SMILES [NH3+][C@H](CO)c1ccc(Cl)c(C(=O)OCCOCCOC(=O)c2ccc(-c3c4nc(c(-c5ccccc5)c5ccc([nH]5)c(-c5ccccc5)c5nc(c(-c6ccccc6)c6ccc3[nH]6)C=C5)C=C4)cc2)c1
REMARK SMILES IDX 15 1 14 2 13 3 11 4 12 5 10 6 5 7 6 8 70 9 7 10 8 11 9 12
REMARK SMILES IDX 2 13 1 14 3 18 4 19 16 21 17 22 18 23 19 24 20 25 21 26
REMARK SMILES IDX 22 27 23 28 69 29 24 30 68 31 25 32 26 33 27 34 62 35 28 36
REMARK SMILES IDX 67 37 61 38 63 39 29 40 66 41 60 42 59 43 30 45 52 46 37 47
REMARK SMILES IDX 51 48 38 49 41 50 50 51 64 52 39 53 40 54 49 56 65 57 42 58
REMARK SMILES IDX 31 59 32 60 36 61 33 62 35 63 34 64 53 65 54 66 58 67 55 68
REMARK SMILES IDX 57 69 56 70 43 71 44 72 48 73 45 74 47 75 46 76
REMARK H PARENT 1 15 1 16 1 17 4 20 63 44 41 55
REMARK Flexibility Score: inf
ROOT
ATOM      1  C   UNL A   1      35.466  21.970  26.192  1.00  0.00     0.202 C 
ENDROOT
BRANCH   1   2
ATOM      2  C   UNL A   1      33.954  22.015  26.422  1.00  0.00     0.261 C 
BRANCH   2   3
ATOM      3  O   UNL A   1      33.264  21.834  25.175  1.00  0.00    -0.460 OA
BRANCH   3   4
ATOM      4  C   UNL A   1      32.149  21.073  25.226  1.00  0.00     0.339 C 
ATOM      5  O   UNL A   1      31.054  21.408  25.655  1.00  0.00    -0.246 OA
BRANCH   4   6
ATOM      6  C   UNL A   1      32.357  19.817  24.478  1.00  0.00     0.079 A 
ATOM      7  C   UNL A   1      32.937  17.433  24.657  1.00  0.00     0.012 A 
ATOM      8  C   UNL A   1      32.864  17.344  23.261  1.00  0.00     0.011 A 
ATOM      9  C   UNL A   1      32.695  18.689  25.246  1.00  0.00     0.027 A 
ATOM     10  C   UNL A   1      32.512  18.461  22.490  1.00  0.00     0.022 A 
ATOM     11  C   UNL A   1      32.255  19.699  23.091  1.00  0.00     0.055 A 
ATOM     12  Cl  UNL A   1      31.884  21.026  22.051  1.00  0.00    -0.083 Cl
BRANCH   7  13
ATOM     13  C   UNL A   1      33.349  16.280  25.559  1.00  0.00     0.237 C 
BRANCH  13  14
ATOM     14  N   UNL A   1      34.793  16.047  25.410  1.00  0.00    -0.349 N 
ATOM     15  H   UNL A   1      35.256  16.198  26.306  1.00  0.00     0.345 HD
ATOM     16  H   UNL A   1      35.171  16.696  24.718  1.00  0.00     0.345 HD
ATOM     17  H   UNL A   1      34.952  15.089  25.101  1.00  0.00     0.345 HD
ENDBRANCH  13  14
BRANCH  13  18
ATOM     18  C   UNL A   1      32.516  14.970  25.440  1.00  0.00     0.226 C 
BRANCH  18  19
ATOM     19  O   UNL A   1      33.301  13.804  25.720  1.00  0.00    -0.390 OA
ATOM     20  H   UNL A   1      34.237  13.997  25.553  1.00  0.00     0.210 HD
ENDBRANCH  18  19
ENDBRANCH  13  18
ENDBRANCH   7  13
ENDBRANCH   4   6
ENDBRANCH   3   4
ENDBRANCH   2   3
ENDBRANCH   1   2
BRANCH   1  21
ATOM     21  O   UNL A   1      35.918  20.939  25.310  1.00  0.00    -0.374 OA
BRANCH  21  22
ATOM     22  C   UNL A   1      37.305  20.937  24.970  1.00  0.00     0.202 C 
BRANCH  22  23
ATOM     23  C   UNL A   1      38.086  22.201  25.343  1.00  0.00     0.261 C 
BRANCH  23  24
ATOM     24  O   UNL A   1      38.948  21.995  26.477  1.00  0.00    -0.460 OA
BRANCH  24  25
ATOM     25  C   UNL A   1      40.167  22.574  26.379  1.00  0.00     0.338 C 
ATOM     26  O   UNL A   1      41.151  22.138  25.799  1.00  0.00    -0.246 OA
BRANCH  25  27
ATOM     27  C   UNL A   1      40.131  23.934  26.947  1.00  0.00     0.060 A 
ATOM     28  C   UNL A   1      40.831  24.939  26.267  1.00  0.00     0.016 A 
ATOM     29  C   UNL A   1      39.496  24.209  28.160  1.00  0.00     0.016 A 
ATOM     30  C   UNL A   1      40.938  26.213  26.821  1.00  0.00     0.010 A 
ATOM     31  C   UNL A   1      39.613  25.486  28.720  1.00  0.00     0.010 A 
ATOM     32  C   UNL A   1      40.360  26.484  28.069  1.00  0.00    -0.014 A 
BRANCH  32  33
ATOM     33  C   UNL A   1      40.656  27.768  28.750  1.00  0.00     0.031 A 
ATOM     34  C   UNL A   1      42.017  27.983  29.352  1.00  0.00     0.074 A 
ATOM     35  C   UNL A   1      39.732  28.744  28.810  1.00  0.00     0.049 A 
ATOM     36  N   UNL A   1      42.479  29.017  30.009  1.00  0.00    -0.248 NA
ATOM     37  C   UNL A   1      42.988  26.889  29.192  1.00  0.00     0.031 C 
ATOM     38  C   UNL A   1      38.391  28.677  28.228  1.00  0.00     0.029 A 
ATOM     39  N   UNL A   1      39.786  29.985  29.393  1.00  0.00    -0.354 N 
ATOM     40  C   UNL A   1      43.787  28.696  30.347  1.00  0.00     0.074 A 
ATOM     41  C   UNL A   1      44.039  27.362  29.844  1.00  0.00     0.031 C 
ATOM     42  C   UNL A   1      37.747  29.829  28.490  1.00  0.00     0.029 A 
ATOM     43  C   UNL A   1      38.617  30.696  29.281  1.00  0.00     0.049 A 
ATOM     44  H   UNL A   1      40.587  30.332  29.847  1.00  0.00     0.167 HD
ATOM     45  C   UNL A   1      44.700  29.444  31.011  1.00  0.00     0.031 A 
ATOM     46  C   UNL A   1      38.281  31.902  29.778  1.00  0.00     0.031 A 
ATOM     47  C   UNL A   1      44.451  30.766  31.519  1.00  0.00     0.049 A 
ATOM     48  C   UNL A   1      39.290  32.681  30.579  1.00  0.00     0.074 A 
ATOM     49  C   UNL A   1      45.321  31.610  32.187  1.00  0.00     0.029 A 
ATOM     50  N   UNL A   1      43.242  31.435  31.418  1.00  0.00    -0.354 N 
ATOM     51  N   UNL A   1      40.533  32.377  30.866  1.00  0.00    -0.248 NA
ATOM     52  C   UNL A   1      38.848  33.975  31.121  1.00  0.00     0.031 C 
ATOM     53  C   UNL A   1      44.622  32.769  32.539  1.00  0.00     0.029 A 
ATOM     54  C   UNL A   1      43.334  32.670  32.039  1.00  0.00     0.049 A 
ATOM     55  H   UNL A   1      42.438  31.084  30.973  1.00  0.00     0.167 HD
ATOM     56  C   UNL A   1      41.028  33.453  31.592  1.00  0.00     0.074 A 
ATOM     57  C   UNL A   1      39.957  34.422  31.692  1.00  0.00     0.031 C 
ATOM     58  C   UNL A   1      42.262  33.625  32.127  1.00  0.00     0.031 A 
BRANCH  45  59
ATOM     59  C   UNL A   1      46.051  28.833  31.257  1.00  0.00    -0.014 A 
ATOM     60  C   UNL A   1      46.316  28.096  32.420  1.00  0.00     0.009 A 
ATOM     61  C   UNL A   1      47.057  28.959  30.285  1.00  0.00     0.009 A 
ATOM     62  C   UNL A   1      47.573  27.517  32.618  1.00  0.00     0.001 A 
ATOM     63  C   UNL A   1      48.302  28.359  30.475  1.00  0.00     0.001 A 
ATOM     64  C   UNL A   1      48.561  27.646  31.643  1.00  0.00     0.000 A 
ENDBRANCH  45  59
BRANCH  46  65
ATOM     65  C   UNL A   1      36.917  32.449  29.556  1.00  0.00    -0.014 A 
ATOM     66  C   UNL A   1      36.651  33.293  28.467  1.00  0.00     0.009 A 
ATOM     67  C   UNL A   1      35.880  32.155  30.456  1.00  0.00     0.009 A 
ATOM     68  C   UNL A   1      35.383  33.854  28.300  1.00  0.00     0.001 A 
ATOM     69  C   UNL A   1      34.606  32.695  30.270  1.00  0.00     0.001 A 
ATOM     70  C   UNL A   1      34.362  33.553  29.200  1.00  0.00     0.000 A 
ENDBRANCH  46  65
BRANCH  58  71
ATOM     71  C   UNL A   1      42.534  34.923  32.833  1.00  0.00    -0.014 A 
ATOM     72  C   UNL A   1      43.248  35.958  32.210  1.00  0.00     0.009 A 
ATOM     73  C   UNL A   1      42.031  35.127  34.128  1.00  0.00     0.009 A 
ATOM     74  C   UNL A   1      43.479  37.159  32.882  1.00  0.00     0.001 A 
ATOM     75  C   UNL A   1      42.239  36.339  34.787  1.00  0.00     0.001 A 
ATOM     76  C   UNL A   1      42.971  37.351  34.167  1.00  0.00     0.000 A 
ENDBRANCH  58  71
ENDBRANCH  32  33
ENDBRANCH  25  27
ENDBRANCH  24  25
ENDBRANCH  23  24
ENDBRANCH  22  23
ENDBRANCH  21  22
ENDBRANCH   1  21
TORSDOF 18
ENDMDL
MODEL 3
REMARK VINA RESULT:      -9.5      5.736     10.096
REMARK SMILES [NH3+][C@H](CO)c1ccc(Cl)c(C(=O)OCCOCCOC(=O)c2ccc(-c3c4nc(c(-c5ccccc5)c5ccc([nH]5)c(-c5ccccc5)c5nc(c(-c6ccccc6)c6ccc3[nH]6)C=C5)C=C4)cc2)c1
REMARK SMILES IDX 15 1 14 2 13 3 11 4 12 5 10 6 5 7 6 8 70 9 7 10 8 11 9 12
REMARK SMILES IDX 2 13 1 14 3 18 4 19 16 21 17 22 18 23 19 24 20 25 21 26
REMARK SMILES IDX 22 27 23 28 69 29 24 30 68 31 25 32 26 33 27 34 62 35 28 36
REMARK SMILES IDX 67 37 61 38 63 39 29 40 66 41 60 42 59 43 30 45 52 46 37 47
REMARK SMILES IDX 51 48 38 49 41 50 50 51 64 52 39 53 40 54 49 56 65 57 42 58
REMARK SMILES IDX 31 59 32 60 36 61 33 62 35 63 34 64 53 65 54 66 58 67 55 68
REMARK SMILES IDX 57 69 56 70 43 71 44 72 48 73 45 74 47 75 46 76
REMARK H PARENT 1 15 1 16 1 17 4 20 63 44 41 55
REMARK Flexibility Score: inf
ROOT
ATOM      1  C   UNL A   1      33.303  30.109  27.245  1.00  0.00     0.202 C 
ENDROOT
BRANCH   1   2
ATOM      2  C   UNL A   1      33.663  28.629  27.105  1.00  0.00     0.261 C 
BRANCH   2   3
ATOM      3  O   UNL A   1      32.542  27.901  26.574  1.00  0.00    -0.460 OA
BRANCH   3   4
ATOM      4  C   UNL A   1      32.672  27.470  25.300  1.00  0.00     0.339 C 
ATOM      5  O   UNL A   1      33.702  27.101  24.755  1.00  0.00    -0.246 OA
BRANCH   4   6
ATOM      6  C   UNL A   1      31.341  27.285  24.689  1.00  0.00     0.079 A 
ATOM      7  C   UNL A   1      29.679  28.235  23.145  1.00  0.00     0.012 A 
ATOM      8  C   UNL A   1      28.824  27.173  23.463  1.00  0.00     0.011 A 
ATOM      9  C   UNL A   1      30.932  28.281  23.785  1.00  0.00     0.027 A 
ATOM     10  C   UNL A   1      29.231  26.168  24.352  1.00  0.00     0.022 A 
ATOM     11  C   UNL A   1      30.488  26.217  24.967  1.00  0.00     0.055 A 
ATOM     12  Cl  UNL A   1      30.873  24.962  26.088  1.00  0.00    -0.083 Cl
BRANCH   7  13
ATOM     13  C   UNL A   1      29.298  29.382  22.221  1.00  0.00     0.237 C 
BRANCH  13  14
ATOM     14  N   UNL A   1      30.523  30.048  21.754  1.00  0.00    -0.349 N 
ATOM     15  H   UNL A   1      30.298  30.662  20.971  1.00  0.00     0.345 HD
ATOM     16  H   UNL A   1      31.197  29.344  21.451  1.00  0.00     0.345 HD
ATOM     17  H   UNL A   1      30.922  30.597  22.515  1.00  0.00     0.345 HD
ENDBRANCH  13  14
BRANCH  13  18
ATOM     18  C   UNL A   1      28.238  30.388  22.758  1.00  0.00     0.226 C 
BRANCH  18  19
ATOM     19  O   UNL A   1      26.957  29.774  22.946  1.00  0.00    -0.390 OA
ATOM     20  H   UNL A   1      26.794  29.142  22.228  1.00  0.00     0.210 HD
ENDBRANCH  18  19
ENDBRANCH  13  18
ENDBRANCH   7  13
ENDBRANCH   4   6
ENDBRANCH   3   4
ENDBRANCH   2   3
ENDBRANCH   1   2
BRANCH   1  21
ATOM     21  O   UNL A   1      32.074  30.500  26.627  1.00  0.00    -0.374 OA
BRANCH  21  22
ATOM     22  C   UNL A   1      31.662  31.855  26.800  1.00  0.00     0.202 C 
BRANCH  22  23
ATOM     23  C   UNL A   1      32.720  32.808  27.368  1.00  0.00     0.261 C 
BRANCH  23  24
ATOM     24  O   UNL A   1      32.171  34.095  27.703  1.00  0.00    -0.460 OA
BRANCH  24  25
ATOM     25  C   UNL A   1      32.933  34.840  28.537  1.00  0.00     0.338 C 
ATOM     26  O   UNL A   1      32.642  35.910  29.052  1.00  0.00    -0.246 OA
BRANCH  25  27
ATOM     27  C   UNL A   1      34.158  34.104  28.899  1.00  0.00     0.060 A 
ATOM     28  C   UNL A   1      34.042  33.078  29.846  1.00  0.00     0.016 A 
ATOM     29  C   UNL A   1      35.408  34.458  28.386  1.00  0.00     0.016 A 
ATOM     30  C   UNL A   1      35.182  32.433  30.319  1.00  0.00     0.010 A 
ATOM     31  C   UNL A   1      36.553  33.814  28.870  1.00  0.00     0.010 A 
ATOM     32  C   UNL A   1      36.448  32.822  29.861  1.00  0.00    -0.014 A 
BRANCH  32  33
ATOM     33  C   UNL A   1      37.664  32.285  30.520  1.00  0.00     0.031 A 
ATOM     34  C   UNL A   1      38.331  31.066  29.946  1.00  0.00     0.074 A 
ATOM     35  C   UNL A   1      38.184  32.890  31.603  1.00  0.00     0.049 A 
ATOM     36  N   UNL A   1      39.385  30.418  30.373  1.00  0.00    -0.248 NA
ATOM     37  C   UNL A   1      37.731  30.500  28.727  1.00  0.00     0.031 C 
ATOM     38  C   UNL A   1      37.659  34.102  32.230  1.00  0.00     0.029 A 
ATOM     39  N   UNL A   1      39.276  32.559  32.366  1.00  0.00    -0.354 N 
ATOM     40  C   UNL A   1      39.570  29.368  29.483  1.00  0.00     0.074 A 
ATOM     41  C   UNL A   1      38.506  29.448  28.506  1.00  0.00     0.031 C 
ATOM     42  C   UNL A   1      38.428  34.411  33.289  1.00  0.00     0.029 A 
ATOM     43  C   UNL A   1      39.477  33.404  33.430  1.00  0.00     0.049 A 
ATOM     44  H   UNL A   1      39.859  31.792  32.168  1.00  0.00     0.167 HD
ATOM     45  C   UNL A   1      40.541  28.424  29.476  1.00  0.00     0.031 A 
ATOM     46  C   UNL A   1      40.393  33.357  34.417  1.00  0.00     0.031 A 
ATOM     47  C   UNL A   1      41.596  28.336  30.450  1.00  0.00     0.049 A 
ATOM     48  C   UNL A   1      41.415  32.251  34.429  1.00  0.00     0.074 A 
ATOM     49  C   UNL A   1      42.636  27.425  30.513  1.00  0.00     0.029 A 
ATOM     50  N   UNL A   1      41.741  29.187  31.533  1.00  0.00    -0.354 N 
ATOM     51  N   UNL A   1      41.595  31.281  33.565  1.00  0.00    -0.248 NA
ATOM     52  C   UNL A   1      42.364  32.239  35.552  1.00  0.00     0.031 C 
ATOM     53  C   UNL A   1      43.382  27.693  31.665  1.00  0.00     0.029 A 
ATOM     54  C   UNL A   1      42.838  28.804  32.288  1.00  0.00     0.049 A 
ATOM     55  H   UNL A   1      41.152  29.948  31.737  1.00  0.00     0.167 HD
ATOM     56  C   UNL A   1      42.694  30.566  34.023  1.00  0.00     0.074 A 
ATOM     57  C   UNL A   1      43.147  31.218  35.234  1.00  0.00     0.031 C 
ATOM     58  C   UNL A   1      43.279  29.466  33.487  1.00  0.00     0.031 A 
BRANCH  45  59
ATOM     59  C   UNL A   1      40.488  27.384  28.393  1.00  0.00    -0.014 A 
ATOM     60  C   UNL A   1      39.796  26.178  28.574  1.00  0.00     0.009 A 
ATOM     61  C   UNL A   1      41.102  27.638  27.156  1.00  0.00     0.009 A 
ATOM     62  C   UNL A   1      39.741  25.234  27.545  1.00  0.00     0.001 A 
ATOM     63  C   UNL A   1      41.024  26.704  26.122  1.00  0.00     0.001 A 
ATOM     64  C   UNL A   1      40.351  25.501  26.319  1.00  0.00     0.000 A 
ENDBRANCH  45  59
BRANCH  46  65
ATOM     65  C   UNL A   1      40.379  34.375  35.499  1.00  0.00    -0.014 A 
ATOM     66  C   UNL A   1      39.583  34.197  36.641  1.00  0.00     0.009 A 
ATOM     67  C   UNL A   1      41.137  35.551  35.377  1.00  0.00     0.009 A 
ATOM     68  C   UNL A   1      39.524  35.188  37.624  1.00  0.00     0.001 A 
ATOM     69  C   UNL A   1      41.099  36.526  36.375  1.00  0.00     0.001 A 
ATOM     70  C   UNL A   1      40.284  36.349  37.491  1.00  0.00     0.000 A 
ENDBRANCH  46  65
BRANCH  58  71
ATOM     71  C   UNL A   1      44.495  28.922  34.182  1.00  0.00    -0.014 A 
ATOM     72  C   UNL A   1      44.391  27.926  35.164  1.00  0.00     0.009 A 
ATOM     73  C   UNL A   1      45.768  29.387  33.817  1.00  0.00     0.009 A 
ATOM     74  C   UNL A   1      45.536  27.428  35.788  1.00  0.00     0.001 A 
ATOM     75  C   UNL A   1      46.914  28.869  34.422  1.00  0.00     0.001 A 
ATOM     76  C   UNL A   1      46.796  27.896  35.414  1.00  0.00     0.000 A 
ENDBRANCH  58  71
ENDBRANCH  32  33
ENDBRANCH  25  27
ENDBRANCH  24  25
ENDBRANCH  23  24
ENDBRANCH  22  23
ENDBRANCH  21  22
ENDBRANCH   1  21
TORSDOF 18
ENDMDL
