MODEL 1
REMARK VINA RESULT:      -9.6      0.000      0.000
REMARK SMILES COc1ccc(NC(=O)C[C@@H](C[NH+]2CCOCC2)C(=O)OCCOCCOC(=O)c2ccc(-c3c4nc(c(-c5ccccc5)c5ccc([nH]5)c(-c5ccccc5)c5nc(c(-c6ccccc6)c6ccc3[nH]6)C=C5)C=C4)cc2)cc1
REMARK SMILES IDX 23 1 22 2 21 3 19 4 20 5 11 6 10 7 8 8 7 9 9 11 6 12 3 13
REMARK SMILES IDX 4 14 79 15 5 16 78 17 2 18 1 19 12 20 13 21 14 22 18 23
REMARK SMILES IDX 15 25 17 26 16 27 24 28 25 29 26 30 27 31 28 32 29 33 30 34
REMARK SMILES IDX 31 35 77 36 32 37 76 38 33 39 34 40 35 41 70 42 36 43 75 44
REMARK SMILES IDX 69 45 71 46 37 47 74 48 68 49 67 50 38 52 60 53 45 54 59 55
REMARK SMILES IDX 46 56 49 57 58 58 72 59 47 60 48 61 57 63 73 64 50 65 39 66
REMARK SMILES IDX 40 67 44 68 41 69 43 70 42 71 61 72 62 73 66 74 63 75 65 76
REMARK SMILES IDX 64 77 51 78 52 79 56 80 53 81 55 82 54 83
REMARK H PARENT 7 10 13 24 71 51 49 62
REMARK Flexibility Score: inf
ROOT
ATOM      1  C   UNL A   1      36.940  23.434  25.994  1.00  0.00     0.202 C 
ENDROOT
BRANCH   1   2
ATOM      2  C   UNL A   1      35.611  24.019  25.523  1.00  0.00     0.261 C 
BRANCH   2   3
ATOM      3  O   UNL A   1      34.472  23.294  26.021  1.00  0.00    -0.463 OA
BRANCH   3   4
ATOM      4  C   UNL A   1      33.446  23.142  25.142  1.00  0.00     0.315 C 
ATOM      5  O   UNL A   1      33.409  23.640  24.022  1.00  0.00    -0.252 OA
BRANCH   4   6
ATOM      6  C   UNL A   1      32.268  22.388  25.716  1.00  0.00     0.163 C 
BRANCH   6   7
ATOM      7  C   UNL A   1      30.881  22.974  25.424  1.00  0.00     0.121 C 
BRANCH   7   8
ATOM      8  C   UNL A   1      30.401  23.792  26.612  1.00  0.00     0.225 C 
ATOM      9  N   UNL A   1      30.586  25.144  26.671  1.00  0.00    -0.326 N 
ATOM     10  H   UNL A   1      30.024  25.609  27.331  1.00  0.00     0.169 HD
ATOM     11  O   UNL A   1      29.691  23.260  27.472  1.00  0.00    -0.275 OA
BRANCH   9  12
ATOM     12  C   UNL A   1      31.448  25.973  25.943  1.00  0.00     0.041 A 
ATOM     13  C   UNL A   1      33.140  27.529  24.323  1.00  0.00     0.119 A 
ATOM     14  C   UNL A   1      33.536  27.144  25.605  1.00  0.00     0.048 A 
ATOM     15  C   UNL A   1      31.859  27.199  23.886  1.00  0.00     0.048 A 
ATOM     16  C   UNL A   1      32.695  26.375  26.415  1.00  0.00     0.030 A 
ATOM     17  C   UNL A   1      31.008  26.442  24.703  1.00  0.00     0.030 A 
BRANCH  13  18
ATOM     18  O   UNL A   1      34.059  28.274  23.644  1.00  0.00    -0.497 OA
ATOM     19  C   UNL A   1      33.958  28.369  22.229  1.00  0.00     0.278 C 
ENDBRANCH  13  18
ENDBRANCH   9  12
ENDBRANCH   7   8
ENDBRANCH   6   7
BRANCH   6  20
ATOM     20  C   UNL A   1      32.479  20.886  25.434  1.00  0.00     0.278 C 
BRANCH  20  21
ATOM     21  N   UNL A   1      33.402  20.456  24.372  1.00  0.00    -0.330 N 
ATOM     22  C   UNL A   1      32.648  20.065  23.152  1.00  0.00     0.291 C 
ATOM     23  C   UNL A   1      34.333  19.358  24.682  1.00  0.00     0.291 C 
ATOM     24  H   UNL A   1      33.982  21.285  24.242  1.00  0.00     0.348 HD
ATOM     25  C   UNL A   1      32.015  18.662  23.239  1.00  0.00     0.221 C 
ATOM     26  C   UNL A   1      33.665  17.981  24.775  1.00  0.00     0.221 C 
ATOM     27  O   UNL A   1      32.991  17.660  23.554  1.00  0.00    -0.370 OA
ENDBRANCH  20  21
ENDBRANCH   6  20
ENDBRANCH   4   6
ENDBRANCH   3   4
ENDBRANCH   2   3
ENDBRANCH   1   2
BRANCH   1  28
ATOM     28  O   UNL A   1      37.682  22.699  25.029  1.00  0.00    -0.374 OA
BRANCH  28  29
ATOM     29  C   UNL A   1      37.351  21.325  24.834  1.00  0.00     0.202 C 
BRANCH  29  30
ATOM     30  C   UNL A   1      38.499  20.318  24.963  1.00  0.00     0.261 C 
BRANCH  30  31
ATOM     31  O   UNL A   1      39.230  20.432  26.203  1.00  0.00    -0.460 OA
BRANCH  31  32
ATOM     32  C   UNL A   1      40.523  20.047  26.124  1.00  0.00     0.338 C 
ATOM     33  O   UNL A   1      40.957  19.006  25.633  1.00  0.00    -0.246 OA
BRANCH  32  34
ATOM     34  C   UNL A   1      41.446  21.081  26.617  1.00  0.00     0.060 A 
ATOM     35  C   UNL A   1      41.554  21.240  28.004  1.00  0.00     0.016 A 
ATOM     36  C   UNL A   1      41.992  22.031  25.749  1.00  0.00     0.016 A 
ATOM     37  C   UNL A   1      42.116  22.401  28.530  1.00  0.00     0.010 A 
ATOM     38  C   UNL A   1      42.553  23.200  26.281  1.00  0.00     0.010 A 
ATOM     39  C   UNL A   1      42.553  23.418  27.671  1.00  0.00    -0.014 A 
BRANCH  39  40
ATOM     40  C   UNL A   1      42.774  24.777  28.229  1.00  0.00     0.031 A 
ATOM     41  C   UNL A   1      44.183  25.206  28.561  1.00  0.00     0.074 A 
ATOM     42  C   UNL A   1      41.764  25.653  28.364  1.00  0.00     0.049 A 
ATOM     43  N   UNL A   1      44.619  26.363  28.993  1.00  0.00    -0.248 NA
ATOM     44  C   UNL A   1      45.240  24.198  28.372  1.00  0.00     0.031 C 
ATOM     45  C   UNL A   1      40.366  25.393  28.032  1.00  0.00     0.029 A 
ATOM     46  N   UNL A   1      41.774  26.954  28.804  1.00  0.00    -0.354 N 
ATOM     47  C   UNL A   1      45.995  26.223  29.125  1.00  0.00     0.074 A 
ATOM     48  C   UNL A   1      46.319  24.860  28.760  1.00  0.00     0.031 C 
ATOM     49  C   UNL A   1      39.650  26.506  28.271  1.00  0.00     0.029 A 
ATOM     50  C   UNL A   1      40.538  27.548  28.787  1.00  0.00     0.049 A 
ATOM     51  H   UNL A   1      42.591  27.415  29.103  1.00  0.00     0.167 HD
ATOM     52  C   UNL A   1      46.915  27.142  29.504  1.00  0.00     0.031 A 
ATOM     53  C   UNL A   1      40.164  28.791  29.144  1.00  0.00     0.031 A 
ATOM     54  C   UNL A   1      46.611  28.495  29.879  1.00  0.00     0.049 A 
ATOM     55  C   UNL A   1      41.193  29.774  29.633  1.00  0.00     0.074 A 
ATOM     56  C   UNL A   1      47.480  29.496  30.279  1.00  0.00     0.029 A 
ATOM     57  N   UNL A   1      45.337  29.036  29.904  1.00  0.00    -0.354 N 
ATOM     58  N   UNL A   1      42.491  29.630  29.741  1.00  0.00    -0.248 NA
ATOM     59  C   UNL A   1      40.700  31.099  30.041  1.00  0.00     0.031 C 
ATOM     60  C   UNL A   1      46.725  30.636  30.580  1.00  0.00     0.029 A 
ATOM     61  C   UNL A   1      45.393  30.353  30.327  1.00  0.00     0.049 A 
ATOM     62  H   UNL A   1      44.514  28.556  29.657  1.00  0.00     0.167 HD
ATOM     63  C   UNL A   1      42.973  30.850  30.197  1.00  0.00     0.074 A 
ATOM     64  C   UNL A   1      41.829  31.727  30.342  1.00  0.00     0.031 C 
ATOM     65  C   UNL A   1      44.250  31.215  30.465  1.00  0.00     0.031 A 
BRANCH  52  66
ATOM     66  C   UNL A   1      48.348  26.695  29.550  1.00  0.00    -0.014 A 
ATOM     67  C   UNL A   1      48.876  26.076  30.694  1.00  0.00     0.009 A 
ATOM     68  C   UNL A   1      49.175  26.883  28.432  1.00  0.00     0.009 A 
ATOM     69  C   UNL A   1      50.215  25.684  30.728  1.00  0.00     0.001 A 
ATOM     70  C   UNL A   1      50.507  26.470  28.463  1.00  0.00     0.001 A 
ATOM     71  C   UNL A   1      51.029  25.879  29.612  1.00  0.00     0.000 A 
ENDBRANCH  52  66
BRANCH  53  72
ATOM     72  C   UNL A   1      38.738  29.193  29.047  1.00  0.00    -0.014 A 
ATOM     73  C   UNL A   1      37.885  29.064  30.152  1.00  0.00     0.009 A 
ATOM     74  C   UNL A   1      38.221  29.687  27.839  1.00  0.00     0.009 A 
ATOM     75  C   UNL A   1      36.535  29.404  30.045  1.00  0.00     0.001 A 
ATOM     76  C   UNL A   1      36.876  30.045  27.741  1.00  0.00     0.001 A 
ATOM     77  C   UNL A   1      36.032  29.896  28.841  1.00  0.00     0.000 A 
ENDBRANCH  53  72
BRANCH  65  78
ATOM     78  C   UNL A   1      44.483  32.632  30.904  1.00  0.00    -0.014 A 
ATOM     79  C   UNL A   1      44.486  32.981  32.263  1.00  0.00     0.009 A 
ATOM     80  C   UNL A   1      44.736  33.624  29.944  1.00  0.00     0.009 A 
ATOM     81  C   UNL A   1      44.707  34.305  32.649  1.00  0.00     0.001 A 
ATOM     82  C   UNL A   1      44.977  34.942  30.334  1.00  0.00     0.001 A 
ATOM     83  C   UNL A   1      44.955  35.282  31.686  1.00  0.00     0.000 A 
ENDBRANCH  65  78
ENDBRANCH  39  40
ENDBRANCH  32  34
ENDBRANCH  31  32
ENDBRANCH  30  31
ENDBRANCH  29  30
ENDBRANCH  28  29
ENDBRANCH   1  28
TORSDOF 20
ENDMDL
MODEL 2
REMARK VINA RESULT:      -9.6      1.191      3.657
REMARK SMILES COc1ccc(NC(=O)C[C@@H](C[NH+]2CCOCC2)C(=O)OCCOCCOC(=O)c2ccc(-c3c4nc(c(-c5ccccc5)c5ccc([nH]5)c(-c5ccccc5)c5nc(c(-c6ccccc6)c6ccc3[nH]6)C=C5)C=C4)cc2)cc1
REMARK SMILES IDX 23 1 22 2 21 3 19 4 20 5 11 6 10 7 8 8 7 9 9 11 6 12 3 13
REMARK SMILES IDX 4 14 79 15 5 16 78 17 2 18 1 19 12 20 13 21 14 22 18 23
REMARK SMILES IDX 15 25 17 26 16 27 24 28 25 29 26 30 27 31 28 32 29 33 30 34
REMARK SMILES IDX 31 35 77 36 32 37 76 38 33 39 34 40 35 41 70 42 36 43 75 44
REMARK SMILES IDX 69 45 71 46 37 47 74 48 68 49 67 50 38 52 60 53 45 54 59 55
REMARK SMILES IDX 46 56 49 57 58 58 72 59 47 60 48 61 57 63 73 64 50 65 39 66
REMARK SMILES IDX 40 67 44 68 41 69 43 70 42 71 61 72 62 73 66 74 63 75 65 76
REMARK SMILES IDX 64 77 51 78 52 79 56 80 53 81 55 82 54 83
REMARK H PARENT 7 10 13 24 71 51 49 62
REMARK Flexibility Score: inf
ROOT
ATOM      1  C   UNL A   1      36.364  22.673  25.631  1.00  0.00     0.202 C 
ENDROOT
BRANCH   1   2
ATOM      2  C   UNL A   1      35.481  23.160  24.485  1.00  0.00     0.261 C 
BRANCH   2   3
ATOM      3  O   UNL A   1      35.150  24.557  24.587  1.00  0.00    -0.463 OA
BRANCH   3   4
ATOM      4  C   UNL A   1      34.171  24.988  23.747  1.00  0.00     0.315 C 
ATOM      5  O   UNL A   1      34.196  24.867  22.528  1.00  0.00    -0.252 OA
BRANCH   4   6
ATOM      6  C   UNL A   1      33.075  25.760  24.448  1.00  0.00     0.163 C 
BRANCH   6   7
ATOM      7  C   UNL A   1      32.991  25.588  25.969  1.00  0.00     0.121 C 
BRANCH   7   8
ATOM      8  C   UNL A   1      31.588  25.159  26.367  1.00  0.00     0.225 C 
ATOM      9  N   UNL A   1      31.248  23.841  26.480  1.00  0.00    -0.326 N 
ATOM     10  H   UNL A   1      30.421  23.669  26.986  1.00  0.00     0.169 HD
ATOM     11  O   UNL A   1      30.776  26.008  26.749  1.00  0.00    -0.275 OA
BRANCH   9  12
ATOM     12  C   UNL A   1      31.888  22.695  25.992  1.00  0.00     0.041 A 
ATOM     13  C   UNL A   1      33.000  20.342  24.928  1.00  0.00     0.119 A 
ATOM     14  C   UNL A   1      33.276  20.732  26.240  1.00  0.00     0.048 A 
ATOM     15  C   UNL A   1      32.229  21.178  24.125  1.00  0.00     0.048 A 
ATOM     16  C   UNL A   1      32.729  21.904  26.770  1.00  0.00     0.030 A 
ATOM     17  C   UNL A   1      31.693  22.363  24.650  1.00  0.00     0.030 A 
BRANCH  13  18
ATOM     18  O   UNL A   1      33.598  19.177  24.544  1.00  0.00    -0.497 OA
ATOM     19  C   UNL A   1      33.077  17.945  25.025  1.00  0.00     0.278 C 
ENDBRANCH  13  18
ENDBRANCH   9  12
ENDBRANCH   7   8
ENDBRANCH   6   7
BRANCH   6  20
ATOM     20  C   UNL A   1      33.079  27.201  23.895  1.00  0.00     0.278 C 
BRANCH  20  21
ATOM     21  N   UNL A   1      32.270  27.541  22.714  1.00  0.00    -0.330 N 
ATOM     22  C   UNL A   1      31.895  28.979  22.736  1.00  0.00     0.291 C 
ATOM     23  C   UNL A   1      31.036  26.770  22.488  1.00  0.00     0.291 C 
ATOM     24  H   UNL A   1      32.896  27.298  21.946  1.00  0.00     0.348 HD
ATOM     25  C   UNL A   1      30.727  29.299  23.690  1.00  0.00     0.221 C 
ATOM     26  C   UNL A   1      29.903  27.104  23.464  1.00  0.00     0.221 C 
ATOM     27  O   UNL A   1      29.574  28.496  23.403  1.00  0.00    -0.370 OA
ENDBRANCH  20  21
ENDBRANCH   6  20
ENDBRANCH   4   6
ENDBRANCH   3   4
ENDBRANCH   2   3
ENDBRANCH   1   2
BRANCH   1  28
ATOM     28  O   UNL A   1      36.486  21.264  25.777  1.00  0.00    -0.374 OA
BRANCH  28  29
ATOM     29  C   UNL A   1      37.026  20.522  24.685  1.00  0.00     0.202 C 
BRANCH  29  30
ATOM     30  C   UNL A   1      38.387  19.856  24.916  1.00  0.00     0.261 C 
BRANCH  30  31
ATOM     31  O   UNL A   1      39.174  20.492  25.946  1.00  0.00    -0.460 OA
BRANCH  31  32
ATOM     32  C   UNL A   1      40.435  20.020  26.053  1.00  0.00     0.338 C 
ATOM     33  O   UNL A   1      40.852  18.929  25.670  1.00  0.00    -0.246 OA
BRANCH  32  34
ATOM     34  C   UNL A   1      41.360  21.015  26.617  1.00  0.00     0.060 A 
ATOM     35  C   UNL A   1      41.319  21.221  28.003  1.00  0.00     0.016 A 
ATOM     36  C   UNL A   1      42.059  21.898  25.789  1.00  0.00     0.016 A 
ATOM     37  C   UNL A   1      41.890  22.367  28.554  1.00  0.00     0.010 A 
ATOM     38  C   UNL A   1      42.629  23.051  26.346  1.00  0.00     0.010 A 
ATOM     39  C   UNL A   1      42.485  23.322  27.719  1.00  0.00    -0.014 A 
BRANCH  39  40
ATOM     40  C   UNL A   1      42.726  24.686  28.256  1.00  0.00     0.031 A 
ATOM     41  C   UNL A   1      44.144  25.107  28.561  1.00  0.00     0.074 A 
ATOM     42  C   UNL A   1      41.726  25.573  28.396  1.00  0.00     0.049 A 
ATOM     43  N   UNL A   1      44.596  26.266  28.971  1.00  0.00    -0.248 NA
ATOM     44  C   UNL A   1      45.188  24.088  28.369  1.00  0.00     0.031 C 
ATOM     45  C   UNL A   1      40.321  25.321  28.089  1.00  0.00     0.029 A 
ATOM     46  N   UNL A   1      41.754  26.878  28.819  1.00  0.00    -0.354 N 
ATOM     47  C   UNL A   1      45.973  26.115  29.083  1.00  0.00     0.074 A 
ATOM     48  C   UNL A   1      46.280  24.746  28.730  1.00  0.00     0.031 C 
ATOM     49  C   UNL A   1      39.618  26.443  28.326  1.00  0.00     0.029 A 
ATOM     50  C   UNL A   1      40.522  27.484  28.814  1.00  0.00     0.049 A 
ATOM     51  H   UNL A   1      42.579  27.337  29.099  1.00  0.00     0.167 HD
ATOM     52  C   UNL A   1      46.906  27.031  29.436  1.00  0.00     0.031 A 
ATOM     53  C   UNL A   1      40.165  28.734  29.161  1.00  0.00     0.031 A 
ATOM     54  C   UNL A   1      46.620  28.391  29.799  1.00  0.00     0.049 A 
ATOM     55  C   UNL A   1      41.210  29.714  29.621  1.00  0.00     0.074 A 
ATOM     56  C   UNL A   1      47.504  29.390  30.172  1.00  0.00     0.029 A 
ATOM     57  N   UNL A   1      45.351  28.944  29.837  1.00  0.00    -0.354 N 
ATOM     58  N   UNL A   1      42.508  29.560  29.710  1.00  0.00    -0.248 NA
ATOM     59  C   UNL A   1      40.734  31.048  30.020  1.00  0.00     0.031 C 
ATOM     60  C   UNL A   1      46.762  30.540  30.470  1.00  0.00     0.029 A 
ATOM     61  C   UNL A   1      45.425  30.265  30.242  1.00  0.00     0.049 A 
ATOM     62  H   UNL A   1      44.520  28.467  29.609  1.00  0.00     0.167 HD
ATOM     63  C   UNL A   1      43.007  30.782  30.143  1.00  0.00     0.074 A 
ATOM     64  C   UNL A   1      41.873  31.670  30.295  1.00  0.00     0.031 C 
ATOM     65  C   UNL A   1      44.291  31.139  30.387  1.00  0.00     0.031 A 
BRANCH  52  66
ATOM     66  C   UNL A   1      48.336  26.572  29.466  1.00  0.00    -0.014 A 
ATOM     67  C   UNL A   1      48.892  26.013  30.627  1.00  0.00     0.009 A 
ATOM     68  C   UNL A   1      49.131  26.689  28.315  1.00  0.00     0.009 A 
ATOM     69  C   UNL A   1      50.228  25.609  30.644  1.00  0.00     0.001 A 
ATOM     70  C   UNL A   1      50.460  26.264  28.330  1.00  0.00     0.001 A 
ATOM     71  C   UNL A   1      51.010  25.733  29.495  1.00  0.00     0.000 A 
ENDBRANCH  52  66
BRANCH  53  72
ATOM     72  C   UNL A   1      38.741  29.147  29.081  1.00  0.00    -0.014 A 
ATOM     73  C   UNL A   1      38.236  29.736  27.912  1.00  0.00     0.009 A 
ATOM     74  C   UNL A   1      37.888  28.975  30.183  1.00  0.00     0.009 A 
ATOM     75  C   UNL A   1      36.907  30.161  27.855  1.00  0.00     0.001 A 
ATOM     76  C   UNL A   1      36.556  29.383  30.114  1.00  0.00     0.001 A 
ATOM     77  C   UNL A   1      36.068  29.982  28.953  1.00  0.00     0.000 A 
ENDBRANCH  53  72
BRANCH  65  78
ATOM     78  C   UNL A   1      44.543  32.559  30.804  1.00  0.00    -0.014 A 
ATOM     79  C   UNL A   1      44.580  32.923  32.159  1.00  0.00     0.009 A 
ATOM     80  C   UNL A   1      44.779  33.538  29.827  1.00  0.00     0.009 A 
ATOM     81  C   UNL A   1      44.818  34.250  32.524  1.00  0.00     0.001 A 
ATOM     82  C   UNL A   1      45.038  34.859  30.197  1.00  0.00     0.001 A 
ATOM     83  C   UNL A   1      45.050  35.215  31.545  1.00  0.00     0.000 A 
ENDBRANCH  65  78
ENDBRANCH  39  40
ENDBRANCH  32  34
ENDBRANCH  31  32
ENDBRANCH  30  31
ENDBRANCH  29  30
ENDBRANCH  28  29
ENDBRANCH   1  28
TORSDOF 20
ENDMDL
MODEL 3
REMARK VINA RESULT:      -9.5      1.245      1.910
REMARK SMILES COc1ccc(NC(=O)C[C@@H](C[NH+]2CCOCC2)C(=O)OCCOCCOC(=O)c2ccc(-c3c4nc(c(-c5ccccc5)c5ccc([nH]5)c(-c5ccccc5)c5nc(c(-c6ccccc6)c6ccc3[nH]6)C=C5)C=C4)cc2)cc1
REMARK SMILES IDX 23 1 22 2 21 3 19 4 20 5 11 6 10 7 8 8 7 9 9 11 6 12 3 13
REMARK SMILES IDX 4 14 79 15 5 16 78 17 2 18 1 19 12 20 13 21 14 22 18 23
REMARK SMILES IDX 15 25 17 26 16 27 24 28 25 29 26 30 27 31 28 32 29 33 30 34
REMARK SMILES IDX 31 35 77 36 32 37 76 38 33 39 34 40 35 41 70 42 36 43 75 44
REMARK SMILES IDX 69 45 71 46 37 47 74 48 68 49 67 50 38 52 60 53 45 54 59 55
REMARK SMILES IDX 46 56 49 57 58 58 72 59 47 60 48 61 57 63 73 64 50 65 39 66
REMARK SMILES IDX 40 67 44 68 41 69 43 70 42 71 61 72 62 73 66 74 63 75 65 76
REMARK SMILES IDX 64 77 51 78 52 79 56 80 53 81 55 82 54 83
REMARK H PARENT 7 10 13 24 71 51 49 62
REMARK Flexibility Score: inf
ROOT
ATOM      1  C   UNL A   1      35.746  22.315  26.444  1.00  0.00     0.202 C 
ENDROOT
BRANCH   1   2
ATOM      2  C   UNL A   1      34.276  22.655  26.675  1.00  0.00     0.261 C 
BRANCH   2   3
ATOM      3  O   UNL A   1      33.433  21.489  26.725  1.00  0.00    -0.463 OA
BRANCH   3   4
ATOM      4  C   UNL A   1      32.371  21.500  25.876  1.00  0.00     0.315 C 
ATOM      5  O   UNL A   1      31.263  21.949  26.152  1.00  0.00    -0.252 OA
BRANCH   4   6
ATOM      6  C   UNL A   1      32.636  20.784  24.571  1.00  0.00     0.163 C 
BRANCH   6   7
ATOM      7  C   UNL A   1      33.383  21.586  23.498  1.00  0.00     0.121 C 
BRANCH   7   8
ATOM      8  C   UNL A   1      32.397  22.150  22.488  1.00  0.00     0.225 C 
ATOM      9  N   UNL A   1      32.087  23.480  22.457  1.00  0.00    -0.326 N 
ATOM     10  H   UNL A   1      31.658  23.784  21.625  1.00  0.00     0.169 HD
ATOM     11  O   UNL A   1      31.981  21.430  21.575  1.00  0.00    -0.275 OA
BRANCH   9  12
ATOM     12  C   UNL A   1      32.282  24.479  23.419  1.00  0.00     0.041 A 
ATOM     13  C   UNL A   1      32.499  26.562  25.294  1.00  0.00     0.119 A 
ATOM     14  C   UNL A   1      33.598  26.178  24.524  1.00  0.00     0.048 A 
ATOM     15  C   UNL A   1      31.311  25.845  25.178  1.00  0.00     0.048 A 
ATOM     16  C   UNL A   1      33.495  25.139  23.595  1.00  0.00     0.030 A 
ATOM     17  C   UNL A   1      31.211  24.791  24.259  1.00  0.00     0.030 A 
BRANCH  13  18
ATOM     18  O   UNL A   1      32.742  27.591  26.157  1.00  0.00    -0.497 OA
ATOM     19  C   UNL A   1      31.810  27.848  27.200  1.00  0.00     0.278 C 
ENDBRANCH  13  18
ENDBRANCH   9  12
ENDBRANCH   7   8
ENDBRANCH   6   7
BRANCH   6  20
ATOM     20  C   UNL A   1      33.165  19.372  24.900  1.00  0.00     0.278 C 
BRANCH  20  21
ATOM     21  N   UNL A   1      32.412  18.183  24.473  1.00  0.00    -0.330 N 
ATOM     22  C   UNL A   1      32.539  17.097  25.479  1.00  0.00     0.291 C 
ATOM     23  C   UNL A   1      32.742  17.604  23.160  1.00  0.00     0.291 C 
ATOM     24  H   UNL A   1      31.463  18.547  24.387  1.00  0.00     0.348 HD
ATOM     25  C   UNL A   1      33.879  16.337  25.405  1.00  0.00     0.221 C 
ATOM     26  C   UNL A   1      34.087  16.871  23.121  1.00  0.00     0.221 C 
ATOM     27  O   UNL A   1      34.120  15.819  24.091  1.00  0.00    -0.370 OA
ENDBRANCH  20  21
ENDBRANCH   6  20
ENDBRANCH   4   6
ENDBRANCH   3   4
ENDBRANCH   2   3
ENDBRANCH   1   2
BRANCH   1  28
ATOM     28  O   UNL A   1      36.011  21.121  25.717  1.00  0.00    -0.374 OA
BRANCH  28  29
ATOM     29  C   UNL A   1      37.023  21.159  24.714  1.00  0.00     0.202 C 
BRANCH  29  30
ATOM     30  C   UNL A   1      38.226  20.232  24.919  1.00  0.00     0.261 C 
BRANCH  30  31
ATOM     31  O   UNL A   1      38.989  20.530  26.107  1.00  0.00    -0.460 OA
BRANCH  31  32
ATOM     32  C   UNL A   1      40.271  20.105  26.067  1.00  0.00     0.338 C 
ATOM     33  O   UNL A   1      40.688  19.058  25.576  1.00  0.00    -0.246 OA
BRANCH  32  34
ATOM     34  C   UNL A   1      41.209  21.101  26.607  1.00  0.00     0.060 A 
ATOM     35  C   UNL A   1      41.228  21.282  27.996  1.00  0.00     0.016 A 
ATOM     36  C   UNL A   1      41.861  22.007  25.764  1.00  0.00     0.016 A 
ATOM     37  C   UNL A   1      41.810  22.425  28.541  1.00  0.00     0.010 A 
ATOM     38  C   UNL A   1      42.442  23.157  26.316  1.00  0.00     0.010 A 
ATOM     39  C   UNL A   1      42.357  23.402  27.698  1.00  0.00    -0.014 A 
BRANCH  39  40
ATOM     40  C   UNL A   1      42.607  24.759  28.249  1.00  0.00     0.031 A 
ATOM     41  C   UNL A   1      44.025  25.164  28.567  1.00  0.00     0.074 A 
ATOM     42  C   UNL A   1      41.614  25.654  28.388  1.00  0.00     0.049 A 
ATOM     43  N   UNL A   1      44.485  26.315  28.991  1.00  0.00    -0.248 NA
ATOM     44  C   UNL A   1      45.062  24.137  28.375  1.00  0.00     0.031 C 
ATOM     45  C   UNL A   1      40.208  25.418  28.069  1.00  0.00     0.029 A 
ATOM     46  N   UNL A   1      41.651  26.956  28.822  1.00  0.00    -0.354 N 
ATOM     47  C   UNL A   1      45.860  26.151  29.112  1.00  0.00     0.074 A 
ATOM     48  C   UNL A   1      46.157  24.781  28.750  1.00  0.00     0.031 C 
ATOM     49  C   UNL A   1      39.514  26.544  28.309  1.00  0.00     0.029 A 
ATOM     50  C   UNL A   1      40.425  27.572  28.813  1.00  0.00     0.049 A 
ATOM     51  H   UNL A   1      42.477  27.404  29.113  1.00  0.00     0.167 HD
ATOM     52  C   UNL A   1      46.799  27.054  29.479  1.00  0.00     0.031 A 
ATOM     53  C   UNL A   1      40.076  28.823  29.168  1.00  0.00     0.031 A 
ATOM     54  C   UNL A   1      46.523  28.414  29.852  1.00  0.00     0.049 A 
ATOM     55  C   UNL A   1      41.127  29.789  29.644  1.00  0.00     0.074 A 
ATOM     56  C   UNL A   1      47.413  29.402  30.240  1.00  0.00     0.029 A 
ATOM     57  N   UNL A   1      45.259  28.978  29.885  1.00  0.00    -0.354 N 
ATOM     58  N   UNL A   1      42.423  29.622  29.742  1.00  0.00    -0.248 NA
ATOM     59  C   UNL A   1      40.661  31.125  30.050  1.00  0.00     0.031 C 
ATOM     60  C   UNL A   1      46.681  30.556  30.542  1.00  0.00     0.029 A 
ATOM     61  C   UNL A   1      45.342  30.295  30.302  1.00  0.00     0.049 A 
ATOM     62  H   UNL A   1      44.426  28.512  29.646  1.00  0.00     0.167 HD
ATOM     63  C   UNL A   1      42.930  30.836  30.189  1.00  0.00     0.074 A 
ATOM     64  C   UNL A   1      41.803  31.733  30.339  1.00  0.00     0.031 C 
ATOM     65  C   UNL A   1      44.216  31.179  30.445  1.00  0.00     0.031 A 
BRANCH  52  66
ATOM     66  C   UNL A   1      48.224  26.582  29.516  1.00  0.00    -0.014 A 
ATOM     67  C   UNL A   1      48.766  26.007  30.676  1.00  0.00     0.009 A 
ATOM     68  C   UNL A   1      49.030  26.702  28.373  1.00  0.00     0.009 A 
ATOM     69  C   UNL A   1      50.098  25.590  30.700  1.00  0.00     0.001 A 
ATOM     70  C   UNL A   1      50.355  26.265  28.395  1.00  0.00     0.001 A 
ATOM     71  C   UNL A   1      50.890  25.717  29.559  1.00  0.00     0.000 A 
ENDBRANCH  52  66
BRANCH  53  72
ATOM     72  C   UNL A   1      38.657  29.251  29.080  1.00  0.00    -0.014 A 
ATOM     73  C   UNL A   1      38.160  29.829  27.903  1.00  0.00     0.009 A 
ATOM     74  C   UNL A   1      37.802  29.102  30.183  1.00  0.00     0.009 A 
ATOM     75  C   UNL A   1      36.836  30.268  27.838  1.00  0.00     0.001 A 
ATOM     76  C   UNL A   1      36.474  29.523  30.107  1.00  0.00     0.001 A 
ATOM     77  C   UNL A   1      35.993  30.112  28.938  1.00  0.00     0.000 A 
ENDBRANCH  53  72
BRANCH  65  78
ATOM     78  C   UNL A   1      44.478  32.593  30.876  1.00  0.00    -0.014 A 
ATOM     79  C   UNL A   1      44.504  32.946  32.233  1.00  0.00     0.009 A 
ATOM     80  C   UNL A   1      44.734  33.577  29.909  1.00  0.00     0.009 A 
ATOM     81  C   UNL A   1      44.753  34.268  32.612  1.00  0.00     0.001 A 
ATOM     82  C   UNL A   1      45.002  34.893  30.291  1.00  0.00     0.001 A 
ATOM     83  C   UNL A   1      45.004  35.238  31.643  1.00  0.00     0.000 A 
ENDBRANCH  65  78
ENDBRANCH  39  40
ENDBRANCH  32  34
ENDBRANCH  31  32
ENDBRANCH  30  31
ENDBRANCH  29  30
ENDBRANCH  28  29
ENDBRANCH   1  28
TORSDOF 20
ENDMDL
