MODEL 1
REMARK VINA RESULT:     -11.8      0.000      0.000
REMARK SMILES Cc1ccccc1NC(=O)CSc1nc(C(=O)OCCOCCOC(=O)c2ccc(-c3c4nc(c(-c5ccccc5)c5ccc([nH]5)c(-c5ccccc5)c5nc(c(-c6ccccc6)c6ccc3[nH]6)C=C5)C=C4)cc2)c2ccccc2n1
REMARK SMILES IDX 20 1 19 2 18 3 16 4 17 5 15 6 13 7 14 8 81 9 80 10 75 11
REMARK SMILES IDX 79 12 76 13 78 14 77 15 12 16 11 17 9 18 8 19 10 21 7 22
REMARK SMILES IDX 1 23 2 24 3 25 4 26 6 27 5 28 21 29 22 30 23 31 24 32 25 33
REMARK SMILES IDX 26 34 27 35 28 36 74 37 29 38 73 39 30 40 31 41 32 42 67 43
REMARK SMILES IDX 33 44 72 45 66 46 68 47 34 48 71 49 65 50 64 51 35 53 57 54
REMARK SMILES IDX 42 55 56 56 43 57 46 58 55 59 69 60 44 61 45 62 54 64 70 65
REMARK SMILES IDX 47 66 36 67 37 68 41 69 38 70 40 71 39 72 58 73 59 74 63 75
REMARK SMILES IDX 60 76 62 77 61 78 48 79 49 80 53 81 50 82 52 83 51 84
REMARK H PARENT 8 20 68 52 46 63
REMARK Flexibility Score: inf
ROOT
ATOM      1  C   UNL A   1      34.933  29.335  27.121  1.00  0.00     0.202 C 
ENDROOT
BRANCH   1   2
ATOM      2  C   UNL A   1      33.659  28.606  26.822  1.00  0.00     0.261 C 
BRANCH   2   3
ATOM      3  O   UNL A   1      33.099  29.027  25.570  1.00  0.00    -0.458 OA
BRANCH   3   4
ATOM      4  C   UNL A   1      31.963  29.757  25.464  1.00  0.00     0.357 C 
ATOM      5  O   UNL A   1      31.633  30.718  26.120  1.00  0.00    -0.244 OA
BRANCH   4   6
ATOM      6  C   UNL A   1      31.233  29.271  24.256  1.00  0.00     0.160 A 
ATOM      7  C   UNL A   1      30.971  27.400  23.006  1.00  0.00     0.189 A 
ATOM      8  N   UNL A   1      31.697  28.062  23.884  1.00  0.00    -0.215 NA
ATOM      9  N   UNL A   1      29.850  27.862  22.439  1.00  0.00    -0.222 NA
ATOM     10  C   UNL A   1      29.419  29.081  22.793  1.00  0.00     0.076 A 
ATOM     11  C   UNL A   1      30.070  29.878  23.734  1.00  0.00     0.034 A 
ATOM     12  C   UNL A   1      28.233  29.550  22.236  1.00  0.00     0.029 A 
ATOM     13  C   UNL A   1      29.479  31.141  24.077  1.00  0.00     0.013 A 
ATOM     14  C   UNL A   1      27.645  30.762  22.617  1.00  0.00     0.002 A 
ATOM     15  C   UNL A   1      28.265  31.558  23.557  1.00  0.00     0.001 A 
BRANCH   7  16
ATOM     16  S   UNL A   1      31.363  25.694  22.830  1.00  0.00    -0.076 SA
BRANCH  16  17
ATOM     17  C   UNL A   1      30.178  24.981  24.021  1.00  0.00     0.178 C 
BRANCH  17  18
ATOM     18  C   UNL A   1      30.626  25.093  25.465  1.00  0.00     0.234 C 
ATOM     19  N   UNL A   1      31.506  24.242  26.070  1.00  0.00    -0.325 N 
ATOM     20  H   UNL A   1      31.654  24.451  27.021  1.00  0.00     0.169 HD
ATOM     21  O   UNL A   1      30.172  25.998  26.179  1.00  0.00    -0.274 OA
BRANCH  19  22
ATOM     22  C   UNL A   1      32.250  23.130  25.627  1.00  0.00     0.044 A 
ATOM     23  C   UNL A   1      34.387  24.574  25.411  1.00  0.00     0.046 C 
ATOM     24  C   UNL A   1      33.586  23.312  25.216  1.00  0.00    -0.027 A 
ATOM     25  C   UNL A   1      34.254  22.251  24.569  1.00  0.00     0.005 A 
ATOM     26  C   UNL A   1      33.631  21.024  24.361  1.00  0.00     0.000 A 
ATOM     27  C   UNL A   1      31.702  21.846  25.539  1.00  0.00     0.026 A 
ATOM     28  C   UNL A   1      32.363  20.812  24.875  1.00  0.00     0.002 A 
ENDBRANCH  19  22
ENDBRANCH  17  18
ENDBRANCH  16  17
ENDBRANCH   7  16
ENDBRANCH   4   6
ENDBRANCH   3   4
ENDBRANCH   2   3
ENDBRANCH   1   2
BRANCH   1  29
ATOM     29  O   UNL A   1      34.592  30.339  28.052  1.00  0.00    -0.374 OA
BRANCH  29  30
ATOM     30  C   UNL A   1      34.836  31.671  27.662  1.00  0.00     0.202 C 
BRANCH  30  31
ATOM     31  C   UNL A   1      33.645  32.571  27.999  1.00  0.00     0.261 C 
BRANCH  31  32
ATOM     32  O   UNL A   1      34.109  33.886  28.398  1.00  0.00    -0.460 OA
BRANCH  32  33
ATOM     33  C   UNL A   1      34.065  34.175  29.732  1.00  0.00     0.338 C 
ATOM     34  O   UNL A   1      33.109  34.663  30.314  1.00  0.00    -0.246 OA
BRANCH  33  35
ATOM     35  C   UNL A   1      35.433  34.071  30.329  1.00  0.00     0.060 A 
ATOM     36  C   UNL A   1      36.583  34.255  29.531  1.00  0.00     0.016 A 
ATOM     37  C   UNL A   1      35.546  33.427  31.553  1.00  0.00     0.016 A 
ATOM     38  C   UNL A   1      37.796  33.627  29.872  1.00  0.00     0.010 A 
ATOM     39  C   UNL A   1      36.682  32.691  31.793  1.00  0.00     0.010 A 
ATOM     40  C   UNL A   1      37.811  32.753  30.954  1.00  0.00    -0.014 A 
BRANCH  40  41
ATOM     41  C   UNL A   1      38.868  31.803  31.333  1.00  0.00     0.031 A 
ATOM     42  C   UNL A   1      38.867  30.500  30.630  1.00  0.00     0.074 A 
ATOM     43  C   UNL A   1      39.999  32.204  31.970  1.00  0.00     0.049 A 
ATOM     44  N   UNL A   1      39.741  29.579  30.817  1.00  0.00    -0.248 NA
ATOM     45  C   UNL A   1      37.844  30.101  29.661  1.00  0.00     0.031 C 
ATOM     46  C   UNL A   1      41.367  31.703  31.789  1.00  0.00     0.029 A 
ATOM     47  N   UNL A   1      40.168  33.201  32.922  1.00  0.00    -0.354 N 
ATOM     48  C   UNL A   1      39.643  28.698  29.772  1.00  0.00     0.074 A 
ATOM     49  C   UNL A   1      38.376  28.987  29.154  1.00  0.00     0.031 C 
ATOM     50  C   UNL A   1      42.177  32.216  32.734  1.00  0.00     0.029 A 
ATOM     51  C   UNL A   1      41.343  32.963  33.652  1.00  0.00     0.049 A 
ATOM     52  H   UNL A   1      39.556  33.959  33.064  1.00  0.00     0.167 HD
ATOM     53  C   UNL A   1      40.724  27.923  29.489  1.00  0.00     0.031 A 
ATOM     54  C   UNL A   1      41.279  32.831  35.005  1.00  0.00     0.031 A 
ATOM     55  C   UNL A   1      41.766  28.091  30.516  1.00  0.00     0.049 A 
ATOM     56  C   UNL A   1      41.578  31.394  35.341  1.00  0.00     0.074 A 
ATOM     57  C   UNL A   1      42.999  28.718  30.539  1.00  0.00     0.029 A 
ATOM     58  N   UNL A   1      41.418  27.872  31.849  1.00  0.00    -0.354 N 
ATOM     59  N   UNL A   1      41.455  30.432  34.464  1.00  0.00    -0.248 NA
ATOM     60  C   UNL A   1      42.159  30.930  36.594  1.00  0.00     0.031 C 
ATOM     61  C   UNL A   1      43.359  28.919  31.908  1.00  0.00     0.029 A 
ATOM     62  C   UNL A   1      42.362  28.388  32.714  1.00  0.00     0.049 A 
ATOM     63  H   UNL A   1      40.602  27.405  32.138  1.00  0.00     0.167 HD
ATOM     64  C   UNL A   1      42.043  29.302  34.936  1.00  0.00     0.074 A 
ATOM     65  C   UNL A   1      42.415  29.642  36.301  1.00  0.00     0.031 C 
ATOM     66  C   UNL A   1      42.223  28.193  34.160  1.00  0.00     0.031 A 
BRANCH  53  67
ATOM     67  C   UNL A   1      40.921  27.141  28.210  1.00  0.00    -0.014 A 
ATOM     68  C   UNL A   1      40.938  25.736  28.259  1.00  0.00     0.009 A 
ATOM     69  C   UNL A   1      41.143  27.705  26.940  1.00  0.00     0.009 A 
ATOM     70  C   UNL A   1      41.162  24.951  27.117  1.00  0.00     0.001 A 
ATOM     71  C   UNL A   1      41.355  26.930  25.790  1.00  0.00     0.001 A 
ATOM     72  C   UNL A   1      41.366  25.548  25.880  1.00  0.00     0.000 A 
ENDBRANCH  53  67
BRANCH  54  73
ATOM     73  C   UNL A   1      40.274  33.781  35.588  1.00  0.00    -0.014 A 
ATOM     74  C   UNL A   1      39.225  33.191  36.336  1.00  0.00     0.009 A 
ATOM     75  C   UNL A   1      40.657  35.092  35.923  1.00  0.00     0.009 A 
ATOM     76  C   UNL A   1      38.714  33.813  37.484  1.00  0.00     0.001 A 
ATOM     77  C   UNL A   1      40.152  35.701  37.085  1.00  0.00     0.001 A 
ATOM     78  C   UNL A   1      39.216  35.047  37.886  1.00  0.00     0.000 A 
ENDBRANCH  54  73
BRANCH  66  79
ATOM     79  C   UNL A   1      42.305  26.792  34.708  1.00  0.00    -0.014 A 
ATOM     80  C   UNL A   1      41.258  26.153  35.382  1.00  0.00     0.009 A 
ATOM     81  C   UNL A   1      43.421  25.991  34.377  1.00  0.00     0.009 A 
ATOM     82  C   UNL A   1      41.339  24.806  35.745  1.00  0.00     0.001 A 
ATOM     83  C   UNL A   1      43.475  24.630  34.672  1.00  0.00     0.001 A 
ATOM     84  C   UNL A   1      42.438  24.041  35.375  1.00  0.00     0.000 A 
ENDBRANCH  66  79
ENDBRANCH  40  41
ENDBRANCH  33  35
ENDBRANCH  32  33
ENDBRANCH  31  32
ENDBRANCH  30  31
ENDBRANCH  29  30
ENDBRANCH   1  29
TORSDOF 18
ENDMDL
MODEL 2
REMARK VINA RESULT:     -11.4      5.036     10.499
REMARK SMILES Cc1ccccc1NC(=O)CSc1nc(C(=O)OCCOCCOC(=O)c2ccc(-c3c4nc(c(-c5ccccc5)c5ccc([nH]5)c(-c5ccccc5)c5nc(c(-c6ccccc6)c6ccc3[nH]6)C=C5)C=C4)cc2)c2ccccc2n1
REMARK SMILES IDX 20 1 19 2 18 3 16 4 17 5 15 6 13 7 14 8 81 9 80 10 75 11
REMARK SMILES IDX 79 12 76 13 78 14 77 15 12 16 11 17 9 18 8 19 10 21 7 22
REMARK SMILES IDX 1 23 2 24 3 25 4 26 6 27 5 28 21 29 22 30 23 31 24 32 25 33
REMARK SMILES IDX 26 34 27 35 28 36 74 37 29 38 73 39 30 40 31 41 32 42 67 43
REMARK SMILES IDX 33 44 72 45 66 46 68 47 34 48 71 49 65 50 64 51 35 53 57 54
REMARK SMILES IDX 42 55 56 56 43 57 46 58 55 59 69 60 44 61 45 62 54 64 70 65
REMARK SMILES IDX 47 66 36 67 37 68 41 69 38 70 40 71 39 72 58 73 59 74 63 75
REMARK SMILES IDX 60 76 62 77 61 78 48 79 49 80 53 81 50 82 52 83 51 84
REMARK H PARENT 8 20 68 52 46 63
REMARK Flexibility Score: inf
ROOT
ATOM      1  C   UNL A   1      39.287  20.140  25.525  1.00  0.00     0.202 C 
ENDROOT
BRANCH   1   2
ATOM      2  C   UNL A   1      38.077  19.309  25.229  1.00  0.00     0.261 C 
BRANCH   2   3
ATOM      3  O   UNL A   1      37.015  20.109  24.690  1.00  0.00    -0.458 OA
BRANCH   3   4
ATOM      4  C   UNL A   1      36.219  20.905  25.444  1.00  0.00     0.357 C 
ATOM      5  O   UNL A   1      36.552  21.785  26.203  1.00  0.00    -0.244 OA
BRANCH   4   6
ATOM      6  C   UNL A   1      34.807  20.623  25.049  1.00  0.00     0.160 A 
ATOM      7  C   UNL A   1      32.919  21.703  24.420  1.00  0.00     0.189 A 
ATOM      8  N   UNL A   1      34.096  21.767  25.008  1.00  0.00    -0.215 NA
ATOM      9  N   UNL A   1      32.376  20.590  23.914  1.00  0.00    -0.222 NA
ATOM     10  C   UNL A   1      33.080  19.452  23.994  1.00  0.00     0.076 A 
ATOM     11  C   UNL A   1      34.353  19.379  24.559  1.00  0.00     0.034 A 
ATOM     12  C   UNL A   1      32.538  18.298  23.435  1.00  0.00     0.029 A 
ATOM     13  C   UNL A   1      35.036  18.115  24.532  1.00  0.00     0.013 A 
ATOM     14  C   UNL A   1      33.236  17.086  23.374  1.00  0.00     0.002 A 
ATOM     15  C   UNL A   1      34.502  16.997  23.913  1.00  0.00     0.001 A 
BRANCH   7  16
ATOM     16  S   UNL A   1      32.185  23.252  24.024  1.00  0.00    -0.076 SA
BRANCH  16  17
ATOM     17  C   UNL A   1      32.747  24.235  25.454  1.00  0.00     0.178 C 
BRANCH  17  18
ATOM     18  C   UNL A   1      31.634  24.600  26.417  1.00  0.00     0.234 C 
ATOM     19  N   UNL A   1      30.892  25.744  26.344  1.00  0.00    -0.325 N 
ATOM     20  H   UNL A   1      30.235  25.826  27.073  1.00  0.00     0.169 HD
ATOM     21  O   UNL A   1      31.359  23.838  27.354  1.00  0.00    -0.274 OA
BRANCH  19  22
ATOM     22  C   UNL A   1      30.863  26.833  25.449  1.00  0.00     0.044 A 
ATOM     23  C   UNL A   1      32.678  28.076  26.813  1.00  0.00     0.046 C 
ATOM     24  C   UNL A   1      31.633  27.980  25.732  1.00  0.00    -0.027 A 
ATOM     25  C   UNL A   1      31.433  29.145  24.961  1.00  0.00     0.005 A 
ATOM     26  C   UNL A   1      30.519  29.171  23.912  1.00  0.00     0.000 A 
ATOM     27  C   UNL A   1      30.063  26.842  24.302  1.00  0.00     0.026 A 
ATOM     28  C   UNL A   1      29.856  28.007  23.562  1.00  0.00     0.002 A 
ENDBRANCH  19  22
ENDBRANCH  17  18
ENDBRANCH  16  17
ENDBRANCH   7  16
ENDBRANCH   4   6
ENDBRANCH   3   4
ENDBRANCH   2   3
ENDBRANCH   1   2
BRANCH   1  29
ATOM     29  O   UNL A   1      40.387  19.259  25.446  1.00  0.00    -0.374 OA
BRANCH  29  30
ATOM     30  C   UNL A   1      41.436  19.475  26.362  1.00  0.00     0.202 C 
BRANCH  30  31
ATOM     31  C   UNL A   1      42.735  18.827  25.875  1.00  0.00     0.261 C 
BRANCH  31  32
ATOM     32  O   UNL A   1      43.361  19.659  24.866  1.00  0.00    -0.460 OA
BRANCH  32  33
ATOM     33  C   UNL A   1      44.231  20.614  25.309  1.00  0.00     0.338 C 
ATOM     34  O   UNL A   1      45.345  20.396  25.758  1.00  0.00    -0.246 OA
BRANCH  33  35
ATOM     35  C   UNL A   1      43.535  21.933  25.429  1.00  0.00     0.060 A 
ATOM     36  C   UNL A   1      43.699  22.926  24.437  1.00  0.00     0.016 A 
ATOM     37  C   UNL A   1      43.059  22.291  26.682  1.00  0.00     0.016 A 
ATOM     38  C   UNL A   1      43.569  24.289  24.764  1.00  0.00     0.010 A 
ATOM     39  C   UNL A   1      43.092  23.621  27.030  1.00  0.00     0.010 A 
ATOM     40  C   UNL A   1      43.370  24.637  26.095  1.00  0.00    -0.014 A 
BRANCH  40  41
ATOM     41  C   UNL A   1      43.463  25.973  26.704  1.00  0.00     0.031 A 
ATOM     42  C   UNL A   1      42.191  26.717  26.861  1.00  0.00     0.074 A 
ATOM     43  C   UNL A   1      44.540  26.354  27.439  1.00  0.00     0.049 A 
ATOM     44  N   UNL A   1      42.096  27.874  27.406  1.00  0.00    -0.248 NA
ATOM     45  C   UNL A   1      40.898  26.225  26.379  1.00  0.00     0.031 C 
ATOM     46  C   UNL A   1      44.565  27.190  28.645  1.00  0.00     0.029 A 
ATOM     47  N   UNL A   1      45.881  26.034  27.268  1.00  0.00    -0.354 N 
ATOM     48  C   UNL A   1      40.773  28.085  27.699  1.00  0.00     0.074 A 
ATOM     49  C   UNL A   1      40.056  27.101  26.931  1.00  0.00     0.031 C 
ATOM     50  C   UNL A   1      45.834  27.498  28.970  1.00  0.00     0.029 A 
ATOM     51  C   UNL A   1      46.681  26.993  27.909  1.00  0.00     0.049 A 
ATOM     52  H   UNL A   1      46.218  25.254  26.772  1.00  0.00     0.167 HD
ATOM     53  C   UNL A   1      40.472  28.991  28.668  1.00  0.00     0.031 A 
ATOM     54  C   UNL A   1      47.609  27.682  27.192  1.00  0.00     0.031 A 
ATOM     55  C   UNL A   1      41.683  29.702  29.107  1.00  0.00     0.049 A 
ATOM     56  C   UNL A   1      47.146  29.112  27.097  1.00  0.00     0.074 A 
ATOM     57  C   UNL A   1      42.458  29.662  30.253  1.00  0.00     0.029 A 
ATOM     58  N   UNL A   1      42.455  30.349  28.141  1.00  0.00    -0.354 N 
ATOM     59  N   UNL A   1      45.897  29.454  27.276  1.00  0.00    -0.248 NA
ATOM     60  C   UNL A   1      48.021  30.267  26.942  1.00  0.00     0.031 C 
ATOM     61  C   UNL A   1      43.726  30.247  29.942  1.00  0.00     0.029 A 
ATOM     62  C   UNL A   1      43.710  30.668  28.620  1.00  0.00     0.049 A 
ATOM     63  H   UNL A   1      42.143  30.553  27.230  1.00  0.00     0.167 HD
ATOM     64  C   UNL A   1      45.805  30.804  27.410  1.00  0.00     0.074 A 
ATOM     65  C   UNL A   1      47.152  31.277  27.129  1.00  0.00     0.031 C 
ATOM     66  C   UNL A   1      44.648  31.423  27.784  1.00  0.00     0.031 A 
BRANCH  53  67
ATOM     67  C   UNL A   1      39.126  29.126  29.341  1.00  0.00    -0.014 A 
ATOM     68  C   UNL A   1      38.076  29.762  28.656  1.00  0.00     0.009 A 
ATOM     69  C   UNL A   1      38.826  28.703  30.649  1.00  0.00     0.009 A 
ATOM     70  C   UNL A   1      36.814  29.961  29.240  1.00  0.00     0.001 A 
ATOM     71  C   UNL A   1      37.566  28.885  31.238  1.00  0.00     0.001 A 
ATOM     72  C   UNL A   1      36.557  29.518  30.531  1.00  0.00     0.000 A 
ENDBRANCH  53  67
BRANCH  54  73
ATOM     73  C   UNL A   1      48.261  26.797  26.170  1.00  0.00    -0.014 A 
ATOM     74  C   UNL A   1      48.040  27.148  24.816  1.00  0.00     0.009 A 
ATOM     75  C   UNL A   1      49.455  26.123  26.483  1.00  0.00     0.009 A 
ATOM     76  C   UNL A   1      49.049  26.998  23.853  1.00  0.00     0.001 A 
ATOM     77  C   UNL A   1      50.468  25.992  25.517  1.00  0.00     0.001 A 
ATOM     78  C   UNL A   1      50.282  26.466  24.219  1.00  0.00     0.000 A 
ENDBRANCH  54  73
BRANCH  66  79
ATOM     79  C   UNL A   1      44.295  32.838  27.405  1.00  0.00    -0.014 A 
ATOM     80  C   UNL A   1      44.156  33.283  26.085  1.00  0.00     0.009 A 
ATOM     81  C   UNL A   1      43.898  33.741  28.417  1.00  0.00     0.009 A 
ATOM     82  C   UNL A   1      43.690  34.568  25.792  1.00  0.00     0.001 A 
ATOM     83  C   UNL A   1      43.365  34.996  28.129  1.00  0.00     0.001 A 
ATOM     84  C   UNL A   1      43.279  35.416  26.813  1.00  0.00     0.000 A 
ENDBRANCH  66  79
ENDBRANCH  40  41
ENDBRANCH  33  35
ENDBRANCH  32  33
ENDBRANCH  31  32
ENDBRANCH  30  31
ENDBRANCH  29  30
ENDBRANCH   1  29
TORSDOF 18
ENDMDL
MODEL 3
REMARK VINA RESULT:     -11.3      4.540      9.921
REMARK SMILES Cc1ccccc1NC(=O)CSc1nc(C(=O)OCCOCCOC(=O)c2ccc(-c3c4nc(c(-c5ccccc5)c5ccc([nH]5)c(-c5ccccc5)c5nc(c(-c6ccccc6)c6ccc3[nH]6)C=C5)C=C4)cc2)c2ccccc2n1
REMARK SMILES IDX 20 1 19 2 18 3 16 4 17 5 15 6 13 7 14 8 81 9 80 10 75 11
REMARK SMILES IDX 79 12 76 13 78 14 77 15 12 16 11 17 9 18 8 19 10 21 7 22
REMARK SMILES IDX 1 23 2 24 3 25 4 26 6 27 5 28 21 29 22 30 23 31 24 32 25 33
REMARK SMILES IDX 26 34 27 35 28 36 74 37 29 38 73 39 30 40 31 41 32 42 67 43
REMARK SMILES IDX 33 44 72 45 66 46 68 47 34 48 71 49 65 50 64 51 35 53 57 54
REMARK SMILES IDX 42 55 56 56 43 57 46 58 55 59 69 60 44 61 45 62 54 64 70 65
REMARK SMILES IDX 47 66 36 67 37 68 41 69 38 70 40 71 39 72 58 73 59 74 63 75
REMARK SMILES IDX 60 76 62 77 61 78 48 79 49 80 53 81 50 82 52 83 51 84
REMARK H PARENT 8 20 68 52 46 63
REMARK Flexibility Score: inf
ROOT
ATOM      1  C   UNL A   1      37.976  23.648  26.048  1.00  0.00     0.202 C 
ENDROOT
BRANCH   1   2
ATOM      2  C   UNL A   1      36.480  23.724  26.052  1.00  0.00     0.261 C 
BRANCH   2   3
ATOM      3  O   UNL A   1      35.975  24.127  24.771  1.00  0.00    -0.458 OA
BRANCH   3   4
ATOM      4  C   UNL A   1      35.631  23.256  23.793  1.00  0.00     0.357 C 
ATOM      5  O   UNL A   1      36.286  22.917  22.835  1.00  0.00    -0.244 OA
BRANCH   4   6
ATOM      6  C   UNL A   1      34.333  22.634  24.188  1.00  0.00     0.160 A 
ATOM      7  C   UNL A   1      32.103  23.020  24.077  1.00  0.00     0.189 A 
ATOM      8  N   UNL A   1      33.324  23.513  24.025  1.00  0.00    -0.215 NA
ATOM      9  N   UNL A   1      31.807  21.738  24.322  1.00  0.00    -0.222 NA
ATOM     10  C   UNL A   1      32.820  20.882  24.516  1.00  0.00     0.076 A 
ATOM     11  C   UNL A   1      34.161  21.258  24.456  1.00  0.00     0.034 A 
ATOM     12  C   UNL A   1      32.519  19.540  24.733  1.00  0.00     0.029 A 
ATOM     13  C   UNL A   1      35.159  20.239  24.621  1.00  0.00     0.013 A 
ATOM     14  C   UNL A   1      33.503  18.551  24.843  1.00  0.00     0.002 A 
ATOM     15  C   UNL A   1      34.835  18.900  24.772  1.00  0.00     0.001 A 
BRANCH   7  16
ATOM     16  S   UNL A   1      30.832  24.079  23.480  1.00  0.00    -0.076 SA
BRANCH  16  17
ATOM     17  C   UNL A   1      31.345  25.646  24.260  1.00  0.00     0.178 C 
BRANCH  17  18
ATOM     18  C   UNL A   1      32.096  26.574  23.325  1.00  0.00     0.234 C 
ATOM     19  N   UNL A   1      32.630  27.776  23.692  1.00  0.00    -0.325 N 
ATOM     20  H   UNL A   1      33.054  28.255  22.943  1.00  0.00     0.169 HD
ATOM     21  O   UNL A   1      32.242  26.259  22.136  1.00  0.00    -0.274 OA
BRANCH  19  22
ATOM     22  C   UNL A   1      32.708  28.478  24.911  1.00  0.00     0.044 A 
ATOM     23  C   UNL A   1      30.632  29.894  24.295  1.00  0.00     0.046 C 
ATOM     24  C   UNL A   1      31.825  29.551  25.149  1.00  0.00    -0.027 A 
ATOM     25  C   UNL A   1      32.048  30.387  26.263  1.00  0.00     0.005 A 
ATOM     26  C   UNL A   1      33.099  30.153  27.145  1.00  0.00     0.000 A 
ATOM     27  C   UNL A   1      33.661  28.179  25.890  1.00  0.00     0.026 A 
ATOM     28  C   UNL A   1      33.888  29.028  26.975  1.00  0.00     0.002 A 
ENDBRANCH  19  22
ENDBRANCH  17  18
ENDBRANCH  16  17
ENDBRANCH   7  16
ENDBRANCH   4   6
ENDBRANCH   3   4
ENDBRANCH   2   3
ENDBRANCH   1   2
BRANCH   1  29
ATOM     29  O   UNL A   1      38.292  22.278  26.175  1.00  0.00    -0.374 OA
BRANCH  29  30
ATOM     30  C   UNL A   1      39.639  21.964  26.440  1.00  0.00     0.202 C 
BRANCH  30  31
ATOM     31  C   UNL A   1      39.947  20.508  26.080  1.00  0.00     0.261 C 
BRANCH  31  32
ATOM     32  O   UNL A   1      41.214  20.107  26.658  1.00  0.00    -0.460 OA
BRANCH  32  33
ATOM     33  C   UNL A   1      42.339  20.410  25.944  1.00  0.00     0.338 C 
ATOM     34  O   UNL A   1      42.779  19.753  25.014  1.00  0.00    -0.246 OA
BRANCH  33  35
ATOM     35  C   UNL A   1      43.110  21.495  26.628  1.00  0.00     0.060 A 
ATOM     36  C   UNL A   1      42.916  21.760  28.002  1.00  0.00     0.016 A 
ATOM     37  C   UNL A   1      43.706  22.455  25.823  1.00  0.00     0.016 A 
ATOM     38  C   UNL A   1      43.143  23.050  28.518  1.00  0.00     0.010 A 
ATOM     39  C   UNL A   1      43.771  23.745  26.298  1.00  0.00     0.010 A 
ATOM     40  C   UNL A   1      43.471  24.072  27.633  1.00  0.00    -0.014 A 
BRANCH  40  41
ATOM     41  C   UNL A   1      43.498  25.519  27.895  1.00  0.00     0.031 A 
ATOM     42  C   UNL A   1      42.208  26.236  27.775  1.00  0.00     0.074 A 
ATOM     43  C   UNL A   1      44.512  26.105  28.583  1.00  0.00     0.049 A 
ATOM     44  N   UNL A   1      42.055  27.489  28.007  1.00  0.00    -0.248 NA
ATOM     45  C   UNL A   1      40.962  25.598  27.344  1.00  0.00     0.031 C 
ATOM     46  C   UNL A   1      44.436  27.214  29.542  1.00  0.00     0.029 A 
ATOM     47  N   UNL A   1      45.867  25.798  28.589  1.00  0.00    -0.354 N 
ATOM     48  C   UNL A   1      40.711  27.722  28.147  1.00  0.00     0.074 A 
ATOM     49  C   UNL A   1      40.068  26.555  27.602  1.00  0.00     0.031 C 
ATOM     50  C   UNL A   1      45.672  27.634  29.865  1.00  0.00     0.029 A 
ATOM     51  C   UNL A   1      46.603  26.911  29.024  1.00  0.00     0.049 A 
ATOM     52  H   UNL A   1      46.252  24.930  28.327  1.00  0.00     0.167 HD
ATOM     53  C   UNL A   1      40.326  28.829  28.837  1.00  0.00     0.031 A 
ATOM     54  C   UNL A   1      47.571  27.432  28.222  1.00  0.00     0.031 A 
ATOM     55  C   UNL A   1      41.491  29.666  29.167  1.00  0.00     0.049 A 
ATOM     56  C   UNL A   1      47.095  28.777  27.743  1.00  0.00     0.074 A 
ATOM     57  C   UNL A   1      42.179  29.936  30.336  1.00  0.00     0.029 A 
ATOM     58  N   UNL A   1      42.322  30.079  28.125  1.00  0.00    -0.354 N 
ATOM     59  N   UNL A   1      45.831  29.112  27.746  1.00  0.00    -0.248 NA
ATOM     60  C   UNL A   1      47.962  29.886  27.365  1.00  0.00     0.031 C 
ATOM     61  C   UNL A   1      43.457  30.468  29.977  1.00  0.00     0.029 A 
ATOM     62  C   UNL A   1      43.532  30.548  28.593  1.00  0.00     0.049 A 
ATOM     63  H   UNL A   1      42.075  30.041  27.173  1.00  0.00     0.167 HD
ATOM     64  C   UNL A   1      45.709  30.449  27.533  1.00  0.00     0.074 A 
ATOM     65  C   UNL A   1      47.066  30.882  27.236  1.00  0.00     0.031 C 
ATOM     66  C   UNL A   1      44.519  31.103  27.662  1.00  0.00     0.031 A 
BRANCH  53  67
ATOM     67  C   UNL A   1      38.931  29.081  29.363  1.00  0.00    -0.014 A 
ATOM     68  C   UNL A   1      38.649  28.821  30.715  1.00  0.00     0.009 A 
ATOM     69  C   UNL A   1      37.840  29.523  28.591  1.00  0.00     0.009 A 
ATOM     70  C   UNL A   1      37.365  28.991  31.257  1.00  0.00     0.001 A 
ATOM     71  C   UNL A   1      36.556  29.707  29.125  1.00  0.00     0.001 A 
ATOM     72  C   UNL A   1      36.318  29.438  30.463  1.00  0.00     0.000 A 
ENDBRANCH  53  67
BRANCH  54  73
ATOM     73  C   UNL A   1      48.310  26.343  27.500  1.00  0.00    -0.014 A 
ATOM     74  C   UNL A   1      48.393  26.479  26.093  1.00  0.00     0.009 A 
ATOM     75  C   UNL A   1      49.343  25.644  28.149  1.00  0.00     0.009 A 
ATOM     76  C   UNL A   1      49.547  26.098  25.393  1.00  0.00     0.001 A 
ATOM     77  C   UNL A   1      50.503  25.279  27.445  1.00  0.00     0.001 A 
ATOM     78  C   UNL A   1      50.623  25.544  26.081  1.00  0.00     0.000 A 
ENDBRANCH  54  73
BRANCH  66  79
ATOM     79  C   UNL A   1      44.174  32.368  26.919  1.00  0.00    -0.014 A 
ATOM     80  C   UNL A   1      44.039  33.621  27.529  1.00  0.00     0.009 A 
ATOM     81  C   UNL A   1      44.162  32.352  25.506  1.00  0.00     0.009 A 
ATOM     82  C   UNL A   1      43.858  34.784  26.775  1.00  0.00     0.001 A 
ATOM     83  C   UNL A   1      44.054  33.517  24.749  1.00  0.00     0.001 A 
ATOM     84  C   UNL A   1      43.883  34.734  25.386  1.00  0.00     0.000 A 
ENDBRANCH  66  79
ENDBRANCH  40  41
ENDBRANCH  33  35
ENDBRANCH  32  33
ENDBRANCH  31  32
ENDBRANCH  30  31
ENDBRANCH  29  30
ENDBRANCH   1  29
TORSDOF 18
ENDMDL
