MODEL 1
REMARK VINA RESULT:     -10.8      0.000      0.000
REMARK SMILES Cc1ccnc(C(=O)c2[nH]c3ccc(OC(F)(F)F)cc3c2CC(=O)OCCOCCOC(=O)c2ccc(-c3c4nc(c(-c5ccccc5)c5ccc([nH]5)c(-c5ccccc5)c5nc(c(-c6ccccc6)c6ccc3[nH]6)C=C5)C=C4)cc2)c1
REMARK SMILES IDX 28 1 27 2 26 3 24 4 25 5 23 6 22 7 9 8 10 9 11 10 21 12
REMARK SMILES IDX 12 13 20 14 13 15 14 16 7 17 8 18 6 19 1 20 2 21 3 22 83 23
REMARK SMILES IDX 4 24 5 25 15 26 16 27 17 28 18 29 19 30 29 31 30 32 31 33
REMARK SMILES IDX 32 34 33 35 34 36 35 37 36 38 82 39 37 40 81 41 38 42 39 43
REMARK SMILES IDX 40 44 75 45 41 46 80 47 74 48 76 49 42 50 79 51 73 52 72 53
REMARK SMILES IDX 43 55 65 56 50 57 64 58 51 59 54 60 63 61 77 62 52 63 53 64
REMARK SMILES IDX 62 66 78 67 55 68 44 69 45 70 49 71 46 72 48 73 47 74 66 75
REMARK SMILES IDX 67 76 71 77 68 78 70 79 69 80 56 81 57 82 61 83 58 84 60 85
REMARK SMILES IDX 59 86
REMARK H PARENT 10 11 76 54 54 65
REMARK Flexibility Score: inf
ROOT
ATOM      1  C   UNL A   1      37.797  23.071  26.111  1.00  0.00     0.202 C 
ENDROOT
BRANCH   1   2
ATOM      2  C   UNL A   1      36.352  22.837  25.654  1.00  0.00     0.261 C 
BRANCH   2   3
ATOM      3  O   UNL A   1      35.876  23.829  24.718  1.00  0.00    -0.463 OA
BRANCH   3   4
ATOM      4  C   UNL A   1      35.672  23.372  23.451  1.00  0.00     0.310 C 
ATOM      5  O   UNL A   1      36.568  22.937  22.730  1.00  0.00    -0.252 OA
BRANCH   4   6
ATOM      6  C   UNL A   1      34.263  23.513  22.919  1.00  0.00     0.161 C 
BRANCH   6   7
ATOM      7  C   UNL A   1      33.096  23.426  23.869  1.00  0.00     0.000 A 
ATOM      8  C   UNL A   1      32.172  22.381  23.990  1.00  0.00     0.093 A 
ATOM      9  N   UNL A   1      31.294  22.748  24.990  1.00  0.00    -0.352 N 
ATOM     10  C   UNL A   1      31.436  24.084  25.289  1.00  0.00     0.046 A 
ATOM     11  H   UNL A   1      30.656  22.139  25.428  1.00  0.00     0.167 HD
ATOM     12  C   UNL A   1      32.571  24.527  24.622  1.00  0.00     0.008 A 
ATOM     13  C   UNL A   1      30.646  24.934  26.075  1.00  0.00     0.030 A 
ATOM     14  C   UNL A   1      32.924  25.888  24.728  1.00  0.00     0.057 A 
ATOM     15  C   UNL A   1      30.992  26.294  26.122  1.00  0.00     0.049 A 
ATOM     16  C   UNL A   1      32.108  26.776  25.441  1.00  0.00     0.130 A 
BRANCH   8  17
ATOM     17  C   UNL A   1      32.141  21.142  23.218  1.00  0.00     0.227 C 
ATOM     18  O   UNL A   1      31.831  21.138  22.027  1.00  0.00    -0.285 OA
BRANCH  17  19
ATOM     19  C   UNL A   1      32.420  19.815  23.846  1.00  0.00     0.113 A 
ATOM     20  C   UNL A   1      34.127  16.517  23.100  1.00  0.00     0.044 C 
ATOM     21  C   UNL A   1      33.426  17.637  23.810  1.00  0.00    -0.047 A 
ATOM     22  C   UNL A   1      33.288  17.601  25.200  1.00  0.00     0.023 A 
ATOM     23  C   UNL A   1      32.992  18.774  23.118  1.00  0.00     0.036 A 
ATOM     24  C   UNL A   1      32.687  18.673  25.838  1.00  0.00     0.112 A 
ATOM     25  N   UNL A   1      32.235  19.766  25.192  1.00  0.00    -0.253 NA
ENDBRANCH  17  19
ENDBRANCH   8  17
BRANCH  16  26
ATOM     26  O   UNL A   1      32.518  28.078  25.367  1.00  0.00    -0.406 OA
BRANCH  26  27
ATOM     27  C   UNL A   1      33.321  28.580  26.421  1.00  0.00     0.573 C 
ATOM     28  F   UNL A   1      34.394  27.794  26.648  1.00  0.00    -0.132 F 
ATOM     29  F   UNL A   1      33.731  29.838  26.152  1.00  0.00    -0.132 F 
ATOM     30  F   UNL A   1      32.579  28.612  27.551  1.00  0.00    -0.132 F 
ENDBRANCH  26  27
ENDBRANCH  16  26
ENDBRANCH   6   7
ENDBRANCH   4   6
ENDBRANCH   3   4
ENDBRANCH   2   3
ENDBRANCH   1   2
BRANCH   1  31
ATOM     31  O   UNL A   1      38.745  22.024  25.915  1.00  0.00    -0.374 OA
BRANCH  31  32
ATOM     32  C   UNL A   1      38.292  20.868  25.214  1.00  0.00     0.202 C 
BRANCH  32  33
ATOM     33  C   UNL A   1      39.221  19.645  25.211  1.00  0.00     0.261 C 
BRANCH  33  34
ATOM     34  O   UNL A   1      40.038  19.547  26.388  1.00  0.00    -0.460 OA
BRANCH  34  35
ATOM     35  C   UNL A   1      41.368  19.661  26.160  1.00  0.00     0.338 C 
ATOM     36  O   UNL A   1      42.097  18.884  25.560  1.00  0.00    -0.246 OA
BRANCH  35  37
ATOM     37  C   UNL A   1      41.828  20.982  26.611  1.00  0.00     0.060 A 
ATOM     38  C   UNL A   1      41.711  21.279  27.976  1.00  0.00     0.016 A 
ATOM     39  C   UNL A   1      42.328  21.925  25.713  1.00  0.00     0.016 A 
ATOM     40  C   UNL A   1      42.085  22.535  28.446  1.00  0.00     0.010 A 
ATOM     41  C   UNL A   1      42.688  23.190  26.185  1.00  0.00     0.010 A 
ATOM     42  C   UNL A   1      42.551  23.504  27.549  1.00  0.00    -0.014 A 
BRANCH  42  43
ATOM     43  C   UNL A   1      42.810  24.880  28.025  1.00  0.00     0.031 A 
ATOM     44  C   UNL A   1      44.211  25.274  28.396  1.00  0.00     0.074 A 
ATOM     45  C   UNL A   1      41.800  25.764  28.115  1.00  0.00     0.049 A 
ATOM     46  N   UNL A   1      44.652  26.408  28.876  1.00  0.00    -0.248 NA
ATOM     47  C   UNL A   1      45.255  24.254  28.201  1.00  0.00     0.031 C 
ATOM     48  C   UNL A   1      40.411  25.499  27.738  1.00  0.00     0.029 A 
ATOM     49  N   UNL A   1      41.789  27.061  28.555  1.00  0.00    -0.354 N 
ATOM     50  C   UNL A   1      46.019  26.235  29.050  1.00  0.00     0.074 A 
ATOM     51  C   UNL A   1      46.334  24.883  28.647  1.00  0.00     0.031 C 
ATOM     52  C   UNL A   1      39.680  26.604  27.969  1.00  0.00     0.029 A 
ATOM     53  C   UNL A   1      40.541  27.633  28.545  1.00  0.00     0.049 A 
ATOM     54  H   UNL A   1      42.599  27.539  28.851  1.00  0.00     0.167 HD
ATOM     55  C   UNL A   1      46.929  27.129  29.506  1.00  0.00     0.031 A 
ATOM     56  C   UNL A   1      40.136  28.843  28.979  1.00  0.00     0.031 A 
ATOM     57  C   UNL A   1      46.601  28.468  29.918  1.00  0.00     0.049 A 
ATOM     58  C   UNL A   1      41.157  29.781  29.567  1.00  0.00     0.074 A 
ATOM     59  C   UNL A   1      47.451  29.462  30.370  1.00  0.00     0.029 A 
ATOM     60  N   UNL A   1      45.318  28.993  29.941  1.00  0.00    -0.354 N 
ATOM     61  N   UNL A   1      42.453  29.624  29.689  1.00  0.00    -0.248 NA
ATOM     62  C   UNL A   1      40.655  31.064  30.080  1.00  0.00     0.031 C 
ATOM     63  C   UNL A   1      46.672  30.566  30.733  1.00  0.00     0.029 A 
ATOM     64  C   UNL A   1      45.347  30.283  30.443  1.00  0.00     0.049 A 
ATOM     65  H   UNL A   1      44.508  28.520  29.645  1.00  0.00     0.167 HD
ATOM     66  C   UNL A   1      42.925  30.794  30.270  1.00  0.00     0.074 A 
ATOM     67  C   UNL A   1      41.779  31.661  30.454  1.00  0.00     0.031 C 
ATOM     68  C   UNL A   1      44.191  31.124  30.624  1.00  0.00     0.031 A 
BRANCH  55  69
ATOM     69  C   UNL A   1      48.356  26.675  29.627  1.00  0.00    -0.014 A 
ATOM     70  C   UNL A   1      48.810  25.966  30.750  1.00  0.00     0.009 A 
ATOM     71  C   UNL A   1      49.250  26.918  28.572  1.00  0.00     0.009 A 
ATOM     72  C   UNL A   1      50.136  25.534  30.824  1.00  0.00     0.001 A 
ATOM     73  C   UNL A   1      50.568  26.461  28.637  1.00  0.00     0.001 A 
ATOM     74  C   UNL A   1      51.012  25.776  29.766  1.00  0.00     0.000 A 
ENDBRANCH  55  69
BRANCH  56  75
ATOM     75  C   UNL A   1      38.702  29.228  28.909  1.00  0.00    -0.014 A 
ATOM     76  C   UNL A   1      37.853  29.034  30.008  1.00  0.00     0.009 A 
ATOM     77  C   UNL A   1      38.165  29.765  27.727  1.00  0.00     0.009 A 
ATOM     78  C   UNL A   1      36.493  29.342  29.917  1.00  0.00     0.001 A 
ATOM     79  C   UNL A   1      36.813  30.103  27.650  1.00  0.00     0.001 A 
ATOM     80  C   UNL A   1      35.975  29.880  28.741  1.00  0.00     0.000 A 
ENDBRANCH  56  75
BRANCH  68  81
ATOM     81  C   UNL A   1      44.403  32.484  31.227  1.00  0.00    -0.014 A 
ATOM     82  C   UNL A   1      44.675  33.601  30.423  1.00  0.00     0.009 A 
ATOM     83  C   UNL A   1      44.286  32.656  32.615  1.00  0.00     0.009 A 
ATOM     84  C   UNL A   1      44.858  34.858  31.001  1.00  0.00     0.001 A 
ATOM     85  C   UNL A   1      44.435  33.919  33.188  1.00  0.00     0.001 A 
ATOM     86  C   UNL A   1      44.732  35.018  32.381  1.00  0.00     0.000 A 
ENDBRANCH  68  81
ENDBRANCH  42  43
ENDBRANCH  35  37
ENDBRANCH  34  35
ENDBRANCH  33  34
ENDBRANCH  32  33
ENDBRANCH  31  32
ENDBRANCH   1  31
TORSDOF 19
ENDMDL
MODEL 2
REMARK VINA RESULT:     -10.6      0.894      5.700
REMARK SMILES Cc1ccnc(C(=O)c2[nH]c3ccc(OC(F)(F)F)cc3c2CC(=O)OCCOCCOC(=O)c2ccc(-c3c4nc(c(-c5ccccc5)c5ccc([nH]5)c(-c5ccccc5)c5nc(c(-c6ccccc6)c6ccc3[nH]6)C=C5)C=C4)cc2)c1
REMARK SMILES IDX 28 1 27 2 26 3 24 4 25 5 23 6 22 7 9 8 10 9 11 10 21 12
REMARK SMILES IDX 12 13 20 14 13 15 14 16 7 17 8 18 6 19 1 20 2 21 3 22 83 23
REMARK SMILES IDX 4 24 5 25 15 26 16 27 17 28 18 29 19 30 29 31 30 32 31 33
REMARK SMILES IDX 32 34 33 35 34 36 35 37 36 38 82 39 37 40 81 41 38 42 39 43
REMARK SMILES IDX 40 44 75 45 41 46 80 47 74 48 76 49 42 50 79 51 73 52 72 53
REMARK SMILES IDX 43 55 65 56 50 57 64 58 51 59 54 60 63 61 77 62 52 63 53 64
REMARK SMILES IDX 62 66 78 67 55 68 44 69 45 70 49 71 46 72 48 73 47 74 66 75
REMARK SMILES IDX 67 76 71 77 68 78 70 79 69 80 56 81 57 82 61 83 58 84 60 85
REMARK SMILES IDX 59 86
REMARK H PARENT 10 11 76 54 54 65
REMARK Flexibility Score: inf
ROOT
ATOM      1  C   UNL A   1      37.799  23.268  25.992  1.00  0.00     0.202 C 
ENDROOT
BRANCH   1   2
ATOM      2  C   UNL A   1      36.323  22.982  25.689  1.00  0.00     0.261 C 
BRANCH   2   3
ATOM      3  O   UNL A   1      35.734  23.918  24.759  1.00  0.00    -0.463 OA
BRANCH   3   4
ATOM      4  C   UNL A   1      35.521  23.426  23.508  1.00  0.00     0.310 C 
ATOM      5  O   UNL A   1      36.406  22.944  22.803  1.00  0.00    -0.252 OA
BRANCH   4   6
ATOM      6  C   UNL A   1      34.117  23.586  22.967  1.00  0.00     0.161 C 
BRANCH   6   7
ATOM      7  C   UNL A   1      32.939  23.429  23.895  1.00  0.00     0.000 A 
ATOM      8  C   UNL A   1      32.072  22.335  23.993  1.00  0.00     0.093 A 
ATOM      9  N   UNL A   1      31.157  22.647  24.979  1.00  0.00    -0.352 N 
ATOM     10  C   UNL A   1      31.221  23.986  25.288  1.00  0.00     0.046 A 
ATOM     11  H   UNL A   1      30.545  22.001  25.401  1.00  0.00     0.167 HD
ATOM     12  C   UNL A   1      32.342  24.495  24.644  1.00  0.00     0.008 A 
ATOM     13  C   UNL A   1      30.372  24.787  26.064  1.00  0.00     0.030 A 
ATOM     14  C   UNL A   1      32.619  25.873  24.765  1.00  0.00     0.057 A 
ATOM     15  C   UNL A   1      30.643  26.164  26.125  1.00  0.00     0.049 A 
ATOM     16  C   UNL A   1      31.743  26.711  25.467  1.00  0.00     0.130 A 
BRANCH   8  17
ATOM     17  C   UNL A   1      32.122  21.102  23.213  1.00  0.00     0.227 C 
ATOM     18  O   UNL A   1      31.877  21.096  22.008  1.00  0.00    -0.285 OA
BRANCH  17  19
ATOM     19  C   UNL A   1      32.409  19.779  23.848  1.00  0.00     0.113 A 
ATOM     20  C   UNL A   1      34.064  16.458  23.088  1.00  0.00     0.044 C 
ATOM     21  C   UNL A   1      33.395  17.592  23.807  1.00  0.00    -0.047 A 
ATOM     22  C   UNL A   1      33.299  17.574  25.201  1.00  0.00     0.023 A 
ATOM     23  C   UNL A   1      32.949  18.725  23.115  1.00  0.00     0.036 A 
ATOM     24  C   UNL A   1      32.727  18.658  25.844  1.00  0.00     0.112 A 
ATOM     25  N   UNL A   1      32.265  19.747  25.199  1.00  0.00    -0.253 NA
ENDBRANCH  17  19
ENDBRANCH   8  17
BRANCH  16  26
ATOM     26  O   UNL A   1      32.083  28.033  25.409  1.00  0.00    -0.406 OA
BRANCH  26  27
ATOM     27  C   UNL A   1      31.621  28.788  24.304  1.00  0.00     0.573 C 
ATOM     28  F   UNL A   1      32.571  28.909  23.352  1.00  0.00    -0.132 F 
ATOM     29  F   UNL A   1      30.516  28.227  23.770  1.00  0.00    -0.132 F 
ATOM     30  F   UNL A   1      31.298  30.029  24.732  1.00  0.00    -0.132 F 
ENDBRANCH  26  27
ENDBRANCH  16  26
ENDBRANCH   6   7
ENDBRANCH   4   6
ENDBRANCH   3   4
ENDBRANCH   2   3
ENDBRANCH   1   2
BRANCH   1  31
ATOM     31  O   UNL A   1      38.747  22.225  25.776  1.00  0.00    -0.374 OA
BRANCH  31  32
ATOM     32  C   UNL A   1      38.241  20.989  25.276  1.00  0.00     0.202 C 
BRANCH  32  33
ATOM     33  C   UNL A   1      39.203  19.791  25.274  1.00  0.00     0.261 C 
BRANCH  33  34
ATOM     34  O   UNL A   1      40.058  19.744  26.427  1.00  0.00    -0.460 OA
BRANCH  34  35
ATOM     35  C   UNL A   1      41.382  19.784  26.146  1.00  0.00     0.338 C 
ATOM     36  O   UNL A   1      42.038  18.976  25.505  1.00  0.00    -0.246 OA
BRANCH  35  37
ATOM     37  C   UNL A   1      41.938  21.067  26.599  1.00  0.00     0.060 A 
ATOM     38  C   UNL A   1      41.996  21.299  27.979  1.00  0.00     0.016 A 
ATOM     39  C   UNL A   1      42.360  22.038  25.690  1.00  0.00     0.016 A 
ATOM     40  C   UNL A   1      42.467  22.518  28.458  1.00  0.00     0.010 A 
ATOM     41  C   UNL A   1      42.818  23.266  26.173  1.00  0.00     0.010 A 
ATOM     42  C   UNL A   1      42.856  23.517  27.556  1.00  0.00    -0.014 A 
BRANCH  42  43
ATOM     43  C   UNL A   1      43.219  24.859  28.060  1.00  0.00     0.031 A 
ATOM     44  C   UNL A   1      42.133  25.868  28.301  1.00  0.00     0.074 A 
ATOM     45  C   UNL A   1      44.506  25.161  28.305  1.00  0.00     0.049 A 
ATOM     46  N   UNL A   1      42.232  27.111  28.697  1.00  0.00    -0.248 NA
ATOM     47  C   UNL A   1      40.752  25.418  28.064  1.00  0.00     0.031 C 
ATOM     48  C   UNL A   1      45.634  24.242  28.148  1.00  0.00     0.029 A 
ATOM     49  N   UNL A   1      45.081  26.329  28.734  1.00  0.00    -0.354 N 
ATOM     50  C   UNL A   1      40.931  27.593  28.746  1.00  0.00     0.074 A 
ATOM     51  C   UNL A   1      40.061  26.520  28.319  1.00  0.00     0.031 C 
ATOM     52  C   UNL A   1      46.768  24.885  28.474  1.00  0.00     0.029 A 
ATOM     53  C   UNL A   1      46.449  26.267  28.821  1.00  0.00     0.049 A 
ATOM     54  H   UNL A   1      44.562  27.136  28.959  1.00  0.00     0.167 HD
ATOM     55  C   UNL A   1      40.503  28.824  29.116  1.00  0.00     0.031 A 
ATOM     56  C   UNL A   1      47.345  27.229  29.120  1.00  0.00     0.031 A 
ATOM     57  C   UNL A   1      41.380  29.889  29.525  1.00  0.00     0.049 A 
ATOM     58  C   UNL A   1      46.844  28.614  29.437  1.00  0.00     0.074 A 
ATOM     59  C   UNL A   1      41.048  31.165  29.945  1.00  0.00     0.029 A 
ATOM     60  N   UNL A   1      42.764  29.804  29.551  1.00  0.00    -0.354 N 
ATOM     61  N   UNL A   1      45.610  29.048  29.521  1.00  0.00    -0.248 NA
ATOM     62  C   UNL A   1      47.863  29.640  29.698  1.00  0.00     0.031 C 
ATOM     63  C   UNL A   1      42.235  31.874  30.158  1.00  0.00     0.029 A 
ATOM     64  C   UNL A   1      43.303  31.019  29.937  1.00  0.00     0.049 A 
ATOM     65  H   UNL A   1      43.284  28.999  29.329  1.00  0.00     0.167 HD
ATOM     66  C   UNL A   1      45.702  30.391  29.866  1.00  0.00     0.074 A 
ATOM     67  C   UNL A   1      47.113  30.691  29.999  1.00  0.00     0.031 C 
ATOM     68  C   UNL A   1      44.712  31.296  30.054  1.00  0.00     0.031 A 
BRANCH  55  69
ATOM     69  C   UNL A   1      39.027  29.101  29.051  1.00  0.00    -0.014 A 
ATOM     70  C   UNL A   1      38.196  28.919  30.167  1.00  0.00     0.009 A 
ATOM     71  C   UNL A   1      38.469  29.601  27.864  1.00  0.00     0.009 A 
ATOM     72  C   UNL A   1      36.832  29.208  30.087  1.00  0.00     0.001 A 
ATOM     73  C   UNL A   1      37.109  29.914  27.795  1.00  0.00     0.001 A 
ATOM     74  C   UNL A   1      36.291  29.711  28.904  1.00  0.00     0.000 A 
ENDBRANCH  55  69
BRANCH  56  75
ATOM     75  C   UNL A   1      48.802  26.934  29.102  1.00  0.00    -0.014 A 
ATOM     76  C   UNL A   1      49.464  26.518  30.267  1.00  0.00     0.009 A 
ATOM     77  C   UNL A   1      49.548  27.096  27.923  1.00  0.00     0.009 A 
ATOM     78  C   UNL A   1      50.843  26.299  30.259  1.00  0.00     0.001 A 
ATOM     79  C   UNL A   1      50.921  26.845  27.910  1.00  0.00     0.001 A 
ATOM     80  C   UNL A   1      51.570  26.459  29.081  1.00  0.00     0.000 A 
ENDBRANCH  56  75
BRANCH  68  81
ATOM     81  C   UNL A   1      45.120  32.690  30.441  1.00  0.00    -0.014 A 
ATOM     82  C   UNL A   1      45.393  33.023  31.777  1.00  0.00     0.009 A 
ATOM     83  C   UNL A   1      45.275  33.671  29.449  1.00  0.00     0.009 A 
ATOM     84  C   UNL A   1      45.781  34.320  32.115  1.00  0.00     0.001 A 
ATOM     85  C   UNL A   1      45.697  34.957  29.785  1.00  0.00     0.001 A 
ATOM     86  C   UNL A   1      45.940  35.284  31.119  1.00  0.00     0.000 A 
ENDBRANCH  68  81
ENDBRANCH  42  43
ENDBRANCH  35  37
ENDBRANCH  34  35
ENDBRANCH  33  34
ENDBRANCH  32  33
ENDBRANCH  31  32
ENDBRANCH   1  31
TORSDOF 19
ENDMDL
MODEL 3
REMARK VINA RESULT:     -10.5      4.189      6.280
REMARK SMILES Cc1ccnc(C(=O)c2[nH]c3ccc(OC(F)(F)F)cc3c2CC(=O)OCCOCCOC(=O)c2ccc(-c3c4nc(c(-c5ccccc5)c5ccc([nH]5)c(-c5ccccc5)c5nc(c(-c6ccccc6)c6ccc3[nH]6)C=C5)C=C4)cc2)c1
REMARK SMILES IDX 28 1 27 2 26 3 24 4 25 5 23 6 22 7 9 8 10 9 11 10 21 12
REMARK SMILES IDX 12 13 20 14 13 15 14 16 7 17 8 18 6 19 1 20 2 21 3 22 83 23
REMARK SMILES IDX 4 24 5 25 15 26 16 27 17 28 18 29 19 30 29 31 30 32 31 33
REMARK SMILES IDX 32 34 33 35 34 36 35 37 36 38 82 39 37 40 81 41 38 42 39 43
REMARK SMILES IDX 40 44 75 45 41 46 80 47 74 48 76 49 42 50 79 51 73 52 72 53
REMARK SMILES IDX 43 55 65 56 50 57 64 58 51 59 54 60 63 61 77 62 52 63 53 64
REMARK SMILES IDX 62 66 78 67 55 68 44 69 45 70 49 71 46 72 48 73 47 74 66 75
REMARK SMILES IDX 67 76 71 77 68 78 70 79 69 80 56 81 57 82 61 83 58 84 60 85
REMARK SMILES IDX 59 86
REMARK H PARENT 10 11 76 54 54 65
REMARK Flexibility Score: inf
ROOT
ATOM      1  C   UNL A   1      39.631  21.722  26.334  1.00  0.00     0.202 C 
ENDROOT
BRANCH   1   2
ATOM      2  C   UNL A   1      38.414  21.930  25.425  1.00  0.00     0.261 C 
BRANCH   2   3
ATOM      3  O   UNL A   1      37.154  21.900  26.133  1.00  0.00    -0.463 OA
BRANCH   3   4
ATOM      4  C   UNL A   1      36.379  23.008  25.971  1.00  0.00     0.310 C 
ATOM      5  O   UNL A   1      36.798  24.076  25.528  1.00  0.00    -0.252 OA
BRANCH   4   6
ATOM      6  C   UNL A   1      34.954  22.892  26.464  1.00  0.00     0.161 C 
BRANCH   6   7
ATOM      7  C   UNL A   1      33.867  22.470  25.508  1.00  0.00     0.000 A 
ATOM      8  C   UNL A   1      32.661  23.130  25.246  1.00  0.00     0.093 A 
ATOM      9  N   UNL A   1      31.997  22.372  24.302  1.00  0.00    -0.352 N 
ATOM     10  C   UNL A   1      32.580  21.131  24.184  1.00  0.00     0.046 A 
ATOM     11  H   UNL A   1      31.216  22.678  23.785  1.00  0.00     0.167 HD
ATOM     12  C   UNL A   1      33.766  21.173  24.908  1.00  0.00     0.008 A 
ATOM     13  C   UNL A   1      32.147  19.978  23.517  1.00  0.00     0.030 A 
ATOM     14  C   UNL A   1      34.547  20.002  24.985  1.00  0.00     0.057 A 
ATOM     15  C   UNL A   1      32.919  18.812  23.653  1.00  0.00     0.049 A 
ATOM     16  C   UNL A   1      34.098  18.813  24.395  1.00  0.00     0.130 A 
BRANCH   8  17
ATOM     17  C   UNL A   1      32.192  24.376  25.846  1.00  0.00     0.227 C 
ATOM     18  O   UNL A   1      31.395  24.375  26.783  1.00  0.00    -0.285 OA
BRANCH  17  19
ATOM     19  C   UNL A   1      32.604  25.711  25.313  1.00  0.00     0.113 A 
ATOM     20  C   UNL A   1      34.335  28.898  26.404  1.00  0.00     0.044 C 
ATOM     21  C   UNL A   1      33.686  27.837  25.566  1.00  0.00    -0.047 A 
ATOM     22  C   UNL A   1      33.728  27.929  24.172  1.00  0.00     0.023 A 
ATOM     23  C   UNL A   1      33.120  26.697  26.150  1.00  0.00     0.036 A 
ATOM     24  C   UNL A   1      33.170  26.909  23.420  1.00  0.00     0.112 A 
ATOM     25  N   UNL A   1      32.595  25.816  23.958  1.00  0.00    -0.253 NA
ENDBRANCH  17  19
ENDBRANCH   8  17
BRANCH  16  26
ATOM     26  O   UNL A   1      34.906  17.738  24.643  1.00  0.00    -0.406 OA
BRANCH  26  27
ATOM     27  C   UNL A   1      34.386  16.446  24.388  1.00  0.00     0.573 C 
ATOM     28  F   UNL A   1      33.152  16.293  24.913  1.00  0.00    -0.132 F 
ATOM     29  F   UNL A   1      34.347  16.200  23.061  1.00  0.00    -0.132 F 
ATOM     30  F   UNL A   1      35.201  15.532  24.961  1.00  0.00    -0.132 F 
ENDBRANCH  26  27
ENDBRANCH  16  26
ENDBRANCH   6   7
ENDBRANCH   4   6
ENDBRANCH   3   4
ENDBRANCH   2   3
ENDBRANCH   1   2
BRANCH   1  31
ATOM     31  O   UNL A   1      40.712  20.930  25.844  1.00  0.00    -0.374 OA
BRANCH  31  32
ATOM     32  C   UNL A   1      41.961  21.059  26.519  1.00  0.00     0.202 C 
BRANCH  32  33
ATOM     33  C   UNL A   1      43.059  21.863  25.807  1.00  0.00     0.261 C 
BRANCH  33  34
ATOM     34  O   UNL A   1      42.575  23.066  25.190  1.00  0.00    -0.460 OA
BRANCH  34  35
ATOM     35  C   UNL A   1      43.399  24.134  25.317  1.00  0.00     0.338 C 
ATOM     36  O   UNL A   1      44.383  24.408  24.645  1.00  0.00    -0.246 OA
BRANCH  35  37
ATOM     37  C   UNL A   1      42.849  25.057  26.320  1.00  0.00     0.060 A 
ATOM     38  C   UNL A   1      43.488  26.293  26.485  1.00  0.00     0.016 A 
ATOM     39  C   UNL A   1      41.753  24.705  27.109  1.00  0.00     0.016 A 
ATOM     40  C   UNL A   1      43.037  27.182  27.456  1.00  0.00     0.010 A 
ATOM     41  C   UNL A   1      41.312  25.593  28.093  1.00  0.00     0.010 A 
ATOM     42  C   UNL A   1      41.963  26.825  28.282  1.00  0.00    -0.014 A 
BRANCH  42  43
ATOM     43  C   UNL A   1      41.578  27.706  29.405  1.00  0.00     0.031 A 
ATOM     44  C   UNL A   1      42.328  27.608  30.703  1.00  0.00     0.074 A 
ATOM     45  C   UNL A   1      40.574  28.589  29.256  1.00  0.00     0.049 A 
ATOM     46  N   UNL A   1      42.129  28.252  31.824  1.00  0.00    -0.248 NA
ATOM     47  C   UNL A   1      43.451  26.658  30.743  1.00  0.00     0.031 C 
ATOM     48  C   UNL A   1      39.810  28.797  28.025  1.00  0.00     0.029 A 
ATOM     49  N   UNL A   1      40.022  29.470  30.149  1.00  0.00    -0.354 N 
ATOM     50  C   UNL A   1      43.092  27.778  32.704  1.00  0.00     0.074 A 
ATOM     51  C   UNL A   1      43.862  26.778  31.998  1.00  0.00     0.031 C 
ATOM     52  C   UNL A   1      38.884  29.747  28.244  1.00  0.00     0.029 A 
ATOM     53  C   UNL A   1      38.964  30.179  29.636  1.00  0.00     0.049 A 
ATOM     54  H   UNL A   1      40.353  29.584  31.070  1.00  0.00     0.167 HD
ATOM     55  C   UNL A   1      43.313  28.147  33.989  1.00  0.00     0.031 A 
ATOM     56  C   UNL A   1      38.137  31.058  30.235  1.00  0.00     0.031 A 
ATOM     57  C   UNL A   1      42.530  29.133  34.686  1.00  0.00     0.049 A 
ATOM     58  C   UNL A   1      38.350  31.380  31.691  1.00  0.00     0.074 A 
ATOM     59  C   UNL A   1      42.687  29.600  35.979  1.00  0.00     0.029 A 
ATOM     60  N   UNL A   1      41.435  29.793  34.149  1.00  0.00    -0.354 N 
ATOM     61  N   UNL A   1      39.289  30.957  32.503  1.00  0.00    -0.248 NA
ATOM     62  C   UNL A   1      37.386  32.298  32.312  1.00  0.00     0.031 C 
ATOM     63  C   UNL A   1      41.643  30.492  36.247  1.00  0.00     0.029 A 
ATOM     64  C   UNL A   1      40.878  30.630  35.101  1.00  0.00     0.049 A 
ATOM     65  H   UNL A   1      41.104  29.682  33.229  1.00  0.00     0.167 HD
ATOM     66  C   UNL A   1      39.044  31.575  33.722  1.00  0.00     0.074 A 
ATOM     67  C   UNL A   1      37.881  32.419  33.536  1.00  0.00     0.031 C 
ATOM     68  C   UNL A   1      39.715  31.455  34.893  1.00  0.00     0.031 A 
BRANCH  55  69
ATOM     69  C   UNL A   1      44.414  27.451  34.738  1.00  0.00    -0.014 A 
ATOM     70  C   UNL A   1      44.200  26.227  35.391  1.00  0.00     0.009 A 
ATOM     71  C   UNL A   1      45.703  28.007  34.745  1.00  0.00     0.009 A 
ATOM     72  C   UNL A   1      45.248  25.589  36.059  1.00  0.00     0.001 A 
ATOM     73  C   UNL A   1      46.755  27.353  35.391  1.00  0.00     0.001 A 
ATOM     74  C   UNL A   1      46.525  26.149  36.052  1.00  0.00     0.000 A 
ENDBRANCH  55  69
BRANCH  56  75
ATOM     75  C   UNL A   1      37.014  31.672  29.479  1.00  0.00    -0.014 A 
ATOM     76  C   UNL A   1      35.770  31.028  29.393  1.00  0.00     0.009 A 
ATOM     77  C   UNL A   1      37.188  32.895  28.810  1.00  0.00     0.009 A 
ATOM     78  C   UNL A   1      34.737  31.580  28.632  1.00  0.00     0.001 A 
ATOM     79  C   UNL A   1      36.143  33.461  28.078  1.00  0.00     0.001 A 
ATOM     80  C   UNL A   1      34.923  32.797  27.978  1.00  0.00     0.000 A 
ENDBRANCH  56  75
BRANCH  68  81
ATOM     81  C   UNL A   1      39.219  32.268  36.056  1.00  0.00    -0.014 A 
ATOM     82  C   UNL A   1      39.749  33.537  36.334  1.00  0.00     0.009 A 
ATOM     83  C   UNL A   1      38.177  31.775  36.857  1.00  0.00     0.009 A 
ATOM     84  C   UNL A   1      39.268  34.282  37.411  1.00  0.00     0.001 A 
ATOM     85  C   UNL A   1      37.674  32.536  37.912  1.00  0.00     0.001 A 
ATOM     86  C   UNL A   1      38.226  33.784  38.195  1.00  0.00     0.000 A 
ENDBRANCH  68  81
ENDBRANCH  42  43
ENDBRANCH  35  37
ENDBRANCH  34  35
ENDBRANCH  33  34
ENDBRANCH  32  33
ENDBRANCH  31  32
ENDBRANCH   1  31
TORSDOF 19
ENDMDL
