MODEL 1
REMARK VINA RESULT:     -10.0      0.000      0.000
REMARK SMILES CC[C@@H](C)C(=O)Nc1cccc(C(=O)OCCOCCOC(=O)c2ccc(-c3c4nc(c(-c5ccccc5)c5ccc([nH]5)c(-c5ccccc5)c5nc(c(-c6ccccc6)c6ccc3[nH]6)C=C5)C=C4)cc2)c1
REMARK SMILES IDX 17 1 16 2 15 3 13 4 14 5 12 6 8 7 9 8 72 9 10 10 11 11 7 12
REMARK SMILES IDX 5 13 6 14 3 16 4 17 2 18 1 19 18 20 19 21 20 22 21 23 22 24
REMARK SMILES IDX 23 25 24 26 25 27 71 28 26 29 70 30 27 31 28 32 29 33 64 34
REMARK SMILES IDX 30 35 69 36 63 37 65 38 31 39 68 40 62 41 61 42 32 44 54 45
REMARK SMILES IDX 39 46 53 47 40 48 43 49 52 50 66 51 41 52 42 53 51 55 67 56
REMARK SMILES IDX 44 57 33 58 34 59 38 60 35 61 37 62 36 63 55 64 56 65 60 66
REMARK SMILES IDX 57 67 59 68 58 69 45 70 46 71 50 72 47 73 49 74 48 75
REMARK H PARENT 7 15 65 43 43 54
REMARK Flexibility Score: inf
ROOT
ATOM      1  C   UNL A   1      34.694  33.342  27.971  1.00  0.00     0.202 C 
ENDROOT
BRANCH   1   2
ATOM      2  C   UNL A   1      33.919  32.036  28.178  1.00  0.00     0.261 C 
BRANCH   2   3
ATOM      3  O   UNL A   1      33.924  31.224  26.994  1.00  0.00    -0.460 OA
BRANCH   3   4
ATOM      4  C   UNL A   1      33.999  29.883  27.192  1.00  0.00     0.338 C 
ATOM      5  O   UNL A   1      34.810  29.296  27.886  1.00  0.00    -0.246 OA
BRANCH   4   6
ATOM      6  C   UNL A   1      32.899  29.187  26.474  1.00  0.00     0.062 A 
ATOM      7  C   UNL A   1      31.544  28.906  24.491  1.00  0.00     0.042 A 
ATOM      8  C   UNL A   1      31.013  27.729  25.017  1.00  0.00     0.026 A 
ATOM      9  C   UNL A   1      32.366  29.690  25.287  1.00  0.00     0.041 A 
ATOM     10  C   UNL A   1      31.450  27.265  26.262  1.00  0.00     0.003 A 
ATOM     11  C   UNL A   1      32.429  27.968  26.966  1.00  0.00     0.016 A 
BRANCH   7  12
ATOM     12  N   UNL A   1      31.240  29.268  23.175  1.00  0.00    -0.326 N 
ATOM     13  C   UNL A   1      30.061  29.677  22.611  1.00  0.00     0.227 C 
ATOM     14  O   UNL A   1      30.024  29.731  21.375  1.00  0.00    -0.274 OA
ATOM     15  H   UNL A   1      31.999  29.221  22.551  1.00  0.00     0.169 HD
BRANCH  13  16
ATOM     16  C   UNL A   1      28.838  30.175  23.418  1.00  0.00     0.075 C 
ATOM     17  C   UNL A   1      27.494  29.743  22.830  1.00  0.00     0.018 C 
BRANCH  16  18
ATOM     18  C   UNL A   1      28.913  31.645  23.856  1.00  0.00     0.010 C 
ATOM     19  C   UNL A   1      28.720  32.649  22.729  1.00  0.00     0.005 C 
ENDBRANCH  16  18
ENDBRANCH  13  16
ENDBRANCH   7  12
ENDBRANCH   4   6
ENDBRANCH   3   4
ENDBRANCH   2   3
ENDBRANCH   1   2
BRANCH   1  20
ATOM     20  O   UNL A   1      34.615  34.311  29.014  1.00  0.00    -0.374 OA
BRANCH  20  21
ATOM     21  C   UNL A   1      34.007  35.566  28.717  1.00  0.00     0.202 C 
BRANCH  21  22
ATOM     22  C   UNL A   1      33.011  36.128  29.738  1.00  0.00     0.261 C 
BRANCH  22  23
ATOM     23  O   UNL A   1      32.612  35.172  30.734  1.00  0.00    -0.460 OA
BRANCH  23  24
ATOM     24  C   UNL A   1      32.782  35.601  32.009  1.00  0.00     0.338 C 
ATOM     25  O   UNL A   1      32.052  36.340  32.646  1.00  0.00    -0.246 OA
BRANCH  24  26
ATOM     26  C   UNL A   1      33.946  34.937  32.623  1.00  0.00     0.060 A 
ATOM     27  C   UNL A   1      35.179  35.596  32.542  1.00  0.00     0.016 A 
ATOM     28  C   UNL A   1      33.859  33.653  33.163  1.00  0.00     0.016 A 
ATOM     29  C   UNL A   1      36.343  34.948  32.949  1.00  0.00     0.010 A 
ATOM     30  C   UNL A   1      35.030  33.001  33.566  1.00  0.00     0.010 A 
ATOM     31  C   UNL A   1      36.280  33.632  33.425  1.00  0.00    -0.014 A 
BRANCH  31  32
ATOM     32  C   UNL A   1      37.534  32.874  33.642  1.00  0.00     0.031 A 
ATOM     33  C   UNL A   1      38.313  33.089  34.910  1.00  0.00     0.074 A 
ATOM     34  C   UNL A   1      37.957  31.976  32.736  1.00  0.00     0.049 A 
ATOM     35  N   UNL A   1      39.433  32.534  35.299  1.00  0.00    -0.248 NA
ATOM     36  C   UNL A   1      37.757  34.059  35.867  1.00  0.00     0.031 C 
ATOM     37  C   UNL A   1      37.270  31.643  31.489  1.00  0.00     0.029 A 
ATOM     38  N   UNL A   1      39.073  31.178  32.732  1.00  0.00    -0.354 N 
ATOM     39  C   UNL A   1      39.717  33.088  36.541  1.00  0.00     0.074 A 
ATOM     40  C   UNL A   1      38.669  34.042  36.829  1.00  0.00     0.031 C 
ATOM     41  C   UNL A   1      37.982  30.708  30.837  1.00  0.00     0.029 A 
ATOM     42  C   UNL A   1      39.186  30.402  31.606  1.00  0.00     0.049 A 
ATOM     43  H   UNL A   1      39.729  31.164  33.465  1.00  0.00     0.167 HD
ATOM     44  C   UNL A   1      40.753  32.822  37.371  1.00  0.00     0.031 A 
ATOM     45  C   UNL A   1      40.160  29.551  31.230  1.00  0.00     0.031 A 
ATOM     46  C   UNL A   1      41.807  31.886  37.083  1.00  0.00     0.049 A 
ATOM     47  C   UNL A   1      41.345  29.333  32.133  1.00  0.00     0.074 A 
ATOM     48  C   UNL A   1      42.893  31.539  37.868  1.00  0.00     0.029 A 
ATOM     49  N   UNL A   1      41.911  31.156  35.909  1.00  0.00    -0.354 N 
ATOM     50  N   UNL A   1      41.587  29.844  33.316  1.00  0.00    -0.248 NA
ATOM     51  C   UNL A   1      42.386  28.416  31.647  1.00  0.00     0.031 C 
ATOM     52  C   UNL A   1      43.682  30.636  37.147  1.00  0.00     0.029 A 
ATOM     53  C   UNL A   1      43.059  30.381  35.936  1.00  0.00     0.049 A 
ATOM     54  H   UNL A   1      41.266  31.185  35.167  1.00  0.00     0.167 HD
ATOM     55  C   UNL A   1      42.794  29.291  33.726  1.00  0.00     0.074 A 
ATOM     56  C   UNL A   1      43.228  28.398  32.672  1.00  0.00     0.031 C 
ATOM     57  C   UNL A   1      43.480  29.502  34.877  1.00  0.00     0.031 A 
BRANCH  44  58
ATOM     58  C   UNL A   1      40.813  33.589  38.662  1.00  0.00    -0.014 A 
ATOM     59  C   UNL A   1      40.208  33.098  39.830  1.00  0.00     0.009 A 
ATOM     60  C   UNL A   1      41.503  34.811  38.716  1.00  0.00     0.009 A 
ATOM     61  C   UNL A   1      40.263  33.833  41.017  1.00  0.00     0.001 A 
ATOM     62  C   UNL A   1      41.577  35.530  39.910  1.00  0.00     0.001 A 
ATOM     63  C   UNL A   1      40.950  35.047  41.055  1.00  0.00     0.000 A 
ENDBRANCH  44  58
BRANCH  45  64
ATOM     64  C   UNL A   1      40.065  28.846  29.927  1.00  0.00    -0.014 A 
ATOM     65  C   UNL A   1      40.569  29.434  28.757  1.00  0.00     0.009 A 
ATOM     66  C   UNL A   1      39.461  27.581  29.847  1.00  0.00     0.009 A 
ATOM     67  C   UNL A   1      40.454  28.776  27.530  1.00  0.00     0.001 A 
ATOM     68  C   UNL A   1      39.369  26.916  28.623  1.00  0.00     0.001 A 
ATOM     69  C   UNL A   1      39.858  27.517  27.464  1.00  0.00     0.000 A 
ENDBRANCH  45  64
BRANCH  57  70
ATOM     70  C   UNL A   1      44.755  28.730  35.069  1.00  0.00    -0.014 A 
ATOM     71  C   UNL A   1      44.752  27.453  35.652  1.00  0.00     0.009 A 
ATOM     72  C   UNL A   1      45.970  29.272  34.621  1.00  0.00     0.009 A 
ATOM     73  C   UNL A   1      45.949  26.749  35.811  1.00  0.00     0.001 A 
ATOM     74  C   UNL A   1      47.159  28.554  34.757  1.00  0.00     0.001 A 
ATOM     75  C   UNL A   1      47.148  27.297  35.359  1.00  0.00     0.000 A 
ENDBRANCH  57  70
ENDBRANCH  31  32
ENDBRANCH  24  26
ENDBRANCH  23  24
ENDBRANCH  22  23
ENDBRANCH  21  22
ENDBRANCH  20  21
ENDBRANCH   1  20
TORSDOF 17
ENDMDL
MODEL 2
REMARK VINA RESULT:      -9.6      5.157      7.782
REMARK SMILES CC[C@@H](C)C(=O)Nc1cccc(C(=O)OCCOCCOC(=O)c2ccc(-c3c4nc(c(-c5ccccc5)c5ccc([nH]5)c(-c5ccccc5)c5nc(c(-c6ccccc6)c6ccc3[nH]6)C=C5)C=C4)cc2)c1
REMARK SMILES IDX 17 1 16 2 15 3 13 4 14 5 12 6 8 7 9 8 72 9 10 10 11 11 7 12
REMARK SMILES IDX 5 13 6 14 3 16 4 17 2 18 1 19 18 20 19 21 20 22 21 23 22 24
REMARK SMILES IDX 23 25 24 26 25 27 71 28 26 29 70 30 27 31 28 32 29 33 64 34
REMARK SMILES IDX 30 35 69 36 63 37 65 38 31 39 68 40 62 41 61 42 32 44 54 45
REMARK SMILES IDX 39 46 53 47 40 48 43 49 52 50 66 51 41 52 42 53 51 55 67 56
REMARK SMILES IDX 44 57 33 58 34 59 38 60 35 61 37 62 36 63 55 64 56 65 60 66
REMARK SMILES IDX 57 67 59 68 58 69 45 70 46 71 50 72 47 73 49 74 48 75
REMARK H PARENT 7 15 65 43 43 54
REMARK Flexibility Score: inf
ROOT
ATOM      1  C   UNL A   1      31.915  27.267  23.438  1.00  0.00     0.202 C 
ENDROOT
BRANCH   1   2
ATOM      2  C   UNL A   1      32.915  26.157  23.777  1.00  0.00     0.261 C 
BRANCH   2   3
ATOM      3  O   UNL A   1      32.452  24.873  23.330  1.00  0.00    -0.460 OA
BRANCH   3   4
ATOM      4  C   UNL A   1      33.333  24.146  22.595  1.00  0.00     0.338 C 
ATOM      5  O   UNL A   1      33.505  24.217  21.392  1.00  0.00    -0.246 OA
BRANCH   4   6
ATOM      6  C   UNL A   1      34.130  23.250  23.473  1.00  0.00     0.062 A 
ATOM      7  C   UNL A   1      34.248  21.376  24.997  1.00  0.00     0.042 A 
ATOM      8  C   UNL A   1      35.641  21.401  24.924  1.00  0.00     0.026 A 
ATOM      9  C   UNL A   1      33.522  22.390  24.387  1.00  0.00     0.041 A 
ATOM     10  C   UNL A   1      36.277  22.334  24.100  1.00  0.00     0.003 A 
ATOM     11  C   UNL A   1      35.519  23.224  23.337  1.00  0.00     0.016 A 
BRANCH   7  12
ATOM     12  N   UNL A   1      33.615  20.332  25.677  1.00  0.00    -0.326 N 
ATOM     13  C   UNL A   1      33.154  19.122  25.228  1.00  0.00     0.227 C 
ATOM     14  O   UNL A   1      32.441  18.474  26.005  1.00  0.00    -0.274 OA
ATOM     15  H   UNL A   1      33.476  20.493  26.638  1.00  0.00     0.169 HD
BRANCH  13  16
ATOM     16  C   UNL A   1      33.561  18.484  23.879  1.00  0.00     0.075 C 
ATOM     17  C   UNL A   1      32.382  18.204  22.947  1.00  0.00     0.018 C 
BRANCH  16  18
ATOM     18  C   UNL A   1      34.586  17.345  23.990  1.00  0.00     0.010 C 
ATOM     19  C   UNL A   1      33.976  15.972  24.232  1.00  0.00     0.005 C 
ENDBRANCH  16  18
ENDBRANCH  13  16
ENDBRANCH   7  12
ENDBRANCH   4   6
ENDBRANCH   3   4
ENDBRANCH   2   3
ENDBRANCH   1   2
BRANCH   1  20
ATOM     20  O   UNL A   1      31.490  28.103  24.513  1.00  0.00    -0.374 OA
BRANCH  20  21
ATOM     21  C   UNL A   1      32.231  28.056  25.730  1.00  0.00     0.202 C 
BRANCH  21  22
ATOM     22  C   UNL A   1      33.364  29.075  25.907  1.00  0.00     0.261 C 
BRANCH  22  23
ATOM     23  O   UNL A   1      34.108  28.895  27.123  1.00  0.00    -0.460 OA
BRANCH  23  24
ATOM     24  C   UNL A   1      34.526  30.054  27.689  1.00  0.00     0.338 C 
ATOM     25  O   UNL A   1      33.866  31.055  27.904  1.00  0.00    -0.246 OA
BRANCH  24  26
ATOM     26  C   UNL A   1      35.917  29.922  28.161  1.00  0.00     0.060 A 
ATOM     27  C   UNL A   1      36.937  30.115  27.221  1.00  0.00     0.016 A 
ATOM     28  C   UNL A   1      36.215  29.508  29.460  1.00  0.00     0.016 A 
ATOM     29  C   UNL A   1      38.258  29.839  27.560  1.00  0.00     0.010 A 
ATOM     30  C   UNL A   1      37.543  29.225  29.798  1.00  0.00     0.010 A 
ATOM     31  C   UNL A   1      38.564  29.353  28.838  1.00  0.00    -0.014 A 
BRANCH  31  32
ATOM     32  C   UNL A   1      39.929  28.849  29.120  1.00  0.00     0.031 A 
ATOM     33  C   UNL A   1      40.901  29.731  29.854  1.00  0.00     0.074 A 
ATOM     34  C   UNL A   1      40.289  27.606  28.758  1.00  0.00     0.049 A 
ATOM     35  N   UNL A   1      42.140  29.490  30.201  1.00  0.00    -0.248 NA
ATOM     36  C   UNL A   1      40.411  31.061  30.251  1.00  0.00     0.031 C 
ATOM     37  C   UNL A   1      39.427  26.638  28.081  1.00  0.00     0.029 A 
ATOM     38  N   UNL A   1      41.482  26.947  28.913  1.00  0.00    -0.354 N 
ATOM     39  C   UNL A   1      42.579  30.637  30.852  1.00  0.00     0.074 A 
ATOM     40  C   UNL A   1      41.484  31.583  30.829  1.00  0.00     0.031 C 
ATOM     41  C   UNL A   1      40.122  25.507  27.877  1.00  0.00     0.029 A 
ATOM     42  C   UNL A   1      41.482  25.682  28.380  1.00  0.00     0.049 A 
ATOM     43  H   UNL A   1      42.262  27.343  29.363  1.00  0.00     0.167 HD
ATOM     44  C   UNL A   1      43.782  30.879  31.424  1.00  0.00     0.031 A 
ATOM     45  C   UNL A   1      42.473  24.775  28.295  1.00  0.00     0.031 A 
ATOM     46  C   UNL A   1      44.879  29.948  31.436  1.00  0.00     0.049 A 
ATOM     47  C   UNL A   1      43.828  25.098  28.866  1.00  0.00     0.074 A 
ATOM     48  C   UNL A   1      46.133  30.098  32.003  1.00  0.00     0.029 A 
ATOM     49  N   UNL A   1      44.855  28.696  30.842  1.00  0.00    -0.354 N 
ATOM     50  N   UNL A   1      44.221  26.175  29.502  1.00  0.00    -0.248 NA
ATOM     51  C   UNL A   1      44.872  24.075  28.710  1.00  0.00     0.031 C 
ATOM     52  C   UNL A   1      46.885  28.955  31.708  1.00  0.00     0.029 A 
ATOM     53  C   UNL A   1      46.081  28.073  31.003  1.00  0.00     0.049 A 
ATOM     54  H   UNL A   1      44.081  28.307  30.374  1.00  0.00     0.167 HD
ATOM     55  C   UNL A   1      45.549  25.949  29.843  1.00  0.00     0.074 A 
ATOM     56  C   UNL A   1      45.889  24.629  29.355  1.00  0.00     0.031 C 
ATOM     57  C   UNL A   1      46.407  26.762  30.507  1.00  0.00     0.031 A 
BRANCH  44  58
ATOM     58  C   UNL A   1      43.984  32.228  32.055  1.00  0.00    -0.014 A 
ATOM     59  C   UNL A   1      43.742  32.436  33.423  1.00  0.00     0.009 A 
ATOM     60  C   UNL A   1      44.441  33.301  31.274  1.00  0.00     0.009 A 
ATOM     61  C   UNL A   1      43.923  33.701  33.987  1.00  0.00     0.001 A 
ATOM     62  C   UNL A   1      44.644  34.558  31.847  1.00  0.00     0.001 A 
ATOM     63  C   UNL A   1      44.375  34.759  33.199  1.00  0.00     0.000 A 
ENDBRANCH  44  58
BRANCH  45  64
ATOM     64  C   UNL A   1      42.226  23.470  27.629  1.00  0.00    -0.014 A 
ATOM     65  C   UNL A   1      41.685  22.393  28.346  1.00  0.00     0.009 A 
ATOM     66  C   UNL A   1      42.539  23.296  26.272  1.00  0.00     0.009 A 
ATOM     67  C   UNL A   1      41.479  21.161  27.720  1.00  0.00     0.001 A 
ATOM     68  C   UNL A   1      42.309  22.072  25.643  1.00  0.00     0.001 A 
ATOM     69  C   UNL A   1      41.787  21.002  26.369  1.00  0.00     0.000 A 
ENDBRANCH  45  64
BRANCH  57  70
ATOM     70  C   UNL A   1      47.789  26.234  30.771  1.00  0.00    -0.014 A 
ATOM     71  C   UNL A   1      48.800  26.321  29.801  1.00  0.00     0.009 A 
ATOM     72  C   UNL A   1      48.094  25.679  32.024  1.00  0.00     0.009 A 
ATOM     73  C   UNL A   1      50.081  25.833  30.072  1.00  0.00     0.001 A 
ATOM     74  C   UNL A   1      49.381  25.217  32.300  1.00  0.00     0.001 A 
ATOM     75  C   UNL A   1      50.371  25.287  31.321  1.00  0.00     0.000 A 
ENDBRANCH  57  70
ENDBRANCH  31  32
ENDBRANCH  24  26
ENDBRANCH  23  24
ENDBRANCH  22  23
ENDBRANCH  21  22
ENDBRANCH  20  21
ENDBRANCH   1  20
TORSDOF 17
ENDMDL
MODEL 3
REMARK VINA RESULT:      -9.6      5.364     10.371
REMARK SMILES CC[C@@H](C)C(=O)Nc1cccc(C(=O)OCCOCCOC(=O)c2ccc(-c3c4nc(c(-c5ccccc5)c5ccc([nH]5)c(-c5ccccc5)c5nc(c(-c6ccccc6)c6ccc3[nH]6)C=C5)C=C4)cc2)c1
REMARK SMILES IDX 17 1 16 2 15 3 13 4 14 5 12 6 8 7 9 8 72 9 10 10 11 11 7 12
REMARK SMILES IDX 5 13 6 14 3 16 4 17 2 18 1 19 18 20 19 21 20 22 21 23 22 24
REMARK SMILES IDX 23 25 24 26 25 27 71 28 26 29 70 30 27 31 28 32 29 33 64 34
REMARK SMILES IDX 30 35 69 36 63 37 65 38 31 39 68 40 62 41 61 42 32 44 54 45
REMARK SMILES IDX 39 46 53 47 40 48 43 49 52 50 66 51 41 52 42 53 51 55 67 56
REMARK SMILES IDX 44 57 33 58 34 59 38 60 35 61 37 62 36 63 55 64 56 65 60 66
REMARK SMILES IDX 57 67 59 68 58 69 45 70 46 71 50 72 47 73 49 74 48 75
REMARK H PARENT 7 15 65 43 43 54
REMARK Flexibility Score: inf
ROOT
ATOM      1  C   UNL A   1      37.735  23.627  26.016  1.00  0.00     0.202 C 
ENDROOT
BRANCH   1   2
ATOM      2  C   UNL A   1      36.775  23.709  24.825  1.00  0.00     0.261 C 
BRANCH   2   3
ATOM      3  O   UNL A   1      35.412  23.852  25.252  1.00  0.00    -0.460 OA
BRANCH   3   4
ATOM      4  C   UNL A   1      34.529  22.960  24.733  1.00  0.00     0.338 C 
ATOM      5  O   UNL A   1      34.787  21.851  24.302  1.00  0.00    -0.246 OA
BRANCH   4   6
ATOM      6  C   UNL A   1      33.145  23.498  24.800  1.00  0.00     0.062 A 
ATOM      7  C   UNL A   1      31.520  24.976  25.811  1.00  0.00     0.042 A 
ATOM      8  C   UNL A   1      30.625  24.704  24.777  1.00  0.00     0.026 A 
ATOM      9  C   UNL A   1      32.706  24.258  25.883  1.00  0.00     0.041 A 
ATOM     10  C   UNL A   1      31.004  23.852  23.736  1.00  0.00     0.003 A 
ATOM     11  C   UNL A   1      32.281  23.288  23.723  1.00  0.00     0.016 A 
BRANCH   7  12
ATOM     12  N   UNL A   1      31.207  25.964  26.749  1.00  0.00    -0.326 N 
ATOM     13  C   UNL A   1      31.683  27.241  26.895  1.00  0.00     0.227 C 
ATOM     14  O   UNL A   1      31.387  27.829  27.943  1.00  0.00    -0.274 OA
ATOM     15  H   UNL A   1      30.533  25.699  27.415  1.00  0.00     0.169 HD
BRANCH  13  16
ATOM     16  C   UNL A   1      32.454  28.011  25.797  1.00  0.00     0.075 C 
ATOM     17  C   UNL A   1      33.494  28.989  26.344  1.00  0.00     0.018 C 
BRANCH  16  18
ATOM     18  C   UNL A   1      31.576  28.563  24.663  1.00  0.00     0.010 C 
ATOM     19  C   UNL A   1      31.844  27.941  23.300  1.00  0.00     0.005 C 
ENDBRANCH  16  18
ENDBRANCH  13  16
ENDBRANCH   7  12
ENDBRANCH   4   6
ENDBRANCH   3   4
ENDBRANCH   2   3
ENDBRANCH   1   2
BRANCH   1  20
ATOM     20  O   UNL A   1      38.500  22.430  26.147  1.00  0.00    -0.374 OA
BRANCH  20  21
ATOM     21  C   UNL A   1      38.012  21.251  25.511  1.00  0.00     0.202 C 
BRANCH  21  22
ATOM     22  C   UNL A   1      39.011  20.112  25.273  1.00  0.00     0.261 C 
BRANCH  22  23
ATOM     23  O   UNL A   1      39.779  19.773  26.439  1.00  0.00    -0.460 OA
BRANCH  23  24
ATOM     24  C   UNL A   1      41.116  19.714  26.219  1.00  0.00     0.338 C 
ATOM     25  O   UNL A   1      41.737  18.830  25.655  1.00  0.00    -0.246 OA
BRANCH  24  26
ATOM     26  C   UNL A   1      41.762  20.968  26.648  1.00  0.00     0.060 A 
ATOM     27  C   UNL A   1      41.733  21.273  28.014  1.00  0.00     0.016 A 
ATOM     28  C   UNL A   1      42.282  21.879  25.726  1.00  0.00     0.016 A 
ATOM     29  C   UNL A   1      42.173  22.516  28.460  1.00  0.00     0.010 A 
ATOM     30  C   UNL A   1      42.718  23.131  26.175  1.00  0.00     0.010 A 
ATOM     31  C   UNL A   1      42.629  23.468  27.538  1.00  0.00    -0.014 A 
BRANCH  31  32
ATOM     32  C   UNL A   1      42.880  24.857  27.988  1.00  0.00     0.031 A 
ATOM     33  C   UNL A   1      44.293  25.301  28.248  1.00  0.00     0.074 A 
ATOM     34  C   UNL A   1      41.865  25.726  28.128  1.00  0.00     0.049 A 
ATOM     35  N   UNL A   1      44.735  26.467  28.648  1.00  0.00    -0.248 NA
ATOM     36  C   UNL A   1      45.348  24.299  28.029  1.00  0.00     0.031 C 
ATOM     37  C   UNL A   1      40.457  25.432  27.864  1.00  0.00     0.029 A 
ATOM     38  N   UNL A   1      41.868  27.038  28.529  1.00  0.00    -0.354 N 
ATOM     39  C   UNL A   1      46.116  26.338  28.731  1.00  0.00     0.074 A 
ATOM     40  C   UNL A   1      46.437  24.975  28.369  1.00  0.00     0.031 C 
ATOM     41  C   UNL A   1      39.729  26.535  28.113  1.00  0.00     0.029 A 
ATOM     42  C   UNL A   1      40.616  27.598  28.580  1.00  0.00     0.049 A 
ATOM     43  H   UNL A   1      42.689  27.530  28.757  1.00  0.00     0.167 HD
ATOM     44  C   UNL A   1      47.035  27.272  29.073  1.00  0.00     0.031 A 
ATOM     45  C   UNL A   1      40.228  28.825  28.975  1.00  0.00     0.031 A 
ATOM     46  C   UNL A   1      46.720  28.624  29.451  1.00  0.00     0.049 A 
ATOM     47  C   UNL A   1      41.261  29.820  29.430  1.00  0.00     0.074 A 
ATOM     48  C   UNL A   1      47.584  29.647  29.801  1.00  0.00     0.029 A 
ATOM     49  N   UNL A   1      45.436  29.137  29.538  1.00  0.00    -0.354 N 
ATOM     50  N   UNL A   1      42.565  29.694  29.479  1.00  0.00    -0.248 NA
ATOM     51  C   UNL A   1      40.765  31.130  29.878  1.00  0.00     0.031 C 
ATOM     52  C   UNL A   1      46.819  30.765  30.149  1.00  0.00     0.029 A 
ATOM     53  C   UNL A   1      45.482  30.454  29.964  1.00  0.00     0.049 A 
ATOM     54  H   UNL A   1      44.613  28.639  29.329  1.00  0.00     0.167 HD
ATOM     55  C   UNL A   1      43.046  30.914  29.939  1.00  0.00     0.074 A 
ATOM     56  C   UNL A   1      41.896  31.770  30.142  1.00  0.00     0.031 C 
ATOM     57  C   UNL A   1      44.328  31.292  30.167  1.00  0.00     0.031 A 
BRANCH  44  58
ATOM     58  C   UNL A   1      48.476  26.844  29.089  1.00  0.00    -0.014 A 
ATOM     59  C   UNL A   1      49.062  26.303  30.245  1.00  0.00     0.009 A 
ATOM     60  C   UNL A   1      49.252  26.966  27.926  1.00  0.00     0.009 A 
ATOM     61  C   UNL A   1      50.407  25.923  30.242  1.00  0.00     0.001 A 
ATOM     62  C   UNL A   1      50.588  26.563  27.920  1.00  0.00     0.001 A 
ATOM     63  C   UNL A   1      51.167  26.052  29.080  1.00  0.00     0.000 A 
ENDBRANCH  44  58
BRANCH  45  64
ATOM     64  C   UNL A   1      38.786  29.182  28.972  1.00  0.00    -0.014 A 
ATOM     65  C   UNL A   1      38.006  29.017  30.125  1.00  0.00     0.009 A 
ATOM     66  C   UNL A   1      38.182  29.684  27.808  1.00  0.00     0.009 A 
ATOM     67  C   UNL A   1      36.645  29.331  30.109  1.00  0.00     0.001 A 
ATOM     68  C   UNL A   1      36.828  30.019  27.801  1.00  0.00     0.001 A 
ATOM     69  C   UNL A   1      36.058  29.835  28.948  1.00  0.00     0.000 A 
ENDBRANCH  45  64
BRANCH  57  70
ATOM     70  C   UNL A   1      44.557  32.702  30.633  1.00  0.00    -0.014 A 
ATOM     71  C   UNL A   1      44.625  33.015  31.999  1.00  0.00     0.009 A 
ATOM     72  C   UNL A   1      44.748  33.724  29.690  1.00  0.00     0.009 A 
ATOM     73  C   UNL A   1      44.849  34.332  32.410  1.00  0.00     0.001 A 
ATOM     74  C   UNL A   1      44.998  35.032  30.104  1.00  0.00     0.001 A 
ATOM     75  C   UNL A   1      45.040  35.337  31.463  1.00  0.00     0.000 A 
ENDBRANCH  57  70
ENDBRANCH  31  32
ENDBRANCH  24  26
ENDBRANCH  23  24
ENDBRANCH  22  23
ENDBRANCH  21  22
ENDBRANCH  20  21
ENDBRANCH   1  20
TORSDOF 17
ENDMDL
