MODEL 1
REMARK VINA RESULT:     -12.5      0.000      0.000
REMARK SMILES Cc1ccc(-c2cc(C(=O)OCCOCCOC(=O)c3ccc(-c4c5nc(c(-c6ccccc6)c6ccc([nH]6)c(-c6ccccc6)c6nc(c(-c7ccccc7)c7ccc4[nH]7)C=C6)C=C5)cc3)c3c(-c4cccc([N+](=O)[O-])c4)[nH]nc3n2)cc1
REMARK SMILES IDX 14 1 13 2 12 3 11 4 9 5 10 6 8 7 6 8 7 9 82 10 81 11 68 12
REMARK SMILES IDX 80 13 69 14 79 15 5 17 1 18 2 19 3 20 84 21 4 22 83 23 70 24
REMARK SMILES IDX 71 25 78 26 72 27 74 28 73 29 75 30 76 31 77 32 15 33 16 34
REMARK SMILES IDX 17 35 18 36 19 37 20 38 21 39 67 40 22 41 66 42 23 43 24 44
REMARK SMILES IDX 25 45 60 46 26 47 65 48 59 49 61 50 27 51 64 52 58 53 57 54
REMARK SMILES IDX 28 56 50 57 35 58 49 59 36 60 39 61 48 62 62 63 37 64 38 65
REMARK SMILES IDX 47 67 63 68 40 69 29 70 30 71 34 72 31 73 33 74 32 75 51 76
REMARK SMILES IDX 52 77 56 78 53 79 55 80 54 81 41 82 42 83 46 84 43 85 45 86
REMARK SMILES IDX 44 87
REMARK H PARENT 79 16 61 55 39 66
REMARK Flexibility Score: inf
ROOT
ATOM      1  O   UNL A   1      34.827  29.505  27.821  1.00  0.00    -0.374 OA
ENDROOT
BRANCH   1   2
ATOM      2  C   UNL A   1      34.615  28.831  26.601  1.00  0.00     0.202 C 
BRANCH   2   3
ATOM      3  C   UNL A   1      33.297  28.190  26.816  1.00  0.00     0.261 C 
BRANCH   3   4
ATOM      4  O   UNL A   1      33.012  27.257  25.749  1.00  0.00    -0.460 OA
BRANCH   4   5
ATOM      5  C   UNL A   1      32.433  26.022  25.877  1.00  0.00     0.339 C 
ATOM      6  O   UNL A   1      31.538  25.678  26.593  1.00  0.00    -0.246 OA
BRANCH   5   7
ATOM      7  C   UNL A   1      33.153  25.175  24.928  1.00  0.00     0.075 A 
ATOM      8  C   UNL A   1      35.155  23.783  24.539  1.00  0.00     0.074 A 
ATOM      9  C   UNL A   1      34.262  24.456  25.381  1.00  0.00     0.045 A 
ATOM     10  N   UNL A   1      35.034  23.696  23.187  1.00  0.00    -0.226 NA
ATOM     11  C   UNL A   1      33.898  24.295  22.710  1.00  0.00     0.182 A 
ATOM     12  C   UNL A   1      32.980  25.018  23.557  1.00  0.00     0.061 A 
ATOM     13  N   UNL A   1      33.492  24.326  21.440  1.00  0.00    -0.154 NA
ATOM     14  C   UNL A   1      31.975  25.486  22.724  1.00  0.00     0.076 A 
ATOM     15  N   UNL A   1      32.335  25.016  21.481  1.00  0.00    -0.275 N 
ATOM     16  H   UNL A   1      31.785  25.171  20.679  1.00  0.00     0.190 HD
BRANCH   8  17
ATOM     17  C   UNL A   1      36.331  23.223  25.237  1.00  0.00     0.000 A 
ATOM     18  C   UNL A   1      40.245  21.974  26.635  1.00  0.00     0.044 C 
ATOM     19  C   UNL A   1      38.897  22.413  26.143  1.00  0.00    -0.051 A 
ATOM     20  C   UNL A   1      38.095  21.548  25.385  1.00  0.00     0.004 A 
ATOM     21  C   UNL A   1      38.414  23.686  26.447  1.00  0.00     0.004 A 
ATOM     22  C   UNL A   1      36.827  21.948  24.935  1.00  0.00     0.010 A 
ATOM     23  C   UNL A   1      37.148  24.078  26.009  1.00  0.00     0.010 A 
ENDBRANCH   8  17
BRANCH  14  24
ATOM     24  C   UNL A   1      30.743  26.252  22.925  1.00  0.00     0.007 A 
ATOM     25  C   UNL A   1      29.654  25.686  23.607  1.00  0.00     0.011 A 
ATOM     26  C   UNL A   1      30.653  27.584  22.494  1.00  0.00     0.096 A 
ATOM     27  C   UNL A   1      28.508  26.442  23.886  1.00  0.00     0.008 A 
ATOM     28  C   UNL A   1      29.512  28.344  22.802  1.00  0.00     0.270 A 
ATOM     29  C   UNL A   1      28.435  27.777  23.496  1.00  0.00     0.085 A 
BRANCH  28  30
ATOM     30  N   UNL A   1      29.466  29.770  22.451  1.00  0.00     0.062 N 
ATOM     31  O   UNL A   1      29.359  30.589  23.377  1.00  0.00    -0.258 OA
ATOM     32  O   UNL A   1      29.551  30.077  21.254  1.00  0.00    -0.258 OA
ENDBRANCH  28  30
ENDBRANCH  14  24
ENDBRANCH   5   7
ENDBRANCH   4   5
ENDBRANCH   3   4
ENDBRANCH   2   3
ENDBRANCH   1   2
BRANCH   1  33
ATOM     33  C   UNL A   1      35.150  30.864  27.710  1.00  0.00     0.202 C 
BRANCH  33  34
ATOM     34  C   UNL A   1      33.931  31.687  28.099  1.00  0.00     0.261 C 
BRANCH  34  35
ATOM     35  O   UNL A   1      34.286  33.096  28.137  1.00  0.00    -0.460 OA
BRANCH  35  36
ATOM     36  C   UNL A   1      34.285  33.705  29.364  1.00  0.00     0.338 C 
ATOM     37  O   UNL A   1      33.389  34.415  29.793  1.00  0.00    -0.246 OA
BRANCH  36  38
ATOM     38  C   UNL A   1      35.654  33.640  29.984  1.00  0.00     0.060 A 
ATOM     39  C   UNL A   1      36.810  33.945  29.232  1.00  0.00     0.016 A 
ATOM     40  C   UNL A   1      35.789  32.928  31.163  1.00  0.00     0.016 A 
ATOM     41  C   UNL A   1      38.055  33.360  29.556  1.00  0.00     0.010 A 
ATOM     42  C   UNL A   1      36.979  32.273  31.405  1.00  0.00     0.010 A 
ATOM     43  C   UNL A   1      38.112  32.430  30.589  1.00  0.00    -0.014 A 
BRANCH  43  44
ATOM     44  C   UNL A   1      39.214  31.505  30.929  1.00  0.00     0.031 A 
ATOM     45  C   UNL A   1      39.229  30.193  30.242  1.00  0.00     0.074 A 
ATOM     46  C   UNL A   1      40.349  31.926  31.551  1.00  0.00     0.049 A 
ATOM     47  N   UNL A   1      40.086  29.271  30.494  1.00  0.00    -0.248 NA
ATOM     48  C   UNL A   1      38.254  29.779  29.229  1.00  0.00     0.031 C 
ATOM     49  C   UNL A   1      41.726  31.422  31.426  1.00  0.00     0.029 A 
ATOM     50  N   UNL A   1      40.521  32.990  32.429  1.00  0.00    -0.354 N 
ATOM     51  C   UNL A   1      40.014  28.343  29.487  1.00  0.00     0.074 A 
ATOM     52  C   UNL A   1      38.779  28.625  28.804  1.00  0.00     0.031 C 
ATOM     53  C   UNL A   1      42.512  31.986  32.366  1.00  0.00     0.029 A 
ATOM     54  C   UNL A   1      41.656  32.791  33.221  1.00  0.00     0.049 A 
ATOM     55  H   UNL A   1      39.927  33.774  32.485  1.00  0.00     0.167 HD
ATOM     56  C   UNL A   1      41.097  27.547  29.281  1.00  0.00     0.031 A 
ATOM     57  C   UNL A   1      41.536  32.767  34.575  1.00  0.00     0.031 A 
ATOM     58  C   UNL A   1      42.104  27.759  30.332  1.00  0.00     0.049 A 
ATOM     59  C   UNL A   1      41.809  31.349  34.990  1.00  0.00     0.074 A 
ATOM     60  C   UNL A   1      43.350  28.362  30.353  1.00  0.00     0.029 A 
ATOM     61  N   UNL A   1      41.718  27.619  31.666  1.00  0.00    -0.354 N 
ATOM     62  N   UNL A   1      41.645  30.342  34.172  1.00  0.00    -0.248 NA
ATOM     63  C   UNL A   1      42.421  30.958  36.253  1.00  0.00     0.031 C 
ATOM     64  C   UNL A   1      43.666  28.657  31.715  1.00  0.00     0.029 A 
ATOM     65  C   UNL A   1      42.634  28.198  32.523  1.00  0.00     0.049 A 
ATOM     66  H   UNL A   1      40.896  27.164  31.960  1.00  0.00     0.167 HD
ATOM     67  C   UNL A   1      42.262  29.248  34.686  1.00  0.00     0.074 A 
ATOM     68  C   UNL A   1      42.668  29.656  36.022  1.00  0.00     0.031 C 
ATOM     69  C   UNL A   1      42.452  28.102  33.972  1.00  0.00     0.031 A 
BRANCH  56  70
ATOM     70  C   UNL A   1      41.346  26.721  28.039  1.00  0.00    -0.014 A 
ATOM     71  C   UNL A   1      42.195  25.601  28.122  1.00  0.00     0.009 A 
ATOM     72  C   UNL A   1      40.842  27.006  26.755  1.00  0.00     0.009 A 
ATOM     73  C   UNL A   1      42.524  24.827  26.998  1.00  0.00     0.001 A 
ATOM     74  C   UNL A   1      41.153  26.229  25.630  1.00  0.00     0.001 A 
ATOM     75  C   UNL A   1      41.999  25.138  25.751  1.00  0.00     0.000 A 
ENDBRANCH  56  70
BRANCH  57  76
ATOM     76  C   UNL A   1      40.485  33.718  35.068  1.00  0.00    -0.014 A 
ATOM     77  C   UNL A   1      39.389  33.177  35.783  1.00  0.00     0.009 A 
ATOM     78  C   UNL A   1      40.793  35.073  35.281  1.00  0.00     0.009 A 
ATOM     79  C   UNL A   1      38.707  33.930  36.754  1.00  0.00     0.001 A 
ATOM     80  C   UNL A   1      40.134  35.809  36.282  1.00  0.00     0.001 A 
ATOM     81  C   UNL A   1      39.115  35.230  37.038  1.00  0.00     0.000 A 
ENDBRANCH  57  76
BRANCH  69  82
ATOM     82  C   UNL A   1      42.496  26.754  34.628  1.00  0.00    -0.014 A 
ATOM     83  C   UNL A   1      41.451  26.248  35.413  1.00  0.00     0.009 A 
ATOM     84  C   UNL A   1      43.532  25.859  34.291  1.00  0.00     0.009 A 
ATOM     85  C   UNL A   1      41.470  24.937  35.890  1.00  0.00     0.001 A 
ATOM     86  C   UNL A   1      43.518  24.529  34.703  1.00  0.00     0.001 A 
ATOM     87  C   UNL A   1      42.495  24.074  35.523  1.00  0.00     0.000 A 
ENDBRANCH  69  82
ENDBRANCH  43  44
ENDBRANCH  36  38
ENDBRANCH  35  36
ENDBRANCH  34  35
ENDBRANCH  33  34
ENDBRANCH   1  33
TORSDOF 17
ENDMDL
MODEL 2
REMARK VINA RESULT:     -12.5      1.798      2.954
REMARK SMILES Cc1ccc(-c2cc(C(=O)OCCOCCOC(=O)c3ccc(-c4c5nc(c(-c6ccccc6)c6ccc([nH]6)c(-c6ccccc6)c6nc(c(-c7ccccc7)c7ccc4[nH]7)C=C6)C=C5)cc3)c3c(-c4cccc([N+](=O)[O-])c4)[nH]nc3n2)cc1
REMARK SMILES IDX 14 1 13 2 12 3 11 4 9 5 10 6 8 7 6 8 7 9 82 10 81 11 68 12
REMARK SMILES IDX 80 13 69 14 79 15 5 17 1 18 2 19 3 20 84 21 4 22 83 23 70 24
REMARK SMILES IDX 71 25 78 26 72 27 74 28 73 29 75 30 76 31 77 32 15 33 16 34
REMARK SMILES IDX 17 35 18 36 19 37 20 38 21 39 67 40 22 41 66 42 23 43 24 44
REMARK SMILES IDX 25 45 60 46 26 47 65 48 59 49 61 50 27 51 64 52 58 53 57 54
REMARK SMILES IDX 28 56 50 57 35 58 49 59 36 60 39 61 48 62 62 63 37 64 38 65
REMARK SMILES IDX 47 67 63 68 40 69 29 70 30 71 34 72 31 73 33 74 32 75 51 76
REMARK SMILES IDX 52 77 56 78 53 79 55 80 54 81 41 82 42 83 46 84 43 85 45 86
REMARK SMILES IDX 44 87
REMARK H PARENT 79 16 61 55 39 66
REMARK Flexibility Score: inf
ROOT
ATOM      1  O   UNL A   1      32.599  30.426  26.017  1.00  0.00    -0.374 OA
ENDROOT
BRANCH   1   2
ATOM      2  C   UNL A   1      32.439  29.459  25.003  1.00  0.00     0.202 C 
BRANCH   2   3
ATOM      3  C   UNL A   1      31.863  28.313  25.745  1.00  0.00     0.261 C 
BRANCH   3   4
ATOM      4  O   UNL A   1      32.670  27.130  25.547  1.00  0.00    -0.460 OA
BRANCH   4   5
ATOM      5  C   UNL A   1      32.315  25.840  25.844  1.00  0.00     0.339 C 
ATOM      6  O   UNL A   1      31.600  25.435  26.712  1.00  0.00    -0.246 OA
BRANCH   5   7
ATOM      7  C   UNL A   1      33.013  25.026  24.850  1.00  0.00     0.075 A 
ATOM      8  C   UNL A   1      34.972  23.597  24.387  1.00  0.00     0.074 A 
ATOM      9  C   UNL A   1      34.097  24.249  25.264  1.00  0.00     0.045 A 
ATOM     10  N   UNL A   1      34.853  23.590  23.032  1.00  0.00    -0.226 NA
ATOM     11  C   UNL A   1      33.738  24.250  22.587  1.00  0.00     0.182 A 
ATOM     12  C   UNL A   1      32.839  24.952  23.472  1.00  0.00     0.061 A 
ATOM     13  N   UNL A   1      33.337  24.364  21.321  1.00  0.00    -0.154 NA
ATOM     14  C   UNL A   1      31.852  25.496  22.665  1.00  0.00     0.076 A 
ATOM     15  N   UNL A   1      32.201  25.086  21.398  1.00  0.00    -0.275 N 
ATOM     16  H   UNL A   1      31.659  25.303  20.605  1.00  0.00     0.190 HD
BRANCH   8  17
ATOM     17  C   UNL A   1      36.128  22.963  25.053  1.00  0.00     0.000 A 
ATOM     18  C   UNL A   1      39.993  21.481  26.360  1.00  0.00     0.044 C 
ATOM     19  C   UNL A   1      38.662  22.001  25.900  1.00  0.00    -0.051 A 
ATOM     20  C   UNL A   1      37.801  21.194  25.143  1.00  0.00     0.004 A 
ATOM     21  C   UNL A   1      38.254  23.292  26.234  1.00  0.00     0.004 A 
ATOM     22  C   UNL A   1      36.549  21.668  24.723  1.00  0.00     0.010 A 
ATOM     23  C   UNL A   1      37.004  23.759  25.825  1.00  0.00     0.010 A 
ENDBRANCH   8  17
BRANCH  14  24
ATOM     24  C   UNL A   1      30.644  26.287  22.906  1.00  0.00     0.007 A 
ATOM     25  C   UNL A   1      29.582  25.758  23.658  1.00  0.00     0.011 A 
ATOM     26  C   UNL A   1      30.551  27.608  22.444  1.00  0.00     0.096 A 
ATOM     27  C   UNL A   1      28.463  26.539  23.974  1.00  0.00     0.008 A 
ATOM     28  C   UNL A   1      29.439  28.395  22.788  1.00  0.00     0.270 A 
ATOM     29  C   UNL A   1      28.391  27.865  23.551  1.00  0.00     0.085 A 
BRANCH  28  30
ATOM     30  N   UNL A   1      29.397  29.811  22.401  1.00  0.00     0.062 N 
ATOM     31  O   UNL A   1      29.284  30.654  23.305  1.00  0.00    -0.258 OA
ATOM     32  O   UNL A   1      29.490  30.088  21.197  1.00  0.00    -0.258 OA
ENDBRANCH  28  30
ENDBRANCH  14  24
ENDBRANCH   5   7
ENDBRANCH   4   5
ENDBRANCH   3   4
ENDBRANCH   2   3
ENDBRANCH   1   2
BRANCH   1  33
ATOM     33  C   UNL A   1      33.578  30.138  26.976  1.00  0.00     0.202 C 
BRANCH  33  34
ATOM     34  C   UNL A   1      33.862  31.402  27.776  1.00  0.00     0.261 C 
BRANCH  34  35
ATOM     35  O   UNL A   1      35.268  31.749  27.656  1.00  0.00    -0.460 OA
BRANCH  35  36
ATOM     36  C   UNL A   1      36.026  31.676  28.794  1.00  0.00     0.338 C 
ATOM     37  O   UNL A   1      36.239  32.607  29.555  1.00  0.00    -0.246 OA
BRANCH  36  38
ATOM     38  C   UNL A   1      36.811  30.393  28.821  1.00  0.00     0.060 A 
ATOM     39  C   UNL A   1      36.748  29.523  29.931  1.00  0.00     0.016 A 
ATOM     40  C   UNL A   1      37.863  30.269  27.929  1.00  0.00     0.016 A 
ATOM     41  C   UNL A   1      37.837  28.682  30.250  1.00  0.00     0.010 A 
ATOM     42  C   UNL A   1      38.965  29.531  28.311  1.00  0.00     0.010 A 
ATOM     43  C   UNL A   1      38.999  28.769  29.491  1.00  0.00    -0.014 A 
BRANCH  43  44
ATOM     44  C   UNL A   1      40.332  28.205  29.788  1.00  0.00     0.031 A 
ATOM     45  C   UNL A   1      40.722  26.976  29.059  1.00  0.00     0.074 A 
ATOM     46  C   UNL A   1      41.304  28.926  30.412  1.00  0.00     0.049 A 
ATOM     47  N   UNL A   1      41.819  26.343  29.272  1.00  0.00    -0.248 NA
ATOM     48  C   UNL A   1      39.894  26.319  28.044  1.00  0.00     0.031 C 
ATOM     49  C   UNL A   1      42.765  28.858  30.256  1.00  0.00     0.029 A 
ATOM     50  N   UNL A   1      41.169  29.969  31.322  1.00  0.00    -0.354 N 
ATOM     51  C   UNL A   1      42.006  25.464  28.236  1.00  0.00     0.074 A 
ATOM     52  C   UNL A   1      40.729  25.386  27.577  1.00  0.00     0.031 C 
ATOM     53  C   UNL A   1      43.367  29.604  31.205  1.00  0.00     0.029 A 
ATOM     54  C   UNL A   1      42.327  30.095  32.094  1.00  0.00     0.049 A 
ATOM     55  H   UNL A   1      40.371  30.539  31.409  1.00  0.00     0.167 HD
ATOM     56  C   UNL A   1      43.272  25.032  27.993  1.00  0.00     0.031 A 
ATOM     57  C   UNL A   1      42.248  29.998  33.448  1.00  0.00     0.031 A 
ATOM     58  C   UNL A   1      44.192  25.505  29.039  1.00  0.00     0.049 A 
ATOM     59  C   UNL A   1      42.937  28.714  33.814  1.00  0.00     0.074 A 
ATOM     60  C   UNL A   1      45.203  26.450  29.066  1.00  0.00     0.029 A 
ATOM     61  N   UNL A   1      43.891  25.219  30.373  1.00  0.00    -0.354 N 
ATOM     62  N   UNL A   1      43.064  27.727  32.965  1.00  0.00    -0.248 NA
ATOM     63  C   UNL A   1      43.662  28.489  35.057  1.00  0.00     0.031 C 
ATOM     64  C   UNL A   1      45.444  26.788  30.434  1.00  0.00     0.029 A 
ATOM     65  C   UNL A   1      44.611  26.021  31.238  1.00  0.00     0.049 A 
ATOM     66  H   UNL A   1      43.247  24.533  30.661  1.00  0.00     0.167 HD
ATOM     67  C   UNL A   1      43.987  26.853  33.437  1.00  0.00     0.074 A 
ATOM     68  C   UNL A   1      44.280  27.326  34.781  1.00  0.00     0.031 C 
ATOM     69  C   UNL A   1      44.494  25.836  32.685  1.00  0.00     0.031 A 
BRANCH  56  70
ATOM     70  C   UNL A   1      43.730  24.352  26.722  1.00  0.00    -0.014 A 
ATOM     71  C   UNL A   1      45.042  24.574  26.264  1.00  0.00     0.009 A 
ATOM     72  C   UNL A   1      42.928  23.541  25.897  1.00  0.00     0.009 A 
ATOM     73  C   UNL A   1      45.516  24.029  25.060  1.00  0.00     0.001 A 
ATOM     74  C   UNL A   1      43.398  22.980  24.700  1.00  0.00     0.001 A 
ATOM     75  C   UNL A   1      44.695  23.228  24.279  1.00  0.00     0.000 A 
ENDBRANCH  56  70
BRANCH  57  76
ATOM     76  C   UNL A   1      40.972  30.581  33.982  1.00  0.00    -0.014 A 
ATOM     77  C   UNL A   1      40.807  31.985  33.911  1.00  0.00     0.009 A 
ATOM     78  C   UNL A   1      39.809  29.796  34.065  1.00  0.00     0.009 A 
ATOM     79  C   UNL A   1      39.532  32.568  33.810  1.00  0.00     0.001 A 
ATOM     80  C   UNL A   1      38.538  30.380  33.924  1.00  0.00     0.001 A 
ATOM     81  C   UNL A   1      38.400  31.758  33.764  1.00  0.00     0.000 A 
ENDBRANCH  57  76
BRANCH  69  82
ATOM     82  C   UNL A   1      44.950  24.544  33.296  1.00  0.00    -0.014 A 
ATOM     83  C   UNL A   1      46.238  24.352  33.814  1.00  0.00     0.009 A 
ATOM     84  C   UNL A   1      44.001  23.533  33.554  1.00  0.00     0.009 A 
ATOM     85  C   UNL A   1      46.579  23.184  34.497  1.00  0.00     0.001 A 
ATOM     86  C   UNL A   1      44.317  22.401  34.300  1.00  0.00     0.001 A 
ATOM     87  C   UNL A   1      45.616  22.217  34.754  1.00  0.00     0.000 A 
ENDBRANCH  69  82
ENDBRANCH  43  44
ENDBRANCH  36  38
ENDBRANCH  35  36
ENDBRANCH  34  35
ENDBRANCH  33  34
ENDBRANCH   1  33
TORSDOF 17
ENDMDL
MODEL 3
REMARK VINA RESULT:     -12.0      3.787      9.310
REMARK SMILES Cc1ccc(-c2cc(C(=O)OCCOCCOC(=O)c3ccc(-c4c5nc(c(-c6ccccc6)c6ccc([nH]6)c(-c6ccccc6)c6nc(c(-c7ccccc7)c7ccc4[nH]7)C=C6)C=C5)cc3)c3c(-c4cccc([N+](=O)[O-])c4)[nH]nc3n2)cc1
REMARK SMILES IDX 14 1 13 2 12 3 11 4 9 5 10 6 8 7 6 8 7 9 82 10 81 11 68 12
REMARK SMILES IDX 80 13 69 14 79 15 5 17 1 18 2 19 3 20 84 21 4 22 83 23 70 24
REMARK SMILES IDX 71 25 78 26 72 27 74 28 73 29 75 30 76 31 77 32 15 33 16 34
REMARK SMILES IDX 17 35 18 36 19 37 20 38 21 39 67 40 22 41 66 42 23 43 24 44
REMARK SMILES IDX 25 45 60 46 26 47 65 48 59 49 61 50 27 51 64 52 58 53 57 54
REMARK SMILES IDX 28 56 50 57 35 58 49 59 36 60 39 61 48 62 62 63 37 64 38 65
REMARK SMILES IDX 47 67 63 68 40 69 29 70 30 71 34 72 31 73 33 74 32 75 51 76
REMARK SMILES IDX 52 77 56 78 53 79 55 80 54 81 41 82 42 83 46 84 43 85 45 86
REMARK SMILES IDX 44 87
REMARK H PARENT 79 16 61 55 39 66
REMARK Flexibility Score: inf
ROOT
ATOM      1  O   UNL A   1      36.462  21.124  25.882  1.00  0.00    -0.374 OA
ENDROOT
BRANCH   1   2
ATOM      2  C   UNL A   1      35.218  21.743  25.643  1.00  0.00     0.202 C 
BRANCH   2   3
ATOM      3  C   UNL A   1      35.491  22.548  24.430  1.00  0.00     0.261 C 
BRANCH   3   4
ATOM      4  O   UNL A   1      34.963  23.885  24.585  1.00  0.00    -0.460 OA
BRANCH   4   5
ATOM      5  C   UNL A   1      34.055  24.504  23.768  1.00  0.00     0.339 C 
ATOM      6  O   UNL A   1      34.023  24.552  22.573  1.00  0.00    -0.246 OA
BRANCH   5   7
ATOM      7  C   UNL A   1      33.093  25.119  24.682  1.00  0.00     0.075 A 
ATOM      8  C   UNL A   1      32.559  27.093  26.066  1.00  0.00     0.074 A 
ATOM      9  C   UNL A   1      33.276  26.455  25.046  1.00  0.00     0.045 A 
ATOM     10  N   UNL A   1      31.563  26.518  26.793  1.00  0.00    -0.226 NA
ATOM     11  C   UNL A   1      31.275  25.240  26.393  1.00  0.00     0.182 A 
ATOM     12  C   UNL A   1      32.020  24.555  25.364  1.00  0.00     0.061 A 
ATOM     13  N   UNL A   1      30.319  24.452  26.887  1.00  0.00    -0.154 NA
ATOM     14  C   UNL A   1      31.451  23.295  25.250  1.00  0.00     0.076 A 
ATOM     15  N   UNL A   1      30.428  23.314  26.172  1.00  0.00    -0.275 N 
ATOM     16  H   UNL A   1      29.820  22.551  26.300  1.00  0.00     0.190 HD
BRANCH   8  17
ATOM     17  C   UNL A   1      33.033  28.459  26.368  1.00  0.00     0.000 A 
ATOM     18  C   UNL A   1      34.282  32.237  28.102  1.00  0.00     0.044 C 
ATOM     19  C   UNL A   1      33.849  30.925  27.514  1.00  0.00    -0.051 A 
ATOM     20  C   UNL A   1      32.558  30.766  26.992  1.00  0.00     0.004 A 
ATOM     21  C   UNL A   1      34.734  29.848  27.463  1.00  0.00     0.004 A 
ATOM     22  C   UNL A   1      32.152  29.547  26.427  1.00  0.00     0.010 A 
ATOM     23  C   UNL A   1      34.333  28.640  26.890  1.00  0.00     0.010 A 
ENDBRANCH   8  17
BRANCH  14  24
ATOM     24  C   UNL A   1      31.693  22.128  24.400  1.00  0.00     0.007 A 
ATOM     25  C   UNL A   1      31.661  22.245  23.001  1.00  0.00     0.011 A 
ATOM     26  C   UNL A   1      32.022  20.888  24.968  1.00  0.00     0.096 A 
ATOM     27  C   UNL A   1      31.983  21.157  22.180  1.00  0.00     0.008 A 
ATOM     28  C   UNL A   1      32.371  19.809  24.138  1.00  0.00     0.270 A 
ATOM     29  C   UNL A   1      32.352  19.937  22.744  1.00  0.00     0.085 A 
BRANCH  28  30
ATOM     30  N   UNL A   1      32.827  18.546  24.734  1.00  0.00     0.062 N 
ATOM     31  O   UNL A   1      32.476  18.298  25.899  1.00  0.00    -0.258 OA
ATOM     32  O   UNL A   1      33.523  17.793  24.040  1.00  0.00    -0.258 OA
ENDBRANCH  28  30
ENDBRANCH  14  24
ENDBRANCH   5   7
ENDBRANCH   4   5
ENDBRANCH   3   4
ENDBRANCH   2   3
ENDBRANCH   1   2
BRANCH   1  33
ATOM     33  C   UNL A   1      36.793  20.081  25.008  1.00  0.00     0.202 C 
BRANCH  33  34
ATOM     34  C   UNL A   1      38.309  19.949  24.961  1.00  0.00     0.261 C 
BRANCH  34  35
ATOM     35  O   UNL A   1      38.920  21.218  25.319  1.00  0.00    -0.460 OA
BRANCH  35  36
ATOM     36  C   UNL A   1      40.013  21.171  26.143  1.00  0.00     0.338 C 
ATOM     37  O   UNL A   1      40.755  20.209  26.269  1.00  0.00    -0.246 OA
BRANCH  36  38
ATOM     38  C   UNL A   1      40.004  22.336  27.095  1.00  0.00     0.060 A 
ATOM     39  C   UNL A   1      39.171  23.454  26.871  1.00  0.00     0.016 A 
ATOM     40  C   UNL A   1      41.074  22.459  27.964  1.00  0.00     0.016 A 
ATOM     41  C   UNL A   1      39.536  24.732  27.353  1.00  0.00     0.010 A 
ATOM     42  C   UNL A   1      41.480  23.725  28.333  1.00  0.00     0.010 A 
ATOM     43  C   UNL A   1      40.759  24.883  27.998  1.00  0.00    -0.014 A 
BRANCH  43  44
ATOM     44  C   UNL A   1      41.464  26.135  28.341  1.00  0.00     0.031 A 
ATOM     45  C   UNL A   1      40.634  27.271  28.803  1.00  0.00     0.074 A 
ATOM     46  C   UNL A   1      42.805  26.175  28.571  1.00  0.00     0.049 A 
ATOM     47  N   UNL A   1      41.108  28.436  29.066  1.00  0.00    -0.248 NA
ATOM     48  C   UNL A   1      39.180  27.216  28.980  1.00  0.00     0.031 C 
ATOM     49  C   UNL A   1      43.574  27.043  29.476  1.00  0.00     0.029 A 
ATOM     50  N   UNL A   1      43.804  25.356  28.054  1.00  0.00    -0.354 N 
ATOM     51  C   UNL A   1      40.151  29.135  29.754  1.00  0.00     0.074 A 
ATOM     52  C   UNL A   1      38.932  28.395  29.558  1.00  0.00     0.031 C 
ATOM     53  C   UNL A   1      44.895  26.890  29.252  1.00  0.00     0.029 A 
ATOM     54  C   UNL A   1      45.042  26.004  28.109  1.00  0.00     0.049 A 
ATOM     55  H   UNL A   1      43.660  24.449  27.700  1.00  0.00     0.167 HD
ATOM     56  C   UNL A   1      40.560  30.178  30.524  1.00  0.00     0.031 A 
ATOM     57  C   UNL A   1      45.752  26.197  26.966  1.00  0.00     0.031 A 
ATOM     58  C   UNL A   1      41.994  30.440  30.325  1.00  0.00     0.049 A 
ATOM     59  C   UNL A   1      45.732  27.678  26.710  1.00  0.00     0.074 A 
ATOM     60  C   UNL A   1      43.118  30.249  31.110  1.00  0.00     0.029 A 
ATOM     61  N   UNL A   1      42.459  30.659  29.027  1.00  0.00    -0.354 N 
ATOM     62  N   UNL A   1      44.794  28.453  27.188  1.00  0.00    -0.248 NA
ATOM     63  C   UNL A   1      46.804  28.420  26.060  1.00  0.00     0.031 C 
ATOM     64  C   UNL A   1      44.258  30.273  30.247  1.00  0.00     0.029 A 
ATOM     65  C   UNL A   1      43.832  30.518  28.949  1.00  0.00     0.049 A 
ATOM     66  H   UNL A   1      41.882  30.885  28.262  1.00  0.00     0.167 HD
ATOM     67  C   UNL A   1      45.191  29.746  27.085  1.00  0.00     0.074 A 
ATOM     68  C   UNL A   1      46.419  29.686  26.306  1.00  0.00     0.031 C 
ATOM     69  C   UNL A   1      44.529  30.773  27.688  1.00  0.00     0.031 A 
BRANCH  56  70
ATOM     70  C   UNL A   1      39.732  30.842  31.602  1.00  0.00    -0.014 A 
ATOM     71  C   UNL A   1      38.810  31.841  31.236  1.00  0.00     0.009 A 
ATOM     72  C   UNL A   1      39.839  30.592  32.983  1.00  0.00     0.009 A 
ATOM     73  C   UNL A   1      38.054  32.546  32.186  1.00  0.00     0.001 A 
ATOM     74  C   UNL A   1      39.076  31.280  33.939  1.00  0.00     0.001 A 
ATOM     75  C   UNL A   1      38.184  32.262  33.539  1.00  0.00     0.000 A 
ENDBRANCH  56  70
BRANCH  57  76
ATOM     76  C   UNL A   1      45.588  25.061  25.999  1.00  0.00    -0.014 A 
ATOM     77  C   UNL A   1      46.201  23.826  26.324  1.00  0.00     0.009 A 
ATOM     78  C   UNL A   1      44.499  25.030  25.112  1.00  0.00     0.009 A 
ATOM     79  C   UNL A   1      45.671  22.606  25.870  1.00  0.00     0.001 A 
ATOM     80  C   UNL A   1      43.949  23.806  24.694  1.00  0.00     0.001 A 
ATOM     81  C   UNL A   1      44.513  22.596  25.097  1.00  0.00     0.000 A 
ENDBRANCH  57  76
BRANCH  69  82
ATOM     82  C   UNL A   1      44.508  32.156  27.107  1.00  0.00    -0.014 A 
ATOM     83  C   UNL A   1      44.045  32.438  25.814  1.00  0.00     0.009 A 
ATOM     84  C   UNL A   1      44.769  33.259  27.946  1.00  0.00     0.009 A 
ATOM     85  C   UNL A   1      43.912  33.751  25.361  1.00  0.00     0.001 A 
ATOM     86  C   UNL A   1      44.566  34.569  27.523  1.00  0.00     0.001 A 
ATOM     87  C   UNL A   1      44.157  34.815  26.219  1.00  0.00     0.000 A 
ENDBRANCH  69  82
ENDBRANCH  43  44
ENDBRANCH  36  38
ENDBRANCH  35  36
ENDBRANCH  34  35
ENDBRANCH  33  34
ENDBRANCH   1  33
TORSDOF 17
ENDMDL
