MODEL 1
REMARK VINA RESULT:     -10.1      0.000      0.000
REMARK SMILES CC(C)C[C@H](CNC(=O)Nc1ccccc1Br)C(=O)OCCOCCOC(=O)c1ccc(-c2c3nc(c(-c4ccccc4)c4ccc([nH]4)c(-c4ccccc4)c4nc(c(-c5ccccc5)c5ccc2[nH]5)C=C4)C=C3)cc1
REMARK SMILES IDX 22 1 21 2 20 3 18 4 19 5 5 6 4 7 2 8 1 9 3 10 6 11 7 12 8 13
REMARK SMILES IDX 9 15 10 16 11 18 12 19 16 20 13 21 15 22 17 23 14 24 23 25
REMARK SMILES IDX 24 26 25 27 26 28 27 29 28 30 29 31 30 32 76 33 31 34 75 35
REMARK SMILES IDX 32 36 33 37 34 38 69 39 35 40 74 41 68 42 70 43 36 44 73 45
REMARK SMILES IDX 67 46 66 47 37 49 59 50 44 51 58 52 45 53 48 54 57 55 71 56
REMARK SMILES IDX 46 57 47 58 56 60 72 61 49 62 38 63 39 64 43 65 40 66 42 67
REMARK SMILES IDX 41 68 60 69 61 70 65 71 62 72 64 73 63 74 50 75 51 76 55 77
REMARK SMILES IDX 52 78 54 79 53 80
REMARK H PARENT 7 14 10 17 70 48 48 59
REMARK Flexibility Score: inf
ROOT
ATOM      1  C   UNL A   1      37.045  21.777  24.778  1.00  0.00     0.202 C 
ENDROOT
BRANCH   1   2
ATOM      2  C   UNL A   1      35.539  21.554  24.942  1.00  0.00     0.261 C 
BRANCH   2   3
ATOM      3  O   UNL A   1      34.765  22.237  23.942  1.00  0.00    -0.463 OA
BRANCH   3   4
ATOM      4  C   UNL A   1      33.446  21.905  23.889  1.00  0.00     0.310 C 
ATOM      5  O   UNL A   1      33.010  20.772  24.044  1.00  0.00    -0.252 OA
BRANCH   4   6
ATOM      6  C   UNL A   1      32.563  23.105  23.584  1.00  0.00     0.119 C 
BRANCH   6   7
ATOM      7  C   UNL A   1      33.133  23.912  22.406  1.00  0.00     0.020 C 
BRANCH   7   8
ATOM      8  C   UNL A   1      32.672  25.385  22.318  1.00  0.00    -0.017 C 
ATOM      9  C   UNL A   1      33.724  26.389  22.800  1.00  0.00     0.007 C 
ATOM     10  C   UNL A   1      32.275  25.720  20.879  1.00  0.00     0.007 C 
ENDBRANCH   7   8
ENDBRANCH   6   7
BRANCH   6  11
ATOM     11  C   UNL A   1      32.342  23.932  24.866  1.00  0.00     0.133 C 
BRANCH  11  12
ATOM     12  N   UNL A   1      31.312  23.446  25.773  1.00  0.00    -0.337 N 
ATOM     13  C   UNL A   1      30.407  24.042  26.571  1.00  0.00     0.319 C 
ATOM     14  H   UNL A   1      31.268  22.463  25.812  1.00  0.00     0.165 HD
ATOM     15  O   UNL A   1      29.857  23.350  27.430  1.00  0.00    -0.249 OA
ATOM     16  N   UNL A   1      30.192  25.369  26.562  1.00  0.00    -0.307 N 
ATOM     17  H   UNL A   1      29.904  25.732  27.431  1.00  0.00     0.171 HD
BRANCH  16  18
ATOM     18  C   UNL A   1      30.301  26.336  25.553  1.00  0.00     0.057 A 
ATOM     19  C   UNL A   1      29.456  26.151  24.451  1.00  0.00     0.027 A 
ATOM     20  C   UNL A   1      31.212  27.404  25.540  1.00  0.00     0.041 A 
ATOM     21  C   UNL A   1      29.422  27.083  23.416  1.00  0.00     0.002 A 
ATOM     22  C   UNL A   1      31.181  28.333  24.492  1.00  0.00     0.018 A 
ATOM     23  Br  UNL A   1      32.617  27.600  26.808  1.00  0.00    -0.049 Br
ATOM     24  C   UNL A   1      30.271  28.185  23.445  1.00  0.00     0.001 A 
ENDBRANCH  16  18
ENDBRANCH  11  12
ENDBRANCH   6  11
ENDBRANCH   4   6
ENDBRANCH   3   4
ENDBRANCH   2   3
ENDBRANCH   1   2
BRANCH   1  25
ATOM     25  O   UNL A   1      37.811  20.675  24.303  1.00  0.00    -0.374 OA
BRANCH  25  26
ATOM     26  C   UNL A   1      38.204  19.678  25.246  1.00  0.00     0.202 C 
BRANCH  26  27
ATOM     27  C   UNL A   1      39.541  19.902  25.957  1.00  0.00     0.261 C 
BRANCH  27  28
ATOM     28  O   UNL A   1      40.515  18.915  25.571  1.00  0.00    -0.460 OA
BRANCH  28  29
ATOM     29  C   UNL A   1      41.773  19.166  25.997  1.00  0.00     0.338 C 
ATOM     30  O   UNL A   1      42.754  18.441  25.886  1.00  0.00    -0.246 OA
BRANCH  29  31
ATOM     31  C   UNL A   1      41.876  20.555  26.474  1.00  0.00     0.060 A 
ATOM     32  C   UNL A   1      42.090  21.553  25.515  1.00  0.00     0.016 A 
ATOM     33  C   UNL A   1      41.850  20.865  27.835  1.00  0.00     0.016 A 
ATOM     34  C   UNL A   1      42.337  22.863  25.917  1.00  0.00     0.010 A 
ATOM     35  C   UNL A   1      42.110  22.178  28.236  1.00  0.00     0.010 A 
ATOM     36  C   UNL A   1      42.395  23.171  27.281  1.00  0.00    -0.014 A 
BRANCH  36  37
ATOM     37  C   UNL A   1      42.918  24.488  27.713  1.00  0.00     0.031 A 
ATOM     38  C   UNL A   1      41.941  25.564  28.093  1.00  0.00     0.074 A 
ATOM     39  C   UNL A   1      44.240  24.718  27.770  1.00  0.00     0.049 A 
ATOM     40  N   UNL A   1      42.168  26.804  28.439  1.00  0.00    -0.248 NA
ATOM     41  C   UNL A   1      40.518  25.190  28.080  1.00  0.00     0.031 C 
ATOM     42  C   UNL A   1      45.284  23.741  27.467  1.00  0.00     0.029 A 
ATOM     43  N   UNL A   1      44.927  25.862  28.091  1.00  0.00    -0.354 N 
ATOM     44  C   UNL A   1      40.917  27.365  28.666  1.00  0.00     0.074 A 
ATOM     45  C   UNL A   1      39.935  26.335  28.401  1.00  0.00     0.031 C 
ATOM     46  C   UNL A   1      46.484  24.336  27.594  1.00  0.00     0.029 A 
ATOM     47  C   UNL A   1      46.287  25.738  27.954  1.00  0.00     0.049 A 
ATOM     48  H   UNL A   1      44.487  26.690  28.389  1.00  0.00     0.167 HD
ATOM     49  C   UNL A   1      40.613  28.624  29.060  1.00  0.00     0.031 A 
ATOM     50  C   UNL A   1      47.259  26.663  28.074  1.00  0.00     0.031 A 
ATOM     51  C   UNL A   1      41.591  29.649  29.309  1.00  0.00     0.049 A 
ATOM     52  C   UNL A   1      46.895  28.075  28.443  1.00  0.00     0.074 A 
ATOM     53  C   UNL A   1      41.387  30.948  29.739  1.00  0.00     0.029 A 
ATOM     54  N   UNL A   1      42.957  29.490  29.137  1.00  0.00    -0.354 N 
ATOM     55  N   UNL A   1      45.713  28.585  28.690  1.00  0.00    -0.248 NA
ATOM     56  C   UNL A   1      48.001  29.038  28.554  1.00  0.00     0.031 C 
ATOM     57  C   UNL A   1      42.628  31.593  29.772  1.00  0.00     0.029 A 
ATOM     58  C   UNL A   1      43.608  30.679  29.420  1.00  0.00     0.049 A 
ATOM     59  H   UNL A   1      43.399  28.657  28.857  1.00  0.00     0.167 HD
ATOM     60  C   UNL A   1      45.933  29.919  29.008  1.00  0.00     0.074 A 
ATOM     61  C   UNL A   1      47.363  30.138  28.933  1.00  0.00     0.031 C 
ATOM     62  C   UNL A   1      45.032  30.878  29.337  1.00  0.00     0.031 A 
BRANCH  49  63
ATOM     63  C   UNL A   1      39.157  28.971  29.195  1.00  0.00    -0.014 A 
ATOM     64  C   UNL A   1      38.475  28.808  30.410  1.00  0.00     0.009 A 
ATOM     65  C   UNL A   1      38.463  29.484  28.089  1.00  0.00     0.009 A 
ATOM     66  C   UNL A   1      37.115  29.115  30.504  1.00  0.00     0.001 A 
ATOM     67  C   UNL A   1      37.112  29.817  28.192  1.00  0.00     0.001 A 
ATOM     68  C   UNL A   1      36.437  29.622  29.395  1.00  0.00     0.000 A 
ENDBRANCH  49  63
BRANCH  50  69
ATOM     69  C   UNL A   1      48.671  26.285  27.806  1.00  0.00    -0.014 A 
ATOM     70  C   UNL A   1      49.209  26.384  26.514  1.00  0.00     0.009 A 
ATOM     71  C   UNL A   1      49.491  25.827  28.850  1.00  0.00     0.009 A 
ATOM     72  C   UNL A   1      50.534  26.015  26.271  1.00  0.00     0.001 A 
ATOM     73  C   UNL A   1      50.823  25.485  28.610  1.00  0.00     0.001 A 
ATOM     74  C   UNL A   1      51.342  25.573  27.320  1.00  0.00     0.000 A 
ENDBRANCH  50  69
BRANCH  62  75
ATOM     75  C   UNL A   1      45.563  32.242  29.673  1.00  0.00    -0.014 A 
ATOM     76  C   UNL A   1      45.679  33.240  28.692  1.00  0.00     0.009 A 
ATOM     77  C   UNL A   1      45.889  32.552  31.003  1.00  0.00     0.009 A 
ATOM     78  C   UNL A   1      46.133  34.515  29.035  1.00  0.00     0.001 A 
ATOM     79  C   UNL A   1      46.317  33.835  31.346  1.00  0.00     0.001 A 
ATOM     80  C   UNL A   1      46.446  34.813  30.362  1.00  0.00     0.000 A 
ENDBRANCH  62  75
ENDBRANCH  36  37
ENDBRANCH  29  31
ENDBRANCH  28  29
ENDBRANCH  27  28
ENDBRANCH  26  27
ENDBRANCH  25  26
ENDBRANCH   1  25
TORSDOF 19
ENDMDL
MODEL 2
REMARK VINA RESULT:      -9.9      5.216      9.558
REMARK SMILES CC(C)C[C@H](CNC(=O)Nc1ccccc1Br)C(=O)OCCOCCOC(=O)c1ccc(-c2c3nc(c(-c4ccccc4)c4ccc([nH]4)c(-c4ccccc4)c4nc(c(-c5ccccc5)c5ccc2[nH]5)C=C4)C=C3)cc1
REMARK SMILES IDX 22 1 21 2 20 3 18 4 19 5 5 6 4 7 2 8 1 9 3 10 6 11 7 12 8 13
REMARK SMILES IDX 9 15 10 16 11 18 12 19 16 20 13 21 15 22 17 23 14 24 23 25
REMARK SMILES IDX 24 26 25 27 26 28 27 29 28 30 29 31 30 32 76 33 31 34 75 35
REMARK SMILES IDX 32 36 33 37 34 38 69 39 35 40 74 41 68 42 70 43 36 44 73 45
REMARK SMILES IDX 67 46 66 47 37 49 59 50 44 51 58 52 45 53 48 54 57 55 71 56
REMARK SMILES IDX 46 57 47 58 56 60 72 61 49 62 38 63 39 64 43 65 40 66 42 67
REMARK SMILES IDX 41 68 60 69 61 70 65 71 62 72 64 73 63 74 50 75 51 76 55 77
REMARK SMILES IDX 52 78 54 79 53 80
REMARK H PARENT 7 14 10 17 70 48 48 59
REMARK Flexibility Score: inf
ROOT
ATOM      1  C   UNL A   1      31.759  30.207  25.675  1.00  0.00     0.202 C 
ENDROOT
BRANCH   1   2
ATOM      2  C   UNL A   1      32.723  29.661  26.731  1.00  0.00     0.261 C 
BRANCH   2   3
ATOM      3  O   UNL A   1      32.935  28.244  26.609  1.00  0.00    -0.463 OA
BRANCH   3   4
ATOM      4  C   UNL A   1      31.818  27.471  26.690  1.00  0.00     0.310 C 
ATOM      5  O   UNL A   1      31.028  27.491  27.626  1.00  0.00    -0.252 OA
BRANCH   4   6
ATOM      6  C   UNL A   1      31.669  26.547  25.492  1.00  0.00     0.119 C 
BRANCH   6   7
ATOM      7  C   UNL A   1      30.275  26.699  24.862  1.00  0.00     0.020 C 
BRANCH   7   8
ATOM      8  C   UNL A   1      30.254  27.065  23.360  1.00  0.00    -0.017 C 
ATOM      9  C   UNL A   1      29.777  28.493  23.082  1.00  0.00     0.007 C 
ATOM     10  C   UNL A   1      31.648  26.870  22.759  1.00  0.00     0.007 C 
ENDBRANCH   7   8
ENDBRANCH   6   7
BRANCH   6  11
ATOM     11  C   UNL A   1      32.023  25.103  25.897  1.00  0.00     0.133 C 
BRANCH  11  12
ATOM     12  N   UNL A   1      31.086  24.440  26.793  1.00  0.00    -0.337 N 
ATOM     13  C   UNL A   1      30.698  23.163  26.966  1.00  0.00     0.319 C 
ATOM     14  H   UNL A   1      30.636  25.063  27.407  1.00  0.00     0.165 HD
ATOM     15  O   UNL A   1      29.675  22.960  27.624  1.00  0.00    -0.249 OA
ATOM     16  N   UNL A   1      31.290  22.131  26.340  1.00  0.00    -0.307 N 
ATOM     17  H   UNL A   1      30.686  21.373  26.162  1.00  0.00     0.171 HD
BRANCH  16  18
ATOM     18  C   UNL A   1      32.601  21.927  25.890  1.00  0.00     0.057 A 
ATOM     19  C   UNL A   1      33.558  21.737  26.895  1.00  0.00     0.027 A 
ATOM     20  C   UNL A   1      33.021  21.964  24.550  1.00  0.00     0.041 A 
ATOM     21  C   UNL A   1      34.885  21.456  26.572  1.00  0.00     0.002 A 
ATOM     22  C   UNL A   1      34.357  21.691  24.230  1.00  0.00     0.018 A 
ATOM     23  Br  UNL A   1      31.899  22.514  23.115  1.00  0.00    -0.049 Br
ATOM     24  C   UNL A   1      35.281  21.414  25.239  1.00  0.00     0.001 A 
ENDBRANCH  16  18
ENDBRANCH  11  12
ENDBRANCH   6  11
ENDBRANCH   4   6
ENDBRANCH   3   4
ENDBRANCH   2   3
ENDBRANCH   1   2
BRANCH   1  25
ATOM     25  O   UNL A   1      31.403  31.583  25.779  1.00  0.00    -0.374 OA
BRANCH  25  26
ATOM     26  C   UNL A   1      31.429  32.185  27.072  1.00  0.00     0.202 C 
BRANCH  26  27
ATOM     27  C   UNL A   1      32.349  33.396  27.241  1.00  0.00     0.261 C 
BRANCH  27  28
ATOM     28  O   UNL A   1      32.154  34.032  28.518  1.00  0.00    -0.460 OA
BRANCH  28  29
ATOM     29  C   UNL A   1      32.980  35.073  28.764  1.00  0.00     0.338 C 
ATOM     30  O   UNL A   1      32.774  36.257  28.532  1.00  0.00    -0.246 OA
BRANCH  29  31
ATOM     31  C   UNL A   1      34.142  34.619  29.546  1.00  0.00     0.060 A 
ATOM     32  C   UNL A   1      35.371  34.522  28.881  1.00  0.00     0.016 A 
ATOM     33  C   UNL A   1      34.017  34.218  30.878  1.00  0.00     0.016 A 
ATOM     34  C   UNL A   1      36.471  33.966  29.528  1.00  0.00     0.010 A 
ATOM     35  C   UNL A   1      35.119  33.649  31.521  1.00  0.00     0.010 A 
ATOM     36  C   UNL A   1      36.336  33.484  30.835  1.00  0.00    -0.014 A 
BRANCH  36  37
ATOM     37  C   UNL A   1      37.414  32.657  31.425  1.00  0.00     0.031 A 
ATOM     38  C   UNL A   1      37.959  33.035  32.773  1.00  0.00     0.074 A 
ATOM     39  C   UNL A   1      37.894  31.585  30.774  1.00  0.00     0.049 A 
ATOM     40  N   UNL A   1      38.940  32.498  33.450  1.00  0.00    -0.248 NA
ATOM     41  C   UNL A   1      37.313  34.174  33.445  1.00  0.00     0.031 C 
ATOM     42  C   UNL A   1      37.417  31.094  29.483  1.00  0.00     0.029 A 
ATOM     43  N   UNL A   1      38.908  30.724  31.112  1.00  0.00    -0.354 N 
ATOM     44  C   UNL A   1      39.041  33.243  34.620  1.00  0.00     0.074 A 
ATOM     45  C   UNL A   1      38.034  34.281  34.550  1.00  0.00     0.031 C 
ATOM     46  C   UNL A   1      38.155  30.028  29.124  1.00  0.00     0.029 A 
ATOM     47  C   UNL A   1      39.173  29.787  30.145  1.00  0.00     0.049 A 
ATOM     48  H   UNL A   1      39.397  30.773  31.965  1.00  0.00     0.167 HD
ATOM     49  C   UNL A   1      39.895  33.078  35.657  1.00  0.00     0.031 A 
ATOM     50  C   UNL A   1      40.149  28.861  30.077  1.00  0.00     0.031 A 
ATOM     51  C   UNL A   1      40.902  32.054  35.717  1.00  0.00     0.049 A 
ATOM     52  C   UNL A   1      41.133  28.740  31.209  1.00  0.00     0.074 A 
ATOM     53  C   UNL A   1      41.798  31.785  36.736  1.00  0.00     0.029 A 
ATOM     54  N   UNL A   1      41.154  31.139  34.706  1.00  0.00    -0.354 N 
ATOM     55  N   UNL A   1      41.197  29.425  32.324  1.00  0.00    -0.248 NA
ATOM     56  C   UNL A   1      42.177  27.714  31.073  1.00  0.00     0.031 C 
ATOM     57  C   UNL A   1      42.631  30.743  36.317  1.00  0.00     0.029 A 
ATOM     58  C   UNL A   1      42.215  30.325  35.063  1.00  0.00     0.049 A 
ATOM     59  H   UNL A   1      40.653  31.077  33.862  1.00  0.00     0.167 HD
ATOM     60  C   UNL A   1      42.269  28.900  33.034  1.00  0.00     0.074 A 
ATOM     61  C   UNL A   1      42.822  27.831  32.226  1.00  0.00     0.031 C 
ATOM     62  C   UNL A   1      42.752  29.267  34.246  1.00  0.00     0.031 A 
BRANCH  49  63
ATOM     63  C   UNL A   1      39.802  34.063  36.789  1.00  0.00    -0.014 A 
ATOM     64  C   UNL A   1      40.474  35.294  36.746  1.00  0.00     0.009 A 
ATOM     65  C   UNL A   1      39.015  33.756  37.909  1.00  0.00     0.009 A 
ATOM     66  C   UNL A   1      40.391  36.182  37.822  1.00  0.00     0.001 A 
ATOM     67  C   UNL A   1      38.911  34.657  38.971  1.00  0.00     0.001 A 
ATOM     68  C   UNL A   1      39.607  35.863  38.931  1.00  0.00     0.000 A 
ENDBRANCH  49  63
BRANCH  50  69
ATOM     69  C   UNL A   1      40.262  27.998  28.873  1.00  0.00    -0.014 A 
ATOM     70  C   UNL A   1      39.648  26.738  28.831  1.00  0.00     0.009 A 
ATOM     71  C   UNL A   1      40.983  28.441  27.752  1.00  0.00     0.009 A 
ATOM     72  C   UNL A   1      39.769  25.931  27.696  1.00  0.00     0.001 A 
ATOM     73  C   UNL A   1      41.080  27.644  26.609  1.00  0.00     0.001 A 
ATOM     74  C   UNL A   1      40.478  26.387  26.585  1.00  0.00     0.000 A 
ENDBRANCH  50  69
BRANCH  62  75
ATOM     75  C   UNL A   1      43.915  28.490  34.794  1.00  0.00    -0.014 A 
ATOM     76  C   UNL A   1      45.230  28.965  34.672  1.00  0.00     0.009 A 
ATOM     77  C   UNL A   1      43.683  27.297  35.497  1.00  0.00     0.009 A 
ATOM     78  C   UNL A   1      46.292  28.248  35.227  1.00  0.00     0.001 A 
ATOM     79  C   UNL A   1      44.744  26.597  36.073  1.00  0.00     0.001 A 
ATOM     80  C   UNL A   1      46.048  27.069  35.932  1.00  0.00     0.000 A 
ENDBRANCH  62  75
ENDBRANCH  36  37
ENDBRANCH  29  31
ENDBRANCH  28  29
ENDBRANCH  27  28
ENDBRANCH  26  27
ENDBRANCH  25  26
ENDBRANCH   1  25
TORSDOF 19
ENDMDL
MODEL 3
REMARK VINA RESULT:      -9.7      4.184      7.901
REMARK SMILES CC(C)C[C@H](CNC(=O)Nc1ccccc1Br)C(=O)OCCOCCOC(=O)c1ccc(-c2c3nc(c(-c4ccccc4)c4ccc([nH]4)c(-c4ccccc4)c4nc(c(-c5ccccc5)c5ccc2[nH]5)C=C4)C=C3)cc1
REMARK SMILES IDX 22 1 21 2 20 3 18 4 19 5 5 6 4 7 2 8 1 9 3 10 6 11 7 12 8 13
REMARK SMILES IDX 9 15 10 16 11 18 12 19 16 20 13 21 15 22 17 23 14 24 23 25
REMARK SMILES IDX 24 26 25 27 26 28 27 29 28 30 29 31 30 32 76 33 31 34 75 35
REMARK SMILES IDX 32 36 33 37 34 38 69 39 35 40 74 41 68 42 70 43 36 44 73 45
REMARK SMILES IDX 67 46 66 47 37 49 59 50 44 51 58 52 45 53 48 54 57 55 71 56
REMARK SMILES IDX 46 57 47 58 56 60 72 61 49 62 38 63 39 64 43 65 40 66 42 67
REMARK SMILES IDX 41 68 60 69 61 70 65 71 62 72 64 73 63 74 50 75 51 76 55 77
REMARK SMILES IDX 52 78 54 79 53 80
REMARK H PARENT 7 14 10 17 70 48 48 59
REMARK Flexibility Score: inf
ROOT
ATOM      1  C   UNL A   1      38.608  22.766  25.797  1.00  0.00     0.202 C 
ENDROOT
BRANCH   1   2
ATOM      2  C   UNL A   1      37.119  23.120  25.777  1.00  0.00     0.261 C 
BRANCH   2   3
ATOM      3  O   UNL A   1      36.312  22.090  25.182  1.00  0.00    -0.463 OA
BRANCH   3   4
ATOM      4  C   UNL A   1      35.176  22.514  24.565  1.00  0.00     0.310 C 
ATOM      5  O   UNL A   1      35.153  23.198  23.549  1.00  0.00    -0.252 OA
BRANCH   4   6
ATOM      6  C   UNL A   1      33.920  22.065  25.297  1.00  0.00     0.119 C 
BRANCH   6   7
ATOM      7  C   UNL A   1      32.844  21.610  24.298  1.00  0.00     0.020 C 
BRANCH   7   8
ATOM      8  C   UNL A   1      32.350  20.155  24.462  1.00  0.00    -0.017 C 
ATOM      9  C   UNL A   1      32.454  19.322  23.181  1.00  0.00     0.007 C 
ATOM     10  C   UNL A   1      33.133  19.464  25.581  1.00  0.00     0.007 C 
ENDBRANCH   7   8
ENDBRANCH   6   7
BRANCH   6  11
ATOM     11  C   UNL A   1      33.455  23.171  26.265  1.00  0.00     0.133 C 
BRANCH  11  12
ATOM     12  N   UNL A   1      32.052  23.137  26.651  1.00  0.00    -0.337 N 
ATOM     13  C   UNL A   1      31.012  23.976  26.486  1.00  0.00     0.319 C 
ATOM     14  H   UNL A   1      31.809  22.318  27.141  1.00  0.00     0.165 HD
ATOM     15  O   UNL A   1      30.008  23.785  27.175  1.00  0.00    -0.249 OA
ATOM     16  N   UNL A   1      31.082  25.079  25.721  1.00  0.00    -0.307 N 
ATOM     17  H   UNL A   1      30.500  25.813  26.025  1.00  0.00     0.171 HD
BRANCH  16  18
ATOM     18  C   UNL A   1      31.826  25.385  24.573  1.00  0.00     0.057 A 
ATOM     19  C   UNL A   1      31.479  24.664  23.423  1.00  0.00     0.027 A 
ATOM     20  C   UNL A   1      32.900  26.287  24.512  1.00  0.00     0.041 A 
ATOM     21  C   UNL A   1      32.100  24.928  22.203  1.00  0.00     0.002 A 
ATOM     22  C   UNL A   1      33.528  26.542  23.285  1.00  0.00     0.018 A 
ATOM     23  Br  UNL A   1      33.676  27.100  26.048  1.00  0.00    -0.049 Br
ATOM     24  C   UNL A   1      33.111  25.881  22.130  1.00  0.00     0.001 A 
ENDBRANCH  16  18
ENDBRANCH  11  12
ENDBRANCH   6  11
ENDBRANCH   4   6
ENDBRANCH   3   4
ENDBRANCH   2   3
ENDBRANCH   1   2
BRANCH   1  25
ATOM     25  O   UNL A   1      38.947  21.425  26.136  1.00  0.00    -0.374 OA
BRANCH  25  26
ATOM     26  C   UNL A   1      40.250  21.177  26.662  1.00  0.00     0.202 C 
BRANCH  26  27
ATOM     27  C   UNL A   1      41.402  21.954  26.021  1.00  0.00     0.261 C 
BRANCH  27  28
ATOM     28  O   UNL A   1      41.869  23.009  26.881  1.00  0.00    -0.460 OA
BRANCH  28  29
ATOM     29  C   UNL A   1      42.180  24.161  26.246  1.00  0.00     0.338 C 
ATOM     30  O   UNL A   1      42.664  24.287  25.128  1.00  0.00    -0.246 OA
BRANCH  29  31
ATOM     31  C   UNL A   1      41.682  25.312  27.017  1.00  0.00     0.060 A 
ATOM     32  C   UNL A   1      42.355  26.531  26.867  1.00  0.00     0.016 A 
ATOM     33  C   UNL A   1      40.634  25.183  27.931  1.00  0.00     0.016 A 
ATOM     34  C   UNL A   1      42.022  27.616  27.673  1.00  0.00     0.010 A 
ATOM     35  C   UNL A   1      40.309  26.269  28.747  1.00  0.00     0.010 A 
ATOM     36  C   UNL A   1      41.028  27.474  28.649  1.00  0.00    -0.014 A 
BRANCH  36  37
ATOM     37  C   UNL A   1      40.858  28.526  29.678  1.00  0.00     0.031 A 
ATOM     38  C   UNL A   1      41.778  28.528  30.867  1.00  0.00     0.074 A 
ATOM     39  C   UNL A   1      39.907  29.465  29.553  1.00  0.00     0.049 A 
ATOM     40  N   UNL A   1      41.773  29.309  31.916  1.00  0.00    -0.248 NA
ATOM     41  C   UNL A   1      42.842  27.512  30.874  1.00  0.00     0.031 C 
ATOM     42  C   UNL A   1      38.985  29.591  28.426  1.00  0.00     0.029 A 
ATOM     43  N   UNL A   1      39.551  30.485  30.399  1.00  0.00    -0.354 N 
ATOM     44  C   UNL A   1      42.820  28.869  32.716  1.00  0.00     0.074 A 
ATOM     45  C   UNL A   1      43.425  27.740  32.041  1.00  0.00     0.031 C 
ATOM     46  C   UNL A   1      38.150  30.619  28.661  1.00  0.00     0.029 A 
ATOM     47  C   UNL A   1      38.460  31.197  29.967  1.00  0.00     0.049 A 
ATOM     48  H   UNL A   1      40.031  30.685  31.235  1.00  0.00     0.167 HD
ATOM     49  C   UNL A   1      43.240  29.358  33.906  1.00  0.00     0.031 A 
ATOM     50  C   UNL A   1      37.771  32.182  30.575  1.00  0.00     0.031 A 
ATOM     51  C   UNL A   1      42.628  30.471  34.581  1.00  0.00     0.049 A 
ATOM     52  C   UNL A   1      38.210  32.665  31.930  1.00  0.00     0.074 A 
ATOM     53  C   UNL A   1      42.996  31.062  35.777  1.00  0.00     0.029 A 
ATOM     54  N   UNL A   1      41.511  31.151  34.121  1.00  0.00    -0.354 N 
ATOM     55  N   UNL A   1      39.222  32.266  32.660  1.00  0.00    -0.248 NA
ATOM     56  C   UNL A   1      37.414  33.739  32.541  1.00  0.00     0.031 C 
ATOM     57  C   UNL A   1      42.065  32.064  36.069  1.00  0.00     0.029 A 
ATOM     58  C   UNL A   1      41.154  32.135  35.027  1.00  0.00     0.049 A 
ATOM     59  H   UNL A   1      41.042  30.963  33.277  1.00  0.00     0.167 HD
ATOM     60  C   UNL A   1      39.200  33.052  33.805  1.00  0.00     0.074 A 
ATOM     61  C   UNL A   1      38.079  33.961  33.667  1.00  0.00     0.031 C 
ATOM     62  C   UNL A   1      40.034  33.028  34.873  1.00  0.00     0.031 A 
BRANCH  49  63
ATOM     63  C   UNL A   1      44.389  28.656  34.574  1.00  0.00    -0.014 A 
ATOM     64  C   UNL A   1      44.182  27.567  35.434  1.00  0.00     0.009 A 
ATOM     65  C   UNL A   1      45.701  29.086  34.324  1.00  0.00     0.009 A 
ATOM     66  C   UNL A   1      45.265  26.946  36.061  1.00  0.00     0.001 A 
ATOM     67  C   UNL A   1      46.784  28.447  34.929  1.00  0.00     0.001 A 
ATOM     68  C   UNL A   1      46.565  27.385  35.805  1.00  0.00     0.000 A 
ENDBRANCH  49  63
BRANCH  50  69
ATOM     69  C   UNL A   1      36.568  32.752  29.915  1.00  0.00    -0.014 A 
ATOM     70  C   UNL A   1      36.674  33.851  29.050  1.00  0.00     0.009 A 
ATOM     71  C   UNL A   1      35.302  32.188  30.144  1.00  0.00     0.009 A 
ATOM     72  C   UNL A   1      35.534  34.385  28.443  1.00  0.00     0.001 A 
ATOM     73  C   UNL A   1      34.168  32.706  29.515  1.00  0.00     0.001 A 
ATOM     74  C   UNL A   1      34.285  33.808  28.670  1.00  0.00     0.000 A 
ENDBRANCH  50  69
BRANCH  62  75
ATOM     75  C   UNL A   1      39.792  34.031  35.965  1.00  0.00    -0.014 A 
ATOM     76  C   UNL A   1      39.045  33.700  37.106  1.00  0.00     0.009 A 
ATOM     77  C   UNL A   1      40.375  35.305  35.879  1.00  0.00     0.009 A 
ATOM     78  C   UNL A   1      38.869  34.634  38.129  1.00  0.00     0.001 A 
ATOM     79  C   UNL A   1      40.220  36.227  36.915  1.00  0.00     0.001 A 
ATOM     80  C   UNL A   1      39.462  35.893  38.036  1.00  0.00     0.000 A 
ENDBRANCH  62  75
ENDBRANCH  36  37
ENDBRANCH  29  31
ENDBRANCH  28  29
ENDBRANCH  27  28
ENDBRANCH  26  27
ENDBRANCH  25  26
ENDBRANCH   1  25
TORSDOF 19
ENDMDL
