MODEL 1
REMARK VINA RESULT:     -10.5      0.000      0.000
REMARK SMILES C[C@@H](C(=O)OCCOCCOC(=O)c1ccc(-c2c3nc(c(-c4ccccc4)c4ccc([nH]4)c(-c4ccccc4)c4nc(c(-c5ccccc5)c5ccc2[nH]5)C=C4)C=C3)cc1)c1ccc(C[C@H]2CCC[C@H]2O)cc1
REMARK SMILES IDX 7 1 6 2 5 3 3 4 4 5 2 6 1 7 62 8 63 9 74 10 64 11 73 12
REMARK SMILES IDX 65 13 66 14 67 15 68 16 71 17 69 18 70 19 72 20 8 22 9 23
REMARK SMILES IDX 10 24 11 25 12 26 13 27 14 28 15 29 61 30 16 31 60 32 17 33
REMARK SMILES IDX 18 34 19 35 54 36 20 37 59 38 53 39 55 40 21 41 58 42 52 43
REMARK SMILES IDX 51 44 22 46 44 47 29 48 43 49 30 50 33 51 42 52 56 53 31 54
REMARK SMILES IDX 32 55 41 57 57 58 34 59 23 60 24 61 28 62 25 63 27 64 26 65
REMARK SMILES IDX 45 66 46 67 50 68 47 69 49 70 48 71 35 72 36 73 40 74 37 75
REMARK SMILES IDX 39 76 38 77
REMARK H PARENT 72 21 55 45 33 56
REMARK Flexibility Score: inf
ROOT
ATOM      1  C   UNL A   1      35.655  24.190  25.275  1.00  0.00     0.202 C 
ENDROOT
BRANCH   1   2
ATOM      2  C   UNL A   1      34.367  24.997  25.103  1.00  0.00     0.261 C 
BRANCH   2   3
ATOM      3  O   UNL A   1      33.553  24.873  26.282  1.00  0.00    -0.463 OA
BRANCH   3   4
ATOM      4  C   UNL A   1      32.219  24.735  26.058  1.00  0.00     0.313 C 
ATOM      5  O   UNL A   1      31.357  24.912  26.912  1.00  0.00    -0.252 OA
BRANCH   4   6
ATOM      6  C   UNL A   1      31.903  24.369  24.605  1.00  0.00     0.126 C 
ATOM      7  C   UNL A   1      30.564  24.899  24.078  1.00  0.00     0.025 C 
BRANCH   6   8
ATOM      8  C   UNL A   1      32.094  22.874  24.380  1.00  0.00    -0.034 A 
ATOM      9  C   UNL A   1      32.254  22.407  23.068  1.00  0.00     0.005 A 
ATOM     10  C   UNL A   1      32.170  21.942  25.425  1.00  0.00     0.005 A 
ATOM     11  C   UNL A   1      32.420  21.047  22.805  1.00  0.00     0.004 A 
ATOM     12  C   UNL A   1      32.346  20.581  25.161  1.00  0.00     0.004 A 
ATOM     13  C   UNL A   1      32.417  20.114  23.846  1.00  0.00    -0.048 A 
BRANCH  13  14
ATOM     14  C   UNL A   1      32.429  18.636  23.546  1.00  0.00     0.041 C 
BRANCH  14  15
ATOM     15  C   UNL A   1      33.254  17.744  24.495  1.00  0.00     0.022 C 
ATOM     16  C   UNL A   1      32.462  16.690  25.293  1.00  0.00     0.007 C 
ATOM     17  C   UNL A   1      34.456  16.979  23.916  1.00  0.00     0.117 C 
ATOM     18  C   UNL A   1      33.403  15.499  25.482  1.00  0.00     0.003 C 
ATOM     19  C   UNL A   1      34.774  15.973  25.017  1.00  0.00     0.032 C 
BRANCH  17  20
ATOM     20  O   UNL A   1      34.196  16.263  22.721  1.00  0.00    -0.393 OA
ATOM     21  H   UNL A   1      34.254  15.311  22.894  1.00  0.00     0.210 HD
ENDBRANCH  17  20
ENDBRANCH  14  15
ENDBRANCH  13  14
ENDBRANCH   6   8
ENDBRANCH   4   6
ENDBRANCH   3   4
ENDBRANCH   2   3
ENDBRANCH   1   2
BRANCH   1  22
ATOM     22  O   UNL A   1      35.512  22.767  25.271  1.00  0.00    -0.374 OA
BRANCH  22  23
ATOM     23  C   UNL A   1      36.182  22.048  24.238  1.00  0.00     0.202 C 
BRANCH  23  24
ATOM     24  C   UNL A   1      37.399  21.216  24.666  1.00  0.00     0.261 C 
BRANCH  24  25
ATOM     25  O   UNL A   1      37.812  21.500  26.012  1.00  0.00    -0.460 OA
BRANCH  25  26
ATOM     26  C   UNL A   1      39.149  21.432  26.212  1.00  0.00     0.338 C 
ATOM     27  O   UNL A   1      39.917  20.559  25.829  1.00  0.00    -0.246 OA
BRANCH  26  28
ATOM     28  C   UNL A   1      39.633  22.679  26.828  1.00  0.00     0.060 A 
ATOM     29  C   UNL A   1      38.991  23.868  26.456  1.00  0.00     0.016 A 
ATOM     30  C   UNL A   1      40.730  22.703  27.691  1.00  0.00     0.016 A 
ATOM     31  C   UNL A   1      39.474  25.092  26.907  1.00  0.00     0.010 A 
ATOM     32  C   UNL A   1      41.222  23.936  28.133  1.00  0.00     0.010 A 
ATOM     33  C   UNL A   1      40.618  25.136  27.713  1.00  0.00    -0.014 A 
BRANCH  33  34
ATOM     34  C   UNL A   1      41.268  26.442  27.972  1.00  0.00     0.031 A 
ATOM     35  C   UNL A   1      42.607  26.722  27.347  1.00  0.00     0.074 A 
ATOM     36  C   UNL A   1      40.653  27.385  28.705  1.00  0.00     0.049 A 
ATOM     37  N   UNL A   1      43.347  27.800  27.421  1.00  0.00    -0.248 NA
ATOM     38  C   UNL A   1      43.188  25.648  26.526  1.00  0.00     0.031 C 
ATOM     39  C   UNL A   1      39.332  27.253  29.319  1.00  0.00     0.029 A 
ATOM     40  N   UNL A   1      41.062  28.648  29.050  1.00  0.00    -0.354 N 
ATOM     41  C   UNL A   1      44.479  27.530  26.663  1.00  0.00     0.074 A 
ATOM     42  C   UNL A   1      44.344  26.180  26.160  1.00  0.00     0.031 C 
ATOM     43  C   UNL A   1      39.039  28.395  29.968  1.00  0.00     0.029 A 
ATOM     44  C   UNL A   1      40.162  29.321  29.837  1.00  0.00     0.049 A 
ATOM     45  H   UNL A   1      41.920  29.035  28.761  1.00  0.00     0.167 HD
ATOM     46  C   UNL A   1      45.537  28.335  26.404  1.00  0.00     0.031 A 
ATOM     47  C   UNL A   1      40.241  30.543  30.400  1.00  0.00     0.031 A 
ATOM     48  C   UNL A   1      45.680  29.672  26.913  1.00  0.00     0.049 A 
ATOM     49  C   UNL A   1      41.464  31.387  30.163  1.00  0.00     0.074 A 
ATOM     50  C   UNL A   1      46.707  30.573  26.692  1.00  0.00     0.029 A 
ATOM     51  N   UNL A   1      44.771  30.297  27.751  1.00  0.00    -0.354 N 
ATOM     52  N   UNL A   1      42.516  31.132  29.423  1.00  0.00    -0.248 NA
ATOM     53  C   UNL A   1      41.507  32.694  30.838  1.00  0.00     0.031 C 
ATOM     54  C   UNL A   1      46.446  31.724  27.444  1.00  0.00     0.029 A 
ATOM     55  C   UNL A   1      45.229  31.560  28.085  1.00  0.00     0.049 A 
ATOM     56  H   UNL A   1      43.926  29.901  28.064  1.00  0.00     0.167 HD
ATOM     57  C   UNL A   1      43.331  32.253  29.519  1.00  0.00     0.074 A 
ATOM     58  C   UNL A   1      42.645  33.196  30.381  1.00  0.00     0.031 C 
ATOM     59  C   UNL A   1      44.536  32.484  28.944  1.00  0.00     0.031 A 
BRANCH  46  60
ATOM     60  C   UNL A   1      46.643  27.770  25.559  1.00  0.00    -0.014 A 
ATOM     61  C   UNL A   1      47.661  26.982  26.120  1.00  0.00     0.009 A 
ATOM     62  C   UNL A   1      46.652  28.009  24.177  1.00  0.00     0.009 A 
ATOM     63  C   UNL A   1      48.682  26.472  25.315  1.00  0.00     0.001 A 
ATOM     64  C   UNL A   1      47.659  27.477  23.371  1.00  0.00     0.001 A 
ATOM     65  C   UNL A   1      48.678  26.717  23.942  1.00  0.00     0.000 A 
ENDBRANCH  46  60
BRANCH  47  66
ATOM     66  C   UNL A   1      39.135  31.042  31.258  1.00  0.00    -0.014 A 
ATOM     67  C   UNL A   1      38.094  31.809  30.713  1.00  0.00     0.009 A 
ATOM     68  C   UNL A   1      39.127  30.769  32.634  1.00  0.00     0.009 A 
ATOM     69  C   UNL A   1      37.082  32.312  31.533  1.00  0.00     0.001 A 
ATOM     70  C   UNL A   1      38.099  31.250  33.448  1.00  0.00     0.001 A 
ATOM     71  C   UNL A   1      37.083  32.029  32.898  1.00  0.00     0.000 A 
ENDBRANCH  47  66
BRANCH  59  72
ATOM     72  C   UNL A   1      45.176  33.820  29.199  1.00  0.00    -0.014 A 
ATOM     73  C   UNL A   1      46.070  34.008  30.264  1.00  0.00     0.009 A 
ATOM     74  C   UNL A   1      44.913  34.893  28.332  1.00  0.00     0.009 A 
ATOM     75  C   UNL A   1      46.664  35.255  30.473  1.00  0.00     0.001 A 
ATOM     76  C   UNL A   1      45.528  36.129  28.528  1.00  0.00     0.001 A 
ATOM     77  C   UNL A   1      46.396  36.312  29.603  1.00  0.00     0.000 A 
ENDBRANCH  59  72
ENDBRANCH  33  34
ENDBRANCH  26  28
ENDBRANCH  25  26
ENDBRANCH  24  25
ENDBRANCH  23  24
ENDBRANCH  22  23
ENDBRANCH   1  22
TORSDOF 18
ENDMDL
MODEL 2
REMARK VINA RESULT:     -10.5      3.106      5.543
REMARK SMILES C[C@@H](C(=O)OCCOCCOC(=O)c1ccc(-c2c3nc(c(-c4ccccc4)c4ccc([nH]4)c(-c4ccccc4)c4nc(c(-c5ccccc5)c5ccc2[nH]5)C=C4)C=C3)cc1)c1ccc(C[C@H]2CCC[C@H]2O)cc1
REMARK SMILES IDX 7 1 6 2 5 3 3 4 4 5 2 6 1 7 62 8 63 9 74 10 64 11 73 12
REMARK SMILES IDX 65 13 66 14 67 15 68 16 71 17 69 18 70 19 72 20 8 22 9 23
REMARK SMILES IDX 10 24 11 25 12 26 13 27 14 28 15 29 61 30 16 31 60 32 17 33
REMARK SMILES IDX 18 34 19 35 54 36 20 37 59 38 53 39 55 40 21 41 58 42 52 43
REMARK SMILES IDX 51 44 22 46 44 47 29 48 43 49 30 50 33 51 42 52 56 53 31 54
REMARK SMILES IDX 32 55 41 57 57 58 34 59 23 60 24 61 28 62 25 63 27 64 26 65
REMARK SMILES IDX 45 66 46 67 50 68 47 69 49 70 48 71 35 72 36 73 40 74 37 75
REMARK SMILES IDX 39 76 38 77
REMARK H PARENT 72 21 55 45 33 56
REMARK Flexibility Score: inf
ROOT
ATOM      1  C   UNL A   1      37.515  23.445  25.622  1.00  0.00     0.202 C 
ENDROOT
BRANCH   1   2
ATOM      2  C   UNL A   1      36.046  23.575  26.028  1.00  0.00     0.261 C 
BRANCH   2   3
ATOM      3  O   UNL A   1      35.201  23.200  24.927  1.00  0.00    -0.463 OA
BRANCH   3   4
ATOM      4  C   UNL A   1      34.187  24.062  24.651  1.00  0.00     0.313 C 
ATOM      5  O   UNL A   1      33.824  24.355  23.516  1.00  0.00    -0.252 OA
BRANCH   4   6
ATOM      6  C   UNL A   1      33.516  24.604  25.916  1.00  0.00     0.126 C 
ATOM      7  C   UNL A   1      32.513  23.652  26.579  1.00  0.00     0.025 C 
BRANCH   6   8
ATOM      8  C   UNL A   1      32.954  25.998  25.665  1.00  0.00    -0.034 A 
ATOM      9  C   UNL A   1      31.579  26.134  25.425  1.00  0.00     0.005 A 
ATOM     10  C   UNL A   1      33.732  27.162  25.714  1.00  0.00     0.005 A 
ATOM     11  C   UNL A   1      31.014  27.386  25.179  1.00  0.00     0.004 A 
ATOM     12  C   UNL A   1      33.163  28.416  25.477  1.00  0.00     0.004 A 
ATOM     13  C   UNL A   1      31.810  28.535  25.152  1.00  0.00    -0.048 A 
BRANCH  13  14
ATOM     14  C   UNL A   1      31.226  29.857  24.721  1.00  0.00     0.041 C 
BRANCH  14  15
ATOM     15  C   UNL A   1      29.965  29.801  23.837  1.00  0.00     0.022 C 
ATOM     16  C   UNL A   1      29.101  31.076  23.807  1.00  0.00     0.007 C 
ATOM     17  C   UNL A   1      30.126  29.399  22.361  1.00  0.00     0.117 C 
ATOM     18  C   UNL A   1      28.477  31.139  22.413  1.00  0.00     0.003 C 
ATOM     19  C   UNL A   1      28.784  29.799  21.757  1.00  0.00     0.032 C 
BRANCH  17  20
ATOM     20  O   UNL A   1      31.151  30.082  21.659  1.00  0.00    -0.393 OA
ATOM     21  H   UNL A   1      30.953  30.075  20.710  1.00  0.00     0.210 HD
ENDBRANCH  17  20
ENDBRANCH  14  15
ENDBRANCH  13  14
ENDBRANCH   6   8
ENDBRANCH   4   6
ENDBRANCH   3   4
ENDBRANCH   2   3
ENDBRANCH   1   2
BRANCH   1  22
ATOM     22  O   UNL A   1      38.136  22.186  25.898  1.00  0.00    -0.374 OA
BRANCH  22  23
ATOM     23  C   UNL A   1      37.783  21.088  25.060  1.00  0.00     0.202 C 
BRANCH  23  24
ATOM     24  C   UNL A   1      38.655  19.831  25.180  1.00  0.00     0.261 C 
BRANCH  24  25
ATOM     25  O   UNL A   1      39.444  19.823  26.380  1.00  0.00    -0.460 OA
BRANCH  25  26
ATOM     26  C   UNL A   1      40.780  19.781  26.169  1.00  0.00     0.338 C 
ATOM     27  O   UNL A   1      41.410  18.938  25.542  1.00  0.00    -0.246 OA
BRANCH  26  28
ATOM     28  C   UNL A   1      41.409  21.019  26.658  1.00  0.00     0.060 A 
ATOM     29  C   UNL A   1      41.351  21.266  28.036  1.00  0.00     0.016 A 
ATOM     30  C   UNL A   1      41.979  21.953  25.791  1.00  0.00     0.016 A 
ATOM     31  C   UNL A   1      41.818  22.472  28.548  1.00  0.00     0.010 A 
ATOM     32  C   UNL A   1      42.437  23.171  26.307  1.00  0.00     0.010 A 
ATOM     33  C   UNL A   1      42.324  23.449  27.682  1.00  0.00    -0.014 A 
BRANCH  33  34
ATOM     34  C   UNL A   1      42.577  24.813  28.202  1.00  0.00     0.031 A 
ATOM     35  C   UNL A   1      43.983  25.200  28.570  1.00  0.00     0.074 A 
ATOM     36  C   UNL A   1      41.583  25.712  28.293  1.00  0.00     0.049 A 
ATOM     37  N   UNL A   1      44.437  26.340  29.025  1.00  0.00    -0.248 NA
ATOM     38  C   UNL A   1      45.016  24.165  28.399  1.00  0.00     0.031 C 
ATOM     39  C   UNL A   1      40.189  25.475  27.917  1.00  0.00     0.029 A 
ATOM     40  N   UNL A   1      41.600  27.014  28.727  1.00  0.00    -0.354 N 
ATOM     41  C   UNL A   1      45.803  26.157  29.199  1.00  0.00     0.074 A 
ATOM     42  C   UNL A   1      46.101  24.791  28.828  1.00  0.00     0.031 C 
ATOM     43  C   UNL A   1      39.483  26.599  28.138  1.00  0.00     0.029 A 
ATOM     44  C   UNL A   1      40.369  27.619  28.695  1.00  0.00     0.049 A 
ATOM     45  H   UNL A   1      42.417  27.470  29.032  1.00  0.00     0.167 HD
ATOM     46  C   UNL A   1      46.730  27.048  29.625  1.00  0.00     0.031 A 
ATOM     47  C   UNL A   1      39.996  28.854  29.084  1.00  0.00     0.031 A 
ATOM     48  C   UNL A   1      46.435  28.403  30.005  1.00  0.00     0.049 A 
ATOM     49  C   UNL A   1      41.031  29.800  29.631  1.00  0.00     0.074 A 
ATOM     50  C   UNL A   1      47.308  29.388  30.435  1.00  0.00     0.029 A 
ATOM     51  N   UNL A   1      45.166  28.961  30.011  1.00  0.00    -0.354 N 
ATOM     52  N   UNL A   1      42.324  29.624  29.766  1.00  0.00    -0.248 NA
ATOM     53  C   UNL A   1      40.555  31.118  30.075  1.00  0.00     0.031 C 
ATOM     54  C   UNL A   1      46.558  30.526  30.753  1.00  0.00     0.029 A 
ATOM     55  C   UNL A   1      45.227  30.267  30.466  1.00  0.00     0.049 A 
ATOM     56  H   UNL A   1      44.344  28.497  29.733  1.00  0.00     0.167 HD
ATOM     57  C   UNL A   1      42.818  30.816  30.282  1.00  0.00     0.074 A 
ATOM     58  C   UNL A   1      41.687  31.711  30.425  1.00  0.00     0.031 C 
ATOM     59  C   UNL A   1      44.093  31.142  30.605  1.00  0.00     0.031 A 
BRANCH  46  60
ATOM     60  C   UNL A   1      48.148  26.568  29.738  1.00  0.00    -0.014 A 
ATOM     61  C   UNL A   1      48.634  25.998  30.925  1.00  0.00     0.009 A 
ATOM     62  C   UNL A   1      49.003  26.662  28.629  1.00  0.00     0.009 A 
ATOM     63  C   UNL A   1      49.960  25.564  31.009  1.00  0.00     0.001 A 
ATOM     64  C   UNL A   1      50.319  26.204  28.708  1.00  0.00     0.001 A 
ATOM     65  C   UNL A   1      50.798  25.663  29.899  1.00  0.00     0.000 A 
ENDBRANCH  46  60
BRANCH  47  66
ATOM     66  C   UNL A   1      38.573  29.269  28.986  1.00  0.00    -0.014 A 
ATOM     67  C   UNL A   1      38.056  29.781  27.786  1.00  0.00     0.009 A 
ATOM     68  C   UNL A   1      37.728  29.174  30.102  1.00  0.00     0.009 A 
ATOM     69  C   UNL A   1      36.729  30.211  27.714  1.00  0.00     0.001 A 
ATOM     70  C   UNL A   1      36.394  29.579  30.020  1.00  0.00     0.001 A 
ATOM     71  C   UNL A   1      35.899  30.106  28.829  1.00  0.00     0.000 A 
ENDBRANCH  47  66
BRANCH  59  72
ATOM     72  C   UNL A   1      44.340  32.535  31.114  1.00  0.00    -0.014 A 
ATOM     73  C   UNL A   1      44.367  32.814  32.488  1.00  0.00     0.009 A 
ATOM     74  C   UNL A   1      44.593  33.572  30.202  1.00  0.00     0.009 A 
ATOM     75  C   UNL A   1      44.612  34.114  32.938  1.00  0.00     0.001 A 
ATOM     76  C   UNL A   1      44.864  34.863  30.655  1.00  0.00     0.001 A 
ATOM     77  C   UNL A   1      44.865  35.135  32.023  1.00  0.00     0.000 A 
ENDBRANCH  59  72
ENDBRANCH  33  34
ENDBRANCH  26  28
ENDBRANCH  25  26
ENDBRANCH  24  25
ENDBRANCH  23  24
ENDBRANCH  22  23
ENDBRANCH   1  22
TORSDOF 18
ENDMDL
MODEL 3
REMARK VINA RESULT:     -10.5      4.139      6.989
REMARK SMILES C[C@@H](C(=O)OCCOCCOC(=O)c1ccc(-c2c3nc(c(-c4ccccc4)c4ccc([nH]4)c(-c4ccccc4)c4nc(c(-c5ccccc5)c5ccc2[nH]5)C=C4)C=C3)cc1)c1ccc(C[C@H]2CCC[C@H]2O)cc1
REMARK SMILES IDX 7 1 6 2 5 3 3 4 4 5 2 6 1 7 62 8 63 9 74 10 64 11 73 12
REMARK SMILES IDX 65 13 66 14 67 15 68 16 71 17 69 18 70 19 72 20 8 22 9 23
REMARK SMILES IDX 10 24 11 25 12 26 13 27 14 28 15 29 61 30 16 31 60 32 17 33
REMARK SMILES IDX 18 34 19 35 54 36 20 37 59 38 53 39 55 40 21 41 58 42 52 43
REMARK SMILES IDX 51 44 22 46 44 47 29 48 43 49 30 50 33 51 42 52 56 53 31 54
REMARK SMILES IDX 32 55 41 57 57 58 34 59 23 60 24 61 28 62 25 63 27 64 26 65
REMARK SMILES IDX 45 66 46 67 50 68 47 69 49 70 48 71 35 72 36 73 40 74 37 75
REMARK SMILES IDX 39 76 38 77
REMARK H PARENT 72 21 55 45 33 56
REMARK Flexibility Score: inf
ROOT
ATOM      1  C   UNL A   1      41.891  20.453  26.603  1.00  0.00     0.202 C 
ENDROOT
BRANCH   1   2
ATOM      2  C   UNL A   1      40.367  20.359  26.511  1.00  0.00     0.261 C 
BRANCH   2   3
ATOM      3  O   UNL A   1      39.794  21.678  26.547  1.00  0.00    -0.463 OA
BRANCH   3   4
ATOM      4  C   UNL A   1      38.665  21.843  25.809  1.00  0.00     0.313 C 
ATOM      5  O   UNL A   1      37.994  20.917  25.363  1.00  0.00    -0.252 OA
BRANCH   4   6
ATOM      6  C   UNL A   1      38.295  23.317  25.624  1.00  0.00     0.126 C 
ATOM      7  C   UNL A   1      38.503  24.200  26.861  1.00  0.00     0.025 C 
BRANCH   6   8
ATOM      8  C   UNL A   1      36.904  23.445  25.016  1.00  0.00    -0.034 A 
ATOM      9  C   UNL A   1      36.714  23.056  23.682  1.00  0.00     0.005 A 
ATOM     10  C   UNL A   1      35.786  23.883  25.739  1.00  0.00     0.005 A 
ATOM     11  C   UNL A   1      35.464  23.163  23.074  1.00  0.00     0.004 A 
ATOM     12  C   UNL A   1      34.531  23.981  25.131  1.00  0.00     0.004 A 
ATOM     13  C   UNL A   1      34.370  23.674  23.778  1.00  0.00    -0.048 A 
BRANCH  13  14
ATOM     14  C   UNL A   1      33.065  23.944  23.070  1.00  0.00     0.041 C 
BRANCH  14  15
ATOM     15  C   UNL A   1      32.201  25.092  23.628  1.00  0.00     0.022 C 
ATOM     16  C   UNL A   1      32.114  26.360  22.757  1.00  0.00     0.007 C 
ATOM     17  C   UNL A   1      30.746  24.784  24.021  1.00  0.00     0.117 C 
ATOM     18  C   UNL A   1      30.725  26.953  22.999  1.00  0.00     0.003 C 
ATOM     19  C   UNL A   1      30.138  26.175  24.170  1.00  0.00     0.032 C 
BRANCH  17  20
ATOM     20  O   UNL A   1      29.997  24.072  23.051  1.00  0.00    -0.393 OA
ATOM     21  H   UNL A   1      29.266  23.605  23.485  1.00  0.00     0.210 HD
ENDBRANCH  17  20
ENDBRANCH  14  15
ENDBRANCH  13  14
ENDBRANCH   6   8
ENDBRANCH   4   6
ENDBRANCH   3   4
ENDBRANCH   2   3
ENDBRANCH   1   2
BRANCH   1  22
ATOM     22  O   UNL A   1      42.595  20.507  25.358  1.00  0.00    -0.374 OA
BRANCH  22  23
ATOM     23  C   UNL A   1      44.018  20.435  25.411  1.00  0.00     0.202 C 
BRANCH  23  24
ATOM     24  C   UNL A   1      44.783  21.637  24.843  1.00  0.00     0.261 C 
BRANCH  24  25
ATOM     25  O   UNL A   1      43.937  22.781  24.642  1.00  0.00    -0.460 OA
BRANCH  25  26
ATOM     26  C   UNL A   1      44.539  23.970  24.881  1.00  0.00     0.338 C 
ATOM     27  O   UNL A   1      45.540  24.420  24.338  1.00  0.00    -0.246 OA
BRANCH  26  28
ATOM     28  C   UNL A   1      43.715  24.780  25.793  1.00  0.00     0.060 A 
ATOM     29  C   UNL A   1      44.014  26.146  25.882  1.00  0.00     0.016 A 
ATOM     30  C   UNL A   1      42.723  24.214  26.595  1.00  0.00     0.016 A 
ATOM     31  C   UNL A   1      43.355  26.944  26.812  1.00  0.00     0.010 A 
ATOM     32  C   UNL A   1      42.070  25.016  27.538  1.00  0.00     0.010 A 
ATOM     33  C   UNL A   1      42.411  26.375  27.675  1.00  0.00    -0.014 A 
BRANCH  33  34
ATOM     34  C   UNL A   1      41.909  27.171  28.820  1.00  0.00     0.031 A 
ATOM     35  C   UNL A   1      42.677  27.146  30.112  1.00  0.00     0.074 A 
ATOM     36  C   UNL A   1      40.819  27.946  28.696  1.00  0.00     0.049 A 
ATOM     37  N   UNL A   1      42.436  27.777  31.233  1.00  0.00    -0.248 NA
ATOM     38  C   UNL A   1      43.883  26.301  30.145  1.00  0.00     0.031 C 
ATOM     39  C   UNL A   1      40.019  28.096  27.481  1.00  0.00     0.029 A 
ATOM     40  N   UNL A   1      40.201  28.762  29.611  1.00  0.00    -0.354 N 
ATOM     41  C   UNL A   1      43.452  27.401  32.102  1.00  0.00     0.074 A 
ATOM     42  C   UNL A   1      44.298  26.468  31.391  1.00  0.00     0.031 C 
ATOM     43  C   UNL A   1      39.013  28.955  27.726  1.00  0.00     0.029 A 
ATOM     44  C   UNL A   1      39.084  29.390  29.120  1.00  0.00     0.049 A 
ATOM     45  H   UNL A   1      40.528  28.884  30.531  1.00  0.00     0.167 HD
ATOM     46  C   UNL A   1      43.666  27.801  33.379  1.00  0.00     0.031 A 
ATOM     47  C   UNL A   1      38.209  30.212  29.731  1.00  0.00     0.031 A 
ATOM     48  C   UNL A   1      42.820  28.719  34.092  1.00  0.00     0.049 A 
ATOM     49  C   UNL A   1      38.424  30.577  31.175  1.00  0.00     0.074 A 
ATOM     50  C   UNL A   1      42.963  29.198  35.382  1.00  0.00     0.029 A 
ATOM     51  N   UNL A   1      41.667  29.290  33.577  1.00  0.00    -0.354 N 
ATOM     52  N   UNL A   1      39.403  30.237  31.979  1.00  0.00    -0.248 NA
ATOM     53  C   UNL A   1      37.413  31.446  31.796  1.00  0.00     0.031 C 
ATOM     54  C   UNL A   1      41.864  30.018  35.667  1.00  0.00     0.029 A 
ATOM     55  C   UNL A   1      41.070  30.092  34.534  1.00  0.00     0.049 A 
ATOM     56  H   UNL A   1      41.323  29.146  32.666  1.00  0.00     0.167 HD
ATOM     57  C   UNL A   1      39.142  30.871  33.187  1.00  0.00     0.074 A 
ATOM     58  C   UNL A   1      37.918  31.626  33.008  1.00  0.00     0.031 C 
ATOM     59  C   UNL A   1      39.853  30.835  34.340  1.00  0.00     0.031 A 
BRANCH  46  60
ATOM     60  C   UNL A   1      44.846  27.211  34.097  1.00  0.00    -0.014 A 
ATOM     61  C   UNL A   1      46.095  27.852  34.098  1.00  0.00     0.009 A 
ATOM     62  C   UNL A   1      44.698  26.009  34.806  1.00  0.00     0.009 A 
ATOM     63  C   UNL A   1      47.180  27.281  34.768  1.00  0.00     0.001 A 
ATOM     64  C   UNL A   1      45.776  25.455  35.496  1.00  0.00     0.001 A 
ATOM     65  C   UNL A   1      47.018  26.087  35.469  1.00  0.00     0.000 A 
ENDBRANCH  46  60
BRANCH  47  66
ATOM     66  C   UNL A   1      37.037  30.740  28.986  1.00  0.00    -0.014 A 
ATOM     67  C   UNL A   1      36.968  32.093  28.621  1.00  0.00     0.009 A 
ATOM     68  C   UNL A   1      35.968  29.893  28.655  1.00  0.00     0.009 A 
ATOM     69  C   UNL A   1      35.844  32.591  27.960  1.00  0.00     0.001 A 
ATOM     70  C   UNL A   1      34.856  30.388  27.971  1.00  0.00     0.001 A 
ATOM     71  C   UNL A   1      34.790  31.738  27.633  1.00  0.00     0.000 A 
ENDBRANCH  47  66
BRANCH  59  72
ATOM     72  C   UNL A   1      39.344  31.661  35.489  1.00  0.00    -0.014 A 
ATOM     73  C   UNL A   1      39.804  32.967  35.707  1.00  0.00     0.009 A 
ATOM     74  C   UNL A   1      38.355  31.135  36.337  1.00  0.00     0.009 A 
ATOM     75  C   UNL A   1      39.306  33.722  36.772  1.00  0.00     0.001 A 
ATOM     76  C   UNL A   1      37.841  31.900  37.383  1.00  0.00     0.001 A 
ATOM     77  C   UNL A   1      38.323  33.190  37.606  1.00  0.00     0.000 A 
ENDBRANCH  59  72
ENDBRANCH  33  34
ENDBRANCH  26  28
ENDBRANCH  25  26
ENDBRANCH  24  25
ENDBRANCH  23  24
ENDBRANCH  22  23
ENDBRANCH   1  22
TORSDOF 18
ENDMDL
