MODEL 1
REMARK VINA RESULT:     -10.6      0.000      0.000
REMARK SMILES Cc1ccc(S(=O)(=O)Nc2ccc(C(=O)CCC(=O)OCCOCCOC(=O)c3ccc(-c4c5nc(c(-c6ccccc6)c6ccc([nH]6)c(-c6ccccc6)c6nc(c(-c7ccccc7)c7ccc4[nH]7)C=C6)C=C5)cc3)cc2)c(C)c1
REMARK SMILES IDX 21 1 20 2 18 3 19 4 17 5 16 6 14 7 15 8 13 9 10 10 11 11
REMARK SMILES IDX 78 12 12 13 77 14 9 15 6 17 7 18 8 19 5 20 1 21 2 22 3 23
REMARK SMILES IDX 81 24 4 25 79 26 80 27 22 28 23 29 24 30 25 31 26 32 27 33
REMARK SMILES IDX 28 34 29 35 30 36 76 37 31 38 75 39 32 40 33 41 34 42 69 43
REMARK SMILES IDX 35 44 74 45 68 46 70 47 36 48 73 49 67 50 66 51 37 53 59 54
REMARK SMILES IDX 44 55 58 56 45 57 48 58 57 59 71 60 46 61 47 62 56 64 72 65
REMARK SMILES IDX 49 66 38 67 39 68 43 69 40 70 42 71 41 72 60 73 61 74 65 75
REMARK SMILES IDX 62 76 64 77 63 78 50 79 51 80 55 81 52 82 54 83 53 84
REMARK H PARENT 9 16 70 52 48 63
REMARK Flexibility Score: inf
ROOT
ATOM      1  C   UNL A   1      41.610  19.171  25.991  1.00  0.00     0.261 C 
ENDROOT
BRANCH   1   2
ATOM      2  O   UNL A   1      41.093  20.160  26.900  1.00  0.00    -0.463 OA
BRANCH   2   3
ATOM      3  C   UNL A   1      40.606  21.302  26.368  1.00  0.00     0.306 C 
ATOM      4  O   UNL A   1      41.259  22.325  26.203  1.00  0.00    -0.252 OA
BRANCH   3   5
ATOM      5  C   UNL A   1      39.135  21.200  26.006  1.00  0.00     0.131 C 
BRANCH   5   6
ATOM      6  C   UNL A   1      38.378  22.500  25.724  1.00  0.00     0.093 C 
BRANCH   6   7
ATOM      7  C   UNL A   1      37.036  22.252  25.044  1.00  0.00     0.163 C 
ATOM      8  O   UNL A   1      36.978  21.861  23.879  1.00  0.00    -0.294 OA
BRANCH   7   9
ATOM      9  C   UNL A   1      35.769  22.566  25.761  1.00  0.00     0.018 A 
ATOM     10  C   UNL A   1      33.212  23.102  26.842  1.00  0.00     0.049 A 
ATOM     11  C   UNL A   1      33.763  21.817  26.901  1.00  0.00     0.027 A 
ATOM     12  C   UNL A   1      33.988  24.119  26.318  1.00  0.00     0.027 A 
ATOM     13  C   UNL A   1      35.033  21.547  26.366  1.00  0.00     0.014 A 
ATOM     14  C   UNL A   1      35.266  23.858  25.811  1.00  0.00     0.014 A 
BRANCH  10  15
ATOM     15  N   UNL A   1      31.901  23.309  27.353  1.00  0.00    -0.280 N 
ATOM     16  H   UNL A   1      31.819  23.446  28.325  1.00  0.00     0.180 HD
BRANCH  15  17
ATOM     17  S   UNL A   1      30.477  23.345  26.462  1.00  0.00     0.262 S 
ATOM     18  O   UNL A   1      29.494  24.111  27.197  1.00  0.00    -0.201 OA
ATOM     19  O   UNL A   1      30.225  21.971  26.081  1.00  0.00    -0.201 OA
BRANCH  17  20
ATOM     20  C   UNL A   1      30.822  24.246  24.958  1.00  0.00     0.090 A 
ATOM     21  C   UNL A   1      32.702  26.124  21.582  1.00  0.00     0.044 C 
ATOM     22  C   UNL A   1      31.953  25.505  22.724  1.00  0.00    -0.051 A 
ATOM     23  C   UNL A   1      31.508  24.184  22.635  1.00  0.00     0.005 A 
ATOM     24  C   UNL A   1      31.685  26.235  23.888  1.00  0.00     0.008 A 
ATOM     25  C   UNL A   1      30.944  23.557  23.745  1.00  0.00     0.023 A 
ATOM     26  C   UNL A   1      31.114  25.623  25.019  1.00  0.00    -0.030 A 
ATOM     27  C   UNL A   1      30.749  26.502  26.186  1.00  0.00     0.046 C 
ENDBRANCH  17  20
ENDBRANCH  15  17
ENDBRANCH  10  15
ENDBRANCH   7   9
ENDBRANCH   6   7
ENDBRANCH   5   6
ENDBRANCH   3   5
ENDBRANCH   2   3
ENDBRANCH   1   2
BRANCH   1  28
ATOM     28  C   UNL A   1      43.141  19.230  25.936  1.00  0.00     0.202 C 
BRANCH  28  29
ATOM     29  O   UNL A   1      43.627  20.077  24.897  1.00  0.00    -0.374 OA
BRANCH  29  30
ATOM     30  C   UNL A   1      44.354  21.231  25.326  1.00  0.00     0.202 C 
BRANCH  30  31
ATOM     31  C   UNL A   1      44.624  22.257  24.214  1.00  0.00     0.261 C 
BRANCH  31  32
ATOM     32  O   UNL A   1      43.901  23.499  24.413  1.00  0.00    -0.460 OA
BRANCH  32  33
ATOM     33  C   UNL A   1      44.613  24.524  24.955  1.00  0.00     0.338 C 
ATOM     34  O   UNL A   1      45.731  24.876  24.615  1.00  0.00    -0.246 OA
BRANCH  33  35
ATOM     35  C   UNL A   1      43.840  25.249  26.008  1.00  0.00     0.060 A 
ATOM     36  C   UNL A   1      43.969  26.644  26.075  1.00  0.00     0.016 A 
ATOM     37  C   UNL A   1      43.015  24.602  26.936  1.00  0.00     0.016 A 
ATOM     38  C   UNL A   1      43.284  27.386  27.050  1.00  0.00     0.010 A 
ATOM     39  C   UNL A   1      42.336  25.347  27.922  1.00  0.00     0.010 A 
ATOM     40  C   UNL A   1      42.480  26.744  28.002  1.00  0.00    -0.014 A 
BRANCH  40  41
ATOM     41  C   UNL A   1      41.991  27.504  29.194  1.00  0.00     0.031 A 
ATOM     42  C   UNL A   1      40.687  28.238  29.081  1.00  0.00     0.074 A 
ATOM     43  C   UNL A   1      42.640  27.550  30.374  1.00  0.00     0.049 A 
ATOM     44  N   UNL A   1      40.039  28.920  29.991  1.00  0.00    -0.248 NA
ATOM     45  C   UNL A   1      40.029  28.193  27.767  1.00  0.00     0.031 C 
ATOM     46  C   UNL A   1      43.891  26.873  30.659  1.00  0.00     0.029 A 
ATOM     47  N   UNL A   1      42.343  28.196  31.554  1.00  0.00    -0.354 N 
ATOM     48  C   UNL A   1      38.885  29.364  29.368  1.00  0.00     0.074 A 
ATOM     49  C   UNL A   1      38.943  28.913  27.993  1.00  0.00     0.031 C 
ATOM     50  C   UNL A   1      44.270  27.128  31.922  1.00  0.00     0.029 A 
ATOM     51  C   UNL A   1      43.295  28.028  32.535  1.00  0.00     0.049 A 
ATOM     52  H   UNL A   1      41.525  28.728  31.685  1.00  0.00     0.167 HD
ATOM     53  C   UNL A   1      37.859  30.080  29.886  1.00  0.00     0.031 A 
ATOM     54  C   UNL A   1      43.391  28.554  33.774  1.00  0.00     0.031 A 
ATOM     55  C   UNL A   1      37.811  30.600  31.223  1.00  0.00     0.049 A 
ATOM     56  C   UNL A   1      42.307  29.464  34.287  1.00  0.00     0.074 A 
ATOM     57  C   UNL A   1      36.808  31.342  31.821  1.00  0.00     0.029 A 
ATOM     58  N   UNL A   1      38.823  30.464  32.161  1.00  0.00    -0.354 N 
ATOM     59  N   UNL A   1      41.190  29.821  33.705  1.00  0.00    -0.248 NA
ATOM     60  C   UNL A   1      42.493  30.039  35.629  1.00  0.00     0.031 C 
ATOM     61  C   UNL A   1      37.241  31.713  33.098  1.00  0.00     0.029 A 
ATOM     62  C   UNL A   1      38.486  31.146  33.318  1.00  0.00     0.049 A 
ATOM     63  H   UNL A   1      39.656  29.959  32.025  1.00  0.00     0.167 HD
ATOM     64  C   UNL A   1      40.523  30.627  34.621  1.00  0.00     0.074 A 
ATOM     65  C   UNL A   1      41.362  30.711  35.798  1.00  0.00     0.031 C 
ATOM     66  C   UNL A   1      39.315  31.228  34.494  1.00  0.00     0.031 A 
BRANCH  53  67
ATOM     67  C   UNL A   1      36.727  30.381  28.949  1.00  0.00    -0.014 A 
ATOM     68  C   UNL A   1      36.493  31.688  28.494  1.00  0.00     0.009 A 
ATOM     69  C   UNL A   1      35.862  29.351  28.554  1.00  0.00     0.009 A 
ATOM     70  C   UNL A   1      35.379  31.967  27.702  1.00  0.00     0.001 A 
ATOM     71  C   UNL A   1      34.765  29.629  27.740  1.00  0.00     0.001 A 
ATOM     72  C   UNL A   1      34.517  30.938  27.327  1.00  0.00     0.000 A 
ENDBRANCH  53  67
BRANCH  54  73
ATOM     73  C   UNL A   1      44.581  28.261  34.621  1.00  0.00    -0.014 A 
ATOM     74  C   UNL A   1      44.498  27.371  35.702  1.00  0.00     0.009 A 
ATOM     75  C   UNL A   1      45.804  28.906  34.369  1.00  0.00     0.009 A 
ATOM     76  C   UNL A   1      45.607  27.146  36.522  1.00  0.00     0.001 A 
ATOM     77  C   UNL A   1      46.918  28.660  35.175  1.00  0.00     0.001 A 
ATOM     78  C   UNL A   1      46.817  27.787  36.256  1.00  0.00     0.000 A 
ENDBRANCH  54  73
BRANCH  66  79
ATOM     79  C   UNL A   1      38.784  31.997  35.672  1.00  0.00    -0.014 A 
ATOM     80  C   UNL A   1      38.122  31.358  36.731  1.00  0.00     0.009 A 
ATOM     81  C   UNL A   1      39.024  33.378  35.757  1.00  0.00     0.009 A 
ATOM     82  C   UNL A   1      37.697  32.090  37.843  1.00  0.00     0.001 A 
ATOM     83  C   UNL A   1      38.624  34.102  36.881  1.00  0.00     0.001 A 
ATOM     84  C   UNL A   1      37.956  33.458  37.920  1.00  0.00     0.000 A 
ENDBRANCH  66  79
ENDBRANCH  40  41
ENDBRANCH  33  35
ENDBRANCH  32  33
ENDBRANCH  31  32
ENDBRANCH  30  31
ENDBRANCH  29  30
ENDBRANCH  28  29
ENDBRANCH   1  28
TORSDOF 20
ENDMDL
MODEL 2
REMARK VINA RESULT:     -10.5      1.817      6.190
REMARK SMILES Cc1ccc(S(=O)(=O)Nc2ccc(C(=O)CCC(=O)OCCOCCOC(=O)c3ccc(-c4c5nc(c(-c6ccccc6)c6ccc([nH]6)c(-c6ccccc6)c6nc(c(-c7ccccc7)c7ccc4[nH]7)C=C6)C=C5)cc3)cc2)c(C)c1
REMARK SMILES IDX 21 1 20 2 18 3 19 4 17 5 16 6 14 7 15 8 13 9 10 10 11 11
REMARK SMILES IDX 78 12 12 13 77 14 9 15 6 17 7 18 8 19 5 20 1 21 2 22 3 23
REMARK SMILES IDX 81 24 4 25 79 26 80 27 22 28 23 29 24 30 25 31 26 32 27 33
REMARK SMILES IDX 28 34 29 35 30 36 76 37 31 38 75 39 32 40 33 41 34 42 69 43
REMARK SMILES IDX 35 44 74 45 68 46 70 47 36 48 73 49 67 50 66 51 37 53 59 54
REMARK SMILES IDX 44 55 58 56 45 57 48 58 57 59 71 60 46 61 47 62 56 64 72 65
REMARK SMILES IDX 49 66 38 67 39 68 43 69 40 70 42 71 41 72 60 73 61 74 65 75
REMARK SMILES IDX 62 76 64 77 63 78 50 79 51 80 55 81 52 82 54 83 53 84
REMARK H PARENT 9 16 70 52 48 63
REMARK Flexibility Score: inf
ROOT
ATOM      1  C   UNL A   1      42.463  19.253  25.834  1.00  0.00     0.261 C 
ENDROOT
BRANCH   1   2
ATOM      2  O   UNL A   1      41.497  19.695  26.805  1.00  0.00    -0.463 OA
BRANCH   2   3
ATOM      3  C   UNL A   1      41.522  20.998  27.163  1.00  0.00     0.306 C 
ATOM      4  O   UNL A   1      42.208  21.457  28.066  1.00  0.00    -0.252 OA
BRANCH   3   5
ATOM      5  C   UNL A   1      40.581  21.851  26.331  1.00  0.00     0.131 C 
BRANCH   5   6
ATOM      6  C   UNL A   1      39.330  22.408  27.016  1.00  0.00     0.093 C 
BRANCH   6   7
ATOM      7  C   UNL A   1      38.671  23.517  26.202  1.00  0.00     0.163 C 
ATOM      8  O   UNL A   1      39.175  24.637  26.133  1.00  0.00    -0.294 OA
BRANCH   7   9
ATOM      9  C   UNL A   1      37.354  23.278  25.549  1.00  0.00     0.018 A 
ATOM     10  C   UNL A   1      34.956  23.024  24.074  1.00  0.00     0.049 A 
ATOM     11  C   UNL A   1      36.021  22.140  23.872  1.00  0.00     0.027 A 
ATOM     12  C   UNL A   1      35.076  23.970  25.075  1.00  0.00     0.027 A 
ATOM     13  C   UNL A   1      37.214  22.262  24.603  1.00  0.00     0.014 A 
ATOM     14  C   UNL A   1      36.253  24.075  25.824  1.00  0.00     0.014 A 
BRANCH  10  15
ATOM     15  N   UNL A   1      33.790  22.887  23.270  1.00  0.00    -0.280 N 
ATOM     16  H   UNL A   1      33.832  23.258  22.359  1.00  0.00     0.180 HD
BRANCH  15  17
ATOM     17  S   UNL A   1      32.347  22.155  23.723  1.00  0.00     0.262 S 
ATOM     18  O   UNL A   1      31.455  22.153  22.584  1.00  0.00    -0.201 OA
ATOM     19  O   UNL A   1      31.969  22.786  24.970  1.00  0.00    -0.201 OA
BRANCH  17  20
ATOM     20  C   UNL A   1      32.720  20.447  24.097  1.00  0.00     0.090 A 
ATOM     21  C   UNL A   1      32.521  16.304  25.214  1.00  0.00     0.044 C 
ATOM     22  C   UNL A   1      32.695  17.737  24.809  1.00  0.00    -0.051 A 
ATOM     23  C   UNL A   1      32.515  18.114  23.476  1.00  0.00     0.005 A 
ATOM     24  C   UNL A   1      33.041  18.713  25.751  1.00  0.00     0.008 A 
ATOM     25  C   UNL A   1      32.528  19.463  23.121  1.00  0.00     0.023 A 
ATOM     26  C   UNL A   1      33.063  20.079  25.413  1.00  0.00    -0.030 A 
ATOM     27  C   UNL A   1      33.561  21.052  26.449  1.00  0.00     0.046 C 
ENDBRANCH  17  20
ENDBRANCH  15  17
ENDBRANCH  10  15
ENDBRANCH   7   9
ENDBRANCH   6   7
ENDBRANCH   5   6
ENDBRANCH   3   5
ENDBRANCH   2   3
ENDBRANCH   1   2
BRANCH   1  28
ATOM     28  C   UNL A   1      43.578  20.292  25.665  1.00  0.00     0.202 C 
BRANCH  28  29
ATOM     29  O   UNL A   1      44.217  20.217  24.393  1.00  0.00    -0.374 OA
BRANCH  29  30
ATOM     30  C   UNL A   1      45.237  21.191  24.153  1.00  0.00     0.202 C 
BRANCH  30  31
ATOM     31  C   UNL A   1      44.728  22.493  23.515  1.00  0.00     0.261 C 
BRANCH  31  32
ATOM     32  O   UNL A   1      44.008  23.331  24.455  1.00  0.00    -0.460 OA
BRANCH  32  33
ATOM     33  C   UNL A   1      44.693  24.396  24.953  1.00  0.00     0.338 C 
ATOM     34  O   UNL A   1      45.821  24.733  24.632  1.00  0.00    -0.246 OA
BRANCH  33  35
ATOM     35  C   UNL A   1      43.876  25.185  25.922  1.00  0.00     0.060 A 
ATOM     36  C   UNL A   1      44.170  26.548  26.074  1.00  0.00     0.016 A 
ATOM     37  C   UNL A   1      42.851  24.625  26.695  1.00  0.00     0.016 A 
ATOM     38  C   UNL A   1      43.452  27.344  26.980  1.00  0.00     0.010 A 
ATOM     39  C   UNL A   1      42.138  25.423  27.613  1.00  0.00     0.010 A 
ATOM     40  C   UNL A   1      42.445  26.786  27.780  1.00  0.00    -0.014 A 
BRANCH  40  41
ATOM     41  C   UNL A   1      41.891  27.568  28.929  1.00  0.00     0.031 A 
ATOM     42  C   UNL A   1      42.586  27.467  30.256  1.00  0.00     0.074 A 
ATOM     43  C   UNL A   1      40.816  28.375  28.840  1.00  0.00     0.049 A 
ATOM     44  N   UNL A   1      42.321  28.087  31.378  1.00  0.00    -0.248 NA
ATOM     45  C   UNL A   1      43.730  26.548  30.321  1.00  0.00     0.031 C 
ATOM     46  C   UNL A   1      40.052  28.607  27.629  1.00  0.00     0.029 A 
ATOM     47  N   UNL A   1      40.175  29.149  29.782  1.00  0.00    -0.354 N 
ATOM     48  C   UNL A   1      43.282  27.653  32.276  1.00  0.00     0.074 A 
ATOM     49  C   UNL A   1      44.106  26.685  31.582  1.00  0.00     0.031 C 
ATOM     50  C   UNL A   1      39.044  29.458  27.882  1.00  0.00     0.029 A 
ATOM     51  C   UNL A   1      39.068  29.810  29.300  1.00  0.00     0.049 A 
ATOM     52  H   UNL A   1      40.482  29.224  30.715  1.00  0.00     0.167 HD
ATOM     53  C   UNL A   1      43.473  28.024  33.563  1.00  0.00     0.031 A 
ATOM     54  C   UNL A   1      38.159  30.588  29.925  1.00  0.00     0.031 A 
ATOM     55  C   UNL A   1      42.628  28.925  34.295  1.00  0.00     0.049 A 
ATOM     56  C   UNL A   1      38.308  30.879  31.395  1.00  0.00     0.074 A 
ATOM     57  C   UNL A   1      42.752  29.345  35.607  1.00  0.00     0.029 A 
ATOM     58  N   UNL A   1      41.482  29.518  33.790  1.00  0.00    -0.354 N 
ATOM     59  N   UNL A   1      39.260  30.509  32.213  1.00  0.00    -0.248 NA
ATOM     60  C   UNL A   1      37.260  31.697  32.026  1.00  0.00     0.031 C 
ATOM     61  C   UNL A   1      41.644  30.139  35.918  1.00  0.00     0.029 A 
ATOM     62  C   UNL A   1      40.865  30.267  34.780  1.00  0.00     0.049 A 
ATOM     63  H   UNL A   1      41.155  29.422  32.867  1.00  0.00     0.167 HD
ATOM     64  C   UNL A   1      38.952  31.082  33.442  1.00  0.00     0.074 A 
ATOM     65  C   UNL A   1      37.719  31.821  33.265  1.00  0.00     0.031 C 
ATOM     66  C   UNL A   1      39.641  31.008  34.606  1.00  0.00     0.031 A 
BRANCH  53  67
ATOM     67  C   UNL A   1      44.634  27.385  34.266  1.00  0.00    -0.014 A 
ATOM     68  C   UNL A   1      45.917  27.951  34.206  1.00  0.00     0.009 A 
ATOM     69  C   UNL A   1      44.447  26.180  34.959  1.00  0.00     0.009 A 
ATOM     70  C   UNL A   1      47.003  27.293  34.783  1.00  0.00     0.001 A 
ATOM     71  C   UNL A   1      45.530  25.539  35.558  1.00  0.00     0.001 A 
ATOM     72  C   UNL A   1      46.808  26.088  35.457  1.00  0.00     0.000 A 
ENDBRANCH  53  67
BRANCH  54  73
ATOM     73  C   UNL A   1      36.995  31.132  29.172  1.00  0.00    -0.014 A 
ATOM     74  C   UNL A   1      35.902  30.315  28.843  1.00  0.00     0.009 A 
ATOM     75  C   UNL A   1      36.991  32.471  28.748  1.00  0.00     0.009 A 
ATOM     76  C   UNL A   1      34.839  30.824  28.089  1.00  0.00     0.001 A 
ATOM     77  C   UNL A   1      35.916  32.983  28.017  1.00  0.00     0.001 A 
ATOM     78  C   UNL A   1      34.845  32.157  27.681  1.00  0.00     0.000 A 
ENDBRANCH  54  73
BRANCH  66  79
ATOM     79  C   UNL A   1      39.121  31.783  35.784  1.00  0.00    -0.014 A 
ATOM     80  C   UNL A   1      39.523  33.104  36.032  1.00  0.00     0.009 A 
ATOM     81  C   UNL A   1      38.148  31.203  36.614  1.00  0.00     0.009 A 
ATOM     82  C   UNL A   1      38.972  33.822  37.097  1.00  0.00     0.001 A 
ATOM     83  C   UNL A   1      37.579  31.931  37.660  1.00  0.00     0.001 A 
ATOM     84  C   UNL A   1      37.996  33.238  37.904  1.00  0.00     0.000 A 
ENDBRANCH  66  79
ENDBRANCH  40  41
ENDBRANCH  33  35
ENDBRANCH  32  33
ENDBRANCH  31  32
ENDBRANCH  30  31
ENDBRANCH  29  30
ENDBRANCH  28  29
ENDBRANCH   1  28
TORSDOF 20
ENDMDL
MODEL 3
REMARK VINA RESULT:     -10.4      1.923      6.174
REMARK SMILES Cc1ccc(S(=O)(=O)Nc2ccc(C(=O)CCC(=O)OCCOCCOC(=O)c3ccc(-c4c5nc(c(-c6ccccc6)c6ccc([nH]6)c(-c6ccccc6)c6nc(c(-c7ccccc7)c7ccc4[nH]7)C=C6)C=C5)cc3)cc2)c(C)c1
REMARK SMILES IDX 21 1 20 2 18 3 19 4 17 5 16 6 14 7 15 8 13 9 10 10 11 11
REMARK SMILES IDX 78 12 12 13 77 14 9 15 6 17 7 18 8 19 5 20 1 21 2 22 3 23
REMARK SMILES IDX 81 24 4 25 79 26 80 27 22 28 23 29 24 30 25 31 26 32 27 33
REMARK SMILES IDX 28 34 29 35 30 36 76 37 31 38 75 39 32 40 33 41 34 42 69 43
REMARK SMILES IDX 35 44 74 45 68 46 70 47 36 48 73 49 67 50 66 51 37 53 59 54
REMARK SMILES IDX 44 55 58 56 45 57 48 58 57 59 71 60 46 61 47 62 56 64 72 65
REMARK SMILES IDX 49 66 38 67 39 68 43 69 40 70 42 71 41 72 60 73 61 74 65 75
REMARK SMILES IDX 62 76 64 77 63 78 50 79 51 80 55 81 52 82 54 83 53 84
REMARK H PARENT 9 16 70 52 48 63
REMARK Flexibility Score: inf
ROOT
ATOM      1  C   UNL A   1      41.988  21.955  27.261  1.00  0.00     0.261 C 
ENDROOT
BRANCH   1   2
ATOM      2  O   UNL A   1      41.719  23.258  27.809  1.00  0.00    -0.463 OA
BRANCH   2   3
ATOM      3  C   UNL A   1      40.862  24.055  27.135  1.00  0.00     0.306 C 
ATOM      4  O   UNL A   1      41.199  24.930  26.348  1.00  0.00    -0.252 OA
BRANCH   3   5
ATOM      5  C   UNL A   1      39.409  23.766  27.468  1.00  0.00     0.131 C 
BRANCH   5   6
ATOM      6  C   UNL A   1      38.341  24.265  26.491  1.00  0.00     0.093 C 
BRANCH   6   7
ATOM      7  C   UNL A   1      37.629  23.120  25.779  1.00  0.00     0.163 C 
ATOM      8  O   UNL A   1      38.104  21.985  25.770  1.00  0.00    -0.294 OA
BRANCH   7   9
ATOM      9  C   UNL A   1      36.384  23.385  25.004  1.00  0.00     0.018 A 
ATOM     10  C   UNL A   1      34.182  24.137  23.399  1.00  0.00     0.049 A 
ATOM     11  C   UNL A   1      35.121  23.205  22.941  1.00  0.00     0.027 A 
ATOM     12  C   UNL A   1      34.315  24.613  24.690  1.00  0.00     0.027 A 
ATOM     13  C   UNL A   1      36.216  22.828  23.735  1.00  0.00     0.014 A 
ATOM     14  C   UNL A   1      35.389  24.216  25.494  1.00  0.00     0.014 A 
BRANCH  10  15
ATOM     15  N   UNL A   1      33.120  24.521  22.534  1.00  0.00    -0.280 N 
ATOM     16  H   UNL A   1      32.561  23.798  22.168  1.00  0.00     0.180 HD
BRANCH  15  17
ATOM     17  S   UNL A   1      32.725  26.088  22.075  1.00  0.00     0.262 S 
ATOM     18  O   UNL A   1      31.576  26.035  21.198  1.00  0.00    -0.201 OA
ATOM     19  O   UNL A   1      33.970  26.690  21.645  1.00  0.00    -0.201 OA
BRANCH  17  20
ATOM     20  C   UNL A   1      32.214  26.954  23.553  1.00  0.00     0.090 A 
ATOM     21  C   UNL A   1      31.763  28.390  27.576  1.00  0.00     0.044 C 
ATOM     22  C   UNL A   1      31.843  27.956  26.143  1.00  0.00    -0.051 A 
ATOM     23  C   UNL A   1      32.744  28.575  25.274  1.00  0.00     0.005 A 
ATOM     24  C   UNL A   1      31.020  26.934  25.655  1.00  0.00     0.008 A 
ATOM     25  C   UNL A   1      32.929  28.078  23.985  1.00  0.00     0.023 A 
ATOM     26  C   UNL A   1      31.187  26.420  24.357  1.00  0.00    -0.030 A 
ATOM     27  C   UNL A   1      30.187  25.406  23.866  1.00  0.00     0.046 C 
ENDBRANCH  17  20
ENDBRANCH  15  17
ENDBRANCH  10  15
ENDBRANCH   7   9
ENDBRANCH   6   7
ENDBRANCH   5   6
ENDBRANCH   3   5
ENDBRANCH   2   3
ENDBRANCH   1   2
BRANCH   1  28
ATOM     28  C   UNL A   1      42.166  22.031  25.740  1.00  0.00     0.202 C 
BRANCH  28  29
ATOM     29  O   UNL A   1      43.322  21.335  25.281  1.00  0.00    -0.374 OA
BRANCH  29  30
ATOM     30  C   UNL A   1      44.568  22.015  25.461  1.00  0.00     0.202 C 
BRANCH  30  31
ATOM     31  C   UNL A   1      44.935  22.972  24.316  1.00  0.00     0.261 C 
BRANCH  31  32
ATOM     32  O   UNL A   1      44.502  24.334  24.566  1.00  0.00    -0.460 OA
BRANCH  32  33
ATOM     33  C   UNL A   1      45.453  25.184  25.041  1.00  0.00     0.338 C 
ATOM     34  O   UNL A   1      46.570  25.340  24.574  1.00  0.00    -0.246 OA
BRANCH  33  35
ATOM     35  C   UNL A   1      44.958  25.989  26.197  1.00  0.00     0.060 A 
ATOM     36  C   UNL A   1      44.389  25.303  27.280  1.00  0.00     0.016 A 
ATOM     37  C   UNL A   1      45.019  27.388  26.240  1.00  0.00     0.016 A 
ATOM     38  C   UNL A   1      43.888  25.998  28.392  1.00  0.00     0.010 A 
ATOM     39  C   UNL A   1      44.506  28.086  27.353  1.00  0.00     0.010 A 
ATOM     40  C   UNL A   1      43.916  27.399  28.431  1.00  0.00    -0.014 A 
BRANCH  40  41
ATOM     41  C   UNL A   1      43.133  28.130  29.475  1.00  0.00     0.031 A 
ATOM     42  C   UNL A   1      43.756  28.316  30.828  1.00  0.00     0.074 A 
ATOM     43  C   UNL A   1      41.907  28.650  29.269  1.00  0.00     0.049 A 
ATOM     44  N   UNL A   1      43.293  28.956  31.871  1.00  0.00    -0.248 NA
ATOM     45  C   UNL A   1      45.077  27.702  31.023  1.00  0.00     0.031 C 
ATOM     46  C   UNL A   1      41.180  28.585  28.015  1.00  0.00     0.029 A 
ATOM     47  N   UNL A   1      41.053  29.334  30.106  1.00  0.00    -0.354 N 
ATOM     48  C   UNL A   1      44.277  28.844  32.840  1.00  0.00     0.074 A 
ATOM     49  C   UNL A   1      45.340  28.037  32.276  1.00  0.00     0.031 C 
ATOM     50  C   UNL A   1      39.990  29.195  28.147  1.00  0.00     0.029 A 
ATOM     51  C   UNL A   1      39.852  29.670  29.523  1.00  0.00     0.049 A 
ATOM     52  H   UNL A   1      41.282  29.564  31.036  1.00  0.00     0.167 HD
ATOM     53  C   UNL A   1      44.305  29.364  34.089  1.00  0.00     0.031 A 
ATOM     54  C   UNL A   1      38.755  30.266  30.034  1.00  0.00     0.031 A 
ATOM     55  C   UNL A   1      43.235  30.104  34.697  1.00  0.00     0.049 A 
ATOM     56  C   UNL A   1      38.750  30.716  31.471  1.00  0.00     0.074 A 
ATOM     57  C   UNL A   1      43.185  30.659  35.963  1.00  0.00     0.029 A 
ATOM     58  N   UNL A   1      42.013  30.363  34.097  1.00  0.00    -0.354 N 
ATOM     59  N   UNL A   1      39.715  30.657  32.354  1.00  0.00    -0.248 NA
ATOM     60  C   UNL A   1      37.508  31.319  31.981  1.00  0.00     0.031 C 
ATOM     61  C   UNL A   1      41.908  31.195  36.155  1.00  0.00     0.029 A 
ATOM     62  C   UNL A   1      41.186  31.032  34.984  1.00  0.00     0.049 A 
ATOM     63  H   UNL A   1      41.769  30.110  33.178  1.00  0.00     0.167 HD
ATOM     64  C   UNL A   1      39.214  31.250  33.508  1.00  0.00     0.074 A 
ATOM     65  C   UNL A   1      37.856  31.659  33.215  1.00  0.00     0.031 C 
ATOM     66  C   UNL A   1      39.836  31.446  34.695  1.00  0.00     0.031 A 
BRANCH  53  67
ATOM     67  C   UNL A   1      45.540  29.083  34.892  1.00  0.00    -0.014 A 
ATOM     68  C   UNL A   1      45.641  27.927  35.683  1.00  0.00     0.009 A 
ATOM     69  C   UNL A   1      46.594  30.007  34.888  1.00  0.00     0.009 A 
ATOM     70  C   UNL A   1      46.755  27.729  36.499  1.00  0.00     0.001 A 
ATOM     71  C   UNL A   1      47.718  29.792  35.684  1.00  0.00     0.001 A 
ATOM     72  C   UNL A   1      47.792  28.662  36.498  1.00  0.00     0.000 A 
ENDBRANCH  53  67
BRANCH  54  73
ATOM     73  C   UNL A   1      37.541  30.450  29.192  1.00  0.00    -0.014 A 
ATOM     74  C   UNL A   1      37.203  31.710  28.676  1.00  0.00     0.009 A 
ATOM     75  C   UNL A   1      36.691  29.362  28.930  1.00  0.00     0.009 A 
ATOM     76  C   UNL A   1      36.032  31.881  27.931  1.00  0.00     0.001 A 
ATOM     77  C   UNL A   1      35.535  29.531  28.165  1.00  0.00     0.001 A 
ATOM     78  C   UNL A   1      35.201  30.791  27.673  1.00  0.00     0.000 A 
ENDBRANCH  54  73
BRANCH  66  79
ATOM     79  C   UNL A   1      39.086  32.182  35.771  1.00  0.00    -0.014 A 
ATOM     80  C   UNL A   1      38.293  31.506  36.710  1.00  0.00     0.009 A 
ATOM     81  C   UNL A   1      39.244  33.572  35.892  1.00  0.00     0.009 A 
ATOM     82  C   UNL A   1      37.661  32.210  37.738  1.00  0.00     0.001 A 
ATOM     83  C   UNL A   1      38.634  34.269  36.935  1.00  0.00     0.001 A 
ATOM     84  C   UNL A   1      37.839  33.589  37.855  1.00  0.00     0.000 A 
ENDBRANCH  66  79
ENDBRANCH  40  41
ENDBRANCH  33  35
ENDBRANCH  32  33
ENDBRANCH  31  32
ENDBRANCH  30  31
ENDBRANCH  29  30
ENDBRANCH  28  29
ENDBRANCH   1  28
TORSDOF 20
ENDMDL
