MODEL 1
REMARK VINA RESULT:     -10.4      0.000      0.000
REMARK SMILES C[C@H]1[C@H](C(=O)OCCOCCOC(=O)c2ccc(-c3c4nc(c(-c5ccccc5)c5ccc([nH]5)c(-c5ccccc5)c5nc(c(-c6ccccc6)c6ccc3[nH]6)C=C5)C=C4)cc2)CCN1C(=O)[C@H]1CC[C@@H](C[NH3+])CC1
REMARK SMILES IDX 8 1 7 2 6 3 4 4 5 5 3 6 1 7 2 8 65 9 63 10 64 11 66 12 67 13
REMARK SMILES IDX 68 14 75 15 69 16 74 17 70 18 71 19 72 20 73 21 9 25 10 26
REMARK SMILES IDX 11 27 12 28 13 29 14 30 15 31 16 32 62 33 17 34 61 35 18 36
REMARK SMILES IDX 19 37 20 38 55 39 21 40 60 41 54 42 56 43 22 44 59 45 53 46
REMARK SMILES IDX 52 47 23 49 45 50 30 51 44 52 31 53 34 54 43 55 57 56 32 57
REMARK SMILES IDX 33 58 42 60 58 61 35 62 24 63 25 64 29 65 26 66 28 67 27 68
REMARK SMILES IDX 46 69 47 70 51 71 48 72 50 73 49 74 36 75 37 76 41 77 38 78
REMARK SMILES IDX 40 79 39 80
REMARK H PARENT 73 22 73 23 73 24 56 48 34 59
REMARK Flexibility Score: inf
ROOT
ATOM      1  C   UNL A   1      34.528  32.584  28.002  1.00  0.00     0.202 C 
ENDROOT
BRANCH   1   2
ATOM      2  C   UNL A   1      33.945  31.168  28.010  1.00  0.00     0.261 C 
BRANCH   2   3
ATOM      3  O   UNL A   1      33.550  30.691  26.711  1.00  0.00    -0.463 OA
BRANCH   3   4
ATOM      4  C   UNL A   1      32.208  30.638  26.506  1.00  0.00     0.311 C 
ATOM      5  O   UNL A   1      31.435  31.574  26.679  1.00  0.00    -0.252 OA
BRANCH   4   6
ATOM      6  C   UNL A   1      31.707  29.275  26.099  1.00  0.00     0.123 C 
ATOM      7  C   UNL A   1      31.539  28.700  23.698  1.00  0.00     0.032 C 
ATOM      8  C   UNL A   1      32.427  28.538  24.938  1.00  0.00     0.096 C 
ATOM      9  N   UNL A   1      32.528  27.132  25.399  1.00  0.00    -0.339 N 
ATOM     10  C   UNL A   1      31.761  28.314  27.275  1.00  0.00     0.039 C 
ATOM     11  C   UNL A   1      31.710  26.964  26.597  1.00  0.00     0.121 C 
BRANCH   9  12
ATOM     12  C   UNL A   1      33.269  26.041  24.995  1.00  0.00     0.225 C 
ATOM     13  O   UNL A   1      33.910  26.109  23.933  1.00  0.00    -0.275 OA
BRANCH  12  14
ATOM     14  C   UNL A   1      33.394  24.723  25.766  1.00  0.00     0.078 C 
ATOM     15  C   UNL A   1      32.342  23.681  25.387  1.00  0.00     0.014 C 
ATOM     16  C   UNL A   1      34.798  24.142  25.929  1.00  0.00     0.014 C 
ATOM     17  C   UNL A   1      32.374  22.464  26.312  1.00  0.00     0.010 C 
ATOM     18  C   UNL A   1      34.764  22.943  26.889  1.00  0.00     0.010 C 
ATOM     19  C   UNL A   1      33.779  21.851  26.439  1.00  0.00     0.044 C 
BRANCH  19  20
ATOM     20  C   UNL A   1      34.196  21.139  25.134  1.00  0.00     0.262 C 
BRANCH  20  21
ATOM     21  N   UNL A   1      35.434  20.385  25.294  1.00  0.00    -0.357 N 
ATOM     22  H   UNL A   1      35.655  19.905  24.421  1.00  0.00     0.344 HD
ATOM     23  H   UNL A   1      35.321  19.699  26.039  1.00  0.00     0.344 HD
ATOM     24  H   UNL A   1      36.193  21.023  25.532  1.00  0.00     0.344 HD
ENDBRANCH  20  21
ENDBRANCH  19  20
ENDBRANCH  12  14
ENDBRANCH   9  12
ENDBRANCH   4   6
ENDBRANCH   3   4
ENDBRANCH   2   3
ENDBRANCH   1   2
BRANCH   1  25
ATOM     25  O   UNL A   1      33.960  33.532  28.900  1.00  0.00    -0.374 OA
BRANCH  25  26
ATOM     26  C   UNL A   1      34.798  34.082  29.912  1.00  0.00     0.202 C 
BRANCH  26  27
ATOM     27  C   UNL A   1      34.450  33.749  31.366  1.00  0.00     0.261 C 
BRANCH  27  28
ATOM     28  O   UNL A   1      34.608  32.350  31.674  1.00  0.00    -0.460 OA
BRANCH  28  29
ATOM     29  C   UNL A   1      35.688  32.072  32.446  1.00  0.00     0.338 C 
ATOM     30  O   UNL A   1      35.851  32.388  33.617  1.00  0.00    -0.246 OA
BRANCH  29  31
ATOM     31  C   UNL A   1      36.653  31.204  31.746  1.00  0.00     0.060 A 
ATOM     32  C   UNL A   1      37.736  30.718  32.485  1.00  0.00     0.016 A 
ATOM     33  C   UNL A   1      36.589  30.984  30.369  1.00  0.00     0.016 A 
ATOM     34  C   UNL A   1      38.796  30.089  31.837  1.00  0.00     0.010 A 
ATOM     35  C   UNL A   1      37.656  30.359  29.715  1.00  0.00     0.010 A 
ATOM     36  C   UNL A   1      38.788  29.955  30.441  1.00  0.00    -0.014 A 
BRANCH  36  37
ATOM     37  C   UNL A   1      40.033  29.528  29.759  1.00  0.00     0.031 A 
ATOM     38  C   UNL A   1      40.079  28.185  29.079  1.00  0.00     0.074 A 
ATOM     39  C   UNL A   1      41.087  30.358  29.678  1.00  0.00     0.049 A 
ATOM     40  N   UNL A   1      41.011  27.679  28.311  1.00  0.00    -0.248 NA
ATOM     41  C   UNL A   1      38.923  27.299  29.289  1.00  0.00     0.031 C 
ATOM     42  C   UNL A   1      41.167  31.686  30.284  1.00  0.00     0.029 A 
ATOM     43  N   UNL A   1      42.287  30.207  29.032  1.00  0.00    -0.354 N 
ATOM     44  C   UNL A   1      40.550  26.422  27.937  1.00  0.00     0.074 A 
ATOM     45  C   UNL A   1      39.275  26.226  28.595  1.00  0.00     0.031 C 
ATOM     46  C   UNL A   1      42.352  32.236  29.969  1.00  0.00     0.029 A 
ATOM     47  C   UNL A   1      43.113  31.297  29.147  1.00  0.00     0.049 A 
ATOM     48  H   UNL A   1      42.534  29.394  28.534  1.00  0.00     0.167 HD
ATOM     49  C   UNL A   1      41.125  25.518  27.109  1.00  0.00     0.031 A 
ATOM     50  C   UNL A   1      44.339  31.519  28.636  1.00  0.00     0.031 A 
ATOM     51  C   UNL A   1      42.398  25.698  26.466  1.00  0.00     0.049 A 
ATOM     52  C   UNL A   1      44.974  30.484  27.749  1.00  0.00     0.074 A 
ATOM     53  C   UNL A   1      43.052  24.848  25.590  1.00  0.00     0.029 A 
ATOM     54  N   UNL A   1      43.217  26.802  26.637  1.00  0.00    -0.354 N 
ATOM     55  N   UNL A   1      44.496  29.329  27.352  1.00  0.00    -0.248 NA
ATOM     56  C   UNL A   1      46.310  30.797  27.221  1.00  0.00     0.031 C 
ATOM     57  C   UNL A   1      44.288  25.419  25.266  1.00  0.00     0.029 A 
ATOM     58  C   UNL A   1      44.381  26.646  25.902  1.00  0.00     0.049 A 
ATOM     59  H   UNL A   1      43.004  27.582  27.198  1.00  0.00     0.167 HD
ATOM     60  C   UNL A   1      45.461  28.790  26.509  1.00  0.00     0.074 A 
ATOM     61  C   UNL A   1      46.543  29.752  26.441  1.00  0.00     0.031 C 
ATOM     62  C   UNL A   1      45.451  27.608  25.848  1.00  0.00     0.031 A 
BRANCH  49  63
ATOM     63  C   UNL A   1      40.378  24.237  26.865  1.00  0.00    -0.014 A 
ATOM     64  C   UNL A   1      39.143  24.235  26.198  1.00  0.00     0.009 A 
ATOM     65  C   UNL A   1      40.931  23.015  27.278  1.00  0.00     0.009 A 
ATOM     66  C   UNL A   1      38.461  23.036  25.978  1.00  0.00     0.001 A 
ATOM     67  C   UNL A   1      40.258  21.816  27.036  1.00  0.00     0.001 A 
ATOM     68  C   UNL A   1      39.020  21.827  26.394  1.00  0.00     0.000 A 
ENDBRANCH  49  63
BRANCH  50  69
ATOM     69  C   UNL A   1      45.044  32.791  28.933  1.00  0.00    -0.014 A 
ATOM     70  C   UNL A   1      45.862  32.909  30.067  1.00  0.00     0.009 A 
ATOM     71  C   UNL A   1      44.890  33.899  28.085  1.00  0.00     0.009 A 
ATOM     72  C   UNL A   1      46.495  34.119  30.358  1.00  0.00     0.001 A 
ATOM     73  C   UNL A   1      45.543  35.101  28.367  1.00  0.00     0.001 A 
ATOM     74  C   UNL A   1      46.337  35.212  29.507  1.00  0.00     0.000 A 
ENDBRANCH  50  69
BRANCH  62  75
ATOM     75  C   UNL A   1      46.632  27.302  24.972  1.00  0.00    -0.014 A 
ATOM     76  C   UNL A   1      46.823  27.967  23.751  1.00  0.00     0.009 A 
ATOM     77  C   UNL A   1      47.580  26.355  25.388  1.00  0.00     0.009 A 
ATOM     78  C   UNL A   1      47.923  27.660  22.945  1.00  0.00     0.001 A 
ATOM     79  C   UNL A   1      48.691  26.069  24.593  1.00  0.00     0.001 A 
ATOM     80  C   UNL A   1      48.856  26.714  23.368  1.00  0.00     0.000 A 
ENDBRANCH  62  75
ENDBRANCH  36  37
ENDBRANCH  29  31
ENDBRANCH  28  29
ENDBRANCH  27  28
ENDBRANCH  26  27
ENDBRANCH  25  26
ENDBRANCH   1  25
TORSDOF 18
ENDMDL
MODEL 2
REMARK VINA RESULT:     -10.3      3.485      8.844
REMARK SMILES C[C@H]1[C@H](C(=O)OCCOCCOC(=O)c2ccc(-c3c4nc(c(-c5ccccc5)c5ccc([nH]5)c(-c5ccccc5)c5nc(c(-c6ccccc6)c6ccc3[nH]6)C=C5)C=C4)cc2)CCN1C(=O)[C@H]1CC[C@@H](C[NH3+])CC1
REMARK SMILES IDX 8 1 7 2 6 3 4 4 5 5 3 6 1 7 2 8 65 9 63 10 64 11 66 12 67 13
REMARK SMILES IDX 68 14 75 15 69 16 74 17 70 18 71 19 72 20 73 21 9 25 10 26
REMARK SMILES IDX 11 27 12 28 13 29 14 30 15 31 16 32 62 33 17 34 61 35 18 36
REMARK SMILES IDX 19 37 20 38 55 39 21 40 60 41 54 42 56 43 22 44 59 45 53 46
REMARK SMILES IDX 52 47 23 49 45 50 30 51 44 52 31 53 34 54 43 55 57 56 32 57
REMARK SMILES IDX 33 58 42 60 58 61 35 62 24 63 25 64 29 65 26 66 28 67 27 68
REMARK SMILES IDX 46 69 47 70 51 71 48 72 50 73 49 74 36 75 37 76 41 77 38 78
REMARK SMILES IDX 40 79 39 80
REMARK H PARENT 73 22 73 23 73 24 56 48 34 59
REMARK Flexibility Score: inf
ROOT
ATOM      1  C   UNL A   1      37.115  22.300  24.292  1.00  0.00     0.202 C 
ENDROOT
BRANCH   1   2
ATOM      2  C   UNL A   1      35.641  22.179  23.892  1.00  0.00     0.261 C 
BRANCH   2   3
ATOM      3  O   UNL A   1      35.243  23.084  22.846  1.00  0.00    -0.463 OA
BRANCH   3   4
ATOM      4  C   UNL A   1      33.904  23.300  22.757  1.00  0.00     0.311 C 
ATOM      5  O   UNL A   1      33.313  23.615  21.729  1.00  0.00    -0.252 OA
BRANCH   4   6
ATOM      6  C   UNL A   1      33.179  23.187  24.074  1.00  0.00     0.123 C 
ATOM      7  C   UNL A   1      34.027  24.415  26.047  1.00  0.00     0.032 C 
ATOM      8  C   UNL A   1      32.984  24.471  24.925  1.00  0.00     0.096 C 
ATOM      9  N   UNL A   1      31.590  24.375  25.422  1.00  0.00    -0.339 N 
ATOM     10  C   UNL A   1      31.781  22.630  23.865  1.00  0.00     0.039 C 
ATOM     11  C   UNL A   1      31.073  23.040  25.137  1.00  0.00     0.121 C 
BRANCH   9  12
ATOM     12  C   UNL A   1      30.710  25.275  25.987  1.00  0.00     0.225 C 
ATOM     13  O   UNL A   1      29.745  24.843  26.638  1.00  0.00    -0.275 OA
BRANCH  12  14
ATOM     14  C   UNL A   1      30.828  26.800  25.902  1.00  0.00     0.078 C 
ATOM     15  C   UNL A   1      31.797  27.405  26.917  1.00  0.00     0.014 C 
ATOM     16  C   UNL A   1      30.944  27.412  24.506  1.00  0.00     0.014 C 
ATOM     17  C   UNL A   1      31.736  28.933  26.936  1.00  0.00     0.010 C 
ATOM     18  C   UNL A   1      30.849  28.943  24.593  1.00  0.00     0.010 C 
ATOM     19  C   UNL A   1      31.900  29.551  25.536  1.00  0.00     0.044 C 
BRANCH  19  20
ATOM     20  C   UNL A   1      33.350  29.400  25.028  1.00  0.00     0.262 C 
BRANCH  20  21
ATOM     21  N   UNL A   1      33.453  29.632  23.592  1.00  0.00    -0.357 N 
ATOM     22  H   UNL A   1      32.551  29.446  23.152  1.00  0.00     0.344 HD
ATOM     23  H   UNL A   1      34.159  29.011  23.197  1.00  0.00     0.344 HD
ATOM     24  H   UNL A   1      33.720  30.602  23.422  1.00  0.00     0.344 HD
ENDBRANCH  20  21
ENDBRANCH  19  20
ENDBRANCH  12  14
ENDBRANCH   9  12
ENDBRANCH   4   6
ENDBRANCH   3   4
ENDBRANCH   2   3
ENDBRANCH   1   2
BRANCH   1  25
ATOM     25  O   UNL A   1      37.435  22.139  25.670  1.00  0.00    -0.374 OA
BRANCH  25  26
ATOM     26  C   UNL A   1      38.784  21.839  26.014  1.00  0.00     0.202 C 
BRANCH  26  27
ATOM     27  C   UNL A   1      39.337  20.484  25.560  1.00  0.00     0.261 C 
BRANCH  27  28
ATOM     28  O   UNL A   1      40.296  19.932  26.484  1.00  0.00    -0.460 OA
BRANCH  28  29
ATOM     29  C   UNL A   1      41.583  20.020  26.064  1.00  0.00     0.338 C 
ATOM     30  O   UNL A   1      42.145  19.280  25.268  1.00  0.00    -0.246 OA
BRANCH  29  31
ATOM     31  C   UNL A   1      42.249  21.225  26.593  1.00  0.00     0.060 A 
ATOM     32  C   UNL A   1      42.277  21.388  27.981  1.00  0.00     0.016 A 
ATOM     33  C   UNL A   1      42.707  22.245  25.757  1.00  0.00     0.016 A 
ATOM     34  C   UNL A   1      42.683  22.601  28.532  1.00  0.00     0.010 A 
ATOM     35  C   UNL A   1      43.107  23.467  26.309  1.00  0.00     0.010 A 
ATOM     36  C   UNL A   1      43.047  23.667  27.697  1.00  0.00    -0.014 A 
BRANCH  36  37
ATOM     37  C   UNL A   1      43.215  25.014  28.293  1.00  0.00     0.031 A 
ATOM     38  C   UNL A   1      44.596  25.498  28.647  1.00  0.00     0.074 A 
ATOM     39  C   UNL A   1      42.159  25.830  28.445  1.00  0.00     0.049 A 
ATOM     40  N   UNL A   1      44.980  26.685  29.043  1.00  0.00    -0.248 NA
ATOM     41  C   UNL A   1      45.688  24.517  28.537  1.00  0.00     0.031 C 
ATOM     42  C   UNL A   1      40.772  25.487  28.133  1.00  0.00     0.029 A 
ATOM     43  N   UNL A   1      42.096  27.127  28.886  1.00  0.00    -0.354 N 
ATOM     44  C   UNL A   1      46.357  26.598  29.218  1.00  0.00     0.074 A 
ATOM     45  C   UNL A   1      46.734  25.232  28.925  1.00  0.00     0.031 C 
ATOM     46  C   UNL A   1      39.995  26.555  28.381  1.00  0.00     0.029 A 
ATOM     47  C   UNL A   1      40.828  27.650  28.873  1.00  0.00     0.049 A 
ATOM     48  H   UNL A   1      42.886  27.635  29.185  1.00  0.00     0.167 HD
ATOM     49  C   UNL A   1      47.231  27.569  29.575  1.00  0.00     0.031 A 
ATOM     50  C   UNL A   1      40.388  28.879  29.208  1.00  0.00     0.031 A 
ATOM     51  C   UNL A   1      46.861  28.923  29.885  1.00  0.00     0.049 A 
ATOM     52  C   UNL A   1      41.374  29.930  29.638  1.00  0.00     0.074 A 
ATOM     53  C   UNL A   1      47.680  29.984  30.233  1.00  0.00     0.029 A 
ATOM     54  N   UNL A   1      45.561  29.402  29.893  1.00  0.00    -0.354 N 
ATOM     55  N   UNL A   1      42.679  29.850  29.735  1.00  0.00    -0.248 NA
ATOM     56  C   UNL A   1      40.824  31.249  29.982  1.00  0.00     0.031 C 
ATOM     57  C   UNL A   1      46.869  31.095  30.496  1.00  0.00     0.029 A 
ATOM     58  C   UNL A   1      45.552  30.736  30.263  1.00  0.00     0.049 A 
ATOM     59  H   UNL A   1      44.763  28.871  29.670  1.00  0.00     0.167 HD
ATOM     60  C   UNL A   1      43.107  31.113  30.126  1.00  0.00     0.074 A 
ATOM     61  C   UNL A   1      41.925  31.943  30.232  1.00  0.00     0.031 C 
ATOM     62  C   UNL A   1      44.367  31.548  30.370  1.00  0.00     0.031 A 
BRANCH  49  63
ATOM     63  C   UNL A   1      48.681  27.188  29.664  1.00  0.00    -0.014 A 
ATOM     64  C   UNL A   1      49.228  26.690  30.858  1.00  0.00     0.009 A 
ATOM     65  C   UNL A   1      49.505  27.298  28.533  1.00  0.00     0.009 A 
ATOM     66  C   UNL A   1      50.578  26.340  30.925  1.00  0.00     0.001 A 
ATOM     67  C   UNL A   1      50.849  26.925  28.597  1.00  0.00     0.001 A 
ATOM     68  C   UNL A   1      51.387  26.454  29.794  1.00  0.00     0.000 A 
ENDBRANCH  49  63
BRANCH  50  69
ATOM     69  C   UNL A   1      38.939  29.192  29.130  1.00  0.00    -0.014 A 
ATOM     70  C   UNL A   1      38.114  29.054  30.256  1.00  0.00     0.009 A 
ATOM     71  C   UNL A   1      38.374  29.621  27.919  1.00  0.00     0.009 A 
ATOM     72  C   UNL A   1      36.746  29.318  30.165  1.00  0.00     0.001 A 
ATOM     73  C   UNL A   1      37.009  29.906  27.838  1.00  0.00     0.001 A 
ATOM     74  C   UNL A   1      36.196  29.746  28.958  1.00  0.00     0.000 A 
ENDBRANCH  50  69
BRANCH  62  75
ATOM     75  C   UNL A   1      44.532  32.992  30.749  1.00  0.00    -0.014 A 
ATOM     76  C   UNL A   1      44.474  33.404  32.090  1.00  0.00     0.009 A 
ATOM     77  C   UNL A   1      44.776  33.949  29.751  1.00  0.00     0.009 A 
ATOM     78  C   UNL A   1      44.618  34.754  32.419  1.00  0.00     0.001 A 
ATOM     79  C   UNL A   1      44.944  35.293  30.087  1.00  0.00     0.001 A 
ATOM     80  C   UNL A   1      44.856  35.696  31.419  1.00  0.00     0.000 A 
ENDBRANCH  62  75
ENDBRANCH  36  37
ENDBRANCH  29  31
ENDBRANCH  28  29
ENDBRANCH  27  28
ENDBRANCH  26  27
ENDBRANCH  25  26
ENDBRANCH   1  25
TORSDOF 18
ENDMDL
MODEL 3
REMARK VINA RESULT:     -10.3      3.530      9.635
REMARK SMILES C[C@H]1[C@H](C(=O)OCCOCCOC(=O)c2ccc(-c3c4nc(c(-c5ccccc5)c5ccc([nH]5)c(-c5ccccc5)c5nc(c(-c6ccccc6)c6ccc3[nH]6)C=C5)C=C4)cc2)CCN1C(=O)[C@H]1CC[C@@H](C[NH3+])CC1
REMARK SMILES IDX 8 1 7 2 6 3 4 4 5 5 3 6 1 7 2 8 65 9 63 10 64 11 66 12 67 13
REMARK SMILES IDX 68 14 75 15 69 16 74 17 70 18 71 19 72 20 73 21 9 25 10 26
REMARK SMILES IDX 11 27 12 28 13 29 14 30 15 31 16 32 62 33 17 34 61 35 18 36
REMARK SMILES IDX 19 37 20 38 55 39 21 40 60 41 54 42 56 43 22 44 59 45 53 46
REMARK SMILES IDX 52 47 23 49 45 50 30 51 44 52 31 53 34 54 43 55 57 56 32 57
REMARK SMILES IDX 33 58 42 60 58 61 35 62 24 63 25 64 29 65 26 66 28 67 27 68
REMARK SMILES IDX 46 69 47 70 51 71 48 72 50 73 49 74 36 75 37 76 41 77 38 78
REMARK SMILES IDX 40 79 39 80
REMARK H PARENT 73 22 73 23 73 24 56 48 34 59
REMARK Flexibility Score: inf
ROOT
ATOM      1  C   UNL A   1      40.736  20.173  26.834  1.00  0.00     0.202 C 
ENDROOT
BRANCH   1   2
ATOM      2  C   UNL A   1      40.189  21.413  26.118  1.00  0.00     0.261 C 
BRANCH   2   3
ATOM      3  O   UNL A   1      38.825  21.281  25.681  1.00  0.00    -0.463 OA
BRANCH   3   4
ATOM      4  C   UNL A   1      38.103  22.432  25.704  1.00  0.00     0.311 C 
ATOM      5  O   UNL A   1      38.487  23.490  26.192  1.00  0.00    -0.252 OA
BRANCH   4   6
ATOM      6  C   UNL A   1      36.718  22.296  25.123  1.00  0.00     0.123 C 
ATOM      7  C   UNL A   1      34.797  21.886  26.627  1.00  0.00     0.032 C 
ATOM      8  C   UNL A   1      35.537  22.986  25.856  1.00  0.00     0.096 C 
ATOM      9  N   UNL A   1      34.724  23.580  24.768  1.00  0.00    -0.339 N 
ATOM     10  C   UNL A   1      36.679  22.838  23.705  1.00  0.00     0.039 C 
ATOM     11  C   UNL A   1      35.202  23.073  23.485  1.00  0.00     0.121 C 
BRANCH   9  12
ATOM     12  C   UNL A   1      33.722  24.528  24.727  1.00  0.00     0.225 C 
ATOM     13  O   UNL A   1      32.575  24.206  25.075  1.00  0.00    -0.275 OA
BRANCH  12  14
ATOM     14  C   UNL A   1      33.905  25.988  24.300  1.00  0.00     0.078 C 
ATOM     15  C   UNL A   1      33.554  26.253  22.836  1.00  0.00     0.014 C 
ATOM     16  C   UNL A   1      33.391  27.063  25.256  1.00  0.00     0.014 C 
ATOM     17  C   UNL A   1      33.937  27.667  22.396  1.00  0.00     0.010 C 
ATOM     18  C   UNL A   1      33.832  28.453  24.773  1.00  0.00     0.010 C 
ATOM     19  C   UNL A   1      33.379  28.752  23.334  1.00  0.00     0.044 C 
BRANCH  19  20
ATOM     20  C   UNL A   1      31.849  28.887  23.180  1.00  0.00     0.262 C 
BRANCH  20  21
ATOM     21  N   UNL A   1      31.484  29.654  21.995  1.00  0.00    -0.357 N 
ATOM     22  H   UNL A   1      30.659  29.237  21.561  1.00  0.00     0.344 HD
ATOM     23  H   UNL A   1      32.258  29.644  21.331  1.00  0.00     0.344 HD
ATOM     24  H   UNL A   1      31.277  30.616  22.261  1.00  0.00     0.344 HD
ENDBRANCH  20  21
ENDBRANCH  19  20
ENDBRANCH  12  14
ENDBRANCH   9  12
ENDBRANCH   4   6
ENDBRANCH   3   4
ENDBRANCH   2   3
ENDBRANCH   1   2
BRANCH   1  25
ATOM     25  O   UNL A   1      41.235  19.116  26.021  1.00  0.00    -0.374 OA
BRANCH  25  26
ATOM     26  C   UNL A   1      42.589  18.714  26.201  1.00  0.00     0.202 C 
BRANCH  26  27
ATOM     27  C   UNL A   1      43.571  19.037  25.070  1.00  0.00     0.261 C 
BRANCH  27  28
ATOM     28  O   UNL A   1      44.513  20.070  25.423  1.00  0.00    -0.460 OA
BRANCH  28  29
ATOM     29  C   UNL A   1      44.433  21.180  24.647  1.00  0.00     0.338 C 
ATOM     30  O   UNL A   1      44.647  21.249  23.444  1.00  0.00    -0.246 OA
BRANCH  29  31
ATOM     31  C   UNL A   1      43.923  22.339  25.403  1.00  0.00     0.060 A 
ATOM     32  C   UNL A   1      43.805  23.552  24.717  1.00  0.00     0.016 A 
ATOM     33  C   UNL A   1      43.702  22.288  26.779  1.00  0.00     0.016 A 
ATOM     34  C   UNL A   1      43.551  24.727  25.419  1.00  0.00     0.010 A 
ATOM     35  C   UNL A   1      43.455  23.469  27.488  1.00  0.00     0.010 A 
ATOM     36  C   UNL A   1      43.430  24.701  26.815  1.00  0.00    -0.014 A 
BRANCH  36  37
ATOM     37  C   UNL A   1      43.427  25.987  27.555  1.00  0.00     0.031 A 
ATOM     38  C   UNL A   1      44.737  26.613  27.954  1.00  0.00     0.074 A 
ATOM     39  C   UNL A   1      42.273  26.629  27.802  1.00  0.00     0.049 A 
ATOM     40  N   UNL A   1      44.964  27.791  28.476  1.00  0.00    -0.248 NA
ATOM     41  C   UNL A   1      45.948  25.807  27.731  1.00  0.00     0.031 C 
ATOM     42  C   UNL A   1      40.940  26.136  27.461  1.00  0.00     0.029 A 
ATOM     43  N   UNL A   1      42.045  27.850  28.384  1.00  0.00    -0.354 N 
ATOM     44  C   UNL A   1      46.343  27.874  28.634  1.00  0.00     0.074 A 
ATOM     45  C   UNL A   1      46.896  26.612  28.190  1.00  0.00     0.031 C 
ATOM     46  C   UNL A   1      40.030  27.055  27.828  1.00  0.00     0.029 A 
ATOM     47  C   UNL A   1      40.717  28.193  28.434  1.00  0.00     0.049 A 
ATOM     48  H   UNL A   1      42.764  28.425  28.732  1.00  0.00     0.167 HD
ATOM     49  C   UNL A   1      47.085  28.910  29.092  1.00  0.00     0.031 A 
ATOM     50  C   UNL A   1      40.122  29.307  28.905  1.00  0.00     0.031 A 
ATOM     51  C   UNL A   1      46.542  30.160  29.551  1.00  0.00     0.049 A 
ATOM     52  C   UNL A   1      40.965  30.430  29.443  1.00  0.00     0.074 A 
ATOM     53  C   UNL A   1      47.217  31.279  30.010  1.00  0.00     0.029 A 
ATOM     54  N   UNL A   1      45.189  30.453  29.618  1.00  0.00    -0.354 N 
ATOM     55  N   UNL A   1      42.271  30.518  29.524  1.00  0.00    -0.248 NA
ATOM     56  C   UNL A   1      40.249  31.616  29.933  1.00  0.00     0.031 C 
ATOM     57  C   UNL A   1      46.269  32.233  30.397  1.00  0.00     0.029 A 
ATOM     58  C   UNL A   1      45.008  31.726  30.133  1.00  0.00     0.049 A 
ATOM     59  H   UNL A   1      44.466  29.846  29.341  1.00  0.00     0.167 HD
ATOM     60  C   UNL A   1      42.532  31.778  30.050  1.00  0.00     0.074 A 
ATOM     61  C   UNL A   1      41.251  32.423  30.253  1.00  0.00     0.031 C 
ATOM     62  C   UNL A   1      43.727  32.352  30.335  1.00  0.00     0.031 A 
BRANCH  49  63
ATOM     63  C   UNL A   1      48.575  28.724  29.131  1.00  0.00    -0.014 A 
ATOM     64  C   UNL A   1      49.378  29.072  28.034  1.00  0.00     0.009 A 
ATOM     65  C   UNL A   1      49.188  28.224  30.291  1.00  0.00     0.009 A 
ATOM     66  C   UNL A   1      50.762  28.893  28.086  1.00  0.00     0.001 A 
ATOM     67  C   UNL A   1      50.574  28.068  30.348  1.00  0.00     0.001 A 
ATOM     68  C   UNL A   1      51.360  28.395  29.243  1.00  0.00     0.000 A 
ENDBRANCH  49  63
BRANCH  50  69
ATOM     69  C   UNL A   1      38.643  29.426  28.868  1.00  0.00    -0.014 A 
ATOM     70  C   UNL A   1      37.982  29.777  27.681  1.00  0.00     0.009 A 
ATOM     71  C   UNL A   1      37.887  29.200  30.028  1.00  0.00     0.009 A 
ATOM     72  C   UNL A   1      36.593  29.921  27.663  1.00  0.00     0.001 A 
ATOM     73  C   UNL A   1      36.496  29.322  30.001  1.00  0.00     0.001 A 
ATOM     74  C   UNL A   1      35.852  29.691  28.821  1.00  0.00     0.000 A 
ENDBRANCH  50  69
BRANCH  62  75
ATOM     75  C   UNL A   1      43.702  33.755  30.869  1.00  0.00    -0.014 A 
ATOM     76  C   UNL A   1      43.741  34.863  30.008  1.00  0.00     0.009 A 
ATOM     77  C   UNL A   1      43.611  33.971  32.254  1.00  0.00     0.009 A 
ATOM     78  C   UNL A   1      43.729  36.160  30.526  1.00  0.00     0.001 A 
ATOM     79  C   UNL A   1      43.574  35.268  32.766  1.00  0.00     0.001 A 
ATOM     80  C   UNL A   1      43.643  36.362  31.904  1.00  0.00     0.000 A 
ENDBRANCH  62  75
ENDBRANCH  36  37
ENDBRANCH  29  31
ENDBRANCH  28  29
ENDBRANCH  27  28
ENDBRANCH  26  27
ENDBRANCH  25  26
ENDBRANCH   1  25
TORSDOF 18
ENDMDL
