MODEL 1
REMARK VINA RESULT:     -11.0      0.000      0.000
REMARK SMILES CC1CCN(C(=O)Nc2nccnc2C(=O)OCCOCCOC(=O)c2ccc(-c3c4nc(c(-c5ccccc5)c5ccc([nH]5)c(-c5ccccc5)c5nc(c(-c6ccccc6)c6ccc3[nH]6)C=C5)C=C4)cc2)CC1
REMARK SMILES IDX 21 1 20 2 19 3 18 4 17 5 15 6 16 7 14 8 9 9 10 10 11 11
REMARK SMILES IDX 13 12 12 13 8 14 1 15 2 16 3 17 75 18 4 19 74 20 5 21 6 22
REMARK SMILES IDX 7 23 22 25 23 26 24 27 25 28 26 29 27 30 73 31 28 32 72 33
REMARK SMILES IDX 29 34 30 35 31 36 66 37 32 38 71 39 65 40 67 41 33 42 70 43
REMARK SMILES IDX 64 44 63 45 34 47 56 48 41 49 55 50 42 51 45 52 54 53 68 54
REMARK SMILES IDX 43 55 44 56 53 58 69 59 46 60 35 61 36 62 40 63 37 64 39 65
REMARK SMILES IDX 38 66 57 67 58 68 62 69 59 70 61 71 60 72 47 73 48 74 52 75
REMARK SMILES IDX 49 76 51 77 50 78
REMARK H PARENT 8 24 67 46 45 57
REMARK Flexibility Score: inf
ROOT
ATOM      1  C   UNL A   1      31.920  31.912  26.956  1.00  0.00     0.202 C 
ENDROOT
BRANCH   1   2
ATOM      2  O   UNL A   1      32.145  30.506  27.080  1.00  0.00    -0.374 OA
BRANCH   2   3
ATOM      3  C   UNL A   1      33.493  30.049  26.979  1.00  0.00     0.202 C 
BRANCH   3   4
ATOM      4  C   UNL A   1      33.661  28.554  26.703  1.00  0.00     0.261 C 
BRANCH   4   5
ATOM      5  O   UNL A   1      32.657  28.089  25.778  1.00  0.00    -0.458 OA
BRANCH   5   6
ATOM      6  C   UNL A   1      32.905  28.376  24.473  1.00  0.00     0.360 C 
ATOM      7  O   UNL A   1      34.017  28.374  23.961  1.00  0.00    -0.244 OA
BRANCH   6   8
ATOM      8  C   UNL A   1      31.656  28.634  23.689  1.00  0.00     0.191 A 
ATOM      9  C   UNL A   1      31.282  28.001  22.489  1.00  0.00     0.167 A 
ATOM     10  N   UNL A   1      30.060  28.255  21.963  1.00  0.00    -0.235 NA
ATOM     11  C   UNL A   1      29.304  29.216  22.541  1.00  0.00     0.133 A 
ATOM     12  N   UNL A   1      30.883  29.617  24.257  1.00  0.00    -0.244 NA
ATOM     13  C   UNL A   1      29.723  29.910  23.650  1.00  0.00     0.132 A 
BRANCH   9  14
ATOM     14  N   UNL A   1      32.135  27.111  21.815  1.00  0.00    -0.290 N 
ATOM     15  C   UNL A   1      31.376  23.489  26.773  1.00  0.00     0.008 C 
ATOM     16  C   UNL A   1      31.241  23.538  25.250  1.00  0.00    -0.011 C 
ATOM     17  C   UNL A   1      32.618  23.371  24.579  1.00  0.00     0.025 C 
ATOM     18  C   UNL A   1      30.570  24.847  24.805  1.00  0.00     0.025 C 
ATOM     19  C   UNL A   1      32.584  23.638  23.071  1.00  0.00     0.121 C 
ATOM     20  C   UNL A   1      30.550  24.941  23.279  1.00  0.00     0.121 C 
ATOM     21  N   UNL A   1      31.920  24.912  22.779  1.00  0.00    -0.324 N 
ATOM     22  C   UNL A   1      32.576  25.849  22.028  1.00  0.00     0.323 C 
ATOM     23  O   UNL A   1      33.612  25.556  21.418  1.00  0.00    -0.248 OA
ATOM     24  H   UNL A   1      32.502  27.499  20.988  1.00  0.00     0.173 HD
ENDBRANCH   9  14
ENDBRANCH   6   8
ENDBRANCH   5   6
ENDBRANCH   4   5
ENDBRANCH   3   4
ENDBRANCH   2   3
ENDBRANCH   1   2
BRANCH   1  25
ATOM     25  C   UNL A   1      32.664  32.798  27.960  1.00  0.00     0.261 C 
BRANCH  25  26
ATOM     26  O   UNL A   1      32.650  34.180  27.556  1.00  0.00    -0.460 OA
BRANCH  26  27
ATOM     27  C   UNL A   1      32.977  35.066  28.525  1.00  0.00     0.338 C 
ATOM     28  O   UNL A   1      32.346  36.058  28.864  1.00  0.00    -0.246 OA
BRANCH  27  29
ATOM     29  C   UNL A   1      34.145  34.577  29.280  1.00  0.00     0.060 A 
ATOM     30  C   UNL A   1      35.368  34.485  28.601  1.00  0.00     0.016 A 
ATOM     31  C   UNL A   1      34.039  34.168  30.610  1.00  0.00     0.016 A 
ATOM     32  C   UNL A   1      36.480  33.935  29.236  1.00  0.00     0.010 A 
ATOM     33  C   UNL A   1      35.151  33.605  31.240  1.00  0.00     0.010 A 
ATOM     34  C   UNL A   1      36.365  33.455  30.546  1.00  0.00    -0.014 A 
BRANCH  34  35
ATOM     35  C   UNL A   1      37.467  32.672  31.148  1.00  0.00     0.031 A 
ATOM     36  C   UNL A   1      38.037  33.111  32.466  1.00  0.00     0.074 A 
ATOM     37  C   UNL A   1      37.961  31.588  30.527  1.00  0.00     0.049 A 
ATOM     38  N   UNL A   1      39.050  32.625  33.137  1.00  0.00    -0.248 NA
ATOM     39  C   UNL A   1      37.380  34.259  33.111  1.00  0.00     0.031 C 
ATOM     40  C   UNL A   1      37.472  31.041  29.264  1.00  0.00     0.029 A 
ATOM     41  N   UNL A   1      39.002  30.765  30.874  1.00  0.00    -0.354 N 
ATOM     42  C   UNL A   1      39.162  33.416  34.273  1.00  0.00     0.074 A 
ATOM     43  C   UNL A   1      38.129  34.427  34.191  1.00  0.00     0.031 C 
ATOM     44  C   UNL A   1      38.225  29.979  28.931  1.00  0.00     0.029 A 
ATOM     45  C   UNL A   1      39.270  29.798  29.938  1.00  0.00     0.049 A 
ATOM     46  H   UNL A   1      39.508  30.858  31.714  1.00  0.00     0.167 HD
ATOM     47  C   UNL A   1      40.047  33.312  35.294  1.00  0.00     0.031 A 
ATOM     48  C   UNL A   1      40.264  28.892  29.883  1.00  0.00     0.031 A 
ATOM     49  C   UNL A   1      41.088  32.321  35.365  1.00  0.00     0.049 A 
ATOM     50  C   UNL A   1      41.280  28.838  30.990  1.00  0.00     0.074 A 
ATOM     51  C   UNL A   1      42.021  32.120  36.366  1.00  0.00     0.029 A 
ATOM     52  N   UNL A   1      41.339  31.373  34.385  1.00  0.00    -0.354 N 
ATOM     53  N   UNL A   1      41.363  29.573  32.074  1.00  0.00    -0.248 NA
ATOM     54  C   UNL A   1      42.338  27.825  30.869  1.00  0.00     0.031 C 
ATOM     55  C   UNL A   1      42.873  31.085  35.966  1.00  0.00     0.029 A 
ATOM     56  C   UNL A   1      42.433  30.603  34.743  1.00  0.00     0.049 A 
ATOM     57  H   UNL A   1      40.818  31.264  33.558  1.00  0.00     0.167 HD
ATOM     58  C   UNL A   1      42.465  29.095  32.774  1.00  0.00     0.074 A 
ATOM     59  C   UNL A   1      43.013  28.003  31.997  1.00  0.00     0.031 C 
ATOM     60  C   UNL A   1      42.973  29.522  33.956  1.00  0.00     0.031 A 
BRANCH  47  61
ATOM     61  C   UNL A   1      39.948  34.335  36.390  1.00  0.00    -0.014 A 
ATOM     62  C   UNL A   1      40.641  35.554  36.320  1.00  0.00     0.009 A 
ATOM     63  C   UNL A   1      39.147  34.074  37.514  1.00  0.00     0.009 A 
ATOM     64  C   UNL A   1      40.569  36.471  37.372  1.00  0.00     0.001 A 
ATOM     65  C   UNL A   1      39.054  35.004  38.550  1.00  0.00     0.001 A 
ATOM     66  C   UNL A   1      39.774  36.196  38.484  1.00  0.00     0.000 A 
ENDBRANCH  47  61
BRANCH  48  67
ATOM     67  C   UNL A   1      40.356  27.976  28.717  1.00  0.00    -0.014 A 
ATOM     68  C   UNL A   1      39.754  26.710  28.754  1.00  0.00     0.009 A 
ATOM     69  C   UNL A   1      41.033  28.374  27.554  1.00  0.00     0.009 A 
ATOM     70  C   UNL A   1      39.838  25.857  27.652  1.00  0.00     0.001 A 
ATOM     71  C   UNL A   1      41.095  27.529  26.445  1.00  0.00     0.001 A 
ATOM     72  C   UNL A   1      40.502  26.269  26.497  1.00  0.00     0.000 A 
ENDBRANCH  48  67
BRANCH  60  73
ATOM     73  C   UNL A   1      44.163  28.785  34.502  1.00  0.00    -0.014 A 
ATOM     74  C   UNL A   1      45.474  29.202  34.221  1.00  0.00     0.009 A 
ATOM     75  C   UNL A   1      43.966  27.681  35.347  1.00  0.00     0.009 A 
ATOM     76  C   UNL A   1      46.563  28.510  34.755  1.00  0.00     0.001 A 
ATOM     77  C   UNL A   1      45.057  27.008  35.901  1.00  0.00     0.001 A 
ATOM     78  C   UNL A   1      46.354  27.417  35.597  1.00  0.00     0.000 A 
ENDBRANCH  60  73
ENDBRANCH  34  35
ENDBRANCH  27  29
ENDBRANCH  26  27
ENDBRANCH  25  26
ENDBRANCH   1  25
TORSDOF 15
ENDMDL
MODEL 2
REMARK VINA RESULT:     -11.0      2.034      6.441
REMARK SMILES CC1CCN(C(=O)Nc2nccnc2C(=O)OCCOCCOC(=O)c2ccc(-c3c4nc(c(-c5ccccc5)c5ccc([nH]5)c(-c5ccccc5)c5nc(c(-c6ccccc6)c6ccc3[nH]6)C=C5)C=C4)cc2)CC1
REMARK SMILES IDX 21 1 20 2 19 3 18 4 17 5 15 6 16 7 14 8 9 9 10 10 11 11
REMARK SMILES IDX 13 12 12 13 8 14 1 15 2 16 3 17 75 18 4 19 74 20 5 21 6 22
REMARK SMILES IDX 7 23 22 25 23 26 24 27 25 28 26 29 27 30 73 31 28 32 72 33
REMARK SMILES IDX 29 34 30 35 31 36 66 37 32 38 71 39 65 40 67 41 33 42 70 43
REMARK SMILES IDX 64 44 63 45 34 47 56 48 41 49 55 50 42 51 45 52 54 53 68 54
REMARK SMILES IDX 43 55 44 56 53 58 69 59 46 60 35 61 36 62 40 63 37 64 39 65
REMARK SMILES IDX 38 66 57 67 58 68 62 69 59 70 61 71 60 72 47 73 48 74 52 75
REMARK SMILES IDX 49 76 51 77 50 78
REMARK H PARENT 8 24 67 46 45 57
REMARK Flexibility Score: inf
ROOT
ATOM      1  C   UNL A   1      31.376  31.958  26.422  1.00  0.00     0.202 C 
ENDROOT
BRANCH   1   2
ATOM      2  O   UNL A   1      31.437  30.548  26.193  1.00  0.00    -0.374 OA
BRANCH   2   3
ATOM      3  C   UNL A   1      32.232  29.774  27.091  1.00  0.00     0.202 C 
BRANCH   3   4
ATOM      4  C   UNL A   1      31.713  28.365  27.381  1.00  0.00     0.261 C 
BRANCH   4   5
ATOM      5  O   UNL A   1      31.240  27.736  26.172  1.00  0.00    -0.458 OA
BRANCH   5   6
ATOM      6  C   UNL A   1      31.588  26.430  26.034  1.00  0.00     0.360 C 
ATOM      7  O   UNL A   1      31.401  25.568  26.883  1.00  0.00    -0.244 OA
BRANCH   6   8
ATOM      8  C   UNL A   1      32.174  26.125  24.689  1.00  0.00     0.191 A 
ATOM      9  C   UNL A   1      32.153  24.878  24.037  1.00  0.00     0.167 A 
ATOM     10  N   UNL A   1      32.618  24.791  22.768  1.00  0.00    -0.235 NA
ATOM     11  C   UNL A   1      33.213  25.880  22.230  1.00  0.00     0.133 A 
ATOM     12  N   UNL A   1      32.793  27.219  24.136  1.00  0.00    -0.244 NA
ATOM     13  C   UNL A   1      33.329  27.065  22.915  1.00  0.00     0.132 A 
BRANCH   9  14
ATOM     14  N   UNL A   1      31.665  23.717  24.658  1.00  0.00    -0.290 N 
ATOM     15  C   UNL A   1      37.595  21.962  24.812  1.00  0.00     0.008 C 
ATOM     16  C   UNL A   1      36.357  22.200  25.679  1.00  0.00    -0.011 C 
ATOM     17  C   UNL A   1      35.376  21.018  25.557  1.00  0.00     0.025 C 
ATOM     18  C   UNL A   1      35.673  23.523  25.299  1.00  0.00     0.025 C 
ATOM     19  C   UNL A   1      34.021  21.297  26.216  1.00  0.00     0.121 C 
ATOM     20  C   UNL A   1      34.372  23.691  26.085  1.00  0.00     0.121 C 
ATOM     21  N   UNL A   1      33.477  22.583  25.772  1.00  0.00    -0.324 N 
ATOM     22  C   UNL A   1      32.219  22.625  25.235  1.00  0.00     0.323 C 
ATOM     23  O   UNL A   1      31.464  21.647  25.319  1.00  0.00    -0.248 OA
ATOM     24  H   UNL A   1      30.681  23.689  24.678  1.00  0.00     0.173 HD
ENDBRANCH   9  14
ENDBRANCH   6   8
ENDBRANCH   5   6
ENDBRANCH   4   5
ENDBRANCH   3   4
ENDBRANCH   2   3
ENDBRANCH   1   2
BRANCH   1  25
ATOM     25  C   UNL A   1      32.248  32.486  27.567  1.00  0.00     0.261 C 
BRANCH  25  26
ATOM     26  O   UNL A   1      32.413  33.914  27.487  1.00  0.00    -0.460 OA
BRANCH  26  27
ATOM     27  C   UNL A   1      33.069  34.476  28.528  1.00  0.00     0.338 C 
ATOM     28  O   UNL A   1      32.659  35.357  29.273  1.00  0.00    -0.246 OA
BRANCH  27  29
ATOM     29  C   UNL A   1      34.324  33.747  28.785  1.00  0.00     0.060 A 
ATOM     30  C   UNL A   1      34.405  32.982  29.957  1.00  0.00     0.016 A 
ATOM     31  C   UNL A   1      35.419  33.848  27.925  1.00  0.00     0.016 A 
ATOM     32  C   UNL A   1      35.600  32.355  30.301  1.00  0.00     0.010 A 
ATOM     33  C   UNL A   1      36.620  33.228  28.279  1.00  0.00     0.010 A 
ATOM     34  C   UNL A   1      36.726  32.509  29.482  1.00  0.00    -0.014 A 
BRANCH  34  35
ATOM     35  C   UNL A   1      38.051  32.039  29.947  1.00  0.00     0.031 A 
ATOM     36  C   UNL A   1      38.571  30.720  29.449  1.00  0.00     0.074 A 
ATOM     37  C   UNL A   1      38.779  32.771  30.806  1.00  0.00     0.049 A 
ATOM     38  N   UNL A   1      39.662  30.080  29.780  1.00  0.00    -0.248 NA
ATOM     39  C   UNL A   1      37.742  30.029  28.449  1.00  0.00     0.031 C 
ATOM     40  C   UNL A   1      38.402  34.079  31.334  1.00  0.00     0.029 A 
ATOM     41  N   UNL A   1      39.986  32.499  31.399  1.00  0.00    -0.354 N 
ATOM     42  C   UNL A   1      39.645  28.903  29.042  1.00  0.00     0.074 A 
ATOM     43  C   UNL A   1      38.425  28.908  28.263  1.00  0.00     0.031 C 
ATOM     44  C   UNL A   1      39.351  34.492  32.189  1.00  0.00     0.029 A 
ATOM     45  C   UNL A   1      40.382  33.460  32.295  1.00  0.00     0.049 A 
ATOM     46  H   UNL A   1      40.517  31.694  31.201  1.00  0.00     0.167 HD
ATOM     47  C   UNL A   1      40.562  27.906  29.015  1.00  0.00     0.031 A 
ATOM     48  C   UNL A   1      41.438  33.489  33.130  1.00  0.00     0.031 A 
ATOM     49  C   UNL A   1      41.764  27.891  29.806  1.00  0.00     0.049 A 
ATOM     50  C   UNL A   1      42.407  32.339  33.140  1.00  0.00     0.074 A 
ATOM     51  C   UNL A   1      42.766  26.937  29.836  1.00  0.00     0.029 A 
ATOM     52  N   UNL A   1      42.118  28.873  30.719  1.00  0.00    -0.354 N 
ATOM     53  N   UNL A   1      42.397  31.242  32.419  1.00  0.00    -0.248 NA
ATOM     54  C   UNL A   1      43.538  32.433  34.073  1.00  0.00     0.031 C 
ATOM     55  C   UNL A   1      43.699  27.315  30.807  1.00  0.00     0.029 A 
ATOM     56  C   UNL A   1      43.308  28.534  31.340  1.00  0.00     0.049 A 
ATOM     57  H   UNL A   1      41.600  29.690  30.898  1.00  0.00     0.167 HD
ATOM     58  C   UNL A   1      43.530  30.530  32.795  1.00  0.00     0.074 A 
ATOM     59  C   UNL A   1      44.208  31.322  33.799  1.00  0.00     0.031 C 
ATOM     60  C   UNL A   1      43.969  29.329  32.344  1.00  0.00     0.031 A 
BRANCH  47  61
ATOM     61  C   UNL A   1      40.264  26.727  28.132  1.00  0.00    -0.014 A 
ATOM     62  C   UNL A   1      39.475  25.656  28.581  1.00  0.00     0.009 A 
ATOM     63  C   UNL A   1      40.781  26.689  26.827  1.00  0.00     0.009 A 
ATOM     64  C   UNL A   1      39.249  24.550  27.757  1.00  0.00     0.001 A 
ATOM     65  C   UNL A   1      40.529  25.597  25.996  1.00  0.00     0.001 A 
ATOM     66  C   UNL A   1      39.774  24.523  26.465  1.00  0.00     0.000 A 
ENDBRANCH  47  61
BRANCH  48  67
ATOM     67  C   UNL A   1      41.615  34.643  34.047  1.00  0.00    -0.014 A 
ATOM     68  C   UNL A   1      41.061  34.625  35.335  1.00  0.00     0.009 A 
ATOM     69  C   UNL A   1      42.356  35.764  33.641  1.00  0.00     0.009 A 
ATOM     70  C   UNL A   1      41.238  35.711  36.195  1.00  0.00     0.001 A 
ATOM     71  C   UNL A   1      42.552  36.838  34.511  1.00  0.00     0.001 A 
ATOM     72  C   UNL A   1      41.987  36.813  35.785  1.00  0.00     0.000 A 
ENDBRANCH  48  67
BRANCH  60  73
ATOM     73  C   UNL A   1      45.262  28.812  32.907  1.00  0.00    -0.014 A 
ATOM     74  C   UNL A   1      46.498  29.146  32.330  1.00  0.00     0.009 A 
ATOM     75  C   UNL A   1      45.246  28.015  34.064  1.00  0.00     0.009 A 
ATOM     76  C   UNL A   1      47.687  28.668  32.883  1.00  0.00     0.001 A 
ATOM     77  C   UNL A   1      46.438  27.562  34.630  1.00  0.00     0.001 A 
ATOM     78  C   UNL A   1      47.657  27.880  34.035  1.00  0.00     0.000 A 
ENDBRANCH  60  73
ENDBRANCH  34  35
ENDBRANCH  27  29
ENDBRANCH  26  27
ENDBRANCH  25  26
ENDBRANCH   1  25
TORSDOF 15
ENDMDL
MODEL 3
REMARK VINA RESULT:     -11.0      1.383      6.198
REMARK SMILES CC1CCN(C(=O)Nc2nccnc2C(=O)OCCOCCOC(=O)c2ccc(-c3c4nc(c(-c5ccccc5)c5ccc([nH]5)c(-c5ccccc5)c5nc(c(-c6ccccc6)c6ccc3[nH]6)C=C5)C=C4)cc2)CC1
REMARK SMILES IDX 21 1 20 2 19 3 18 4 17 5 15 6 16 7 14 8 9 9 10 10 11 11
REMARK SMILES IDX 13 12 12 13 8 14 1 15 2 16 3 17 75 18 4 19 74 20 5 21 6 22
REMARK SMILES IDX 7 23 22 25 23 26 24 27 25 28 26 29 27 30 73 31 28 32 72 33
REMARK SMILES IDX 29 34 30 35 31 36 66 37 32 38 71 39 65 40 67 41 33 42 70 43
REMARK SMILES IDX 64 44 63 45 34 47 56 48 41 49 55 50 42 51 45 52 54 53 68 54
REMARK SMILES IDX 43 55 44 56 53 58 69 59 46 60 35 61 36 62 40 63 37 64 39 65
REMARK SMILES IDX 38 66 57 67 58 68 62 69 59 70 61 71 60 72 47 73 48 74 52 75
REMARK SMILES IDX 49 76 51 77 50 78
REMARK H PARENT 8 24 67 46 45 57
REMARK Flexibility Score: inf
ROOT
ATOM      1  C   UNL A   1      31.800  31.168  26.729  1.00  0.00     0.202 C 
ENDROOT
BRANCH   1   2
ATOM      2  O   UNL A   1      33.071  30.653  26.323  1.00  0.00    -0.374 OA
BRANCH   2   3
ATOM      3  C   UNL A   1      33.828  29.939  27.300  1.00  0.00     0.202 C 
BRANCH   3   4
ATOM      4  C   UNL A   1      34.080  28.464  26.985  1.00  0.00     0.261 C 
BRANCH   4   5
ATOM      5  O   UNL A   1      32.867  27.821  26.544  1.00  0.00    -0.458 OA
BRANCH   5   6
ATOM      6  C   UNL A   1      32.823  27.533  25.217  1.00  0.00     0.360 C 
ATOM      7  O   UNL A   1      33.792  27.550  24.470  1.00  0.00    -0.244 OA
BRANCH   6   8
ATOM      8  C   UNL A   1      31.458  27.119  24.759  1.00  0.00     0.191 A 
ATOM      9  C   UNL A   1      30.640  26.144  25.361  1.00  0.00     0.167 A 
ATOM     10  N   UNL A   1      29.378  25.969  24.902  1.00  0.00    -0.235 NA
ATOM     11  C   UNL A   1      29.004  26.644  23.791  1.00  0.00     0.133 A 
ATOM     12  N   UNL A   1      31.069  27.787  23.624  1.00  0.00    -0.244 NA
ATOM     13  C   UNL A   1      29.847  27.513  23.143  1.00  0.00     0.132 A 
BRANCH   9  14
ATOM     14  N   UNL A   1      31.089  25.344  26.425  1.00  0.00    -0.290 N 
ATOM     15  C   UNL A   1      31.878  20.991  22.101  1.00  0.00     0.008 C 
ATOM     16  C   UNL A   1      32.590  21.774  23.205  1.00  0.00    -0.011 C 
ATOM     17  C   UNL A   1      32.237  21.200  24.590  1.00  0.00     0.025 C 
ATOM     18  C   UNL A   1      32.237  23.269  23.125  1.00  0.00     0.025 C 
ATOM     19  C   UNL A   1      32.732  22.077  25.744  1.00  0.00     0.121 C 
ATOM     20  C   UNL A   1      32.855  24.022  24.304  1.00  0.00     0.121 C 
ATOM     21  N   UNL A   1      32.332  23.474  25.550  1.00  0.00    -0.324 N 
ATOM     22  C   UNL A   1      31.638  24.112  26.541  1.00  0.00     0.323 C 
ATOM     23  O   UNL A   1      31.536  23.607  27.667  1.00  0.00    -0.248 OA
ATOM     24  H   UNL A   1      30.975  25.785  27.298  1.00  0.00     0.173 HD
ENDBRANCH   9  14
ENDBRANCH   6   8
ENDBRANCH   5   6
ENDBRANCH   4   5
ENDBRANCH   3   4
ENDBRANCH   2   3
ENDBRANCH   1   2
BRANCH   1  25
ATOM     25  C   UNL A   1      31.762  32.663  27.065  1.00  0.00     0.261 C 
BRANCH  25  26
ATOM     26  O   UNL A   1      33.087  33.203  27.214  1.00  0.00    -0.460 OA
BRANCH  26  27
ATOM     27  C   UNL A   1      33.236  34.092  28.223  1.00  0.00     0.338 C 
ATOM     28  O   UNL A   1      32.492  35.021  28.507  1.00  0.00    -0.246 OA
BRANCH  27  29
ATOM     29  C   UNL A   1      34.356  33.684  29.091  1.00  0.00     0.060 A 
ATOM     30  C   UNL A   1      35.614  34.250  28.841  1.00  0.00     0.016 A 
ATOM     31  C   UNL A   1      34.193  32.730  30.098  1.00  0.00     0.016 A 
ATOM     32  C   UNL A   1      36.726  33.825  29.564  1.00  0.00     0.010 A 
ATOM     33  C   UNL A   1      35.312  32.298  30.812  1.00  0.00     0.010 A 
ATOM     34  C   UNL A   1      36.587  32.817  30.526  1.00  0.00    -0.014 A 
BRANCH  34  35
ATOM     35  C   UNL A   1      37.788  32.204  31.137  1.00  0.00     0.031 A 
ATOM     36  C   UNL A   1      38.524  31.133  30.384  1.00  0.00     0.074 A 
ATOM     37  C   UNL A   1      38.215  32.590  32.352  1.00  0.00     0.049 A 
ATOM     38  N   UNL A   1      39.547  30.409  30.757  1.00  0.00    -0.248 NA
ATOM     39  C   UNL A   1      38.032  30.835  29.029  1.00  0.00     0.031 C 
ATOM     40  C   UNL A   1      37.610  33.640  33.167  1.00  0.00     0.029 A 
ATOM     41  N   UNL A   1      39.254  32.121  33.116  1.00  0.00    -0.354 N 
ATOM     42  C   UNL A   1      39.813  29.558  29.691  1.00  0.00     0.074 A 
ATOM     43  C   UNL A   1      38.830  29.841  28.667  1.00  0.00     0.031 C 
ATOM     44  C   UNL A   1      38.278  33.726  34.329  1.00  0.00     0.029 A 
ATOM     45  C   UNL A   1      39.331  32.711  34.351  1.00  0.00     0.049 A 
ATOM     46  H   UNL A   1      39.882  31.429  32.807  1.00  0.00     0.167 HD
ATOM     47  C   UNL A   1      40.787  28.624  29.576  1.00  0.00     0.031 A 
ATOM     48  C   UNL A   1      40.138  32.442  35.395  1.00  0.00     0.031 A 
ATOM     49  C   UNL A   1      41.750  28.328  30.603  1.00  0.00     0.049 A 
ATOM     50  C   UNL A   1      41.167  31.352  35.275  1.00  0.00     0.074 A 
ATOM     51  C   UNL A   1      42.788  27.413  30.576  1.00  0.00     0.029 A 
ATOM     52  N   UNL A   1      41.781  28.933  31.850  1.00  0.00    -0.354 N 
ATOM     53  N   UNL A   1      41.429  30.570  34.254  1.00  0.00    -0.248 NA
ATOM     54  C   UNL A   1      42.016  31.110  36.450  1.00  0.00     0.031 C 
ATOM     55  C   UNL A   1      43.414  27.427  31.827  1.00  0.00     0.029 A 
ATOM     56  C   UNL A   1      42.803  28.391  32.613  1.00  0.00     0.049 A 
ATOM     57  H   UNL A   1      41.169  29.643  32.149  1.00  0.00     0.167 HD
ATOM     58  C   UNL A   1      42.486  29.762  34.655  1.00  0.00     0.074 A 
ATOM     59  C   UNL A   1      42.824  30.155  36.007  1.00  0.00     0.031 C 
ATOM     60  C   UNL A   1      43.123  28.786  33.961  1.00  0.00     0.031 A 
BRANCH  47  61
ATOM     61  C   UNL A   1      40.819  27.824  28.304  1.00  0.00    -0.014 A 
ATOM     62  C   UNL A   1      40.131  26.605  28.188  1.00  0.00     0.009 A 
ATOM     63  C   UNL A   1      41.549  28.298  27.203  1.00  0.00     0.009 A 
ATOM     64  C   UNL A   1      40.212  25.857  27.011  1.00  0.00     0.001 A 
ATOM     65  C   UNL A   1      41.603  27.563  26.018  1.00  0.00     0.001 A 
ATOM     66  C   UNL A   1      40.946  26.337  25.927  1.00  0.00     0.000 A 
ENDBRANCH  47  61
BRANCH  48  67
ATOM     67  C   UNL A   1      39.984  33.210  36.657  1.00  0.00    -0.014 A 
ATOM     68  C   UNL A   1      40.780  34.335  36.912  1.00  0.00     0.009 A 
ATOM     69  C   UNL A   1      39.023  32.827  37.607  1.00  0.00     0.009 A 
ATOM     70  C   UNL A   1      40.625  35.056  38.098  1.00  0.00     0.001 A 
ATOM     71  C   UNL A   1      38.853  33.563  38.780  1.00  0.00     0.001 A 
ATOM     72  C   UNL A   1      39.658  34.674  39.027  1.00  0.00     0.000 A 
ENDBRANCH  48  67
BRANCH  60  73
ATOM     73  C   UNL A   1      44.272  28.097  34.640  1.00  0.00    -0.014 A 
ATOM     74  C   UNL A   1      45.578  28.606  34.565  1.00  0.00     0.009 A 
ATOM     75  C   UNL A   1      44.035  26.942  35.404  1.00  0.00     0.009 A 
ATOM     76  C   UNL A   1      46.627  27.957  35.219  1.00  0.00     0.001 A 
ATOM     77  C   UNL A   1      45.081  26.311  36.079  1.00  0.00     0.001 A 
ATOM     78  C   UNL A   1      46.377  26.813  35.979  1.00  0.00     0.000 A 
ENDBRANCH  60  73
ENDBRANCH  34  35
ENDBRANCH  27  29
ENDBRANCH  26  27
ENDBRANCH  25  26
ENDBRANCH   1  25
TORSDOF 15
ENDMDL
