MODEL 1
REMARK VINA RESULT:      -9.1      0.000      0.000
REMARK SMILES CCN(Cc1ccc(Br)s1)C(=O)C[N@@H+](C)CC(=O)OCCOCCOC(=O)c1ccc(-c2c3nc(c(-c4ccccc4)c4ccc([nH]4)c(-c4ccccc4)c4nc(c(-c5ccccc5)c5ccc2[nH]5)C=C4)C=C3)cc1
REMARK SMILES IDX 20 1 19 2 17 3 18 4 16 5 14 6 15 7 13 9 11 10 12 11 3 12
REMARK SMILES IDX 2 13 1 14 4 15 5 16 6 17 10 18 7 19 8 20 9 21 21 22 22 23
REMARK SMILES IDX 23 24 24 25 25 26 26 27 27 28 28 29 29 30 75 31 30 32 74 33
REMARK SMILES IDX 31 34 32 35 33 36 68 37 34 38 73 39 67 40 69 41 35 42 72 43
REMARK SMILES IDX 66 44 65 45 36 47 58 48 43 49 57 50 44 51 47 52 56 53 70 54
REMARK SMILES IDX 45 55 46 56 55 58 71 59 48 60 37 61 38 62 42 63 39 64 41 65
REMARK SMILES IDX 40 66 59 67 60 68 64 69 61 70 63 71 62 72 49 73 50 74 54 75
REMARK SMILES IDX 51 76 53 77 52 78
REMARK H PARENT 14 8 69 46 47 57
REMARK Flexibility Score: inf
ROOT
ATOM      1  C   UNL A   1      34.438  23.649  26.174  1.00  0.00     0.261 C 
ENDROOT
BRANCH   1   2
ATOM      2  O   UNL A   1      33.383  22.659  26.200  1.00  0.00    -0.459 OA
BRANCH   2   3
ATOM      3  C   UNL A   1      32.458  22.798  27.187  1.00  0.00     0.361 C 
ATOM      4  O   UNL A   1      32.686  22.576  28.374  1.00  0.00    -0.245 OA
BRANCH   3   5
ATOM      5  C   UNL A   1      31.050  23.136  26.708  1.00  0.00     0.386 C 
BRANCH   5   6
ATOM      6  N   UNL A   1      30.600  24.544  26.619  1.00  0.00    -0.320 N 
ATOM      7  C   UNL A   1      29.148  24.696  26.617  1.00  0.00     0.333 C 
ATOM      8  H   UNL A   1      30.964  24.932  27.490  1.00  0.00     0.348 HD
BRANCH   6   9
ATOM      9  C   UNL A   1      31.205  25.350  25.547  1.00  0.00     0.364 C 
BRANCH   9  10
ATOM     10  C   UNL A   1      31.143  26.867  25.789  1.00  0.00     0.278 C 
ATOM     11  O   UNL A   1      31.003  27.281  26.945  1.00  0.00    -0.268 OA
BRANCH  10  12
ATOM     12  N   UNL A   1      31.276  27.747  24.720  1.00  0.00    -0.333 N 
BRANCH  12  13
ATOM     13  C   UNL A   1      31.966  29.018  24.947  1.00  0.00     0.116 C 
ATOM     14  C   UNL A   1      33.399  28.835  25.431  1.00  0.00     0.027 C 
ENDBRANCH  12  13
BRANCH  12  15
ATOM     15  C   UNL A   1      30.828  27.446  23.359  1.00  0.00     0.166 C 
BRANCH  15  16
ATOM     16  C   UNL A   1      29.726  28.388  22.954  1.00  0.00     0.025 A 
ATOM     17  C   UNL A   1      28.371  28.345  23.243  1.00  0.00     0.018 A 
ATOM     18  S   UNL A   1      30.115  29.790  22.035  1.00  0.00    -0.131 S 
ATOM     19  C   UNL A   1      27.680  29.508  22.791  1.00  0.00     0.028 A 
ATOM     20  C   UNL A   1      28.527  30.366  22.138  1.00  0.00     0.070 A 
ATOM     21  Br  UNL A   1      27.990  32.017  21.436  1.00  0.00    -0.039 Br
ENDBRANCH  15  16
ENDBRANCH  12  15
ENDBRANCH  10  12
ENDBRANCH   9  10
ENDBRANCH   6   9
ENDBRANCH   5   6
ENDBRANCH   3   5
ENDBRANCH   2   3
ENDBRANCH   1   2
BRANCH   1  22
ATOM     22  C   UNL A   1      34.989  23.852  24.760  1.00  0.00     0.202 C 
BRANCH  22  23
ATOM     23  O   UNL A   1      36.186  23.133  24.455  1.00  0.00    -0.374 OA
BRANCH  23  24
ATOM     24  C   UNL A   1      36.078  21.709  24.430  1.00  0.00     0.202 C 
BRANCH  24  25
ATOM     25  C   UNL A   1      37.157  20.977  25.240  1.00  0.00     0.261 C 
BRANCH  25  26
ATOM     26  O   UNL A   1      38.455  21.580  25.061  1.00  0.00    -0.460 OA
BRANCH  26  27
ATOM     27  C   UNL A   1      39.355  21.266  26.021  1.00  0.00     0.338 C 
ATOM     28  O   UNL A   1      39.900  20.185  26.206  1.00  0.00    -0.246 OA
BRANCH  27  29
ATOM     29  C   UNL A   1      39.763  22.471  26.767  1.00  0.00     0.060 A 
ATOM     30  C   UNL A   1      39.145  23.674  26.410  1.00  0.00     0.016 A 
ATOM     31  C   UNL A   1      40.799  22.458  27.705  1.00  0.00     0.016 A 
ATOM     32  C   UNL A   1      39.603  24.878  26.937  1.00  0.00     0.010 A 
ATOM     33  C   UNL A   1      41.260  23.674  28.235  1.00  0.00     0.010 A 
ATOM     34  C   UNL A   1      40.694  24.893  27.819  1.00  0.00    -0.014 A 
BRANCH  34  35
ATOM     35  C   UNL A   1      41.303  26.205  28.165  1.00  0.00     0.031 A 
ATOM     36  C   UNL A   1      42.651  26.567  27.599  1.00  0.00     0.074 A 
ATOM     37  C   UNL A   1      40.615  27.115  28.880  1.00  0.00     0.049 A 
ATOM     38  N   UNL A   1      43.302  27.703  27.670  1.00  0.00    -0.248 NA
ATOM     39  C   UNL A   1      43.357  25.518  26.845  1.00  0.00     0.031 C 
ATOM     40  C   UNL A   1      39.288  26.910  29.457  1.00  0.00     0.029 A 
ATOM     41  N   UNL A   1      40.936  28.406  29.222  1.00  0.00    -0.354 N 
ATOM     42  C   UNL A   1      44.480  27.509  26.959  1.00  0.00     0.074 A 
ATOM     43  C   UNL A   1      44.477  26.137  26.502  1.00  0.00     0.031 C 
ATOM     44  C   UNL A   1      38.900  28.044  30.069  1.00  0.00     0.029 A 
ATOM     45  C   UNL A   1      39.957  29.045  29.941  1.00  0.00     0.049 A 
ATOM     46  H   UNL A   1      41.788  28.833  28.973  1.00  0.00     0.167 HD
ATOM     47  C   UNL A   1      45.470  28.395  26.694  1.00  0.00     0.031 A 
ATOM     48  C   UNL A   1      39.914  30.295  30.440  1.00  0.00     0.031 A 
ATOM     49  C   UNL A   1      45.494  29.758  27.154  1.00  0.00     0.049 A 
ATOM     50  C   UNL A   1      41.059  31.240  30.187  1.00  0.00     0.074 A 
ATOM     51  C   UNL A   1      46.459  30.726  26.933  1.00  0.00     0.029 A 
ATOM     52  N   UNL A   1      44.509  30.345  27.931  1.00  0.00    -0.354 N 
ATOM     53  N   UNL A   1      42.151  31.048  29.489  1.00  0.00    -0.248 NA
ATOM     54  C   UNL A   1      40.954  32.581  30.782  1.00  0.00     0.031 C 
ATOM     55  C   UNL A   1      46.080  31.887  27.617  1.00  0.00     0.029 A 
ATOM     56  C   UNL A   1      44.855  31.656  28.219  1.00  0.00     0.049 A 
ATOM     57  H   UNL A   1      43.686  29.897  28.234  1.00  0.00     0.167 HD
ATOM     58  C   UNL A   1      42.851  32.248  29.544  1.00  0.00     0.074 A 
ATOM     59  C   UNL A   1      42.049  33.168  30.322  1.00  0.00     0.031 C 
ATOM     60  C   UNL A   1      44.054  32.559  29.002  1.00  0.00     0.031 A 
BRANCH  47  61
ATOM     61  C   UNL A   1      46.628  27.910  25.870  1.00  0.00    -0.014 A 
ATOM     62  C   UNL A   1      47.738  27.297  26.471  1.00  0.00     0.009 A 
ATOM     63  C   UNL A   1      46.587  28.020  24.471  1.00  0.00     0.009 A 
ATOM     64  C   UNL A   1      48.793  26.822  25.690  1.00  0.00     0.001 A 
ATOM     65  C   UNL A   1      47.632  27.523  23.690  1.00  0.00     0.001 A 
ATOM     66  C   UNL A   1      48.736  26.931  24.300  1.00  0.00     0.000 A 
ENDBRANCH  47  61
BRANCH  48  67
ATOM     67  C   UNL A   1      38.749  30.736  31.251  1.00  0.00    -0.014 A 
ATOM     68  C   UNL A   1      38.810  30.755  32.653  1.00  0.00     0.009 A 
ATOM     69  C   UNL A   1      37.549  31.099  30.619  1.00  0.00     0.009 A 
ATOM     70  C   UNL A   1      37.683  31.099  33.405  1.00  0.00     0.001 A 
ATOM     71  C   UNL A   1      36.433  31.470  31.372  1.00  0.00     0.001 A 
ATOM     72  C   UNL A   1      36.498  31.459  32.764  1.00  0.00     0.000 A 
ENDBRANCH  48  67
BRANCH  60  73
ATOM     73  C   UNL A   1      44.562  33.957  29.219  1.00  0.00    -0.014 A 
ATOM     74  C   UNL A   1      44.238  34.994  28.330  1.00  0.00     0.009 A 
ATOM     75  C   UNL A   1      45.362  34.244  30.336  1.00  0.00     0.009 A 
ATOM     76  C   UNL A   1      44.738  36.281  28.534  1.00  0.00     0.001 A 
ATOM     77  C   UNL A   1      45.838  35.538  30.553  1.00  0.00     0.001 A 
ATOM     78  C   UNL A   1      45.536  36.553  29.645  1.00  0.00     0.000 A 
ENDBRANCH  60  73
ENDBRANCH  34  35
ENDBRANCH  27  29
ENDBRANCH  26  27
ENDBRANCH  25  26
ENDBRANCH  24  25
ENDBRANCH  23  24
ENDBRANCH  22  23
ENDBRANCH   1  22
TORSDOF 21
ENDMDL
MODEL 2
REMARK VINA RESULT:      -8.9      2.201      6.162
REMARK SMILES CCN(Cc1ccc(Br)s1)C(=O)C[N@@H+](C)CC(=O)OCCOCCOC(=O)c1ccc(-c2c3nc(c(-c4ccccc4)c4ccc([nH]4)c(-c4ccccc4)c4nc(c(-c5ccccc5)c5ccc2[nH]5)C=C4)C=C3)cc1
REMARK SMILES IDX 20 1 19 2 17 3 18 4 16 5 14 6 15 7 13 9 11 10 12 11 3 12
REMARK SMILES IDX 2 13 1 14 4 15 5 16 6 17 10 18 7 19 8 20 9 21 21 22 22 23
REMARK SMILES IDX 23 24 24 25 25 26 26 27 27 28 28 29 29 30 75 31 30 32 74 33
REMARK SMILES IDX 31 34 32 35 33 36 68 37 34 38 73 39 67 40 69 41 35 42 72 43
REMARK SMILES IDX 66 44 65 45 36 47 58 48 43 49 57 50 44 51 47 52 56 53 70 54
REMARK SMILES IDX 45 55 46 56 55 58 71 59 48 60 37 61 38 62 42 63 39 64 41 65
REMARK SMILES IDX 40 66 59 67 60 68 64 69 61 70 63 71 62 72 49 73 50 74 54 75
REMARK SMILES IDX 51 76 53 77 52 78
REMARK H PARENT 14 8 69 46 47 57
REMARK Flexibility Score: inf
ROOT
ATOM      1  C   UNL A   1      35.720  22.226  25.128  1.00  0.00     0.261 C 
ENDROOT
BRANCH   1   2
ATOM      2  O   UNL A   1      35.211  22.822  26.343  1.00  0.00    -0.459 OA
BRANCH   2   3
ATOM      3  C   UNL A   1      33.860  22.801  26.498  1.00  0.00     0.361 C 
ATOM      4  O   UNL A   1      33.284  22.200  27.403  1.00  0.00    -0.245 OA
BRANCH   3   5
ATOM      5  C   UNL A   1      33.072  23.480  25.382  1.00  0.00     0.386 C 
BRANCH   5   6
ATOM      6  N   UNL A   1      31.892  22.819  24.780  1.00  0.00    -0.320 N 
ATOM      7  C   UNL A   1      32.232  21.821  23.771  1.00  0.00     0.333 C 
ATOM      8  H   UNL A   1      31.491  22.340  25.587  1.00  0.00     0.348 HD
BRANCH   6   9
ATOM      9  C   UNL A   1      30.832  23.713  24.287  1.00  0.00     0.364 C 
BRANCH   9  10
ATOM     10  C   UNL A   1      31.353  24.999  23.625  1.00  0.00     0.278 C 
ATOM     11  O   UNL A   1      31.913  24.921  22.526  1.00  0.00    -0.268 OA
BRANCH  10  12
ATOM     12  N   UNL A   1      31.160  26.228  24.249  1.00  0.00    -0.333 N 
BRANCH  12  13
ATOM     13  C   UNL A   1      30.624  26.241  25.612  1.00  0.00     0.116 C 
ATOM     14  C   UNL A   1      31.508  27.006  26.588  1.00  0.00     0.027 C 
ENDBRANCH  12  13
BRANCH  12  15
ATOM     15  C   UNL A   1      31.530  27.511  23.649  1.00  0.00     0.166 C 
BRANCH  15  16
ATOM     16  C   UNL A   1      30.309  28.200  23.101  1.00  0.00     0.025 A 
ATOM     17  C   UNL A   1      28.968  27.891  23.263  1.00  0.00     0.018 A 
ATOM     18  S   UNL A   1      30.502  29.629  22.161  1.00  0.00    -0.131 S 
ATOM     19  C   UNL A   1      28.108  28.879  22.696  1.00  0.00     0.028 A 
ATOM     20  C   UNL A   1      28.829  29.874  22.088  1.00  0.00     0.070 A 
ATOM     21  Br  UNL A   1      28.049  31.365  21.267  1.00  0.00    -0.039 Br
ENDBRANCH  15  16
ENDBRANCH  12  15
ENDBRANCH  10  12
ENDBRANCH   9  10
ENDBRANCH   6   9
ENDBRANCH   5   6
ENDBRANCH   3   5
ENDBRANCH   2   3
ENDBRANCH   1   2
BRANCH   1  22
ATOM     22  C   UNL A   1      35.420  20.726  25.064  1.00  0.00     0.202 C 
BRANCH  22  23
ATOM     23  O   UNL A   1      36.562  19.872  24.957  1.00  0.00    -0.374 OA
BRANCH  23  24
ATOM     24  C   UNL A   1      37.835  20.518  24.972  1.00  0.00     0.202 C 
BRANCH  24  25
ATOM     25  C   UNL A   1      39.009  19.596  25.331  1.00  0.00     0.261 C 
BRANCH  25  26
ATOM     26  O   UNL A   1      39.853  20.182  26.343  1.00  0.00    -0.460 OA
BRANCH  26  27
ATOM     27  C   UNL A   1      41.172  19.921  26.193  1.00  0.00     0.338 C 
ATOM     28  O   UNL A   1      41.682  18.912  25.722  1.00  0.00    -0.246 OA
BRANCH  27  29
ATOM     29  C   UNL A   1      41.980  21.110  26.521  1.00  0.00     0.060 A 
ATOM     30  C   UNL A   1      42.060  21.464  27.873  1.00  0.00     0.016 A 
ATOM     31  C   UNL A   1      42.548  21.926  25.540  1.00  0.00     0.016 A 
ATOM     32  C   UNL A   1      42.649  22.670  28.244  1.00  0.00     0.010 A 
ATOM     33  C   UNL A   1      43.141  23.142  25.917  1.00  0.00     0.010 A 
ATOM     34  C   UNL A   1      43.153  23.540  27.267  1.00  0.00    -0.014 A 
BRANCH  34  35
ATOM     35  C   UNL A   1      43.548  24.913  27.681  1.00  0.00     0.031 A 
ATOM     36  C   UNL A   1      42.481  25.938  27.958  1.00  0.00     0.074 A 
ATOM     37  C   UNL A   1      44.838  25.214  27.920  1.00  0.00     0.049 A 
ATOM     38  N   UNL A   1      42.600  27.148  28.450  1.00  0.00    -0.248 NA
ATOM     39  C   UNL A   1      41.094  25.550  27.653  1.00  0.00     0.031 C 
ATOM     40  C   UNL A   1      45.969  24.308  27.729  1.00  0.00     0.029 A 
ATOM     41  N   UNL A   1      45.408  26.367  28.402  1.00  0.00    -0.354 N 
ATOM     42  C   UNL A   1      41.309  27.654  28.527  1.00  0.00     0.074 A 
ATOM     43  C   UNL A   1      40.424  26.642  27.992  1.00  0.00     0.031 C 
ATOM     44  C   UNL A   1      47.098  24.935  28.105  1.00  0.00     0.029 A 
ATOM     45  C   UNL A   1      46.772  26.289  28.546  1.00  0.00     0.049 A 
ATOM     46  H   UNL A   1      44.888  27.174  28.624  1.00  0.00     0.167 HD
ATOM     47  C   UNL A   1      40.890  28.848  29.013  1.00  0.00     0.031 A 
ATOM     48  C   UNL A   1      47.658  27.203  28.985  1.00  0.00     0.031 A 
ATOM     49  C   UNL A   1      41.758  29.869  29.534  1.00  0.00     0.049 A 
ATOM     50  C   UNL A   1      47.172  28.547  29.459  1.00  0.00     0.074 A 
ATOM     51  C   UNL A   1      41.419  31.111  30.046  1.00  0.00     0.029 A 
ATOM     52  N   UNL A   1      43.137  29.772  29.605  1.00  0.00    -0.354 N 
ATOM     53  N   UNL A   1      45.945  28.998  29.551  1.00  0.00    -0.248 NA
ATOM     54  C   UNL A   1      48.198  29.504  29.902  1.00  0.00     0.031 C 
ATOM     55  C   UNL A   1      42.598  31.782  30.385  1.00  0.00     0.029 A 
ATOM     56  C   UNL A   1      43.667  30.939  30.131  1.00  0.00     0.049 A 
ATOM     57  H   UNL A   1      43.663  28.988  29.323  1.00  0.00     0.167 HD
ATOM     58  C   UNL A   1      46.051  30.279  30.081  1.00  0.00     0.074 A 
ATOM     59  C   UNL A   1      47.458  30.524  30.312  1.00  0.00     0.031 C 
ATOM     60  C   UNL A   1      45.069  31.175  30.348  1.00  0.00     0.031 A 
BRANCH  47  61
ATOM     61  C   UNL A   1      39.413  29.121  28.994  1.00  0.00    -0.014 A 
ATOM     62  C   UNL A   1      38.784  29.619  27.842  1.00  0.00     0.009 A 
ATOM     63  C   UNL A   1      38.632  28.828  30.123  1.00  0.00     0.009 A 
ATOM     64  C   UNL A   1      37.405  29.837  27.829  1.00  0.00     0.001 A 
ATOM     65  C   UNL A   1      37.250  29.026  30.100  1.00  0.00     0.001 A 
ATOM     66  C   UNL A   1      36.639  29.536  28.956  1.00  0.00     0.000 A 
ENDBRANCH  47  61
BRANCH  48  67
ATOM     67  C   UNL A   1      49.112  26.893  28.988  1.00  0.00    -0.014 A 
ATOM     68  C   UNL A   1      49.735  26.362  30.128  1.00  0.00     0.009 A 
ATOM     69  C   UNL A   1      49.892  27.173  27.855  1.00  0.00     0.009 A 
ATOM     70  C   UNL A   1      51.116  26.146  30.142  1.00  0.00     0.001 A 
ATOM     71  C   UNL A   1      51.267  26.930  27.863  1.00  0.00     0.001 A 
ATOM     72  C   UNL A   1      51.879  26.427  29.009  1.00  0.00     0.000 A 
ENDBRANCH  48  67
BRANCH  60  73
ATOM     73  C   UNL A   1      45.487  32.493  30.937  1.00  0.00    -0.014 A 
ATOM     74  C   UNL A   1      45.592  32.667  32.326  1.00  0.00     0.009 A 
ATOM     75  C   UNL A   1      45.797  33.570  30.091  1.00  0.00     0.009 A 
ATOM     76  C   UNL A   1      45.959  33.905  32.857  1.00  0.00     0.001 A 
ATOM     77  C   UNL A   1      46.190  34.799  30.624  1.00  0.00     0.001 A 
ATOM     78  C   UNL A   1      46.259  34.969  32.006  1.00  0.00     0.000 A 
ENDBRANCH  60  73
ENDBRANCH  34  35
ENDBRANCH  27  29
ENDBRANCH  26  27
ENDBRANCH  25  26
ENDBRANCH  24  25
ENDBRANCH  23  24
ENDBRANCH  22  23
ENDBRANCH   1  22
TORSDOF 21
ENDMDL
MODEL 3
REMARK VINA RESULT:      -8.8      3.945      7.280
REMARK SMILES CCN(Cc1ccc(Br)s1)C(=O)C[N@@H+](C)CC(=O)OCCOCCOC(=O)c1ccc(-c2c3nc(c(-c4ccccc4)c4ccc([nH]4)c(-c4ccccc4)c4nc(c(-c5ccccc5)c5ccc2[nH]5)C=C4)C=C3)cc1
REMARK SMILES IDX 20 1 19 2 17 3 18 4 16 5 14 6 15 7 13 9 11 10 12 11 3 12
REMARK SMILES IDX 2 13 1 14 4 15 5 16 6 17 10 18 7 19 8 20 9 21 21 22 22 23
REMARK SMILES IDX 23 24 24 25 25 26 26 27 27 28 28 29 29 30 75 31 30 32 74 33
REMARK SMILES IDX 31 34 32 35 33 36 68 37 34 38 73 39 67 40 69 41 35 42 72 43
REMARK SMILES IDX 66 44 65 45 36 47 58 48 43 49 57 50 44 51 47 52 56 53 70 54
REMARK SMILES IDX 45 55 46 56 55 58 71 59 48 60 37 61 38 62 42 63 39 64 41 65
REMARK SMILES IDX 40 66 59 67 60 68 64 69 61 70 63 71 62 72 49 73 50 74 54 75
REMARK SMILES IDX 51 76 53 77 52 78
REMARK H PARENT 14 8 69 46 47 57
REMARK Flexibility Score: inf
ROOT
ATOM      1  C   UNL A   1      32.684  28.327  26.616  1.00  0.00     0.261 C 
ENDROOT
BRANCH   1   2
ATOM      2  O   UNL A   1      31.330  27.833  26.744  1.00  0.00    -0.459 OA
BRANCH   2   3
ATOM      3  C   UNL A   1      31.142  26.521  26.439  1.00  0.00     0.361 C 
ATOM      4  O   UNL A   1      30.044  25.970  26.437  1.00  0.00    -0.245 OA
BRANCH   3   5
ATOM      5  C   UNL A   1      32.422  25.721  26.215  1.00  0.00     0.386 C 
BRANCH   5   6
ATOM      6  N   UNL A   1      32.367  24.261  25.977  1.00  0.00    -0.320 N 
ATOM      7  C   UNL A   1      32.856  23.467  27.100  1.00  0.00     0.333 C 
ATOM      8  H   UNL A   1      31.364  24.105  25.883  1.00  0.00     0.348 HD
BRANCH   6   9
ATOM      9  C   UNL A   1      32.958  23.790  24.714  1.00  0.00     0.364 C 
BRANCH   9  10
ATOM     10  C   UNL A   1      33.279  24.911  23.713  1.00  0.00     0.278 C 
ATOM     11  O   UNL A   1      34.261  25.633  23.920  1.00  0.00    -0.268 OA
BRANCH  10  12
ATOM     12  N   UNL A   1      32.489  25.078  22.581  1.00  0.00    -0.333 N 
BRANCH  12  13
ATOM     13  C   UNL A   1      33.066  24.754  21.274  1.00  0.00     0.116 C 
ATOM     14  C   UNL A   1      32.497  25.607  20.148  1.00  0.00     0.027 C 
ENDBRANCH  12  13
BRANCH  12  15
ATOM     15  C   UNL A   1      31.085  25.493  22.623  1.00  0.00     0.166 C 
BRANCH  15  16
ATOM     16  C   UNL A   1      30.987  26.971  22.891  1.00  0.00     0.025 A 
ATOM     17  C   UNL A   1      31.969  27.947  22.849  1.00  0.00     0.018 A 
ATOM     18  S   UNL A   1      29.453  27.657  23.262  1.00  0.00    -0.131 S 
ATOM     19  C   UNL A   1      31.441  29.261  23.028  1.00  0.00     0.028 A 
ATOM     20  C   UNL A   1      30.088  29.225  23.243  1.00  0.00     0.070 A 
ATOM     21  Br  UNL A   1      29.036  30.757  23.482  1.00  0.00    -0.039 Br
ENDBRANCH  15  16
ENDBRANCH  12  15
ENDBRANCH  10  12
ENDBRANCH   9  10
ENDBRANCH   6   9
ENDBRANCH   5   6
ENDBRANCH   3   5
ENDBRANCH   2   3
ENDBRANCH   1   2
BRANCH   1  22
ATOM     22  C   UNL A   1      32.775  29.819  26.944  1.00  0.00     0.202 C 
BRANCH  22  23
ATOM     23  O   UNL A   1      31.962  30.679  26.141  1.00  0.00    -0.374 OA
BRANCH  23  24
ATOM     24  C   UNL A   1      31.345  31.775  26.816  1.00  0.00     0.202 C 
BRANCH  24  25
ATOM     25  C   UNL A   1      32.146  33.083  26.766  1.00  0.00     0.261 C 
BRANCH  25  26
ATOM     26  O   UNL A   1      32.177  33.736  28.052  1.00  0.00    -0.460 OA
BRANCH  26  27
ATOM     27  C   UNL A   1      33.267  34.510  28.261  1.00  0.00     0.338 C 
ATOM     28  O   UNL A   1      33.311  35.732  28.320  1.00  0.00    -0.246 OA
BRANCH  27  29
ATOM     29  C   UNL A   1      34.439  33.681  28.595  1.00  0.00     0.060 A 
ATOM     30  C   UNL A   1      34.183  32.413  29.130  1.00  0.00     0.016 A 
ATOM     31  C   UNL A   1      35.749  34.159  28.503  1.00  0.00     0.016 A 
ATOM     32  C   UNL A   1      35.228  31.646  29.638  1.00  0.00     0.010 A 
ATOM     33  C   UNL A   1      36.801  33.384  29.016  1.00  0.00     0.010 A 
ATOM     34  C   UNL A   1      36.540  32.143  29.627  1.00  0.00    -0.014 A 
BRANCH  34  35
ATOM     35  C   UNL A   1      37.580  31.406  30.392  1.00  0.00     0.031 A 
ATOM     36  C   UNL A   1      38.456  30.409  29.680  1.00  0.00     0.074 A 
ATOM     37  C   UNL A   1      37.822  31.703  31.683  1.00  0.00     0.049 A 
ATOM     38  N   UNL A   1      39.500  29.755  30.128  1.00  0.00    -0.248 NA
ATOM     39  C   UNL A   1      38.121  30.116  28.277  1.00  0.00     0.031 C 
ATOM     40  C   UNL A   1      37.076  32.671  32.484  1.00  0.00     0.029 A 
ATOM     41  N   UNL A   1      38.787  31.229  32.539  1.00  0.00    -0.354 N 
ATOM     42  C   UNL A   1      39.953  28.989  29.060  1.00  0.00     0.074 A 
ATOM     43  C   UNL A   1      39.047  29.224  27.956  1.00  0.00     0.031 C 
ATOM     44  C   UNL A   1      37.621  32.732  33.712  1.00  0.00     0.029 A 
ATOM     45  C   UNL A   1      38.741  31.797  33.788  1.00  0.00     0.049 A 
ATOM     46  H   UNL A   1      39.450  30.548  32.280  1.00  0.00     0.167 HD
ATOM     47  C   UNL A   1      41.034  28.175  28.994  1.00  0.00     0.031 A 
ATOM     48  C   UNL A   1      39.514  31.589  34.872  1.00  0.00     0.031 A 
ATOM     49  C   UNL A   1      41.934  27.920  30.086  1.00  0.00     0.049 A 
ATOM     50  C   UNL A   1      40.670  30.628  34.791  1.00  0.00     0.074 A 
ATOM     51  C   UNL A   1      43.055  27.107  30.108  1.00  0.00     0.029 A 
ATOM     52  N   UNL A   1      41.815  28.469  31.351  1.00  0.00    -0.354 N 
ATOM     53  N   UNL A   1      41.100  29.936  33.765  1.00  0.00    -0.248 NA
ATOM     54  C   UNL A   1      41.456  30.433  36.019  1.00  0.00     0.031 C 
ATOM     55  C   UNL A   1      43.589  27.130  31.402  1.00  0.00     0.029 A 
ATOM     56  C   UNL A   1      42.828  27.996  32.169  1.00  0.00     0.049 A 
ATOM     57  H   UNL A   1      41.114  29.103  31.629  1.00  0.00     0.167 HD
ATOM     58  C   UNL A   1      42.216  29.240  34.218  1.00  0.00     0.074 A 
ATOM     59  C   UNL A   1      42.411  29.614  35.603  1.00  0.00     0.031 C 
ATOM     60  C   UNL A   1      43.007  28.367  33.548  1.00  0.00     0.031 A 
BRANCH  47  61
ATOM     61  C   UNL A   1      41.300  27.484  27.687  1.00  0.00    -0.014 A 
ATOM     62  C   UNL A   1      42.119  28.072  26.710  1.00  0.00     0.009 A 
ATOM     63  C   UNL A   1      40.769  26.206  27.450  1.00  0.00     0.009 A 
ATOM     64  C   UNL A   1      42.382  27.404  25.513  1.00  0.00     0.001 A 
ATOM     65  C   UNL A   1      41.053  25.530  26.262  1.00  0.00     0.001 A 
ATOM     66  C   UNL A   1      41.854  26.132  25.293  1.00  0.00     0.000 A 
ENDBRANCH  47  61
BRANCH  48  67
ATOM     67  C   UNL A   1      39.218  32.293  36.147  1.00  0.00    -0.014 A 
ATOM     68  C   UNL A   1      38.237  31.811  37.028  1.00  0.00     0.009 A 
ATOM     69  C   UNL A   1      39.890  33.484  36.465  1.00  0.00     0.009 A 
ATOM     70  C   UNL A   1      37.916  32.524  38.186  1.00  0.00     0.001 A 
ATOM     71  C   UNL A   1      39.587  34.179  37.637  1.00  0.00     0.001 A 
ATOM     72  C   UNL A   1      38.593  33.705  38.491  1.00  0.00     0.000 A 
ENDBRANCH  48  67
BRANCH  60  73
ATOM     73  C   UNL A   1      44.164  27.773  34.301  1.00  0.00    -0.014 A 
ATOM     74  C   UNL A   1      45.435  28.369  34.270  1.00  0.00     0.009 A 
ATOM     75  C   UNL A   1      43.976  26.612  35.067  1.00  0.00     0.009 A 
ATOM     76  C   UNL A   1      46.503  27.791  34.957  1.00  0.00     0.001 A 
ATOM     77  C   UNL A   1      45.040  26.051  35.776  1.00  0.00     0.001 A 
ATOM     78  C   UNL A   1      46.305  26.634  35.711  1.00  0.00     0.000 A 
ENDBRANCH  60  73
ENDBRANCH  34  35
ENDBRANCH  27  29
ENDBRANCH  26  27
ENDBRANCH  25  26
ENDBRANCH  24  25
ENDBRANCH  23  24
ENDBRANCH  22  23
ENDBRANCH   1  22
TORSDOF 21
ENDMDL
