MODEL 1
REMARK VINA RESULT:      -9.0      0.000      0.000
REMARK SMILES CN(CCO)C(=O)N[C@H]1C=C[C@@H](C(=O)OCCOCCOC(=O)c2ccc(-c3c4nc(c(-c5ccccc5)c5ccc([nH]5)c(-c5ccccc5)c5nc(c(-c6ccccc6)c6ccc3[nH]6)C=C5)C=C4)cc2)C1
REMARK SMILES IDX 16 1 15 2 13 3 14 4 12 5 9 6 10 7 72 8 11 9 8 10 6 11 7 12
REMARK SMILES IDX 2 14 1 15 3 16 4 17 5 18 17 20 18 21 19 22 20 23 21 24 22 25
REMARK SMILES IDX 23 26 24 27 25 28 71 29 26 30 70 31 27 32 28 33 29 34 64 35
REMARK SMILES IDX 30 36 69 37 63 38 65 39 31 40 68 41 62 42 61 43 32 45 54 46
REMARK SMILES IDX 39 47 53 48 40 49 43 50 52 51 66 52 41 53 42 54 51 56 67 57
REMARK SMILES IDX 44 58 33 59 34 60 38 61 35 62 37 63 36 64 55 65 56 66 60 67
REMARK SMILES IDX 57 68 59 69 58 70 45 71 46 72 50 73 47 74 49 75 48 76
REMARK H PARENT 8 13 5 19 65 44 43 55
REMARK Flexibility Score: inf
ROOT
ATOM      1  C   UNL A   1      34.525  31.544  28.405  1.00  0.00     0.261 C 
ENDROOT
BRANCH   1   2
ATOM      2  O   UNL A   1      33.910  30.907  27.272  1.00  0.00    -0.463 OA
BRANCH   2   3
ATOM      3  C   UNL A   1      34.288  29.630  27.010  1.00  0.00     0.312 C 
ATOM      4  O   UNL A   1      35.082  28.982  27.683  1.00  0.00    -0.252 OA
BRANCH   3   5
ATOM      5  C   UNL A   1      33.613  29.061  25.767  1.00  0.00     0.124 C 
ATOM      6  C   UNL A   1      31.906  27.400  25.096  1.00  0.00     0.107 C 
ATOM      7  C   UNL A   1      31.411  28.821  25.019  1.00  0.00    -0.006 C 
ATOM      8  C   UNL A   1      33.230  27.581  25.838  1.00  0.00     0.048 C 
ATOM      9  C   UNL A   1      32.322  29.719  25.416  1.00  0.00    -0.014 C 
BRANCH   6  10
ATOM     10  N   UNL A   1      30.898  26.637  25.818  1.00  0.00    -0.332 N 
ATOM     11  C   UNL A   1      30.423  25.388  25.907  1.00  0.00     0.317 C 
ATOM     12  O   UNL A   1      29.468  25.272  26.685  1.00  0.00    -0.249 OA
ATOM     13  H   UNL A   1      30.410  27.227  26.436  1.00  0.00     0.165 HD
BRANCH  11  14
ATOM     14  N   UNL A   1      30.907  24.308  25.224  1.00  0.00    -0.326 N 
ATOM     15  C   UNL A   1      31.495  23.236  26.023  1.00  0.00     0.148 C 
BRANCH  14  16
ATOM     16  C   UNL A   1      30.950  24.072  23.784  1.00  0.00     0.149 C 
BRANCH  16  17
ATOM     17  C   UNL A   1      32.346  23.976  23.164  1.00  0.00     0.177 C 
BRANCH  17  18
ATOM     18  O   UNL A   1      32.374  23.255  21.944  1.00  0.00    -0.395 OA
ATOM     19  H   UNL A   1      32.967  22.493  22.031  1.00  0.00     0.210 HD
ENDBRANCH  17  18
ENDBRANCH  16  17
ENDBRANCH  14  16
ENDBRANCH  11  14
ENDBRANCH   6  10
ENDBRANCH   3   5
ENDBRANCH   2   3
ENDBRANCH   1   2
BRANCH   1  20
ATOM     20  C   UNL A   1      35.006  32.943  28.012  1.00  0.00     0.202 C 
BRANCH  20  21
ATOM     21  O   UNL A   1      34.623  33.980  28.919  1.00  0.00    -0.374 OA
BRANCH  21  22
ATOM     22  C   UNL A   1      33.413  34.675  28.615  1.00  0.00     0.202 C 
BRANCH  22  23
ATOM     23  C   UNL A   1      33.000  35.737  29.641  1.00  0.00     0.261 C 
BRANCH  23  24
ATOM     24  O   UNL A   1      32.364  35.141  30.789  1.00  0.00    -0.460 OA
BRANCH  24  25
ATOM     25  C   UNL A   1      32.701  35.691  31.977  1.00  0.00     0.338 C 
ATOM     26  O   UNL A   1      32.086  36.554  32.595  1.00  0.00    -0.246 OA
BRANCH  25  27
ATOM     27  C   UNL A   1      33.857  34.990  32.563  1.00  0.00     0.060 A 
ATOM     28  C   UNL A   1      35.096  35.641  32.512  1.00  0.00     0.016 A 
ATOM     29  C   UNL A   1      33.761  33.691  33.067  1.00  0.00     0.016 A 
ATOM     30  C   UNL A   1      36.252  34.977  32.916  1.00  0.00     0.010 A 
ATOM     31  C   UNL A   1      34.925  33.023  33.466  1.00  0.00     0.010 A 
ATOM     32  C   UNL A   1      36.182  33.649  33.357  1.00  0.00    -0.014 A 
BRANCH  32  33
ATOM     33  C   UNL A   1      37.436  32.884  33.568  1.00  0.00     0.031 A 
ATOM     34  C   UNL A   1      38.228  33.098  34.830  1.00  0.00     0.074 A 
ATOM     35  C   UNL A   1      37.845  31.968  32.672  1.00  0.00     0.049 A 
ATOM     36  N   UNL A   1      39.339  32.527  35.220  1.00  0.00    -0.248 NA
ATOM     37  C   UNL A   1      37.692  34.086  35.782  1.00  0.00     0.031 C 
ATOM     38  C   UNL A   1      37.151  31.630  31.430  1.00  0.00     0.029 A 
ATOM     39  N   UNL A   1      38.949  31.151  32.676  1.00  0.00    -0.354 N 
ATOM     40  C   UNL A   1      39.639  33.087  36.455  1.00  0.00     0.074 A 
ATOM     41  C   UNL A   1      38.609  34.063  36.738  1.00  0.00     0.031 C 
ATOM     42  C   UNL A   1      37.848  30.675  30.790  1.00  0.00     0.029 A 
ATOM     43  C   UNL A   1      39.049  30.357  31.560  1.00  0.00     0.049 A 
ATOM     44  H   UNL A   1      39.605  31.136  33.409  1.00  0.00     0.167 HD
ATOM     45  C   UNL A   1      40.674  32.812  37.284  1.00  0.00     0.031 A 
ATOM     46  C   UNL A   1      40.009  29.487  31.192  1.00  0.00     0.031 A 
ATOM     47  C   UNL A   1      41.709  31.852  37.005  1.00  0.00     0.049 A 
ATOM     48  C   UNL A   1      41.191  29.256  32.095  1.00  0.00     0.074 A 
ATOM     49  C   UNL A   1      42.787  31.493  37.796  1.00  0.00     0.029 A 
ATOM     50  N   UNL A   1      41.799  31.105  35.843  1.00  0.00    -0.354 N 
ATOM     51  N   UNL A   1      41.445  29.770  33.273  1.00  0.00    -0.248 NA
ATOM     52  C   UNL A   1      42.215  28.314  31.616  1.00  0.00     0.031 C 
ATOM     53  C   UNL A   1      43.561  30.567  37.087  1.00  0.00     0.029 A 
ATOM     54  C   UNL A   1      42.931  30.307  35.881  1.00  0.00     0.049 A 
ATOM     55  H   UNL A   1      41.154  31.136  35.099  1.00  0.00     0.167 HD
ATOM     56  C   UNL A   1      42.643  29.196  33.687  1.00  0.00     0.074 A 
ATOM     57  C   UNL A   1      43.055  28.285  32.642  1.00  0.00     0.031 C 
ATOM     58  C   UNL A   1      43.334  29.405  34.834  1.00  0.00     0.031 A 
BRANCH  45  59
ATOM     59  C   UNL A   1      40.755  33.589  38.569  1.00  0.00    -0.014 A 
ATOM     60  C   UNL A   1      40.204  33.090  39.760  1.00  0.00     0.009 A 
ATOM     61  C   UNL A   1      41.426  34.822  38.594  1.00  0.00     0.009 A 
ATOM     62  C   UNL A   1      40.296  33.826  40.943  1.00  0.00     0.001 A 
ATOM     63  C   UNL A   1      41.538  35.543  39.783  1.00  0.00     0.001 A 
ATOM     64  C   UNL A   1      40.966  35.049  40.955  1.00  0.00     0.000 A 
ENDBRANCH  45  59
BRANCH  46  65
ATOM     65  C   UNL A   1      39.908  28.776  29.891  1.00  0.00    -0.014 A 
ATOM     66  C   UNL A   1      39.391  27.474  29.823  1.00  0.00     0.009 A 
ATOM     67  C   UNL A   1      40.350  29.394  28.711  1.00  0.00     0.009 A 
ATOM     68  C   UNL A   1      39.342  26.796  28.603  1.00  0.00     0.001 A 
ATOM     69  C   UNL A   1      40.274  28.724  27.488  1.00  0.00     0.001 A 
ATOM     70  C   UNL A   1      39.779  27.423  27.436  1.00  0.00     0.000 A 
ENDBRANCH  46  65
BRANCH  58  71
ATOM     71  C   UNL A   1      44.594  28.609  35.035  1.00  0.00    -0.014 A 
ATOM     72  C   UNL A   1      45.843  29.104  34.630  1.00  0.00     0.009 A 
ATOM     73  C   UNL A   1      44.532  27.364  35.680  1.00  0.00     0.009 A 
ATOM     74  C   UNL A   1      47.001  28.351  34.838  1.00  0.00     0.001 A 
ATOM     75  C   UNL A   1      45.695  26.626  35.910  1.00  0.00     0.001 A 
ATOM     76  C   UNL A   1      46.927  27.117  35.481  1.00  0.00     0.000 A 
ENDBRANCH  58  71
ENDBRANCH  32  33
ENDBRANCH  25  27
ENDBRANCH  24  25
ENDBRANCH  23  24
ENDBRANCH  22  23
ENDBRANCH  21  22
ENDBRANCH  20  21
ENDBRANCH   1  20
TORSDOF 19
ENDMDL
MODEL 2
REMARK VINA RESULT:      -9.0      5.085     10.094
REMARK SMILES CN(CCO)C(=O)N[C@H]1C=C[C@@H](C(=O)OCCOCCOC(=O)c2ccc(-c3c4nc(c(-c5ccccc5)c5ccc([nH]5)c(-c5ccccc5)c5nc(c(-c6ccccc6)c6ccc3[nH]6)C=C5)C=C4)cc2)C1
REMARK SMILES IDX 16 1 15 2 13 3 14 4 12 5 9 6 10 7 72 8 11 9 8 10 6 11 7 12
REMARK SMILES IDX 2 14 1 15 3 16 4 17 5 18 17 20 18 21 19 22 20 23 21 24 22 25
REMARK SMILES IDX 23 26 24 27 25 28 71 29 26 30 70 31 27 32 28 33 29 34 64 35
REMARK SMILES IDX 30 36 69 37 63 38 65 39 31 40 68 41 62 42 61 43 32 45 54 46
REMARK SMILES IDX 39 47 53 48 40 49 43 50 52 51 66 52 41 53 42 54 51 56 67 57
REMARK SMILES IDX 44 58 33 59 34 60 38 61 35 62 37 63 36 64 55 65 56 66 60 67
REMARK SMILES IDX 57 68 59 69 58 70 45 71 46 72 50 73 47 74 49 75 48 76
REMARK H PARENT 8 13 5 19 65 44 43 55
REMARK Flexibility Score: inf
ROOT
ATOM      1  C   UNL A   1      35.174  21.802  26.194  1.00  0.00     0.261 C 
ENDROOT
BRANCH   1   2
ATOM      2  O   UNL A   1      35.403  23.185  25.875  1.00  0.00    -0.463 OA
BRANCH   2   3
ATOM      3  C   UNL A   1      34.483  23.790  25.081  1.00  0.00     0.312 C 
ATOM      4  O   UNL A   1      34.715  24.256  23.971  1.00  0.00    -0.252 OA
BRANCH   3   5
ATOM      5  C   UNL A   1      33.097  23.833  25.715  1.00  0.00     0.124 C 
ATOM      6  C   UNL A   1      31.106  25.292  25.884  1.00  0.00     0.107 C 
ATOM      7  C   UNL A   1      30.912  24.133  24.941  1.00  0.00    -0.006 C 
ATOM      8  C   UNL A   1      32.609  25.217  26.149  1.00  0.00     0.048 C 
ATOM      9  C   UNL A   1      32.000  23.363  24.821  1.00  0.00    -0.014 C 
BRANCH   6  10
ATOM     10  N   UNL A   1      30.666  26.490  25.183  1.00  0.00    -0.332 N 
ATOM     11  C   UNL A   1      30.932  27.186  24.071  1.00  0.00     0.317 C 
ATOM     12  O   UNL A   1      30.264  28.222  23.960  1.00  0.00    -0.249 OA
ATOM     13  H   UNL A   1      29.942  26.926  25.688  1.00  0.00     0.165 HD
BRANCH  11  14
ATOM     14  N   UNL A   1      31.846  26.835  23.119  1.00  0.00    -0.326 N 
ATOM     15  C   UNL A   1      33.206  27.338  23.297  1.00  0.00     0.148 C 
BRANCH  14  16
ATOM     16  C   UNL A   1      31.659  26.037  21.911  1.00  0.00     0.149 C 
BRANCH  16  17
ATOM     17  C   UNL A   1      32.939  25.554  21.225  1.00  0.00     0.177 C 
BRANCH  17  18
ATOM     18  O   UNL A   1      32.978  25.839  19.837  1.00  0.00    -0.395 OA
ATOM     19  H   UNL A   1      32.663  26.743  19.683  1.00  0.00     0.210 HD
ENDBRANCH  17  18
ENDBRANCH  16  17
ENDBRANCH  14  16
ENDBRANCH  11  14
ENDBRANCH   6  10
ENDBRANCH   3   5
ENDBRANCH   2   3
ENDBRANCH   1   2
BRANCH   1  20
ATOM     20  C   UNL A   1      35.658  20.918  25.042  1.00  0.00     0.202 C 
BRANCH  20  21
ATOM     21  O   UNL A   1      36.978  21.215  24.579  1.00  0.00    -0.374 OA
BRANCH  21  22
ATOM     22  C   UNL A   1      37.991  20.257  24.890  1.00  0.00     0.202 C 
BRANCH  22  23
ATOM     23  C   UNL A   1      39.236  20.832  25.576  1.00  0.00     0.261 C 
BRANCH  23  24
ATOM     24  O   UNL A   1      39.999  19.800  26.232  1.00  0.00    -0.460 OA
BRANCH  24  25
ATOM     25  C   UNL A   1      41.330  19.840  25.999  1.00  0.00     0.338 C 
ATOM     26  O   UNL A   1      41.988  19.052  25.329  1.00  0.00    -0.246 OA
BRANCH  25  27
ATOM     27  C   UNL A   1      41.910  21.090  26.522  1.00  0.00     0.060 A 
ATOM     28  C   UNL A   1      41.831  21.304  27.904  1.00  0.00     0.016 A 
ATOM     29  C   UNL A   1      42.435  22.074  25.682  1.00  0.00     0.016 A 
ATOM     30  C   UNL A   1      42.228  22.525  28.445  1.00  0.00     0.010 A 
ATOM     31  C   UNL A   1      42.827  23.303  26.228  1.00  0.00     0.010 A 
ATOM     32  C   UNL A   1      42.690  23.549  27.607  1.00  0.00    -0.014 A 
BRANCH  32  33
ATOM     33  C   UNL A   1      42.894  24.909  28.164  1.00  0.00     0.031 A 
ATOM     34  C   UNL A   1      44.277  25.338  28.575  1.00  0.00     0.074 A 
ATOM     35  C   UNL A   1      41.872  25.778  28.257  1.00  0.00     0.049 A 
ATOM     36  N   UNL A   1      44.679  26.482  29.069  1.00  0.00    -0.248 NA
ATOM     37  C   UNL A   1      45.352  24.347  28.402  1.00  0.00     0.031 C 
ATOM     38  C   UNL A   1      40.492  25.507  27.855  1.00  0.00     0.029 A 
ATOM     39  N   UNL A   1      41.842  27.070  28.721  1.00  0.00    -0.354 N 
ATOM     40  C   UNL A   1      46.047  26.347  29.271  1.00  0.00     0.074 A 
ATOM     41  C   UNL A   1      46.403  25.002  28.873  1.00  0.00     0.031 C 
ATOM     42  C   UNL A   1      39.749  26.602  28.091  1.00  0.00     0.029 A 
ATOM     43  C   UNL A   1      40.591  27.637  28.688  1.00  0.00     0.049 A 
ATOM     44  H   UNL A   1      42.640  27.544  29.046  1.00  0.00     0.167 HD
ATOM     45  C   UNL A   1      46.931  27.260  29.740  1.00  0.00     0.031 A 
ATOM     46  C   UNL A   1      40.170  28.845  29.108  1.00  0.00     0.031 A 
ATOM     47  C   UNL A   1      46.584  28.595  30.149  1.00  0.00     0.049 A 
ATOM     48  C   UNL A   1      41.159  29.815  29.698  1.00  0.00     0.074 A 
ATOM     49  C   UNL A   1      47.416  29.596  30.620  1.00  0.00     0.029 A 
ATOM     50  N   UNL A   1      45.299  29.112  30.145  1.00  0.00    -0.354 N 
ATOM     51  N   UNL A   1      42.454  29.685  29.855  1.00  0.00    -0.248 NA
ATOM     52  C   UNL A   1      40.624  31.104  30.163  1.00  0.00     0.031 C 
ATOM     53  C   UNL A   1      46.626  30.702  30.952  1.00  0.00     0.029 A 
ATOM     54  C   UNL A   1      45.311  30.409  30.633  1.00  0.00     0.049 A 
ATOM     55  H   UNL A   1      44.496  28.630  29.841  1.00  0.00     0.167 HD
ATOM     56  C   UNL A   1      42.891  30.882  30.411  1.00  0.00     0.074 A 
ATOM     57  C   UNL A   1      41.727  31.730  30.550  1.00  0.00     0.031 C 
ATOM     58  C   UNL A   1      44.147  31.244  30.770  1.00  0.00     0.031 A 
BRANCH  45  59
ATOM     59  C   UNL A   1      48.366  26.830  29.865  1.00  0.00    -0.014 A 
ATOM     60  C   UNL A   1      49.275  27.007  28.810  1.00  0.00     0.009 A 
ATOM     61  C   UNL A   1      48.822  26.275  31.071  1.00  0.00     0.009 A 
ATOM     62  C   UNL A   1      50.606  26.605  28.950  1.00  0.00     0.001 A 
ATOM     63  C   UNL A   1      50.158  25.898  31.216  1.00  0.00     0.001 A 
ATOM     64  C   UNL A   1      51.046  26.056  30.153  1.00  0.00     0.000 A 
ENDBRANCH  45  59
BRANCH  46  65
ATOM     65  C   UNL A   1      38.733  29.207  29.006  1.00  0.00    -0.014 A 
ATOM     66  C   UNL A   1      38.216  29.767  27.828  1.00  0.00     0.009 A 
ATOM     67  C   UNL A   1      37.875  29.014  30.099  1.00  0.00     0.009 A 
ATOM     68  C   UNL A   1      36.873  30.146  27.756  1.00  0.00     0.001 A 
ATOM     69  C   UNL A   1      36.527  29.369  30.015  1.00  0.00     0.001 A 
ATOM     70  C   UNL A   1      36.029  29.944  28.847  1.00  0.00     0.000 A 
ENDBRANCH  46  65
BRANCH  58  71
ATOM     71  C   UNL A   1      44.335  32.632  31.317  1.00  0.00    -0.014 A 
ATOM     72  C   UNL A   1      44.581  33.723  30.469  1.00  0.00     0.009 A 
ATOM     73  C   UNL A   1      44.221  32.855  32.698  1.00  0.00     0.009 A 
ATOM     74  C   UNL A   1      44.741  35.006  31.000  1.00  0.00     0.001 A 
ATOM     75  C   UNL A   1      44.355  34.143  33.222  1.00  0.00     0.001 A 
ATOM     76  C   UNL A   1      44.623  35.215  32.373  1.00  0.00     0.000 A 
ENDBRANCH  58  71
ENDBRANCH  32  33
ENDBRANCH  25  27
ENDBRANCH  24  25
ENDBRANCH  23  24
ENDBRANCH  22  23
ENDBRANCH  21  22
ENDBRANCH  20  21
ENDBRANCH   1  20
TORSDOF 19
ENDMDL
MODEL 3
REMARK VINA RESULT:      -9.0      1.037      6.170
REMARK SMILES CN(CCO)C(=O)N[C@H]1C=C[C@@H](C(=O)OCCOCCOC(=O)c2ccc(-c3c4nc(c(-c5ccccc5)c5ccc([nH]5)c(-c5ccccc5)c5nc(c(-c6ccccc6)c6ccc3[nH]6)C=C5)C=C4)cc2)C1
REMARK SMILES IDX 16 1 15 2 13 3 14 4 12 5 9 6 10 7 72 8 11 9 8 10 6 11 7 12
REMARK SMILES IDX 2 14 1 15 3 16 4 17 5 18 17 20 18 21 19 22 20 23 21 24 22 25
REMARK SMILES IDX 23 26 24 27 25 28 71 29 26 30 70 31 27 32 28 33 29 34 64 35
REMARK SMILES IDX 30 36 69 37 63 38 65 39 31 40 68 41 62 42 61 43 32 45 54 46
REMARK SMILES IDX 39 47 53 48 40 49 43 50 52 51 66 52 41 53 42 54 51 56 67 57
REMARK SMILES IDX 44 58 33 59 34 60 38 61 35 62 37 63 36 64 55 65 56 66 60 67
REMARK SMILES IDX 57 68 59 69 58 70 45 71 46 72 50 73 47 74 49 75 48 76
REMARK H PARENT 8 13 5 19 65 44 43 55
REMARK Flexibility Score: inf
ROOT
ATOM      1  C   UNL A   1      33.848  31.745  28.116  1.00  0.00     0.261 C 
ENDROOT
BRANCH   1   2
ATOM      2  O   UNL A   1      33.767  30.754  27.078  1.00  0.00    -0.463 OA
BRANCH   2   3
ATOM      3  C   UNL A   1      32.524  30.403  26.663  1.00  0.00     0.312 C 
ATOM      4  O   UNL A   1      31.637  31.195  26.362  1.00  0.00    -0.252 OA
BRANCH   3   5
ATOM      5  C   UNL A   1      32.329  28.893  26.601  1.00  0.00     0.124 C 
ATOM      6  C   UNL A   1      32.420  27.007  25.001  1.00  0.00     0.107 C 
ATOM      7  C   UNL A   1      33.617  27.066  25.915  1.00  0.00    -0.006 C 
ATOM      8  C   UNL A   1      31.752  28.351  25.291  1.00  0.00     0.048 C 
ATOM      9  C   UNL A   1      33.586  28.106  26.757  1.00  0.00    -0.014 C 
BRANCH   6  10
ATOM     10  N   UNL A   1      32.926  26.853  23.645  1.00  0.00    -0.332 N 
ATOM     11  C   UNL A   1      33.407  25.906  22.829  1.00  0.00     0.317 C 
ATOM     12  O   UNL A   1      33.764  26.335  21.725  1.00  0.00    -0.249 OA
ATOM     13  H   UNL A   1      32.911  27.721  23.182  1.00  0.00     0.165 HD
BRANCH  11  14
ATOM     14  N   UNL A   1      33.517  24.580  23.137  1.00  0.00    -0.326 N 
ATOM     15  C   UNL A   1      34.731  24.167  23.837  1.00  0.00     0.148 C 
BRANCH  14  16
ATOM     16  C   UNL A   1      32.597  23.485  22.841  1.00  0.00     0.149 C 
BRANCH  16  17
ATOM     17  C   UNL A   1      31.322  23.439  23.686  1.00  0.00     0.177 C 
BRANCH  17  18
ATOM     18  O   UNL A   1      30.193  23.997  23.035  1.00  0.00    -0.395 OA
ATOM     19  H   UNL A   1      30.398  24.901  22.749  1.00  0.00     0.210 HD
ENDBRANCH  17  18
ENDBRANCH  16  17
ENDBRANCH  14  16
ENDBRANCH  11  14
ENDBRANCH   6  10
ENDBRANCH   3   5
ENDBRANCH   2   3
ENDBRANCH   1   2
BRANCH   1  20
ATOM     20  C   UNL A   1      35.157  32.528  27.984  1.00  0.00     0.202 C 
BRANCH  20  21
ATOM     21  O   UNL A   1      35.062  33.910  28.336  1.00  0.00    -0.374 OA
BRANCH  21  22
ATOM     22  C   UNL A   1      33.767  34.504  28.235  1.00  0.00     0.202 C 
BRANCH  22  23
ATOM     23  C   UNL A   1      33.433  35.523  29.332  1.00  0.00     0.261 C 
BRANCH  23  24
ATOM     24  O   UNL A   1      32.760  34.898  30.443  1.00  0.00    -0.460 OA
BRANCH  24  25
ATOM     25  C   UNL A   1      32.970  35.489  31.641  1.00  0.00     0.338 C 
ATOM     26  O   UNL A   1      32.275  36.345  32.176  1.00  0.00    -0.246 OA
BRANCH  25  27
ATOM     27  C   UNL A   1      34.088  34.840  32.348  1.00  0.00     0.060 A 
ATOM     28  C   UNL A   1      35.303  35.534  32.402  1.00  0.00     0.016 A 
ATOM     29  C   UNL A   1      33.988  33.548  32.868  1.00  0.00     0.016 A 
ATOM     30  C   UNL A   1      36.437  34.918  32.927  1.00  0.00     0.010 A 
ATOM     31  C   UNL A   1      35.131  32.928  33.390  1.00  0.00     0.010 A 
ATOM     32  C   UNL A   1      36.370  33.597  33.387  1.00  0.00    -0.014 A 
BRANCH  32  33
ATOM     33  C   UNL A   1      37.624  32.881  33.733  1.00  0.00     0.031 A 
ATOM     34  C   UNL A   1      38.184  31.868  32.771  1.00  0.00     0.074 A 
ATOM     35  C   UNL A   1      38.289  33.163  34.867  1.00  0.00     0.049 A 
ATOM     36  N   UNL A   1      39.270  31.143  32.868  1.00  0.00    -0.248 NA
ATOM     37  C   UNL A   1      37.422  31.646  31.531  1.00  0.00     0.031 C 
ATOM     38  C   UNL A   1      37.882  34.152  35.864  1.00  0.00     0.029 A 
ATOM     39  N   UNL A   1      39.456  32.640  35.366  1.00  0.00    -0.354 N 
ATOM     40  C   UNL A   1      39.318  30.377  31.711  1.00  0.00     0.074 A 
ATOM     41  C   UNL A   1      38.139  30.704  30.938  1.00  0.00     0.031 C 
ATOM     42  C   UNL A   1      38.786  34.163  36.859  1.00  0.00     0.029 A 
ATOM     43  C   UNL A   1      39.816  33.163  36.584  1.00  0.00     0.049 A 
ATOM     44  H   UNL A   1      39.985  31.956  34.896  1.00  0.00     0.167 HD
ATOM     45  C   UNL A   1      40.260  29.485  31.320  1.00  0.00     0.031 A 
ATOM     46  C   UNL A   1      40.849  32.859  37.394  1.00  0.00     0.031 A 
ATOM     47  C   UNL A   1      41.428  29.144  32.088  1.00  0.00     0.049 A 
ATOM     48  C   UNL A   1      41.840  31.806  36.973  1.00  0.00     0.074 A 
ATOM     49  C   UNL A   1      42.446  28.265  31.763  1.00  0.00     0.029 A 
ATOM     50  N   UNL A   1      41.729  29.661  33.337  1.00  0.00    -0.354 N 
ATOM     51  N   UNL A   1      41.889  31.112  35.863  1.00  0.00    -0.248 NA
ATOM     52  C   UNL A   1      42.925  31.504  37.920  1.00  0.00     0.031 C 
ATOM     53  C   UNL A   1      43.337  28.209  32.841  1.00  0.00     0.029 A 
ATOM     54  C   UNL A   1      42.903  29.098  33.811  1.00  0.00     0.049 A 
ATOM     55  H   UNL A   1      41.189  30.330  33.817  1.00  0.00     0.167 HD
ATOM     56  C   UNL A   1      43.021  30.311  35.965  1.00  0.00     0.074 A 
ATOM     57  C   UNL A   1      43.637  30.616  37.239  1.00  0.00     0.031 C 
ATOM     58  C   UNL A   1      43.506  29.406  35.080  1.00  0.00     0.031 A 
BRANCH  45  59
ATOM     59  C   UNL A   1      40.045  28.785  30.007  1.00  0.00    -0.014 A 
ATOM     60  C   UNL A   1      39.432  27.524  29.942  1.00  0.00     0.009 A 
ATOM     61  C   UNL A   1      40.430  29.416  28.813  1.00  0.00     0.009 A 
ATOM     62  C   UNL A   1      39.238  26.896  28.710  1.00  0.00     0.001 A 
ATOM     63  C   UNL A   1      40.211  28.797  27.582  1.00  0.00     0.001 A 
ATOM     64  C   UNL A   1      39.623  27.534  27.532  1.00  0.00     0.000 A 
ENDBRANCH  45  59
BRANCH  46  65
ATOM     65  C   UNL A   1      40.993  33.544  38.703  1.00  0.00    -0.014 A 
ATOM     66  C   UNL A   1      40.352  33.048  39.849  1.00  0.00     0.009 A 
ATOM     67  C   UNL A   1      41.758  34.716  38.808  1.00  0.00     0.009 A 
ATOM     68  C   UNL A   1      40.456  33.724  41.066  1.00  0.00     0.001 A 
ATOM     69  C   UNL A   1      41.882  35.375  40.033  1.00  0.00     0.001 A 
ATOM     70  C   UNL A   1      41.224  34.884  41.159  1.00  0.00     0.000 A 
ENDBRANCH  46  65
BRANCH  58  71
ATOM     71  C   UNL A   1      44.786  28.704  35.442  1.00  0.00    -0.014 A 
ATOM     72  C   UNL A   1      46.036  29.251  35.114  1.00  0.00     0.009 A 
ATOM     73  C   UNL A   1      44.737  27.499  36.160  1.00  0.00     0.009 A 
ATOM     74  C   UNL A   1      47.212  28.585  35.471  1.00  0.00     0.001 A 
ATOM     75  C   UNL A   1      45.914  26.851  36.539  1.00  0.00     0.001 A 
ATOM     76  C   UNL A   1      47.150  27.391  36.187  1.00  0.00     0.000 A 
ENDBRANCH  58  71
ENDBRANCH  32  33
ENDBRANCH  25  27
ENDBRANCH  24  25
ENDBRANCH  23  24
ENDBRANCH  22  23
ENDBRANCH  21  22
ENDBRANCH  20  21
ENDBRANCH   1  20
TORSDOF 19
ENDMDL
