MODEL 1
REMARK VINA RESULT:      -9.9      0.000      0.000
REMARK SMILES Cn1cccc1/C=C1/SC(=S)N([C@@H](CCC(N)=O)C(=O)OCCOCCOC(=O)c2ccc(-c3c4nc(c(-c5ccccc5)c5ccc([nH]5)c(-c5ccccc5)c5nc(c(-c6ccccc6)c6ccc3[nH]6)C=C5)C=C4)cc2)C1=O
REMARK SMILES IDX 23 1 22 2 21 3 19 4 20 5 13 6 12 7 7 8 8 9 9 10 78 11 10 12
REMARK SMILES IDX 79 13 11 14 6 15 1 16 2 17 3 18 4 19 5 20 14 21 15 22 16 23
REMARK SMILES IDX 17 24 18 25 24 28 25 29 26 30 27 31 28 32 29 33 30 34 31 35
REMARK SMILES IDX 77 36 32 37 76 38 33 39 34 40 35 41 70 42 36 43 75 44 69 45
REMARK SMILES IDX 71 46 37 47 74 48 68 49 67 50 38 52 60 53 45 54 59 55 46 56
REMARK SMILES IDX 49 57 58 58 72 59 47 60 48 61 57 63 73 64 50 65 39 66 40 67
REMARK SMILES IDX 44 68 41 69 43 70 42 71 61 72 62 73 66 74 63 75 65 76 64 77
REMARK SMILES IDX 51 78 52 79 56 80 53 81 55 82 54 83
REMARK H PARENT 17 26 17 27 71 51 49 62
REMARK Flexibility Score: inf
ROOT
ATOM      1  C   UNL A   1      37.602  22.352  25.625  1.00  0.00     0.202 C 
ENDROOT
BRANCH   1   2
ATOM      2  C   UNL A   1      36.261  21.624  25.673  1.00  0.00     0.261 C 
BRANCH   2   3
ATOM      3  O   UNL A   1      35.173  22.485  25.320  1.00  0.00    -0.462 OA
BRANCH   3   4
ATOM      4  C   UNL A   1      34.289  22.741  26.305  1.00  0.00     0.329 C 
ATOM      5  O   UNL A   1      34.584  22.914  27.486  1.00  0.00    -0.250 OA
BRANCH   4   6
ATOM      6  C   UNL A   1      32.828  22.694  25.857  1.00  0.00     0.202 C 
BRANCH   6   7
ATOM      7  N   UNL A   1      31.962  23.907  25.845  1.00  0.00    -0.278 N 
ATOM      8  C   UNL A   1      31.305  27.155  24.320  1.00  0.00     0.047 C 
ATOM      9  C   UNL A   1      31.308  26.062  25.103  1.00  0.00     0.082 C 
ATOM     10  S   UNL A   1      29.908  25.493  25.923  1.00  0.00    -0.054 SA
ATOM     11  C   UNL A   1      32.426  25.108  25.350  1.00  0.00     0.267 C 
ATOM     12  C   UNL A   1      30.652  23.938  26.294  1.00  0.00     0.149 C 
ATOM     13  O   UNL A   1      33.601  25.373  25.151  1.00  0.00    -0.268 OA
ATOM     14  S   UNL A   1      29.777  22.740  27.059  1.00  0.00    -0.052 S 
BRANCH   8  15
ATOM     15  C   UNL A   1      32.441  27.603  23.601  1.00  0.00     0.042 A 
ATOM     16  C   UNL A   1      33.449  29.011  25.462  1.00  0.00     0.149 C 
ATOM     17  N   UNL A   1      33.317  28.546  24.101  1.00  0.00    -0.351 N 
ATOM     18  C   UNL A   1      34.163  28.953  23.098  1.00  0.00     0.086 A 
ATOM     19  C   UNL A   1      33.977  28.118  22.023  1.00  0.00     0.020 A 
ATOM     20  C   UNL A   1      32.938  27.223  22.370  1.00  0.00     0.028 A 
ENDBRANCH   8  15
ENDBRANCH   6   7
BRANCH   6  21
ATOM     21  C   UNL A   1      32.731  21.808  24.591  1.00  0.00     0.047 C 
BRANCH  21  22
ATOM     22  C   UNL A   1      32.237  20.367  24.727  1.00  0.00     0.102 C 
BRANCH  22  23
ATOM     23  C   UNL A   1      33.196  19.307  25.237  1.00  0.00     0.217 C 
ATOM     24  N   UNL A   1      32.836  18.662  26.376  1.00  0.00    -0.370 N 
ATOM     25  O   UNL A   1      34.194  18.938  24.632  1.00  0.00    -0.275 OA
ATOM     26  H   UNL A   1      32.035  18.948  26.872  1.00  0.00     0.159 HD
ATOM     27  H   UNL A   1      33.375  17.907  26.705  1.00  0.00     0.159 HD
ENDBRANCH  22  23
ENDBRANCH  21  22
ENDBRANCH   6  21
ENDBRANCH   4   6
ENDBRANCH   3   4
ENDBRANCH   2   3
ENDBRANCH   1   2
BRANCH   1  28
ATOM     28  O   UNL A   1      38.765  21.570  25.374  1.00  0.00    -0.374 OA
BRANCH  28  29
ATOM     29  C   UNL A   1      38.606  20.171  25.144  1.00  0.00     0.202 C 
BRANCH  29  30
ATOM     30  C   UNL A   1      39.542  19.186  25.865  1.00  0.00     0.261 C 
BRANCH  30  31
ATOM     31  O   UNL A   1      40.897  19.176  25.381  1.00  0.00    -0.460 OA
BRANCH  31  32
ATOM     32  C   UNL A   1      41.846  19.363  26.336  1.00  0.00     0.338 C 
ATOM     33  O   UNL A   1      42.603  18.527  26.799  1.00  0.00    -0.246 OA
BRANCH  32  34
ATOM     34  C   UNL A   1      41.933  20.781  26.723  1.00  0.00     0.060 A 
ATOM     35  C   UNL A   1      42.350  21.735  25.786  1.00  0.00     0.016 A 
ATOM     36  C   UNL A   1      41.763  21.136  28.057  1.00  0.00     0.016 A 
ATOM     37  C   UNL A   1      42.575  23.056  26.183  1.00  0.00     0.010 A 
ATOM     38  C   UNL A   1      41.995  22.459  28.449  1.00  0.00     0.010 A 
ATOM     39  C   UNL A   1      42.401  23.433  27.521  1.00  0.00    -0.014 A 
BRANCH  39  40
ATOM     40  C   UNL A   1      42.683  24.820  27.976  1.00  0.00     0.031 A 
ATOM     41  C   UNL A   1      44.083  25.213  28.367  1.00  0.00     0.074 A 
ATOM     42  C   UNL A   1      41.686  25.720  28.082  1.00  0.00     0.049 A 
ATOM     43  N   UNL A   1      44.518  26.338  28.880  1.00  0.00    -0.248 NA
ATOM     44  C   UNL A   1      45.131  24.198  28.172  1.00  0.00     0.031 C 
ATOM     45  C   UNL A   1      40.284  25.476  27.745  1.00  0.00     0.029 A 
ATOM     46  N   UNL A   1      41.703  27.023  28.522  1.00  0.00    -0.354 N 
ATOM     47  C   UNL A   1      45.880  26.157  29.088  1.00  0.00     0.074 A 
ATOM     48  C   UNL A   1      46.194  24.805  28.680  1.00  0.00     0.031 C 
ATOM     49  C   UNL A   1      39.578  26.595  27.977  1.00  0.00     0.029 A 
ATOM     50  C   UNL A   1      40.462  27.616  28.533  1.00  0.00     0.049 A 
ATOM     51  H   UNL A   1      42.524  27.487  28.803  1.00  0.00     0.167 HD
ATOM     52  C   UNL A   1      46.790  27.038  29.568  1.00  0.00     0.031 A 
ATOM     53  C   UNL A   1      40.075  28.829  28.971  1.00  0.00     0.031 A 
ATOM     54  C   UNL A   1      46.484  28.386  29.973  1.00  0.00     0.049 A 
ATOM     55  C   UNL A   1      41.094  29.767  29.563  1.00  0.00     0.074 A 
ATOM     56  C   UNL A   1      47.351  29.368  30.422  1.00  0.00     0.029 A 
ATOM     57  N   UNL A   1      45.213  28.936  29.989  1.00  0.00    -0.354 N 
ATOM     58  N   UNL A   1      42.389  29.604  29.699  1.00  0.00    -0.248 NA
ATOM     59  C   UNL A   1      40.596  31.056  30.069  1.00  0.00     0.031 C 
ATOM     60  C   UNL A   1      46.595  30.488  30.777  1.00  0.00     0.029 A 
ATOM     61  C   UNL A   1      45.265  30.229  30.484  1.00  0.00     0.049 A 
ATOM     62  H   UNL A   1      44.394  28.477  29.693  1.00  0.00     0.167 HD
ATOM     63  C   UNL A   1      42.859  30.773  30.287  1.00  0.00     0.074 A 
ATOM     64  C   UNL A   1      41.718  31.646  30.459  1.00  0.00     0.031 C 
ATOM     65  C   UNL A   1      44.124  31.089  30.658  1.00  0.00     0.031 A 
BRANCH  52  66
ATOM     66  C   UNL A   1      48.211  26.564  29.709  1.00  0.00    -0.014 A 
ATOM     67  C   UNL A   1      49.148  26.741  28.679  1.00  0.00     0.009 A 
ATOM     68  C   UNL A   1      48.630  25.971  30.911  1.00  0.00     0.009 A 
ATOM     69  C   UNL A   1      50.465  26.301  28.837  1.00  0.00     0.001 A 
ATOM     70  C   UNL A   1      49.954  25.561  31.077  1.00  0.00     0.001 A 
ATOM     71  C   UNL A   1      50.868  25.717  30.037  1.00  0.00     0.000 A 
ENDBRANCH  52  66
BRANCH  53  72
ATOM     72  C   UNL A   1      38.641  29.226  28.906  1.00  0.00    -0.014 A 
ATOM     73  C   UNL A   1      38.113  29.812  27.745  1.00  0.00     0.009 A 
ATOM     74  C   UNL A   1      37.800  29.043  30.014  1.00  0.00     0.009 A 
ATOM     75  C   UNL A   1      36.780  30.230  27.707  1.00  0.00     0.001 A 
ATOM     76  C   UNL A   1      36.459  29.431  29.961  1.00  0.00     0.001 A 
ATOM     77  C   UNL A   1      35.953  30.034  28.811  1.00  0.00     0.000 A 
ENDBRANCH  53  72
BRANCH  65  78
ATOM     78  C   UNL A   1      44.349  32.442  31.274  1.00  0.00    -0.014 A 
ATOM     79  C   UNL A   1      44.597  33.571  30.478  1.00  0.00     0.009 A 
ATOM     80  C   UNL A   1      44.254  32.601  32.666  1.00  0.00     0.009 A 
ATOM     81  C   UNL A   1      44.771  34.827  31.065  1.00  0.00     0.001 A 
ATOM     82  C   UNL A   1      44.397  33.863  33.247  1.00  0.00     0.001 A 
ATOM     83  C   UNL A   1      44.663  34.973  32.448  1.00  0.00     0.000 A 
ENDBRANCH  65  78
ENDBRANCH  39  40
ENDBRANCH  32  34
ENDBRANCH  31  32
ENDBRANCH  30  31
ENDBRANCH  29  30
ENDBRANCH  28  29
ENDBRANCH   1  28
TORSDOF 19
ENDMDL
MODEL 2
REMARK VINA RESULT:      -9.8      1.437      2.471
REMARK SMILES Cn1cccc1/C=C1/SC(=S)N([C@@H](CCC(N)=O)C(=O)OCCOCCOC(=O)c2ccc(-c3c4nc(c(-c5ccccc5)c5ccc([nH]5)c(-c5ccccc5)c5nc(c(-c6ccccc6)c6ccc3[nH]6)C=C5)C=C4)cc2)C1=O
REMARK SMILES IDX 23 1 22 2 21 3 19 4 20 5 13 6 12 7 7 8 8 9 9 10 78 11 10 12
REMARK SMILES IDX 79 13 11 14 6 15 1 16 2 17 3 18 4 19 5 20 14 21 15 22 16 23
REMARK SMILES IDX 17 24 18 25 24 28 25 29 26 30 27 31 28 32 29 33 30 34 31 35
REMARK SMILES IDX 77 36 32 37 76 38 33 39 34 40 35 41 70 42 36 43 75 44 69 45
REMARK SMILES IDX 71 46 37 47 74 48 68 49 67 50 38 52 60 53 45 54 59 55 46 56
REMARK SMILES IDX 49 57 58 58 72 59 47 60 48 61 57 63 73 64 50 65 39 66 40 67
REMARK SMILES IDX 44 68 41 69 43 70 42 71 61 72 62 73 66 74 63 75 65 76 64 77
REMARK SMILES IDX 51 78 52 79 56 80 53 81 55 82 54 83
REMARK H PARENT 17 26 17 27 71 51 49 62
REMARK Flexibility Score: inf
ROOT
ATOM      1  C   UNL A   1      38.180  23.001  26.051  1.00  0.00     0.202 C 
ENDROOT
BRANCH   1   2
ATOM      2  C   UNL A   1      36.947  23.781  25.601  1.00  0.00     0.261 C 
BRANCH   2   3
ATOM      3  O   UNL A   1      35.906  22.914  25.139  1.00  0.00    -0.462 OA
BRANCH   3   4
ATOM      4  C   UNL A   1      35.528  23.090  23.856  1.00  0.00     0.329 C 
ATOM      5  O   UNL A   1      36.274  22.989  22.884  1.00  0.00    -0.250 OA
BRANCH   4   6
ATOM      6  C   UNL A   1      34.078  23.545  23.692  1.00  0.00     0.202 C 
BRANCH   6   7
ATOM      7  N   UNL A   1      33.216  23.891  24.859  1.00  0.00    -0.278 N 
ATOM      8  C   UNL A   1      31.589  26.552  26.750  1.00  0.00     0.047 C 
ATOM      9  C   UNL A   1      32.086  25.380  26.316  1.00  0.00     0.082 C 
ATOM     10  S   UNL A   1      31.347  23.865  26.659  1.00  0.00    -0.054 SA
ATOM     11  C   UNL A   1      33.258  25.148  25.425  1.00  0.00     0.267 C 
ATOM     12  C   UNL A   1      32.314  23.022  25.449  1.00  0.00     0.149 C 
ATOM     13  O   UNL A   1      34.144  25.968  25.241  1.00  0.00    -0.268 OA
ATOM     14  S   UNL A   1      32.056  21.403  25.134  1.00  0.00    -0.052 S 
BRANCH   8  15
ATOM     15  C   UNL A   1      32.164  27.807  26.431  1.00  0.00     0.042 A 
ATOM     16  C   UNL A   1      30.868  28.205  24.282  1.00  0.00     0.149 C 
ATOM     17  N   UNL A   1      31.916  28.463  25.242  1.00  0.00    -0.351 N 
ATOM     18  C   UNL A   1      32.789  29.516  25.115  1.00  0.00     0.086 A 
ATOM     19  C   UNL A   1      33.443  29.669  26.313  1.00  0.00     0.020 A 
ATOM     20  C   UNL A   1      32.995  28.631  27.164  1.00  0.00     0.028 A 
ENDBRANCH   8  15
ENDBRANCH   6   7
BRANCH   6  21
ATOM     21  C   UNL A   1      34.007  24.542  22.508  1.00  0.00     0.047 C 
BRANCH  21  22
ATOM     22  C   UNL A   1      32.963  24.322  21.412  1.00  0.00     0.102 C 
BRANCH  22  23
ATOM     23  C   UNL A   1      32.576  25.489  20.523  1.00  0.00     0.217 C 
ATOM     24  N   UNL A   1      31.809  26.455  21.091  1.00  0.00    -0.370 N 
ATOM     25  O   UNL A   1      32.999  25.655  19.386  1.00  0.00    -0.275 OA
ATOM     26  H   UNL A   1      31.462  26.335  22.005  1.00  0.00     0.159 HD
ATOM     27  H   UNL A   1      31.600  27.276  20.589  1.00  0.00     0.159 HD
ENDBRANCH  22  23
ENDBRANCH  21  22
ENDBRANCH   6  21
ENDBRANCH   4   6
ENDBRANCH   3   4
ENDBRANCH   2   3
ENDBRANCH   1   2
BRANCH   1  28
ATOM     28  O   UNL A   1      38.381  21.710  25.488  1.00  0.00    -0.374 OA
BRANCH  28  29
ATOM     29  C   UNL A   1      39.129  20.751  26.236  1.00  0.00     0.202 C 
BRANCH  29  30
ATOM     30  C   UNL A   1      39.800  19.584  25.492  1.00  0.00     0.261 C 
BRANCH  30  31
ATOM     31  O   UNL A   1      40.991  19.074  26.118  1.00  0.00    -0.460 OA
BRANCH  31  32
ATOM     32  C   UNL A   1      42.141  19.698  25.751  1.00  0.00     0.338 C 
ATOM     33  O   UNL A   1      43.012  19.268  25.014  1.00  0.00    -0.246 OA
BRANCH  32  34
ATOM     34  C   UNL A   1      42.199  21.063  26.300  1.00  0.00     0.060 A 
ATOM     35  C   UNL A   1      42.471  22.144  25.453  1.00  0.00     0.016 A 
ATOM     36  C   UNL A   1      42.151  21.246  27.678  1.00  0.00     0.016 A 
ATOM     37  C   UNL A   1      42.672  23.420  25.986  1.00  0.00     0.010 A 
ATOM     38  C   UNL A   1      42.358  22.524  28.206  1.00  0.00     0.010 A 
ATOM     39  C   UNL A   1      42.619  23.624  27.371  1.00  0.00    -0.014 A 
BRANCH  39  40
ATOM     40  C   UNL A   1      42.880  24.962  27.966  1.00  0.00     0.031 A 
ATOM     41  C   UNL A   1      44.262  25.315  28.446  1.00  0.00     0.074 A 
ATOM     42  C   UNL A   1      41.877  25.849  28.117  1.00  0.00     0.049 A 
ATOM     43  N   UNL A   1      44.674  26.386  29.078  1.00  0.00    -0.248 NA
ATOM     44  C   UNL A   1      45.320  24.322  28.197  1.00  0.00     0.031 C 
ATOM     45  C   UNL A   1      40.489  25.639  27.704  1.00  0.00     0.029 A 
ATOM     46  N   UNL A   1      41.874  27.105  28.678  1.00  0.00    -0.354 N 
ATOM     47  C   UNL A   1      46.028  26.186  29.321  1.00  0.00     0.074 A 
ATOM     48  C   UNL A   1      46.361  24.877  28.801  1.00  0.00     0.031 C 
ATOM     49  C   UNL A   1      39.772  26.732  28.013  1.00  0.00     0.029 A 
ATOM     50  C   UNL A   1      40.632  27.695  28.696  1.00  0.00     0.049 A 
ATOM     51  H   UNL A   1      42.682  27.539  29.032  1.00  0.00     0.167 HD
ATOM     52  C   UNL A   1      46.917  27.016  29.917  1.00  0.00     0.031 A 
ATOM     53  C   UNL A   1      40.224  28.863  29.231  1.00  0.00     0.031 A 
ATOM     54  C   UNL A   1      46.591  28.320  30.435  1.00  0.00     0.049 A 
ATOM     55  C   UNL A   1      41.218  29.740  29.947  1.00  0.00     0.074 A 
ATOM     56  C   UNL A   1      47.437  29.255  31.007  1.00  0.00     0.029 A 
ATOM     57  N   UNL A   1      45.319  28.868  30.453  1.00  0.00    -0.354 N 
ATOM     58  N   UNL A   1      42.507  29.564  30.117  1.00  0.00    -0.248 NA
ATOM     59  C   UNL A   1      40.698  30.976  30.553  1.00  0.00     0.031 C 
ATOM     60  C   UNL A   1      46.665  30.338  31.436  1.00  0.00     0.029 A 
ATOM     61  C   UNL A   1      45.349  30.109  31.069  1.00  0.00     0.049 A 
ATOM     62  H   UNL A   1      44.513  28.440  30.084  1.00  0.00     0.167 HD
ATOM     63  C   UNL A   1      42.951  30.671  30.831  1.00  0.00     0.074 A 
ATOM     64  C   UNL A   1      41.802  31.526  31.039  1.00  0.00     0.031 C 
ATOM     65  C   UNL A   1      44.200  30.949  31.279  1.00  0.00     0.031 A 
BRANCH  52  66
ATOM     66  C   UNL A   1      48.332  26.530  30.068  1.00  0.00    -0.014 A 
ATOM     67  C   UNL A   1      49.316  26.828  29.111  1.00  0.00     0.009 A 
ATOM     68  C   UNL A   1      48.698  25.799  31.209  1.00  0.00     0.009 A 
ATOM     69  C   UNL A   1      50.626  26.373  29.278  1.00  0.00     0.001 A 
ATOM     70  C   UNL A   1      50.015  25.372  31.389  1.00  0.00     0.001 A 
ATOM     71  C   UNL A   1      50.976  25.651  30.419  1.00  0.00     0.000 A 
ENDBRANCH  52  66
BRANCH  53  72
ATOM     72  C   UNL A   1      38.794  29.265  29.148  1.00  0.00    -0.014 A 
ATOM     73  C   UNL A   1      37.926  29.052  30.229  1.00  0.00     0.009 A 
ATOM     74  C   UNL A   1      38.283  29.842  27.974  1.00  0.00     0.009 A 
ATOM     75  C   UNL A   1      36.573  29.384  30.128  1.00  0.00     0.001 A 
ATOM     76  C   UNL A   1      36.936  30.203  27.888  1.00  0.00     0.001 A 
ATOM     77  C   UNL A   1      36.080  29.964  28.960  1.00  0.00     0.000 A 
ENDBRANCH  53  72
BRANCH  65  78
ATOM     78  C   UNL A   1      44.397  32.239  32.027  1.00  0.00    -0.014 A 
ATOM     79  C   UNL A   1      44.302  32.289  33.427  1.00  0.00     0.009 A 
ATOM     80  C   UNL A   1      44.741  33.407  31.329  1.00  0.00     0.009 A 
ATOM     81  C   UNL A   1      44.522  33.488  34.108  1.00  0.00     0.001 A 
ATOM     82  C   UNL A   1      44.991  34.597  32.015  1.00  0.00     0.001 A 
ATOM     83  C   UNL A   1      44.874  34.639  33.403  1.00  0.00     0.000 A 
ENDBRANCH  65  78
ENDBRANCH  39  40
ENDBRANCH  32  34
ENDBRANCH  31  32
ENDBRANCH  30  31
ENDBRANCH  29  30
ENDBRANCH  28  29
ENDBRANCH   1  28
TORSDOF 19
ENDMDL
MODEL 3
REMARK VINA RESULT:      -9.8      1.637      6.142
REMARK SMILES Cn1cccc1/C=C1/SC(=S)N([C@@H](CCC(N)=O)C(=O)OCCOCCOC(=O)c2ccc(-c3c4nc(c(-c5ccccc5)c5ccc([nH]5)c(-c5ccccc5)c5nc(c(-c6ccccc6)c6ccc3[nH]6)C=C5)C=C4)cc2)C1=O
REMARK SMILES IDX 23 1 22 2 21 3 19 4 20 5 13 6 12 7 7 8 8 9 9 10 78 11 10 12
REMARK SMILES IDX 79 13 11 14 6 15 1 16 2 17 3 18 4 19 5 20 14 21 15 22 16 23
REMARK SMILES IDX 17 24 18 25 24 28 25 29 26 30 27 31 28 32 29 33 30 34 31 35
REMARK SMILES IDX 77 36 32 37 76 38 33 39 34 40 35 41 70 42 36 43 75 44 69 45
REMARK SMILES IDX 71 46 37 47 74 48 68 49 67 50 38 52 60 53 45 54 59 55 46 56
REMARK SMILES IDX 49 57 58 58 72 59 47 60 48 61 57 63 73 64 50 65 39 66 40 67
REMARK SMILES IDX 44 68 41 69 43 70 42 71 61 72 62 73 66 74 63 75 65 76 64 77
REMARK SMILES IDX 51 78 52 79 56 80 53 81 55 82 54 83
REMARK H PARENT 17 26 17 27 71 51 49 62
REMARK Flexibility Score: inf
ROOT
ATOM      1  C   UNL A   1      37.164  22.470  25.758  1.00  0.00     0.202 C 
ENDROOT
BRANCH   1   2
ATOM      2  C   UNL A   1      35.649  22.284  25.763  1.00  0.00     0.261 C 
BRANCH   2   3
ATOM      3  O   UNL A   1      34.961  23.510  26.036  1.00  0.00    -0.462 OA
BRANCH   3   4
ATOM      4  C   UNL A   1      33.727  23.381  26.562  1.00  0.00     0.329 C 
ATOM      5  O   UNL A   1      33.476  22.851  27.644  1.00  0.00    -0.250 OA
BRANCH   4   6
ATOM      6  C   UNL A   1      32.605  23.860  25.642  1.00  0.00     0.202 C 
BRANCH   6   7
ATOM      7  N   UNL A   1      32.816  24.924  24.619  1.00  0.00    -0.278 N 
ATOM      8  C   UNL A   1      33.353  28.478  24.000  1.00  0.00     0.047 C 
ATOM      9  C   UNL A   1      33.123  27.158  23.889  1.00  0.00     0.082 C 
ATOM     10  S   UNL A   1      33.622  26.233  22.528  1.00  0.00    -0.054 SA
ATOM     11  C   UNL A   1      32.508  26.241  24.890  1.00  0.00     0.267 C 
ATOM     12  C   UNL A   1      33.340  24.702  23.357  1.00  0.00     0.149 C 
ATOM     13  O   UNL A   1      31.808  26.618  25.816  1.00  0.00    -0.268 OA
ATOM     14  S   UNL A   1      33.723  23.255  22.619  1.00  0.00    -0.052 S 
BRANCH   8  15
ATOM     15  C   UNL A   1      32.989  29.239  25.140  1.00  0.00     0.042 A 
ATOM     16  C   UNL A   1      30.628  29.808  24.391  1.00  0.00     0.149 C 
ATOM     17  N   UNL A   1      31.801  29.937  25.224  1.00  0.00    -0.351 N 
ATOM     18  C   UNL A   1      31.838  30.763  26.321  1.00  0.00     0.086 A 
ATOM     19  C   UNL A   1      32.949  30.434  27.059  1.00  0.00     0.020 A 
ATOM     20  C   UNL A   1      33.636  29.424  26.346  1.00  0.00     0.028 A 
ENDBRANCH   8  15
ENDBRANCH   6   7
BRANCH   6  21
ATOM     21  C   UNL A   1      31.814  22.623  25.146  1.00  0.00     0.047 C 
BRANCH  21  22
ATOM     22  C   UNL A   1      30.532  22.218  25.874  1.00  0.00     0.102 C 
BRANCH  22  23
ATOM     23  C   UNL A   1      29.898  23.197  26.845  1.00  0.00     0.217 C 
ATOM     24  N   UNL A   1      29.690  24.457  26.386  1.00  0.00    -0.370 N 
ATOM     25  O   UNL A   1      29.476  22.887  27.952  1.00  0.00    -0.275 OA
ATOM     26  H   UNL A   1      30.023  24.719  25.498  1.00  0.00     0.159 HD
ATOM     27  H   UNL A   1      29.204  25.109  26.942  1.00  0.00     0.159 HD
ENDBRANCH  22  23
ENDBRANCH  21  22
ENDBRANCH   6  21
ENDBRANCH   4   6
ENDBRANCH   3   4
ENDBRANCH   2   3
ENDBRANCH   1   2
BRANCH   1  28
ATOM     28  O   UNL A   1      37.922  21.660  24.866  1.00  0.00    -0.374 OA
BRANCH  28  29
ATOM     29  C   UNL A   1      37.738  20.245  24.910  1.00  0.00     0.202 C 
BRANCH  29  30
ATOM     30  C   UNL A   1      38.977  19.334  24.948  1.00  0.00     0.261 C 
BRANCH  30  31
ATOM     31  O   UNL A   1      39.687  19.333  26.200  1.00  0.00    -0.460 OA
BRANCH  31  32
ATOM     32  C   UNL A   1      41.009  19.636  26.107  1.00  0.00     0.338 C 
ATOM     33  O   UNL A   1      41.889  18.958  25.604  1.00  0.00    -0.246 OA
BRANCH  32  34
ATOM     34  C   UNL A   1      41.279  20.984  26.633  1.00  0.00     0.060 A 
ATOM     35  C   UNL A   1      41.566  22.032  25.749  1.00  0.00     0.016 A 
ATOM     36  C   UNL A   1      41.414  21.167  28.005  1.00  0.00     0.016 A 
ATOM     37  C   UNL A   1      41.966  23.277  26.244  1.00  0.00     0.010 A 
ATOM     38  C   UNL A   1      41.819  22.413  28.493  1.00  0.00     0.010 A 
ATOM     39  C   UNL A   1      42.099  23.481  27.623  1.00  0.00    -0.014 A 
BRANCH  39  40
ATOM     40  C   UNL A   1      42.571  24.780  28.171  1.00  0.00     0.031 A 
ATOM     41  C   UNL A   1      41.586  25.889  28.432  1.00  0.00     0.074 A 
ATOM     42  C   UNL A   1      43.883  24.990  28.396  1.00  0.00     0.049 A 
ATOM     43  N   UNL A   1      41.806  27.122  28.814  1.00  0.00    -0.248 NA
ATOM     44  C   UNL A   1      40.165  25.571  28.218  1.00  0.00     0.031 C 
ATOM     45  C   UNL A   1      44.947  24.010  28.182  1.00  0.00     0.029 A 
ATOM     46  N   UNL A   1      44.543  26.111  28.843  1.00  0.00    -0.354 N 
ATOM     47  C   UNL A   1      40.557  27.731  28.864  1.00  0.00     0.074 A 
ATOM     48  C   UNL A   1      39.589  26.743  28.439  1.00  0.00     0.031 C 
ATOM     49  C   UNL A   1      46.125  24.567  28.510  1.00  0.00     0.029 A 
ATOM     50  C   UNL A   1      45.909  25.957  28.901  1.00  0.00     0.049 A 
ATOM     51  H   UNL A   1      44.083  26.942  29.097  1.00  0.00     0.167 HD
ATOM     52  C   UNL A   1      40.242  28.995  29.235  1.00  0.00     0.031 A 
ATOM     53  C   UNL A   1      46.878  26.843  29.202  1.00  0.00     0.031 A 
ATOM     54  C   UNL A   1      41.201  29.982  29.660  1.00  0.00     0.049 A 
ATOM     55  C   UNL A   1      46.507  28.262  29.547  1.00  0.00     0.074 A 
ATOM     56  C   UNL A   1      40.970  31.272  30.106  1.00  0.00     0.029 A 
ATOM     57  N   UNL A   1      42.574  29.792  29.681  1.00  0.00    -0.354 N 
ATOM     58  N   UNL A   1      45.318  28.807  29.647  1.00  0.00    -0.248 NA
ATOM     59  C   UNL A   1      47.617  29.192  29.815  1.00  0.00     0.031 C 
ATOM     60  C   UNL A   1      42.205  31.885  30.329  1.00  0.00     0.029 A 
ATOM     61  C   UNL A   1      43.204  30.956  30.088  1.00  0.00     0.049 A 
ATOM     62  H   UNL A   1      43.032  28.954  29.443  1.00  0.00     0.167 HD
ATOM     63  C   UNL A   1      45.536  30.133  30.005  1.00  0.00     0.074 A 
ATOM     64  C   UNL A   1      46.968  30.304  30.131  1.00  0.00     0.031 C 
ATOM     65  C   UNL A   1      44.630  31.120  30.204  1.00  0.00     0.031 A 
BRANCH  52  66
ATOM     66  C   UNL A   1      38.794  29.399  29.173  1.00  0.00    -0.014 A 
ATOM     67  C   UNL A   1      38.219  29.887  27.989  1.00  0.00     0.009 A 
ATOM     68  C   UNL A   1      37.981  29.246  30.307  1.00  0.00     0.009 A 
ATOM     69  C   UNL A   1      36.870  30.247  27.954  1.00  0.00     0.001 A 
ATOM     70  C   UNL A   1      36.626  29.576  30.261  1.00  0.00     0.001 A 
ATOM     71  C   UNL A   1      36.073  30.086  29.087  1.00  0.00     0.000 A 
ENDBRANCH  52  66
BRANCH  53  72
ATOM     72  C   UNL A   1      48.308  26.432  29.156  1.00  0.00    -0.014 A 
ATOM     73  C   UNL A   1      48.931  25.883  30.286  1.00  0.00     0.009 A 
ATOM     74  C   UNL A   1      49.063  26.611  27.986  1.00  0.00     0.009 A 
ATOM     75  C   UNL A   1      50.287  25.547  30.254  1.00  0.00     0.001 A 
ATOM     76  C   UNL A   1      50.410  26.243  27.947  1.00  0.00     0.001 A 
ATOM     77  C   UNL A   1      51.024  25.721  29.083  1.00  0.00     0.000 A 
ENDBRANCH  53  72
BRANCH  65  78
ATOM     78  C   UNL A   1      45.153  32.475  30.595  1.00  0.00    -0.014 A 
ATOM     79  C   UNL A   1      45.396  32.800  31.938  1.00  0.00     0.009 A 
ATOM     80  C   UNL A   1      45.462  33.418  29.602  1.00  0.00     0.009 A 
ATOM     81  C   UNL A   1      45.914  34.052  32.280  1.00  0.00     0.001 A 
ATOM     82  C   UNL A   1      46.009  34.656  29.944  1.00  0.00     0.001 A 
ATOM     83  C   UNL A   1      46.227  34.975  31.283  1.00  0.00     0.000 A 
ENDBRANCH  65  78
ENDBRANCH  39  40
ENDBRANCH  32  34
ENDBRANCH  31  32
ENDBRANCH  30  31
ENDBRANCH  29  30
ENDBRANCH  28  29
ENDBRANCH   1  28
TORSDOF 19
ENDMDL
