MODEL 1
REMARK VINA RESULT:     -10.7      0.000      0.000
REMARK SMILES O=C(Cc1ccc(-c2ccn(C(F)F)c(=O)c2)cc1)OCCOCCOC(=O)c1ccc(-c2c3nc(c(-c4ccccc4)c4ccc([nH]4)c(-c4ccccc4)c4nc(c(-c5ccccc5)c5ccc2[nH]5)C=C4)C=C3)cc1
REMARK SMILES IDX 22 1 21 2 20 3 2 4 1 5 3 6 4 7 5 8 19 9 6 10 18 11 7 12 8 13
REMARK SMILES IDX 9 14 17 15 10 16 15 17 11 18 16 19 12 20 13 21 14 22 23 23
REMARK SMILES IDX 24 24 25 25 26 26 27 27 28 28 29 29 30 30 76 31 31 32 75 33
REMARK SMILES IDX 32 34 33 35 34 36 69 37 35 38 74 39 68 40 70 41 36 42 73 43
REMARK SMILES IDX 67 44 66 45 37 47 59 48 44 49 58 50 45 51 48 52 57 53 71 54
REMARK SMILES IDX 46 55 47 56 56 58 72 59 49 60 38 61 39 62 43 63 40 64 42 65
REMARK SMILES IDX 41 66 60 67 61 68 65 69 62 70 64 71 63 72 50 73 51 74 55 75
REMARK SMILES IDX 52 76 54 77 53 78
REMARK H PARENT 70 46 48 57
REMARK Flexibility Score: inf
ROOT
ATOM      1  C   UNL A   1      34.578  22.387  25.369  1.00  0.00     0.202 C 
ENDROOT
BRANCH   1   2
ATOM      2  C   UNL A   1      33.063  22.400  25.136  1.00  0.00     0.261 C 
BRANCH   2   3
ATOM      3  O   UNL A   1      32.127  22.681  26.204  1.00  0.00    -0.463 OA
BRANCH   3   4
ATOM      4  C   UNL A   1      31.248  23.661  26.474  1.00  0.00     0.310 C 
ATOM      5  O   UNL A   1      30.505  23.529  27.449  1.00  0.00    -0.252 OA
BRANCH   4   6
ATOM      6  C   UNL A   1      31.144  24.883  25.608  1.00  0.00     0.158 C 
BRANCH   6   7
ATOM      7  C   UNL A   1      31.886  26.084  26.116  1.00  0.00    -0.037 A 
ATOM      8  C   UNL A   1      31.252  27.053  26.897  1.00  0.00     0.005 A 
ATOM      9  C   UNL A   1      33.245  26.237  25.828  1.00  0.00     0.005 A 
ATOM     10  C   UNL A   1      31.925  28.184  27.327  1.00  0.00     0.009 A 
ATOM     11  C   UNL A   1      33.929  27.370  26.261  1.00  0.00     0.009 A 
ATOM     12  C   UNL A   1      33.263  28.364  26.989  1.00  0.00    -0.018 A 
BRANCH  12  13
ATOM     13  C   UNL A   1      33.929  29.632  27.310  1.00  0.00    -0.011 A 
ATOM     14  C   UNL A   1      35.367  29.713  27.461  1.00  0.00     0.027 A 
ATOM     15  C   UNL A   1      33.190  30.750  27.409  1.00  0.00     0.080 A 
ATOM     16  C   UNL A   1      35.950  30.877  27.758  1.00  0.00     0.095 A 
ATOM     17  C   UNL A   1      33.830  32.058  27.702  1.00  0.00     0.255 A 
ATOM     18  N   UNL A   1      35.201  32.028  27.901  1.00  0.00    -0.258 N 
ATOM     19  O   UNL A   1      33.118  33.056  27.755  1.00  0.00    -0.269 OA
BRANCH  18  20
ATOM     20  C   UNL A   1      35.827  33.261  28.286  1.00  0.00     0.451 C 
ATOM     21  F   UNL A   1      35.367  33.693  29.484  1.00  0.00    -0.185 F 
ATOM     22  F   UNL A   1      37.170  33.106  28.380  1.00  0.00    -0.185 F 
ENDBRANCH  18  20
ENDBRANCH  12  13
ENDBRANCH   6   7
ENDBRANCH   4   6
ENDBRANCH   3   4
ENDBRANCH   2   3
ENDBRANCH   1   2
BRANCH   1  23
ATOM     23  O   UNL A   1      35.442  21.664  24.507  1.00  0.00    -0.374 OA
BRANCH  23  24
ATOM     24  C   UNL A   1      35.952  20.400  24.901  1.00  0.00     0.202 C 
BRANCH  24  25
ATOM     25  C   UNL A   1      37.463  20.258  24.813  1.00  0.00     0.261 C 
BRANCH  25  26
ATOM     26  O   UNL A   1      38.119  21.442  25.282  1.00  0.00    -0.460 OA
BRANCH  26  27
ATOM     27  C   UNL A   1      39.254  21.209  25.983  1.00  0.00     0.338 C 
ATOM     28  O   UNL A   1      39.935  20.203  25.986  1.00  0.00    -0.246 OA
BRANCH  27  29
ATOM     29  C   UNL A   1      39.665  22.457  26.650  1.00  0.00     0.060 A 
ATOM     30  C   UNL A   1      39.027  23.640  26.259  1.00  0.00     0.016 A 
ATOM     31  C   UNL A   1      40.685  22.472  27.606  1.00  0.00     0.016 A 
ATOM     32  C   UNL A   1      39.449  24.855  26.780  1.00  0.00     0.010 A 
ATOM     33  C   UNL A   1      41.114  23.694  28.121  1.00  0.00     0.010 A 
ATOM     34  C   UNL A   1      40.525  24.888  27.676  1.00  0.00    -0.014 A 
BRANCH  34  35
ATOM     35  C   UNL A   1      41.135  26.193  27.999  1.00  0.00     0.031 A 
ATOM     36  C   UNL A   1      42.477  26.526  27.409  1.00  0.00     0.074 A 
ATOM     37  C   UNL A   1      40.467  27.085  28.748  1.00  0.00     0.049 A 
ATOM     38  N   UNL A   1      43.184  27.617  27.527  1.00  0.00    -0.248 NA
ATOM     39  C   UNL A   1      43.103  25.489  26.568  1.00  0.00     0.031 C 
ATOM     40  C   UNL A   1      39.143  26.875  29.334  1.00  0.00     0.029 A 
ATOM     41  N   UNL A   1      40.811  28.353  29.134  1.00  0.00    -0.354 N 
ATOM     42  C   UNL A   1      44.333  27.403  26.774  1.00  0.00     0.074 A 
ATOM     43  C   UNL A   1      44.249  26.064  26.239  1.00  0.00     0.031 C 
ATOM     44  C   UNL A   1      38.785  27.981  30.007  1.00  0.00     0.029 A 
ATOM     45  C   UNL A   1      39.866  28.959  29.923  1.00  0.00     0.049 A 
ATOM     46  H   UNL A   1      41.654  28.788  28.870  1.00  0.00     0.167 HD
ATOM     47  C   UNL A   1      45.358  28.255  26.541  1.00  0.00     0.031 A 
ATOM     48  C   UNL A   1      39.887  30.164  30.523  1.00  0.00     0.031 A 
ATOM     49  C   UNL A   1      45.442  29.579  27.097  1.00  0.00     0.049 A 
ATOM     50  C   UNL A   1      41.076  31.060  30.307  1.00  0.00     0.074 A 
ATOM     51  C   UNL A   1      46.440  30.523  26.933  1.00  0.00     0.029 A 
ATOM     52  N   UNL A   1      44.487  30.143  27.930  1.00  0.00    -0.354 N 
ATOM     53  N   UNL A   1      42.147  30.855  29.578  1.00  0.00    -0.248 NA
ATOM     54  C   UNL A   1      41.049  32.362  30.986  1.00  0.00     0.031 C 
ATOM     55  C   UNL A   1      46.115  31.638  27.713  1.00  0.00     0.029 A 
ATOM     56  C   UNL A   1      44.883  31.415  28.308  1.00  0.00     0.049 A 
ATOM     57  H   UNL A   1      43.652  29.704  28.211  1.00  0.00     0.167 HD
ATOM     58  C   UNL A   1      42.911  32.010  29.693  1.00  0.00     0.074 A 
ATOM     59  C   UNL A   1      42.162  32.921  30.534  1.00  0.00     0.031 C 
ATOM     60  C   UNL A   1      44.124  32.296  29.158  1.00  0.00     0.031 A 
BRANCH  47  61
ATOM     61  C   UNL A   1      46.481  27.769  25.666  1.00  0.00    -0.014 A 
ATOM     62  C   UNL A   1      47.521  26.983  26.185  1.00  0.00     0.009 A 
ATOM     63  C   UNL A   1      46.478  28.070  24.296  1.00  0.00     0.009 A 
ATOM     64  C   UNL A   1      48.546  26.526  25.354  1.00  0.00     0.001 A 
ATOM     65  C   UNL A   1      47.488  27.588  23.461  1.00  0.00     0.001 A 
ATOM     66  C   UNL A   1      48.525  26.823  23.992  1.00  0.00     0.000 A 
ENDBRANCH  47  61
BRANCH  48  67
ATOM     67  C   UNL A   1      38.765  30.582  31.405  1.00  0.00    -0.014 A 
ATOM     68  C   UNL A   1      37.529  30.975  30.869  1.00  0.00     0.009 A 
ATOM     69  C   UNL A   1      38.942  30.623  32.798  1.00  0.00     0.009 A 
ATOM     70  C   UNL A   1      36.509  31.436  31.706  1.00  0.00     0.001 A 
ATOM     71  C   UNL A   1      37.910  31.052  33.634  1.00  0.00     0.001 A 
ATOM     72  C   UNL A   1      36.700  31.470  33.087  1.00  0.00     0.000 A 
ENDBRANCH  48  67
BRANCH  60  73
ATOM     73  C   UNL A   1      44.692  33.658  29.451  1.00  0.00    -0.014 A 
ATOM     74  C   UNL A   1      45.539  33.875  30.548  1.00  0.00     0.009 A 
ATOM     75  C   UNL A   1      44.376  34.737  28.611  1.00  0.00     0.009 A 
ATOM     76  C   UNL A   1      46.011  35.158  30.832  1.00  0.00     0.001 A 
ATOM     77  C   UNL A   1      44.881  36.011  28.875  1.00  0.00     0.001 A 
ATOM     78  C   UNL A   1      45.684  36.223  29.993  1.00  0.00     0.000 A 
ENDBRANCH  60  73
ENDBRANCH  34  35
ENDBRANCH  27  29
ENDBRANCH  26  27
ENDBRANCH  25  26
ENDBRANCH  24  25
ENDBRANCH  23  24
ENDBRANCH   1  23
TORSDOF 17
ENDMDL
MODEL 2
REMARK VINA RESULT:     -10.2      3.954      7.100
REMARK SMILES O=C(Cc1ccc(-c2ccn(C(F)F)c(=O)c2)cc1)OCCOCCOC(=O)c1ccc(-c2c3nc(c(-c4ccccc4)c4ccc([nH]4)c(-c4ccccc4)c4nc(c(-c5ccccc5)c5ccc2[nH]5)C=C4)C=C3)cc1
REMARK SMILES IDX 22 1 21 2 20 3 2 4 1 5 3 6 4 7 5 8 19 9 6 10 18 11 7 12 8 13
REMARK SMILES IDX 9 14 17 15 10 16 15 17 11 18 16 19 12 20 13 21 14 22 23 23
REMARK SMILES IDX 24 24 25 25 26 26 27 27 28 28 29 29 30 30 76 31 31 32 75 33
REMARK SMILES IDX 32 34 33 35 34 36 69 37 35 38 74 39 68 40 70 41 36 42 73 43
REMARK SMILES IDX 67 44 66 45 37 47 59 48 44 49 58 50 45 51 48 52 57 53 71 54
REMARK SMILES IDX 46 55 47 56 56 58 72 59 49 60 38 61 39 62 43 63 40 64 42 65
REMARK SMILES IDX 41 66 60 67 61 68 65 69 62 70 64 71 63 72 50 73 51 74 55 75
REMARK SMILES IDX 52 76 54 77 53 78
REMARK H PARENT 70 46 48 57
REMARK Flexibility Score: inf
ROOT
ATOM      1  C   UNL A   1      42.493  20.827  26.595  1.00  0.00     0.202 C 
ENDROOT
BRANCH   1   2
ATOM      2  C   UNL A   1      41.146  20.142  26.852  1.00  0.00     0.261 C 
BRANCH   2   3
ATOM      3  O   UNL A   1      40.071  20.182  25.884  1.00  0.00    -0.463 OA
BRANCH   3   4
ATOM      4  C   UNL A   1      38.937  20.888  25.739  1.00  0.00     0.310 C 
ATOM      5  O   UNL A   1      38.875  22.009  26.247  1.00  0.00    -0.252 OA
BRANCH   4   6
ATOM      6  C   UNL A   1      37.754  20.330  25.001  1.00  0.00     0.158 C 
BRANCH   6   7
ATOM      7  C   UNL A   1      36.700  21.335  24.642  1.00  0.00    -0.037 A 
ATOM      8  C   UNL A   1      36.939  22.329  23.689  1.00  0.00     0.005 A 
ATOM      9  C   UNL A   1      35.443  21.274  25.248  1.00  0.00     0.005 A 
ATOM     10  C   UNL A   1      35.982  23.285  23.392  1.00  0.00     0.009 A 
ATOM     11  C   UNL A   1      34.474  22.230  24.950  1.00  0.00     0.009 A 
ATOM     12  C   UNL A   1      34.751  23.259  24.041  1.00  0.00    -0.018 A 
BRANCH  12  13
ATOM     13  C   UNL A   1      33.801  24.359  23.841  1.00  0.00    -0.011 A 
ATOM     14  C   UNL A   1      32.845  24.344  22.753  1.00  0.00     0.027 A 
ATOM     15  C   UNL A   1      33.784  25.373  24.723  1.00  0.00     0.080 A 
ATOM     16  C   UNL A   1      31.993  25.359  22.590  1.00  0.00     0.095 A 
ATOM     17  C   UNL A   1      32.816  26.491  24.574  1.00  0.00     0.255 A 
ATOM     18  N   UNL A   1      31.988  26.427  23.464  1.00  0.00    -0.258 N 
ATOM     19  O   UNL A   1      32.818  27.380  25.419  1.00  0.00    -0.269 OA
BRANCH  18  20
ATOM     20  C   UNL A   1      31.116  27.546  23.242  1.00  0.00     0.451 C 
ATOM     21  F   UNL A   1      30.569  27.505  22.005  1.00  0.00    -0.185 F 
ATOM     22  F   UNL A   1      30.110  27.556  24.151  1.00  0.00    -0.185 F 
ENDBRANCH  18  20
ENDBRANCH  12  13
ENDBRANCH   6   7
ENDBRANCH   4   6
ENDBRANCH   3   4
ENDBRANCH   2   3
ENDBRANCH   1   2
BRANCH   1  23
ATOM     23  O   UNL A   1      43.025  20.921  25.283  1.00  0.00    -0.374 OA
BRANCH  23  24
ATOM     24  C   UNL A   1      44.413  21.140  25.087  1.00  0.00     0.202 C 
BRANCH  24  25
ATOM     25  C   UNL A   1      44.761  22.332  24.210  1.00  0.00     0.261 C 
BRANCH  25  26
ATOM     26  O   UNL A   1      43.948  23.465  24.538  1.00  0.00    -0.460 OA
BRANCH  26  27
ATOM     27  C   UNL A   1      44.641  24.533  25.000  1.00  0.00     0.338 C 
ATOM     28  O   UNL A   1      45.739  24.917  24.650  1.00  0.00    -0.246 OA
BRANCH  27  29
ATOM     29  C   UNL A   1      43.778  25.301  25.915  1.00  0.00     0.060 A 
ATOM     30  C   UNL A   1      44.074  26.657  26.095  1.00  0.00     0.016 A 
ATOM     31  C   UNL A   1      42.731  24.693  26.614  1.00  0.00     0.016 A 
ATOM     32  C   UNL A   1      43.358  27.400  27.024  1.00  0.00     0.010 A 
ATOM     33  C   UNL A   1      42.019  25.438  27.553  1.00  0.00     0.010 A 
ATOM     34  C   UNL A   1      42.362  26.780  27.789  1.00  0.00    -0.014 A 
BRANCH  34  35
ATOM     35  C   UNL A   1      41.811  27.503  28.952  1.00  0.00     0.031 A 
ATOM     36  C   UNL A   1      42.518  27.383  30.273  1.00  0.00     0.074 A 
ATOM     37  C   UNL A   1      40.743  28.303  28.807  1.00  0.00     0.049 A 
ATOM     38  N   UNL A   1      42.236  27.951  31.416  1.00  0.00    -0.248 NA
ATOM     39  C   UNL A   1      43.705  26.510  30.310  1.00  0.00     0.031 C 
ATOM     40  C   UNL A   1      40.011  28.518  27.559  1.00  0.00     0.029 A 
ATOM     41  N   UNL A   1      40.095  29.092  29.720  1.00  0.00    -0.354 N 
ATOM     42  C   UNL A   1      43.210  27.510  32.304  1.00  0.00     0.074 A 
ATOM     43  C   UNL A   1      44.065  26.596  31.581  1.00  0.00     0.031 C 
ATOM     44  C   UNL A   1      39.010  29.387  27.787  1.00  0.00     0.029 A 
ATOM     45  C   UNL A   1      39.017  29.760  29.199  1.00  0.00     0.049 A 
ATOM     46  H   UNL A   1      40.377  29.171  30.660  1.00  0.00     0.167 HD
ATOM     47  C   UNL A   1      43.383  27.850  33.602  1.00  0.00     0.031 A 
ATOM     48  C   UNL A   1      38.128  30.568  29.803  1.00  0.00     0.031 A 
ATOM     49  C   UNL A   1      42.513  28.745  34.317  1.00  0.00     0.049 A 
ATOM     50  C   UNL A   1      38.300  30.868  31.268  1.00  0.00     0.074 A 
ATOM     51  C   UNL A   1      42.590  29.152  35.637  1.00  0.00     0.029 A 
ATOM     52  N   UNL A   1      41.402  29.368  33.768  1.00  0.00    -0.354 N 
ATOM     53  N   UNL A   1      39.235  30.461  32.093  1.00  0.00    -0.248 NA
ATOM     54  C   UNL A   1      37.300  31.753  31.880  1.00  0.00     0.031 C 
ATOM     55  C   UNL A   1      41.492  29.978  35.902  1.00  0.00     0.029 A 
ATOM     56  C   UNL A   1      40.771  30.140  34.729  1.00  0.00     0.049 A 
ATOM     57  H   UNL A   1      41.107  29.276  32.834  1.00  0.00     0.167 HD
ATOM     58  C   UNL A   1      38.950  31.058  33.314  1.00  0.00     0.074 A 
ATOM     59  C   UNL A   1      37.774  31.880  33.110  1.00  0.00     0.031 C 
ATOM     60  C   UNL A   1      39.594  30.938  34.502  1.00  0.00     0.031 A 
BRANCH  47  61
ATOM     61  C   UNL A   1      44.541  27.232  34.335  1.00  0.00    -0.014 A 
ATOM     62  C   UNL A   1      44.532  25.877  34.702  1.00  0.00     0.009 A 
ATOM     63  C   UNL A   1      45.674  28.006  34.629  1.00  0.00     0.009 A 
ATOM     64  C   UNL A   1      45.624  25.316  35.367  1.00  0.00     0.001 A 
ATOM     65  C   UNL A   1      46.776  27.436  35.269  1.00  0.00     0.001 A 
ATOM     66  C   UNL A   1      46.747  26.094  35.644  1.00  0.00     0.000 A 
ENDBRANCH  47  61
BRANCH  48  67
ATOM     67  C   UNL A   1      36.980  31.127  29.039  1.00  0.00    -0.014 A 
ATOM     68  C   UNL A   1      36.939  32.484  28.683  1.00  0.00     0.009 A 
ATOM     69  C   UNL A   1      35.897  30.303  28.692  1.00  0.00     0.009 A 
ATOM     70  C   UNL A   1      35.821  33.010  28.030  1.00  0.00     0.001 A 
ATOM     71  C   UNL A   1      34.797  30.825  28.009  1.00  0.00     0.001 A 
ATOM     72  C   UNL A   1      34.753  32.179  27.691  1.00  0.00     0.000 A 
ENDBRANCH  48  67
BRANCH  60  73
ATOM     73  C   UNL A   1      39.049  31.737  35.654  1.00  0.00    -0.014 A 
ATOM     74  C   UNL A   1      38.130  31.182  36.558  1.00  0.00     0.009 A 
ATOM     75  C   UNL A   1      39.466  33.065  35.838  1.00  0.00     0.009 A 
ATOM     76  C   UNL A   1      37.597  31.958  37.589  1.00  0.00     0.001 A 
ATOM     77  C   UNL A   1      38.961  33.826  36.892  1.00  0.00     0.001 A 
ATOM     78  C   UNL A   1      38.015  33.278  37.756  1.00  0.00     0.000 A 
ENDBRANCH  60  73
ENDBRANCH  34  35
ENDBRANCH  27  29
ENDBRANCH  26  27
ENDBRANCH  25  26
ENDBRANCH  24  25
ENDBRANCH  23  24
ENDBRANCH   1  23
TORSDOF 17
ENDMDL
MODEL 3
REMARK VINA RESULT:     -10.1      0.976      5.989
REMARK SMILES O=C(Cc1ccc(-c2ccn(C(F)F)c(=O)c2)cc1)OCCOCCOC(=O)c1ccc(-c2c3nc(c(-c4ccccc4)c4ccc([nH]4)c(-c4ccccc4)c4nc(c(-c5ccccc5)c5ccc2[nH]5)C=C4)C=C3)cc1
REMARK SMILES IDX 22 1 21 2 20 3 2 4 1 5 3 6 4 7 5 8 19 9 6 10 18 11 7 12 8 13
REMARK SMILES IDX 9 14 17 15 10 16 15 17 11 18 16 19 12 20 13 21 14 22 23 23
REMARK SMILES IDX 24 24 25 25 26 26 27 27 28 28 29 29 30 30 76 31 31 32 75 33
REMARK SMILES IDX 32 34 33 35 34 36 69 37 35 38 74 39 68 40 70 41 36 42 73 43
REMARK SMILES IDX 67 44 66 45 37 47 59 48 44 49 58 50 45 51 48 52 57 53 71 54
REMARK SMILES IDX 46 55 47 56 56 58 72 59 49 60 38 61 39 62 43 63 40 64 42 65
REMARK SMILES IDX 41 66 60 67 61 68 65 69 62 70 64 71 63 72 50 73 51 74 55 75
REMARK SMILES IDX 52 76 54 77 53 78
REMARK H PARENT 70 46 48 57
REMARK Flexibility Score: inf
ROOT
ATOM      1  C   UNL A   1      34.679  22.626  25.875  1.00  0.00     0.202 C 
ENDROOT
BRANCH   1   2
ATOM      2  C   UNL A   1      33.613  22.756  24.781  1.00  0.00     0.261 C 
BRANCH   2   3
ATOM      3  O   UNL A   1      32.750  23.914  24.688  1.00  0.00    -0.463 OA
BRANCH   3   4
ATOM      4  C   UNL A   1      31.648  24.235  23.990  1.00  0.00     0.310 C 
ATOM      5  O   UNL A   1      31.565  23.859  22.819  1.00  0.00    -0.252 OA
BRANCH   4   6
ATOM      6  C   UNL A   1      30.543  25.051  24.598  1.00  0.00     0.158 C 
BRANCH   6   7
ATOM      7  C   UNL A   1      30.977  26.358  25.193  1.00  0.00    -0.037 A 
ATOM      8  C   UNL A   1      30.999  27.531  24.434  1.00  0.00     0.005 A 
ATOM      9  C   UNL A   1      31.347  26.422  26.539  1.00  0.00     0.005 A 
ATOM     10  C   UNL A   1      31.443  28.727  24.971  1.00  0.00     0.009 A 
ATOM     11  C   UNL A   1      31.791  27.624  27.087  1.00  0.00     0.009 A 
ATOM     12  C   UNL A   1      31.869  28.777  26.295  1.00  0.00    -0.018 A 
BRANCH  12  13
ATOM     13  C   UNL A   1      32.484  30.003  26.815  1.00  0.00    -0.011 A 
ATOM     14  C   UNL A   1      33.828  30.004  27.355  1.00  0.00     0.027 A 
ATOM     15  C   UNL A   1      31.803  31.159  26.734  1.00  0.00     0.080 A 
ATOM     16  C   UNL A   1      34.365  31.133  27.826  1.00  0.00     0.095 A 
ATOM     17  C   UNL A   1      32.403  32.428  27.221  1.00  0.00     0.255 A 
ATOM     18  N   UNL A   1      33.664  32.321  27.785  1.00  0.00    -0.258 N 
ATOM     19  O   UNL A   1      31.755  33.463  27.099  1.00  0.00    -0.269 OA
BRANCH  18  20
ATOM     20  C   UNL A   1      34.221  33.515  28.355  1.00  0.00     0.451 C 
ATOM     21  F   UNL A   1      34.205  33.469  29.708  1.00  0.00    -0.185 F 
ATOM     22  F   UNL A   1      35.505  33.682  27.953  1.00  0.00    -0.185 F 
ENDBRANCH  18  20
ENDBRANCH  12  13
ENDBRANCH   6   7
ENDBRANCH   4   6
ENDBRANCH   3   4
ENDBRANCH   2   3
ENDBRANCH   1   2
BRANCH   1  23
ATOM     23  O   UNL A   1      35.293  21.377  26.150  1.00  0.00    -0.374 OA
BRANCH  23  24
ATOM     24  C   UNL A   1      35.652  20.507  25.088  1.00  0.00     0.202 C 
BRANCH  24  25
ATOM     25  C   UNL A   1      37.146  20.284  24.914  1.00  0.00     0.261 C 
BRANCH  25  26
ATOM     26  O   UNL A   1      37.886  21.453  25.284  1.00  0.00    -0.460 OA
BRANCH  26  27
ATOM     27  C   UNL A   1      39.010  21.198  25.994  1.00  0.00     0.338 C 
ATOM     28  O   UNL A   1      39.620  20.150  26.075  1.00  0.00    -0.246 OA
BRANCH  27  29
ATOM     29  C   UNL A   1      39.517  22.464  26.553  1.00  0.00     0.060 A 
ATOM     30  C   UNL A   1      38.962  23.654  26.066  1.00  0.00     0.016 A 
ATOM     31  C   UNL A   1      40.544  22.485  27.501  1.00  0.00     0.016 A 
ATOM     32  C   UNL A   1      39.475  24.874  26.483  1.00  0.00     0.010 A 
ATOM     33  C   UNL A   1      41.065  23.710  27.911  1.00  0.00     0.010 A 
ATOM     34  C   UNL A   1      40.560  24.904  27.369  1.00  0.00    -0.014 A 
BRANCH  34  35
ATOM     35  C   UNL A   1      41.265  26.183  27.580  1.00  0.00     0.031 A 
ATOM     36  C   UNL A   1      40.607  27.235  28.429  1.00  0.00     0.074 A 
ATOM     37  C   UNL A   1      42.498  26.366  27.080  1.00  0.00     0.049 A 
ATOM     38  N   UNL A   1      41.051  28.414  28.776  1.00  0.00    -0.248 NA
ATOM     39  C   UNL A   1      39.272  26.912  28.963  1.00  0.00     0.031 C 
ATOM     40  C   UNL A   1      43.238  25.392  26.278  1.00  0.00     0.029 A 
ATOM     41  N   UNL A   1      43.346  27.436  27.183  1.00  0.00    -0.354 N 
ATOM     42  C   UNL A   1      40.055  28.971  29.570  1.00  0.00     0.074 A 
ATOM     43  C   UNL A   1      38.967  28.021  29.619  1.00  0.00     0.031 C 
ATOM     44  C   UNL A   1      44.437  25.912  25.962  1.00  0.00     0.029 A 
ATOM     45  C   UNL A   1      44.529  27.262  26.512  1.00  0.00     0.049 A 
ATOM     46  H   UNL A   1      43.127  28.251  27.690  1.00  0.00     0.167 HD
ATOM     47  C   UNL A   1      40.057  30.162  30.211  1.00  0.00     0.031 A 
ATOM     48  C   UNL A   1      45.562  28.108  26.350  1.00  0.00     0.031 A 
ATOM     49  C   UNL A   1      41.137  31.109  30.137  1.00  0.00     0.049 A 
ATOM     50  C   UNL A   1      45.503  29.458  27.012  1.00  0.00     0.074 A 
ATOM     51  C   UNL A   1      41.239  32.351  30.739  1.00  0.00     0.029 A 
ATOM     52  N   UNL A   1      42.302  30.918  29.409  1.00  0.00    -0.354 N 
ATOM     53  N   UNL A   1      44.566  29.967  27.775  1.00  0.00    -0.248 NA
ATOM     54  C   UNL A   1      46.655  30.345  26.800  1.00  0.00     0.031 C 
ATOM     55  C   UNL A   1      42.443  32.934  30.330  1.00  0.00     0.029 A 
ATOM     56  C   UNL A   1      43.121  32.028  29.528  1.00  0.00     0.049 A 
ATOM     57  H   UNL A   1      42.516  30.112  28.886  1.00  0.00     0.167 HD
ATOM     58  C   UNL A   1      45.024  31.223  28.153  1.00  0.00     0.074 A 
ATOM     59  C   UNL A   1      46.337  31.381  27.561  1.00  0.00     0.031 C 
ATOM     60  C   UNL A   1      44.417  32.166  28.917  1.00  0.00     0.031 A 
BRANCH  47  61
ATOM     61  C   UNL A   1      38.844  30.515  31.026  1.00  0.00    -0.014 A 
ATOM     62  C   UNL A   1      38.794  30.262  32.406  1.00  0.00     0.009 A 
ATOM     63  C   UNL A   1      37.750  31.145  30.413  1.00  0.00     0.009 A 
ATOM     64  C   UNL A   1      37.665  30.612  33.150  1.00  0.00     0.001 A 
ATOM     65  C   UNL A   1      36.635  31.521  31.165  1.00  0.00     0.001 A 
ATOM     66  C   UNL A   1      36.591  31.247  32.531  1.00  0.00     0.000 A 
ENDBRANCH  47  61
BRANCH  48  67
ATOM     67  C   UNL A   1      46.725  27.722  25.505  1.00  0.00    -0.014 A 
ATOM     68  C   UNL A   1      46.758  28.024  24.136  1.00  0.00     0.009 A 
ATOM     69  C   UNL A   1      47.798  27.012  26.067  1.00  0.00     0.009 A 
ATOM     70  C   UNL A   1      47.822  27.590  23.341  1.00  0.00     0.001 A 
ATOM     71  C   UNL A   1      48.877  26.610  25.277  1.00  0.00     0.001 A 
ATOM     72  C   UNL A   1      48.881  26.887  23.913  1.00  0.00     0.000 A 
ENDBRANCH  48  67
BRANCH  60  73
ATOM     73  C   UNL A   1      45.187  33.433  29.169  1.00  0.00    -0.014 A 
ATOM     74  C   UNL A   1      44.965  34.588  28.402  1.00  0.00     0.009 A 
ATOM     75  C   UNL A   1      46.146  33.472  30.194  1.00  0.00     0.009 A 
ATOM     76  C   UNL A   1      45.728  35.736  28.619  1.00  0.00     0.001 A 
ATOM     77  C   UNL A   1      46.880  34.634  30.433  1.00  0.00     0.001 A 
ATOM     78  C   UNL A   1      46.682  35.759  29.636  1.00  0.00     0.000 A 
ENDBRANCH  60  73
ENDBRANCH  34  35
ENDBRANCH  27  29
ENDBRANCH  26  27
ENDBRANCH  25  26
ENDBRANCH  24  25
ENDBRANCH  23  24
ENDBRANCH   1  23
TORSDOF 17
ENDMDL
