MODEL 1
REMARK VINA RESULT:      -8.5      0.000      0.000
REMARK SMILES CCC1C[NH+]([C@H]2COC[C@@]2(C)C(=O)OCCOCCOC(=O)c2ccc(-c3c4nc(c(-c5ccccc5)c5ccc([nH]5)c(-c5ccccc5)c5nc(c(-c6ccccc6)c6ccc3[nH]6)C=C5)C=C4)cc2)C1
REMARK SMILES IDX 17 1 16 2 15 3 14 4 12 5 13 6 10 7 6 8 7 9 8 10 9 11 11 12
REMARK SMILES IDX 5 13 3 14 4 15 71 16 2 18 1 19 18 20 19 21 20 22 21 23 22 24
REMARK SMILES IDX 23 25 24 26 70 27 25 28 69 29 26 30 27 31 28 32 63 33 29 34
REMARK SMILES IDX 68 35 62 36 64 37 30 38 67 39 61 40 60 41 31 43 53 44 38 45
REMARK SMILES IDX 52 46 39 47 42 48 51 49 65 50 40 51 41 52 50 54 66 55 43 56
REMARK SMILES IDX 32 57 33 58 37 59 34 60 36 61 35 62 54 63 55 64 59 65 56 66
REMARK SMILES IDX 58 67 57 68 44 69 45 70 49 71 46 72 48 73 47 74
REMARK H PARENT 5 17 64 42 42 53
REMARK Flexibility Score: inf
ROOT
ATOM      1  O   UNL A   1      46.540  20.553  24.584  1.00  0.00    -0.374 OA
ENDROOT
BRANCH   1   2
ATOM      2  C   UNL A   1      46.323  21.826  25.187  1.00  0.00     0.202 C 
BRANCH   2   3
ATOM      3  C   UNL A   1      46.216  23.007  24.223  1.00  0.00     0.261 C 
BRANCH   3   4
ATOM      4  O   UNL A   1      46.350  24.266  24.909  1.00  0.00    -0.463 OA
BRANCH   4   5
ATOM      5  C   UNL A   1      47.420  25.038  24.553  1.00  0.00     0.320 C 
ATOM      6  O   UNL A   1      47.836  25.176  23.410  1.00  0.00    -0.251 OA
BRANCH   5   7
ATOM      7  C   UNL A   1      48.022  25.717  25.771  1.00  0.00     0.142 C 
ATOM      8  C   UNL A   1      47.199  26.949  26.204  1.00  0.00     0.229 C 
ATOM      9  C   UNL A   1      47.543  27.024  27.701  1.00  0.00     0.226 C 
ATOM     10  O   UNL A   1      47.831  25.693  28.154  1.00  0.00    -0.374 OA
ATOM     11  C   UNL A   1      47.902  24.827  27.008  1.00  0.00     0.185 C 
ATOM     12  C   UNL A   1      49.502  26.062  25.513  1.00  0.00     0.033 C 
BRANCH   8  13
ATOM     13  N   UNL A   1      45.779  26.827  25.820  1.00  0.00    -0.329 N 
ATOM     14  C   UNL A   1      43.847  27.591  25.951  1.00  0.00     0.099 C 
ATOM     15  C   UNL A   1      45.174  28.061  25.281  1.00  0.00     0.271 C 
ATOM     16  C   UNL A   1      44.792  26.838  26.921  1.00  0.00     0.271 C 
ATOM     17  H   UNL A   1      45.884  25.993  25.243  1.00  0.00     0.348 HD
BRANCH  14  18
ATOM     18  C   UNL A   1      42.955  28.640  26.590  1.00  0.00     0.012 C 
ATOM     19  C   UNL A   1      41.657  28.769  25.812  1.00  0.00     0.004 C 
ENDBRANCH  14  18
ENDBRANCH   8  13
ENDBRANCH   5   7
ENDBRANCH   4   5
ENDBRANCH   3   4
ENDBRANCH   2   3
ENDBRANCH   1   2
BRANCH   1  20
ATOM     20  C   UNL A   1      46.041  19.403  25.262  1.00  0.00     0.202 C 
BRANCH  20  21
ATOM     21  C   UNL A   1      44.632  18.955  24.860  1.00  0.00     0.261 C 
BRANCH  21  22
ATOM     22  O   UNL A   1      43.684  20.041  24.859  1.00  0.00    -0.460 OA
BRANCH  22  23
ATOM     23  C   UNL A   1      42.628  19.880  25.688  1.00  0.00     0.338 C 
ATOM     24  O   UNL A   1      42.044  18.839  25.957  1.00  0.00    -0.246 OA
BRANCH  23  25
ATOM     25  C   UNL A   1      42.299  21.147  26.362  1.00  0.00     0.060 A 
ATOM     26  C   UNL A   1      42.751  22.336  25.778  1.00  0.00     0.016 A 
ATOM     27  C   UNL A   1      41.701  21.160  27.623  1.00  0.00     0.016 A 
ATOM     28  C   UNL A   1      42.656  23.538  26.478  1.00  0.00     0.010 A 
ATOM     29  C   UNL A   1      41.610  22.367  28.327  1.00  0.00     0.010 A 
ATOM     30  C   UNL A   1      42.124  23.555  27.775  1.00  0.00    -0.014 A 
BRANCH  30  31
ATOM     31  C   UNL A   1      42.236  24.786  28.596  1.00  0.00     0.031 A 
ATOM     32  C   UNL A   1      43.463  25.000  29.444  1.00  0.00     0.074 A 
ATOM     33  C   UNL A   1      41.277  25.728  28.561  1.00  0.00     0.049 A 
ATOM     34  N   UNL A   1      43.759  26.000  30.235  1.00  0.00    -0.248 NA
ATOM     35  C   UNL A   1      44.491  23.948  29.391  1.00  0.00     0.031 C 
ATOM     36  C   UNL A   1      40.063  25.668  27.750  1.00  0.00     0.029 A 
ATOM     37  N   UNL A   1      41.180  26.923  29.229  1.00  0.00    -0.354 N 
ATOM     38  C   UNL A   1      45.003  25.698  30.776  1.00  0.00     0.074 A 
ATOM     39  C   UNL A   1      45.392  24.409  30.248  1.00  0.00     0.031 C 
ATOM     40  C   UNL A   1      39.339  26.780  27.969  1.00  0.00     0.029 A 
ATOM     41  C   UNL A   1      40.025  27.612  28.958  1.00  0.00     0.049 A 
ATOM     42  H   UNL A   1      41.873  27.254  29.845  1.00  0.00     0.167 HD
ATOM     43  C   UNL A   1      45.758  26.429  31.632  1.00  0.00     0.031 A 
ATOM     44  C   UNL A   1      39.563  28.773  29.459  1.00  0.00     0.031 A 
ATOM     45  C   UNL A   1      45.376  27.707  32.169  1.00  0.00     0.049 A 
ATOM     46  C   UNL A   1      40.384  29.528  30.469  1.00  0.00     0.074 A 
ATOM     47  C   UNL A   1      46.085  28.528  33.028  1.00  0.00     0.029 A 
ATOM     48  N   UNL A   1      44.175  28.346  31.906  1.00  0.00    -0.354 N 
ATOM     49  N   UNL A   1      41.568  29.243  30.952  1.00  0.00    -0.248 NA
ATOM     50  C   UNL A   1      39.804  30.773  30.997  1.00  0.00     0.031 C 
ATOM     51  C   UNL A   1      45.291  29.640  33.327  1.00  0.00     0.029 A 
ATOM     52  C   UNL A   1      44.111  29.537  32.610  1.00  0.00     0.049 A 
ATOM     53  H   UNL A   1      43.472  28.004  31.307  1.00  0.00     0.167 HD
ATOM     54  C   UNL A   1      41.886  30.282  31.819  1.00  0.00     0.074 A 
ATOM     55  C   UNL A   1      40.776  31.211  31.786  1.00  0.00     0.031 C 
ATOM     56  C   UNL A   1      43.001  30.453  32.571  1.00  0.00     0.031 A 
BRANCH  43  57
ATOM     57  C   UNL A   1      47.072  25.842  32.066  1.00  0.00    -0.014 A 
ATOM     58  C   UNL A   1      47.169  25.043  33.216  1.00  0.00     0.009 A 
ATOM     59  C   UNL A   1      48.221  26.061  31.292  1.00  0.00     0.009 A 
ATOM     60  C   UNL A   1      48.398  24.501  33.598  1.00  0.00     0.001 A 
ATOM     61  C   UNL A   1      49.444  25.497  31.661  1.00  0.00     0.001 A 
ATOM     62  C   UNL A   1      49.534  24.725  32.819  1.00  0.00     0.000 A 
ENDBRANCH  43  57
BRANCH  44  63
ATOM     63  C   UNL A   1      38.239  29.292  29.029  1.00  0.00    -0.014 A 
ATOM     64  C   UNL A   1      37.138  29.254  29.896  1.00  0.00     0.009 A 
ATOM     65  C   UNL A   1      38.069  29.813  27.736  1.00  0.00     0.009 A 
ATOM     66  C   UNL A   1      35.886  29.706  29.470  1.00  0.00     0.001 A 
ATOM     67  C   UNL A   1      36.824  30.289  27.321  1.00  0.00     0.001 A 
ATOM     68  C   UNL A   1      35.731  30.227  28.185  1.00  0.00     0.000 A 
ENDBRANCH  44  63
BRANCH  56  69
ATOM     69  C   UNL A   1      43.092  31.705  33.397  1.00  0.00    -0.014 A 
ATOM     70  C   UNL A   1      43.489  32.927  32.831  1.00  0.00     0.009 A 
ATOM     71  C   UNL A   1      42.734  31.670  34.755  1.00  0.00     0.009 A 
ATOM     72  C   UNL A   1      43.554  34.081  33.615  1.00  0.00     0.001 A 
ATOM     73  C   UNL A   1      42.775  32.830  35.529  1.00  0.00     0.001 A 
ATOM     74  C   UNL A   1      43.192  34.032  34.961  1.00  0.00     0.000 A 
ENDBRANCH  56  69
ENDBRANCH  30  31
ENDBRANCH  23  25
ENDBRANCH  22  23
ENDBRANCH  21  22
ENDBRANCH  20  21
ENDBRANCH   1  20
TORSDOF 16
ENDMDL
MODEL 2
REMARK VINA RESULT:      -8.5      4.755      8.223
REMARK SMILES CCC1C[NH+]([C@H]2COC[C@@]2(C)C(=O)OCCOCCOC(=O)c2ccc(-c3c4nc(c(-c5ccccc5)c5ccc([nH]5)c(-c5ccccc5)c5nc(c(-c6ccccc6)c6ccc3[nH]6)C=C5)C=C4)cc2)C1
REMARK SMILES IDX 17 1 16 2 15 3 14 4 12 5 13 6 10 7 6 8 7 9 8 10 9 11 11 12
REMARK SMILES IDX 5 13 3 14 4 15 71 16 2 18 1 19 18 20 19 21 20 22 21 23 22 24
REMARK SMILES IDX 23 25 24 26 70 27 25 28 69 29 26 30 27 31 28 32 63 33 29 34
REMARK SMILES IDX 68 35 62 36 64 37 30 38 67 39 61 40 60 41 31 43 53 44 38 45
REMARK SMILES IDX 52 46 39 47 42 48 51 49 65 50 40 51 41 52 50 54 66 55 43 56
REMARK SMILES IDX 32 57 33 58 37 59 34 60 36 61 35 62 54 63 55 64 59 65 56 66
REMARK SMILES IDX 58 67 57 68 44 69 45 70 49 71 46 72 48 73 47 74
REMARK H PARENT 5 17 64 42 42 53
REMARK Flexibility Score: inf
ROOT
ATOM      1  O   UNL A   1      34.488  21.100  25.234  1.00  0.00    -0.374 OA
ENDROOT
BRANCH   1   2
ATOM      2  C   UNL A   1      33.580  22.175  25.009  1.00  0.00     0.202 C 
BRANCH   2   3
ATOM      3  C   UNL A   1      34.106  23.317  24.140  1.00  0.00     0.261 C 
BRANCH   3   4
ATOM      4  O   UNL A   1      33.177  23.661  23.095  1.00  0.00    -0.463 OA
BRANCH   4   5
ATOM      5  C   UNL A   1      33.074  24.989  22.791  1.00  0.00     0.320 C 
ATOM      6  O   UNL A   1      33.973  25.672  22.316  1.00  0.00    -0.251 OA
BRANCH   5   7
ATOM      7  C   UNL A   1      31.682  25.508  23.109  1.00  0.00     0.142 C 
ATOM      8  C   UNL A   1      31.663  26.327  24.418  1.00  0.00     0.229 C 
ATOM      9  C   UNL A   1      30.454  27.246  24.174  1.00  0.00     0.226 C 
ATOM     10  O   UNL A   1      30.336  27.452  22.759  1.00  0.00    -0.374 OA
ATOM     11  C   UNL A   1      31.245  26.561  22.091  1.00  0.00     0.185 C 
ATOM     12  C   UNL A   1      30.671  24.345  23.130  1.00  0.00     0.033 C 
BRANCH   8  13
ATOM     13  N   UNL A   1      32.970  26.953  24.697  1.00  0.00    -0.329 N 
ATOM     14  C   UNL A   1      34.114  28.163  25.947  1.00  0.00     0.099 C 
ATOM     15  C   UNL A   1      33.479  26.743  26.066  1.00  0.00     0.271 C 
ATOM     16  C   UNL A   1      32.969  28.412  24.934  1.00  0.00     0.271 C 
ATOM     17  H   UNL A   1      33.459  26.573  23.887  1.00  0.00     0.348 HD
BRANCH  14  18
ATOM     18  C   UNL A   1      34.107  29.056  27.174  1.00  0.00     0.012 C 
ATOM     19  C   UNL A   1      35.529  29.338  27.626  1.00  0.00     0.004 C 
ENDBRANCH  14  18
ENDBRANCH   8  13
ENDBRANCH   5   7
ENDBRANCH   4   5
ENDBRANCH   3   4
ENDBRANCH   2   3
ENDBRANCH   1   2
BRANCH   1  20
ATOM     20  C   UNL A   1      35.797  21.421  25.695  1.00  0.00     0.202 C 
BRANCH  20  21
ATOM     21  C   UNL A   1      36.938  20.612  25.070  1.00  0.00     0.261 C 
BRANCH  21  22
ATOM     22  O   UNL A   1      38.145  21.384  24.913  1.00  0.00    -0.460 OA
BRANCH  22  23
ATOM     23  C   UNL A   1      39.091  21.166  25.854  1.00  0.00     0.338 C 
ATOM     24  O   UNL A   1      39.678  20.118  26.092  1.00  0.00    -0.246 OA
BRANCH  23  25
ATOM     25  C   UNL A   1      39.447  22.423  26.534  1.00  0.00     0.060 A 
ATOM     26  C   UNL A   1      38.815  23.598  26.110  1.00  0.00     0.016 A 
ATOM     27  C   UNL A   1      40.496  22.474  27.454  1.00  0.00     0.016 A 
ATOM     28  C   UNL A   1      39.266  24.836  26.566  1.00  0.00     0.010 A 
ATOM     29  C   UNL A   1      40.950  23.719  27.907  1.00  0.00     0.010 A 
ATOM     30  C   UNL A   1      40.364  24.907  27.434  1.00  0.00    -0.014 A 
BRANCH  30  31
ATOM     31  C   UNL A   1      40.979  26.225  27.730  1.00  0.00     0.031 A 
ATOM     32  C   UNL A   1      42.347  26.542  27.184  1.00  0.00     0.074 A 
ATOM     33  C   UNL A   1      40.314  27.151  28.444  1.00  0.00     0.049 A 
ATOM     34  N   UNL A   1      43.064  27.629  27.326  1.00  0.00    -0.248 NA
ATOM     35  C   UNL A   1      42.989  25.498  26.372  1.00  0.00     0.031 C 
ATOM     36  C   UNL A   1      38.968  26.991  28.990  1.00  0.00     0.029 A 
ATOM     37  N   UNL A   1      40.688  28.414  28.828  1.00  0.00    -0.354 N 
ATOM     38  C   UNL A   1      44.241  27.398  26.624  1.00  0.00     0.074 A 
ATOM     39  C   UNL A   1      44.156  26.059  26.084  1.00  0.00     0.031 C 
ATOM     40  C   UNL A   1      38.628  28.117  29.643  1.00  0.00     0.029 A 
ATOM     41  C   UNL A   1      39.744  29.060  29.585  1.00  0.00     0.049 A 
ATOM     42  H   UNL A   1      41.552  28.818  28.584  1.00  0.00     0.167 HD
ATOM     43  C   UNL A   1      45.297  28.227  26.440  1.00  0.00     0.031 A 
ATOM     44  C   UNL A   1      39.778  30.269  30.178  1.00  0.00     0.031 A 
ATOM     45  C   UNL A   1      45.394  29.556  26.981  1.00  0.00     0.049 A 
ATOM     46  C   UNL A   1      40.995  31.140  30.025  1.00  0.00     0.074 A 
ATOM     47  C   UNL A   1      46.419  30.475  26.832  1.00  0.00     0.029 A 
ATOM     48  N   UNL A   1      44.436  30.154  27.784  1.00  0.00    -0.354 N 
ATOM     49  N   UNL A   1      42.090  30.919  29.339  1.00  0.00    -0.248 NA
ATOM     50  C   UNL A   1      40.977  32.434  30.725  1.00  0.00     0.031 C 
ATOM     51  C   UNL A   1      46.104  31.610  27.587  1.00  0.00     0.029 A 
ATOM     52  C   UNL A   1      44.858  31.418  28.161  1.00  0.00     0.049 A 
ATOM     53  H   UNL A   1      43.581  29.741  28.046  1.00  0.00     0.167 HD
ATOM     54  C   UNL A   1      42.877  32.054  29.503  1.00  0.00     0.074 A 
ATOM     55  C   UNL A   1      42.130  32.966  30.343  1.00  0.00     0.031 C 
ATOM     56  C   UNL A   1      44.108  32.317  28.999  1.00  0.00     0.031 A 
BRANCH  43  57
ATOM     57  C   UNL A   1      46.455  27.702  25.639  1.00  0.00    -0.014 A 
ATOM     58  C   UNL A   1      47.460  26.923  26.233  1.00  0.00     0.009 A 
ATOM     59  C   UNL A   1      46.519  27.959  24.261  1.00  0.00     0.009 A 
ATOM     60  C   UNL A   1      48.523  26.439  25.468  1.00  0.00     0.001 A 
ATOM     61  C   UNL A   1      47.569  27.452  23.493  1.00  0.00     0.001 A 
ATOM     62  C   UNL A   1      48.575  26.700  24.098  1.00  0.00     0.000 A 
ENDBRANCH  43  57
BRANCH  44  63
ATOM     63  C   UNL A   1      38.625  30.728  30.995  1.00  0.00    -0.014 A 
ATOM     64  C   UNL A   1      38.565  30.454  32.368  1.00  0.00     0.009 A 
ATOM     65  C   UNL A   1      37.567  31.429  30.394  1.00  0.00     0.009 A 
ATOM     66  C   UNL A   1      37.457  30.852  33.121  1.00  0.00     0.001 A 
ATOM     67  C   UNL A   1      36.473  31.849  31.154  1.00  0.00     0.001 A 
ATOM     68  C   UNL A   1      36.415  31.552  32.515  1.00  0.00     0.000 A 
ENDBRANCH  44  63
BRANCH  56  69
ATOM     69  C   UNL A   1      44.712  33.656  29.313  1.00  0.00    -0.014 A 
ATOM     70  C   UNL A   1      45.525  33.843  30.441  1.00  0.00     0.009 A 
ATOM     71  C   UNL A   1      44.497  34.736  28.442  1.00  0.00     0.009 A 
ATOM     72  C   UNL A   1      46.087  35.094  30.706  1.00  0.00     0.001 A 
ATOM     73  C   UNL A   1      45.081  35.978  28.696  1.00  0.00     0.001 A 
ATOM     74  C   UNL A   1      45.869  36.159  29.831  1.00  0.00     0.000 A 
ENDBRANCH  56  69
ENDBRANCH  30  31
ENDBRANCH  23  25
ENDBRANCH  22  23
ENDBRANCH  21  22
ENDBRANCH  20  21
ENDBRANCH   1  20
TORSDOF 16
ENDMDL
MODEL 3
REMARK VINA RESULT:      -8.4      4.713      9.496
REMARK SMILES CCC1C[NH+]([C@H]2COC[C@@]2(C)C(=O)OCCOCCOC(=O)c2ccc(-c3c4nc(c(-c5ccccc5)c5ccc([nH]5)c(-c5ccccc5)c5nc(c(-c6ccccc6)c6ccc3[nH]6)C=C5)C=C4)cc2)C1
REMARK SMILES IDX 17 1 16 2 15 3 14 4 12 5 13 6 10 7 6 8 7 9 8 10 9 11 11 12
REMARK SMILES IDX 5 13 3 14 4 15 71 16 2 18 1 19 18 20 19 21 20 22 21 23 22 24
REMARK SMILES IDX 23 25 24 26 70 27 25 28 69 29 26 30 27 31 28 32 63 33 29 34
REMARK SMILES IDX 68 35 62 36 64 37 30 38 67 39 61 40 60 41 31 43 53 44 38 45
REMARK SMILES IDX 52 46 39 47 42 48 51 49 65 50 40 51 41 52 50 54 66 55 43 56
REMARK SMILES IDX 32 57 33 58 37 59 34 60 36 61 35 62 54 63 55 64 59 65 56 66
REMARK SMILES IDX 58 67 57 68 44 69 45 70 49 71 46 72 48 73 47 74
REMARK H PARENT 5 17 64 42 42 53
REMARK Flexibility Score: inf
ROOT
ATOM      1  O   UNL A   1      34.973  21.544  25.961  1.00  0.00    -0.374 OA
ENDROOT
BRANCH   1   2
ATOM      2  C   UNL A   1      34.727  22.855  25.460  1.00  0.00     0.202 C 
BRANCH   2   3
ATOM      3  C   UNL A   1      33.257  23.225  25.258  1.00  0.00     0.261 C 
BRANCH   3   4
ATOM      4  O   UNL A   1      32.919  23.315  23.862  1.00  0.00    -0.463 OA
BRANCH   4   5
ATOM      5  C   UNL A   1      33.072  24.543  23.281  1.00  0.00     0.320 C 
ATOM      6  O   UNL A   1      34.126  24.982  22.838  1.00  0.00    -0.251 OA
BRANCH   5   7
ATOM      7  C   UNL A   1      31.751  25.290  23.245  1.00  0.00     0.142 C 
ATOM      8  C   UNL A   1      31.664  26.353  24.361  1.00  0.00     0.229 C 
ATOM      9  C   UNL A   1      30.671  27.351  23.743  1.00  0.00     0.226 C 
ATOM     10  O   UNL A   1      30.804  27.279  22.316  1.00  0.00    -0.374 OA
ATOM     11  C   UNL A   1      31.649  26.162  21.993  1.00  0.00     0.185 C 
ATOM     12  C   UNL A   1      30.573  24.296  23.289  1.00  0.00     0.033 C 
BRANCH   8  13
ATOM     13  N   UNL A   1      32.997  26.849  24.756  1.00  0.00    -0.329 N 
ATOM     14  C   UNL A   1      34.119  28.091  25.994  1.00  0.00     0.099 C 
ATOM     15  C   UNL A   1      33.273  26.798  26.205  1.00  0.00     0.271 C 
ATOM     16  C   UNL A   1      33.175  28.316  24.786  1.00  0.00     0.271 C 
ATOM     17  H   UNL A   1      33.532  26.288  24.094  1.00  0.00     0.348 HD
BRANCH  14  18
ATOM     18  C   UNL A   1      34.072  29.162  27.069  1.00  0.00     0.012 C 
ATOM     19  C   UNL A   1      35.473  29.463  27.571  1.00  0.00     0.004 C 
ENDBRANCH  14  18
ENDBRANCH   8  13
ENDBRANCH   5   7
ENDBRANCH   4   5
ENDBRANCH   3   4
ENDBRANCH   2   3
ENDBRANCH   1   2
BRANCH   1  20
ATOM     20  C   UNL A   1      35.326  20.531  25.024  1.00  0.00     0.202 C 
BRANCH  20  21
ATOM     21  C   UNL A   1      36.806  20.138  24.997  1.00  0.00     0.261 C 
BRANCH  21  22
ATOM     22  O   UNL A   1      37.684  21.270  25.155  1.00  0.00    -0.460 OA
BRANCH  22  23
ATOM     23  C   UNL A   1      38.824  21.021  25.836  1.00  0.00     0.338 C 
ATOM     24  O   UNL A   1      39.457  19.973  25.871  1.00  0.00    -0.246 OA
BRANCH  23  25
ATOM     25  C   UNL A   1      39.321  22.246  26.485  1.00  0.00     0.060 A 
ATOM     26  C   UNL A   1      38.720  23.461  26.136  1.00  0.00     0.016 A 
ATOM     27  C   UNL A   1      40.458  22.223  27.295  1.00  0.00     0.016 A 
ATOM     28  C   UNL A   1      39.288  24.665  26.553  1.00  0.00     0.010 A 
ATOM     29  C   UNL A   1      41.029  23.433  27.709  1.00  0.00     0.010 A 
ATOM     30  C   UNL A   1      40.470  24.660  27.305  1.00  0.00    -0.014 A 
BRANCH  30  31
ATOM     31  C   UNL A   1      41.189  25.936  27.547  1.00  0.00     0.031 A 
ATOM     32  C   UNL A   1      40.543  26.999  28.397  1.00  0.00     0.074 A 
ATOM     33  C   UNL A   1      42.422  26.136  27.051  1.00  0.00     0.049 A 
ATOM     34  N   UNL A   1      40.995  28.182  28.729  1.00  0.00    -0.248 NA
ATOM     35  C   UNL A   1      39.214  26.686  28.945  1.00  0.00     0.031 C 
ATOM     36  C   UNL A   1      43.180  25.174  26.253  1.00  0.00     0.029 A 
ATOM     37  N   UNL A   1      43.254  27.223  27.151  1.00  0.00    -0.354 N 
ATOM     38  C   UNL A   1      40.007  28.755  29.521  1.00  0.00     0.074 A 
ATOM     39  C   UNL A   1      38.920  27.804  29.594  1.00  0.00     0.031 C 
ATOM     40  C   UNL A   1      44.368  25.716  25.933  1.00  0.00     0.029 A 
ATOM     41  C   UNL A   1      44.440  27.071  26.477  1.00  0.00     0.049 A 
ATOM     42  H   UNL A   1      43.023  28.035  27.656  1.00  0.00     0.167 HD
ATOM     43  C   UNL A   1      40.005  29.962  30.136  1.00  0.00     0.031 A 
ATOM     44  C   UNL A   1      45.463  27.930  26.304  1.00  0.00     0.031 A 
ATOM     45  C   UNL A   1      41.078  30.918  30.061  1.00  0.00     0.049 A 
ATOM     46  C   UNL A   1      45.403  29.296  26.933  1.00  0.00     0.074 A 
ATOM     47  C   UNL A   1      41.171  32.159  30.667  1.00  0.00     0.029 A 
ATOM     48  N   UNL A   1      42.240  30.743  29.328  1.00  0.00    -0.354 N 
ATOM     49  N   UNL A   1      44.474  29.815  27.699  1.00  0.00    -0.248 NA
ATOM     50  C   UNL A   1      46.540  30.193  26.678  1.00  0.00     0.031 C 
ATOM     51  C   UNL A   1      42.367  32.758  30.259  1.00  0.00     0.029 A 
ATOM     52  C   UNL A   1      43.043  31.866  29.443  1.00  0.00     0.049 A 
ATOM     53  H   UNL A   1      42.462  29.940  28.804  1.00  0.00     0.167 HD
ATOM     54  C   UNL A   1      44.926  31.085  28.037  1.00  0.00     0.074 A 
ATOM     55  C   UNL A   1      46.216  31.255  27.404  1.00  0.00     0.031 C 
ATOM     56  C   UNL A   1      44.325  32.025  28.807  1.00  0.00     0.031 A 
BRANCH  43  57
ATOM     57  C   UNL A   1      38.782  30.332  30.927  1.00  0.00    -0.014 A 
ATOM     58  C   UNL A   1      38.686  30.047  32.298  1.00  0.00     0.009 A 
ATOM     59  C   UNL A   1      37.727  31.011  30.298  1.00  0.00     0.009 A 
ATOM     60  C   UNL A   1      37.542  30.406  33.015  1.00  0.00     0.001 A 
ATOM     61  C   UNL A   1      36.596  31.391  31.022  1.00  0.00     0.001 A 
ATOM     62  C   UNL A   1      36.500  31.082  32.379  1.00  0.00     0.000 A 
ENDBRANCH  43  57
BRANCH  44  63
ATOM     63  C   UNL A   1      46.634  27.534  25.481  1.00  0.00    -0.014 A 
ATOM     64  C   UNL A   1      47.686  26.794  26.038  1.00  0.00     0.009 A 
ATOM     65  C   UNL A   1      46.711  27.915  24.131  1.00  0.00     0.009 A 
ATOM     66  C   UNL A   1      48.803  26.461  25.268  1.00  0.00     0.001 A 
ATOM     67  C   UNL A   1      47.817  27.559  23.356  1.00  0.00     0.001 A 
ATOM     68  C   UNL A   1      48.866  26.840  23.928  1.00  0.00     0.000 A 
ENDBRANCH  44  63
BRANCH  56  69
ATOM     69  C   UNL A   1      45.070  33.310  29.036  1.00  0.00    -0.014 A 
ATOM     70  C   UNL A   1      44.874  34.426  28.207  1.00  0.00     0.009 A 
ATOM     71  C   UNL A   1      45.950  33.418  30.125  1.00  0.00     0.009 A 
ATOM     72  C   UNL A   1      45.568  35.614  28.447  1.00  0.00     0.001 A 
ATOM     73  C   UNL A   1      46.622  34.615  30.377  1.00  0.00     0.001 A 
ATOM     74  C   UNL A   1      46.436  35.709  29.535  1.00  0.00     0.000 A 
ENDBRANCH  56  69
ENDBRANCH  30  31
ENDBRANCH  23  25
ENDBRANCH  22  23
ENDBRANCH  21  22
ENDBRANCH  20  21
ENDBRANCH   1  20
TORSDOF 16
ENDMDL
