MODEL 1
REMARK VINA RESULT:     -10.3      0.000      0.000
REMARK SMILES CC(C)CN(C)c1cc2c(cc1Cl)C=C(C(=O)OCCOCCOC(=O)c1ccc(-c3c4nc(c(-c5ccccc5)c5ccc([nH]5)c(-c5ccccc5)c5nc(c(-c6ccccc6)c6ccc3[nH]6)C=C5)C=C4)cc1)[C@H](C(F)(F)F)O2
REMARK SMILES IDX 20 1 19 2 18 3 16 4 17 5 15 6 7 7 8 8 12 9 9 10 11 11 13 12
REMARK SMILES IDX 10 13 80 14 14 15 75 16 5 17 6 18 4 19 2 20 1 21 3 22 76 23
REMARK SMILES IDX 77 24 78 25 79 26 21 27 22 28 23 29 24 30 25 31 26 32 27 33
REMARK SMILES IDX 28 34 74 35 29 36 73 37 30 38 31 39 32 40 67 41 33 42 72 43
REMARK SMILES IDX 66 44 68 45 34 46 71 47 65 48 64 49 35 51 57 52 42 53 56 54
REMARK SMILES IDX 43 55 46 56 55 57 69 58 44 59 45 60 54 62 70 63 47 64 36 65
REMARK SMILES IDX 37 66 41 67 38 68 40 69 39 70 58 71 59 72 63 73 60 74 62 75
REMARK SMILES IDX 61 76 48 77 49 78 53 79 50 80 52 81 51 82
REMARK H PARENT 68 50 46 61
REMARK Flexibility Score: inf
ROOT
ATOM      1  C   UNL A   1      33.225  29.207  26.422  1.00  0.00     0.202 C 
ENDROOT
BRANCH   1   2
ATOM      2  C   UNL A   1      33.161  29.288  24.897  1.00  0.00     0.261 C 
BRANCH   2   3
ATOM      3  O   UNL A   1      34.063  28.333  24.313  1.00  0.00    -0.460 OA
BRANCH   3   4
ATOM      4  C   UNL A   1      33.620  27.788  23.167  1.00  0.00     0.338 C 
ATOM      5  O   UNL A   1      33.768  28.269  22.052  1.00  0.00    -0.246 OA
BRANCH   4   6
ATOM      6  C   UNL A   1      33.009  26.460  23.393  1.00  0.00     0.087 C 
ATOM      7  C   UNL A   1      33.167  21.461  23.992  1.00  0.00     0.059 A 
ATOM      8  C   UNL A   1      32.190  22.360  23.507  1.00  0.00     0.074 A 
ATOM      9  C   UNL A   1      34.383  22.019  24.441  1.00  0.00     0.065 A 
ATOM     10  C   UNL A   1      32.406  23.745  23.509  1.00  0.00     0.130 A 
ATOM     11  C   UNL A   1      34.536  23.393  24.579  1.00  0.00     0.034 A 
ATOM     12  Cl  UNL A   1      35.811  21.078  24.714  1.00  0.00    -0.082 Cl
ATOM     13  C   UNL A   1      33.549  24.252  24.109  1.00  0.00     0.019 A 
ATOM     14  O   UNL A   1      31.495  24.531  22.861  1.00  0.00    -0.475 OA
ATOM     15  C   UNL A   1      33.818  25.667  24.104  1.00  0.00     0.027 C 
ATOM     16  C   UNL A   1      31.724  25.982  22.762  1.00  0.00     0.316 C 
BRANCH   7  17
ATOM     17  N   UNL A   1      32.942  20.078  24.004  1.00  0.00    -0.373 N 
ATOM     18  C   UNL A   1      32.185  19.542  22.877  1.00  0.00     0.143 C 
BRANCH  17  19
ATOM     19  C   UNL A   1      32.769  19.405  25.314  1.00  0.00     0.119 C 
BRANCH  19  20
ATOM     20  C   UNL A   1      33.463  18.028  25.396  1.00  0.00     0.002 C 
ATOM     21  C   UNL A   1      32.467  16.867  25.298  1.00  0.00     0.009 C 
ATOM     22  C   UNL A   1      34.533  17.850  24.314  1.00  0.00     0.009 C 
ENDBRANCH  19  20
ENDBRANCH  17  19
ENDBRANCH   7  17
BRANCH  16  23
ATOM     23  C   UNL A   1      30.434  26.646  23.292  1.00  0.00     0.430 C 
ATOM     24  F   UNL A   1      30.635  27.265  24.478  1.00  0.00    -0.167 F 
ATOM     25  F   UNL A   1      29.906  27.554  22.444  1.00  0.00    -0.167 F 
ATOM     26  F   UNL A   1      29.461  25.716  23.486  1.00  0.00    -0.167 F 
ENDBRANCH  16  23
ENDBRANCH   4   6
ENDBRANCH   3   4
ENDBRANCH   2   3
ENDBRANCH   1   2
BRANCH   1  27
ATOM     27  O   UNL A   1      32.271  29.993  27.137  1.00  0.00    -0.374 OA
BRANCH  27  28
ATOM     28  C   UNL A   1      31.559  30.994  26.404  1.00  0.00     0.202 C 
BRANCH  28  29
ATOM     29  C   UNL A   1      31.557  32.415  26.981  1.00  0.00     0.261 C 
BRANCH  29  30
ATOM     30  O   UNL A   1      32.877  32.988  26.988  1.00  0.00    -0.460 OA
BRANCH  30  31
ATOM     31  C   UNL A   1      33.153  33.803  28.035  1.00  0.00     0.338 C 
ATOM     32  O   UNL A   1      32.411  34.629  28.543  1.00  0.00    -0.246 OA
BRANCH  31  33
ATOM     33  C   UNL A   1      34.428  33.380  28.650  1.00  0.00     0.060 A 
ATOM     34  C   UNL A   1      34.466  32.590  29.799  1.00  0.00     0.016 A 
ATOM     35  C   UNL A   1      35.619  33.803  28.042  1.00  0.00     0.016 A 
ATOM     36  C   UNL A   1      35.703  32.200  30.322  1.00  0.00     0.010 A 
ATOM     37  C   UNL A   1      36.851  33.416  28.566  1.00  0.00     0.010 A 
ATOM     38  C   UNL A   1      36.902  32.595  29.700  1.00  0.00    -0.014 A 
BRANCH  38  39
ATOM     39  C   UNL A   1      38.202  32.045  30.156  1.00  0.00     0.031 A 
ATOM     40  C   UNL A   1      39.049  32.755  31.167  1.00  0.00     0.074 A 
ATOM     41  C   UNL A   1      38.630  30.886  29.620  1.00  0.00     0.049 A 
ATOM     42  N   UNL A   1      40.177  32.367  31.707  1.00  0.00    -0.248 NA
ATOM     43  C   UNL A   1      38.577  34.068  31.630  1.00  0.00     0.031 C 
ATOM     44  C   UNL A   1      37.903  30.117  28.608  1.00  0.00     0.029 A 
ATOM     45  N   UNL A   1      39.763  30.148  29.854  1.00  0.00    -0.354 N 
ATOM     46  C   UNL A   1      40.536  33.370  32.595  1.00  0.00     0.074 A 
ATOM     47  C   UNL A   1      39.540  34.415  32.474  1.00  0.00     0.031 C 
ATOM     48  C   UNL A   1      38.586  28.994  28.341  1.00  0.00     0.029 A 
ATOM     49  C   UNL A   1      39.816  28.983  29.129  1.00  0.00     0.049 A 
ATOM     50  H   UNL A   1      40.468  30.427  30.481  1.00  0.00     0.167 HD
ATOM     51  C   UNL A   1      41.588  33.403  33.450  1.00  0.00     0.031 A 
ATOM     52  C   UNL A   1      40.744  28.005  29.101  1.00  0.00     0.031 A 
ATOM     53  C   UNL A   1      42.598  32.378  33.535  1.00  0.00     0.049 A 
ATOM     54  C   UNL A   1      41.941  28.098  30.003  1.00  0.00     0.074 A 
ATOM     55  C   UNL A   1      43.693  32.321  34.380  1.00  0.00     0.029 A 
ATOM     56  N   UNL A   1      42.648  31.240  32.744  1.00  0.00    -0.354 N 
ATOM     57  N   UNL A   1      42.236  29.023  30.885  1.00  0.00    -0.248 NA
ATOM     58  C   UNL A   1      42.925  27.010  29.920  1.00  0.00     0.031 C 
ATOM     59  C   UNL A   1      44.446  31.193  34.049  1.00  0.00     0.029 A 
ATOM     60  C   UNL A   1      43.773  30.494  33.059  1.00  0.00     0.049 A 
ATOM     61  H   UNL A   1      41.983  30.998  32.059  1.00  0.00     0.167 HD
ATOM     62  C   UNL A   1      43.425  28.616  31.480  1.00  0.00     0.074 A 
ATOM     63  C   UNL A   1      43.789  27.355  30.868  1.00  0.00     0.031 C 
ATOM     64  C   UNL A   1      44.140  29.239  32.448  1.00  0.00     0.031 A 
BRANCH  51  65
ATOM     65  C   UNL A   1      41.702  34.583  34.380  1.00  0.00    -0.014 A 
ATOM     66  C   UNL A   1      42.451  35.710  34.005  1.00  0.00     0.009 A 
ATOM     67  C   UNL A   1      41.151  34.537  35.671  1.00  0.00     0.009 A 
ATOM     68  C   UNL A   1      42.656  36.758  34.906  1.00  0.00     0.001 A 
ATOM     69  C   UNL A   1      41.327  35.603  36.557  1.00  0.00     0.001 A 
ATOM     70  C   UNL A   1      42.089  36.707  36.178  1.00  0.00     0.000 A 
ENDBRANCH  51  65
BRANCH  52  71
ATOM     71  C   UNL A   1      40.519  26.832  28.216  1.00  0.00    -0.014 A 
ATOM     72  C   UNL A   1      40.962  26.845  26.882  1.00  0.00     0.009 A 
ATOM     73  C   UNL A   1      39.775  25.733  28.670  1.00  0.00     0.009 A 
ATOM     74  C   UNL A   1      40.627  25.806  26.013  1.00  0.00     0.001 A 
ATOM     75  C   UNL A   1      39.470  24.679  27.807  1.00  0.00     0.001 A 
ATOM     76  C   UNL A   1      39.882  24.723  26.475  1.00  0.00     0.000 A 
ENDBRANCH  52  71
BRANCH  64  77
ATOM     77  C   UNL A   1      45.403  28.579  32.940  1.00  0.00    -0.014 A 
ATOM     78  C   UNL A   1      45.361  27.760  34.080  1.00  0.00     0.009 A 
ATOM     79  C   UNL A   1      46.649  28.869  32.362  1.00  0.00     0.009 A 
ATOM     80  C   UNL A   1      46.537  27.271  34.651  1.00  0.00     0.001 A 
ATOM     81  C   UNL A   1      47.822  28.351  32.915  1.00  0.00     0.001 A 
ATOM     82  C   UNL A   1      47.767  27.565  34.066  1.00  0.00     0.000 A 
ENDBRANCH  64  77
ENDBRANCH  38  39
ENDBRANCH  31  33
ENDBRANCH  30  31
ENDBRANCH  29  30
ENDBRANCH  28  29
ENDBRANCH  27  28
ENDBRANCH   1  27
TORSDOF 18
ENDMDL
MODEL 2
REMARK VINA RESULT:     -10.3      4.393      6.621
REMARK SMILES CC(C)CN(C)c1cc2c(cc1Cl)C=C(C(=O)OCCOCCOC(=O)c1ccc(-c3c4nc(c(-c5ccccc5)c5ccc([nH]5)c(-c5ccccc5)c5nc(c(-c6ccccc6)c6ccc3[nH]6)C=C5)C=C4)cc1)[C@H](C(F)(F)F)O2
REMARK SMILES IDX 20 1 19 2 18 3 16 4 17 5 15 6 7 7 8 8 12 9 9 10 11 11 13 12
REMARK SMILES IDX 10 13 80 14 14 15 75 16 5 17 6 18 4 19 2 20 1 21 3 22 76 23
REMARK SMILES IDX 77 24 78 25 79 26 21 27 22 28 23 29 24 30 25 31 26 32 27 33
REMARK SMILES IDX 28 34 74 35 29 36 73 37 30 38 31 39 32 40 67 41 33 42 72 43
REMARK SMILES IDX 66 44 68 45 34 46 71 47 65 48 64 49 35 51 57 52 42 53 56 54
REMARK SMILES IDX 43 55 46 56 55 57 69 58 44 59 45 60 54 62 70 63 47 64 36 65
REMARK SMILES IDX 37 66 41 67 38 68 40 69 39 70 58 71 59 72 63 73 60 74 62 75
REMARK SMILES IDX 61 76 48 77 49 78 53 79 50 80 52 81 51 82
REMARK H PARENT 68 50 46 61
REMARK Flexibility Score: inf
ROOT
ATOM      1  C   UNL A   1      34.776  34.308  31.105  1.00  0.00     0.202 C 
ENDROOT
BRANCH   1   2
ATOM      2  C   UNL A   1      35.290  33.357  30.023  1.00  0.00     0.261 C 
BRANCH   2   3
ATOM      3  O   UNL A   1      34.253  32.440  29.638  1.00  0.00    -0.460 OA
BRANCH   3   4
ATOM      4  C   UNL A   1      33.909  32.512  28.341  1.00  0.00     0.338 C 
ATOM      5  O   UNL A   1      33.532  33.522  27.764  1.00  0.00    -0.246 OA
BRANCH   4   6
ATOM      6  C   UNL A   1      34.140  31.228  27.642  1.00  0.00     0.087 C 
ATOM      7  C   UNL A   1      32.661  27.171  25.047  1.00  0.00     0.059 A 
ATOM      8  C   UNL A   1      33.732  27.433  25.932  1.00  0.00     0.074 A 
ATOM      9  C   UNL A   1      31.784  28.242  24.771  1.00  0.00     0.065 A 
ATOM     10  C   UNL A   1      33.934  28.708  26.478  1.00  0.00     0.130 A 
ATOM     11  C   UNL A   1      32.072  29.535  25.193  1.00  0.00     0.034 A 
ATOM     12  Cl  UNL A   1      30.235  28.027  24.026  1.00  0.00    -0.082 Cl
ATOM     13  C   UNL A   1      33.143  29.762  26.049  1.00  0.00     0.019 A 
ATOM     14  O   UNL A   1      34.877  28.836  27.460  1.00  0.00    -0.475 OA
ATOM     15  C   UNL A   1      33.304  31.080  26.608  1.00  0.00     0.027 C 
ATOM     16  C   UNL A   1      35.066  30.137  28.123  1.00  0.00     0.316 C 
BRANCH   7  17
ATOM     17  N   UNL A   1      32.470  25.900  24.491  1.00  0.00    -0.373 N 
ATOM     18  C   UNL A   1      31.556  25.017  25.209  1.00  0.00     0.143 C 
BRANCH  17  19
ATOM     19  C   UNL A   1      33.608  25.263  23.785  1.00  0.00     0.119 C 
BRANCH  19  20
ATOM     20  C   UNL A   1      33.291  24.883  22.322  1.00  0.00     0.002 C 
ATOM     21  C   UNL A   1      32.882  23.413  22.178  1.00  0.00     0.009 C 
ATOM     22  C   UNL A   1      32.191  25.761  21.719  1.00  0.00     0.009 C 
ENDBRANCH  19  20
ENDBRANCH  17  19
ENDBRANCH   7  17
BRANCH  16  23
ATOM     23  C   UNL A   1      36.574  30.447  28.013  1.00  0.00     0.430 C 
ATOM     24  F   UNL A   1      36.823  31.776  28.080  1.00  0.00    -0.167 F 
ATOM     25  F   UNL A   1      37.320  29.846  28.964  1.00  0.00    -0.167 F 
ATOM     26  F   UNL A   1      37.070  30.008  26.825  1.00  0.00    -0.167 F 
ENDBRANCH  16  23
ENDBRANCH   4   6
ENDBRANCH   3   4
ENDBRANCH   2   3
ENDBRANCH   1   2
BRANCH   1  27
ATOM     27  O   UNL A   1      33.655  33.854  31.863  1.00  0.00    -0.374 OA
BRANCH  27  28
ATOM     28  C   UNL A   1      33.885  33.476  33.222  1.00  0.00     0.202 C 
BRANCH  28  29
ATOM     29  C   UNL A   1      35.341  33.456  33.706  1.00  0.00     0.261 C 
BRANCH  29  30
ATOM     30  O   UNL A   1      35.915  32.140  33.612  1.00  0.00    -0.460 OA
BRANCH  30  31
ATOM     31  C   UNL A   1      37.161  32.010  34.127  1.00  0.00     0.338 C 
ATOM     32  O   UNL A   1      37.491  32.104  35.298  1.00  0.00    -0.246 OA
BRANCH  31  33
ATOM     33  C   UNL A   1      38.061  31.487  33.078  1.00  0.00     0.060 A 
ATOM     34  C   UNL A   1      37.899  31.821  31.733  1.00  0.00     0.016 A 
ATOM     35  C   UNL A   1      39.096  30.627  33.474  1.00  0.00     0.016 A 
ATOM     36  C   UNL A   1      38.796  31.314  30.787  1.00  0.00     0.010 A 
ATOM     37  C   UNL A   1      39.988  30.121  32.530  1.00  0.00     0.010 A 
ATOM     38  C   UNL A   1      39.856  30.476  31.181  1.00  0.00    -0.014 A 
BRANCH  38  39
ATOM     39  C   UNL A   1      40.901  30.078  30.206  1.00  0.00     0.031 A 
ATOM     40  C   UNL A   1      42.026  30.995  29.835  1.00  0.00     0.074 A 
ATOM     41  C   UNL A   1      40.809  28.864  29.630  1.00  0.00     0.049 A 
ATOM     42  N   UNL A   1      43.044  30.762  29.046  1.00  0.00    -0.248 NA
ATOM     43  C   UNL A   1      42.006  32.345  30.415  1.00  0.00     0.031 C 
ATOM     44  C   UNL A   1      39.744  27.894  29.894  1.00  0.00     0.029 A 
ATOM     45  N   UNL A   1      41.620  28.233  28.721  1.00  0.00    -0.354 N 
ATOM     46  C   UNL A   1      43.804  31.923  29.057  1.00  0.00     0.074 A 
ATOM     47  C   UNL A   1      43.095  32.881  29.880  1.00  0.00     0.031 C 
ATOM     48  C   UNL A   1      39.992  26.776  29.197  1.00  0.00     0.029 A 
ATOM     49  C   UNL A   1      41.206  26.962  28.407  1.00  0.00     0.049 A 
ATOM     50  H   UNL A   1      42.422  28.652  28.332  1.00  0.00     0.167 HD
ATOM     51  C   UNL A   1      44.997  32.156  28.455  1.00  0.00     0.031 A 
ATOM     52  C   UNL A   1      41.741  26.040  27.582  1.00  0.00     0.031 A 
ATOM     53  C   UNL A   1      45.676  31.211  27.605  1.00  0.00     0.049 A 
ATOM     54  C   UNL A   1      43.026  26.347  26.866  1.00  0.00     0.074 A 
ATOM     55  C   UNL A   1      46.894  31.357  26.962  1.00  0.00     0.029 A 
ATOM     56  N   UNL A   1      45.196  29.955  27.265  1.00  0.00    -0.354 N 
ATOM     57  N   UNL A   1      43.767  27.427  26.936  1.00  0.00    -0.248 NA
ATOM     58  C   UNL A   1      43.556  25.310  25.971  1.00  0.00     0.031 C 
ATOM     59  C   UNL A   1      47.113  30.225  26.175  1.00  0.00     0.029 A 
ATOM     60  C   UNL A   1      46.078  29.331  26.397  1.00  0.00     0.049 A 
ATOM     61  H   UNL A   1      44.354  29.564  27.593  1.00  0.00     0.167 HD
ATOM     62  C   UNL A   1      44.864  27.189  26.115  1.00  0.00     0.074 A 
ATOM     63  C   UNL A   1      44.696  25.858  25.569  1.00  0.00     0.031 C 
ATOM     64  C   UNL A   1      45.911  28.007  25.848  1.00  0.00     0.031 A 
BRANCH  51  65
ATOM     65  C   UNL A   1      45.661  33.486  28.702  1.00  0.00    -0.014 A 
ATOM     66  C   UNL A   1      45.452  34.557  27.817  1.00  0.00     0.009 A 
ATOM     67  C   UNL A   1      46.575  33.649  29.755  1.00  0.00     0.009 A 
ATOM     68  C   UNL A   1      46.152  35.755  27.975  1.00  0.00     0.001 A 
ATOM     69  C   UNL A   1      47.247  34.861  29.931  1.00  0.00     0.001 A 
ATOM     70  C   UNL A   1      47.043  35.909  29.035  1.00  0.00     0.000 A 
ENDBRANCH  51  65
BRANCH  52  71
ATOM     71  C   UNL A   1      41.071  24.719  27.455  1.00  0.00    -0.014 A 
ATOM     72  C   UNL A   1      41.510  23.618  28.209  1.00  0.00     0.009 A 
ATOM     73  C   UNL A   1      40.054  24.529  26.508  1.00  0.00     0.009 A 
ATOM     74  C   UNL A   1      40.977  22.347  27.985  1.00  0.00     0.001 A 
ATOM     75  C   UNL A   1      39.499  23.263  26.310  1.00  0.00     0.001 A 
ATOM     76  C   UNL A   1      39.971  22.170  27.037  1.00  0.00     0.000 A 
ENDBRANCH  52  71
BRANCH  64  77
ATOM     77  C   UNL A   1      46.992  27.504  24.925  1.00  0.00    -0.014 A 
ATOM     78  C   UNL A   1      48.080  26.788  25.452  1.00  0.00     0.009 A 
ATOM     79  C   UNL A   1      47.006  27.849  23.565  1.00  0.00     0.009 A 
ATOM     80  C   UNL A   1      49.171  26.456  24.648  1.00  0.00     0.001 A 
ATOM     81  C   UNL A   1      48.084  27.486  22.754  1.00  0.00     0.001 A 
ATOM     82  C   UNL A   1      49.171  26.803  23.299  1.00  0.00     0.000 A 
ENDBRANCH  64  77
ENDBRANCH  38  39
ENDBRANCH  31  33
ENDBRANCH  30  31
ENDBRANCH  29  30
ENDBRANCH  28  29
ENDBRANCH  27  28
ENDBRANCH   1  27
TORSDOF 18
ENDMDL
MODEL 3
REMARK VINA RESULT:     -10.3      0.630      5.759
REMARK SMILES CC(C)CN(C)c1cc2c(cc1Cl)C=C(C(=O)OCCOCCOC(=O)c1ccc(-c3c4nc(c(-c5ccccc5)c5ccc([nH]5)c(-c5ccccc5)c5nc(c(-c6ccccc6)c6ccc3[nH]6)C=C5)C=C4)cc1)[C@H](C(F)(F)F)O2
REMARK SMILES IDX 20 1 19 2 18 3 16 4 17 5 15 6 7 7 8 8 12 9 9 10 11 11 13 12
REMARK SMILES IDX 10 13 80 14 14 15 75 16 5 17 6 18 4 19 2 20 1 21 3 22 76 23
REMARK SMILES IDX 77 24 78 25 79 26 21 27 22 28 23 29 24 30 25 31 26 32 27 33
REMARK SMILES IDX 28 34 74 35 29 36 73 37 30 38 31 39 32 40 67 41 33 42 72 43
REMARK SMILES IDX 66 44 68 45 34 46 71 47 65 48 64 49 35 51 57 52 42 53 56 54
REMARK SMILES IDX 43 55 46 56 55 57 69 58 44 59 45 60 54 62 70 63 47 64 36 65
REMARK SMILES IDX 37 66 41 67 38 68 40 69 39 70 58 71 59 72 63 73 60 74 62 75
REMARK SMILES IDX 61 76 48 77 49 78 53 79 50 80 52 81 51 82
REMARK H PARENT 68 50 46 61
REMARK Flexibility Score: inf
ROOT
ATOM      1  C   UNL A   1      34.036  29.154  26.984  1.00  0.00     0.202 C 
ENDROOT
BRANCH   1   2
ATOM      2  C   UNL A   1      33.651  28.796  25.549  1.00  0.00     0.261 C 
BRANCH   2   3
ATOM      3  O   UNL A   1      33.922  27.408  25.296  1.00  0.00    -0.460 OA
BRANCH   3   4
ATOM      4  C   UNL A   1      33.630  27.010  24.046  1.00  0.00     0.338 C 
ATOM      5  O   UNL A   1      33.915  27.621  23.025  1.00  0.00    -0.246 OA
BRANCH   4   6
ATOM      6  C   UNL A   1      33.003  25.671  24.030  1.00  0.00     0.087 C 
ATOM      7  C   UNL A   1      33.111  20.634  24.023  1.00  0.00     0.059 A 
ATOM      8  C   UNL A   1      32.196  21.596  23.537  1.00  0.00     0.074 A 
ATOM      9  C   UNL A   1      34.260  21.120  24.683  1.00  0.00     0.065 A 
ATOM     10  C   UNL A   1      32.404  22.968  23.736  1.00  0.00     0.130 A 
ATOM     11  C   UNL A   1      34.388  22.466  25.007  1.00  0.00     0.034 A 
ATOM     12  Cl  UNL A   1      35.648  20.138  25.011  1.00  0.00    -0.082 Cl
ATOM     13  C   UNL A   1      33.462  23.385  24.529  1.00  0.00     0.019 A 
ATOM     14  O   UNL A   1      31.575  23.837  23.083  1.00  0.00    -0.475 OA
ATOM     15  C   UNL A   1      33.723  24.787  24.731  1.00  0.00     0.027 C 
ATOM     16  C   UNL A   1      31.807  25.286  23.192  1.00  0.00     0.316 C 
BRANCH   7  17
ATOM     17  N   UNL A   1      32.893  19.263  23.837  1.00  0.00    -0.373 N 
ATOM     18  C   UNL A   1      32.217  18.883  22.600  1.00  0.00     0.143 C 
BRANCH  17  19
ATOM     19  C   UNL A   1      32.636  18.423  25.032  1.00  0.00     0.119 C 
BRANCH  19  20
ATOM     20  C   UNL A   1      33.548  17.180  25.120  1.00  0.00     0.002 C 
ATOM     21  C   UNL A   1      32.760  15.899  25.418  1.00  0.00     0.009 C 
ATOM     22  C   UNL A   1      34.366  16.968  23.843  1.00  0.00     0.009 C 
ENDBRANCH  19  20
ENDBRANCH  17  19
ENDBRANCH   7  17
BRANCH  16  23
ATOM     23  C   UNL A   1      30.459  25.893  23.637  1.00  0.00     0.430 C 
ATOM     24  F   UNL A   1      29.442  25.008  23.518  1.00  0.00    -0.167 F 
ATOM     25  F   UNL A   1      30.462  26.340  24.911  1.00  0.00    -0.167 F 
ATOM     26  F   UNL A   1      30.141  26.971  22.872  1.00  0.00    -0.167 F 
ENDBRANCH  16  23
ENDBRANCH   4   6
ENDBRANCH   3   4
ENDBRANCH   2   3
ENDBRANCH   1   2
BRANCH   1  27
ATOM     27  O   UNL A   1      33.320  30.237  27.579  1.00  0.00    -0.374 OA
BRANCH  27  28
ATOM     28  C   UNL A   1      32.232  30.794  26.838  1.00  0.00     0.202 C 
BRANCH  28  29
ATOM     29  C   UNL A   1      31.778  32.210  27.216  1.00  0.00     0.261 C 
BRANCH  29  30
ATOM     30  O   UNL A   1      32.816  33.180  26.984  1.00  0.00    -0.460 OA
BRANCH  30  31
ATOM     31  C   UNL A   1      33.118  33.973  28.040  1.00  0.00     0.338 C 
ATOM     32  O   UNL A   1      32.404  34.817  28.558  1.00  0.00    -0.246 OA
BRANCH  31  33
ATOM     33  C   UNL A   1      34.379  33.502  28.649  1.00  0.00     0.060 A 
ATOM     34  C   UNL A   1      34.398  32.797  29.853  1.00  0.00     0.016 A 
ATOM     35  C   UNL A   1      35.577  33.792  27.979  1.00  0.00     0.016 A 
ATOM     36  C   UNL A   1      35.621  32.356  30.369  1.00  0.00     0.010 A 
ATOM     37  C   UNL A   1      36.795  33.354  28.496  1.00  0.00     0.010 A 
ATOM     38  C   UNL A   1      36.825  32.615  29.686  1.00  0.00    -0.014 A 
BRANCH  38  39
ATOM     39  C   UNL A   1      38.096  32.004  30.146  1.00  0.00     0.031 A 
ATOM     40  C   UNL A   1      38.552  30.665  29.653  1.00  0.00     0.074 A 
ATOM     41  C   UNL A   1      38.838  32.674  31.048  1.00  0.00     0.049 A 
ATOM     42  N   UNL A   1      39.668  30.033  29.918  1.00  0.00    -0.248 NA
ATOM     43  C   UNL A   1      37.643  29.939  28.755  1.00  0.00     0.031 C 
ATOM     44  C   UNL A   1      38.482  33.974  31.619  1.00  0.00     0.029 A 
ATOM     45  N   UNL A   1      40.041  32.367  31.632  1.00  0.00    -0.354 N 
ATOM     46  C   UNL A   1      39.611  28.849  29.196  1.00  0.00     0.074 A 
ATOM     47  C   UNL A   1      38.323  28.821  28.535  1.00  0.00     0.031 C 
ATOM     48  C   UNL A   1      39.467  34.374  32.437  1.00  0.00     0.029 A 
ATOM     49  C   UNL A   1      40.501  33.343  32.482  1.00  0.00     0.049 A 
ATOM     50  H   UNL A   1      40.527  31.529  31.458  1.00  0.00     0.167 HD
ATOM     51  C   UNL A   1      40.559  27.887  29.079  1.00  0.00     0.031 A 
ATOM     52  C   UNL A   1      41.631  33.412  33.213  1.00  0.00     0.031 A 
ATOM     53  C   UNL A   1      41.823  27.903  29.774  1.00  0.00     0.049 A 
ATOM     54  C   UNL A   1      42.636  32.299  33.126  1.00  0.00     0.074 A 
ATOM     55  C   UNL A   1      42.850  26.976  29.707  1.00  0.00     0.029 A 
ATOM     56  N   UNL A   1      42.229  28.880  30.670  1.00  0.00    -0.354 N 
ATOM     57  N   UNL A   1      42.599  31.214  32.391  1.00  0.00    -0.248 NA
ATOM     58  C   UNL A   1      43.843  32.422  33.955  1.00  0.00     0.031 C 
ATOM     59  C   UNL A   1      43.840  27.351  30.616  1.00  0.00     0.029 A 
ATOM     60  C   UNL A   1      43.474  28.561  31.186  1.00  0.00     0.049 A 
ATOM     61  H   UNL A   1      41.708  29.683  30.905  1.00  0.00     0.167 HD
ATOM     62  C   UNL A   1      43.786  30.538  32.647  1.00  0.00     0.074 A 
ATOM     63  C   UNL A   1      44.527  31.342  33.596  1.00  0.00     0.031 C 
ATOM     64  C   UNL A   1      44.214  29.359  32.135  1.00  0.00     0.031 A 
BRANCH  51  65
ATOM     65  C   UNL A   1      40.279  26.731  28.153  1.00  0.00    -0.014 A 
ATOM     66  C   UNL A   1      39.544  25.623  28.606  1.00  0.00     0.009 A 
ATOM     67  C   UNL A   1      40.830  26.695  26.862  1.00  0.00     0.009 A 
ATOM     68  C   UNL A   1      39.378  24.501  27.791  1.00  0.00     0.001 A 
ATOM     69  C   UNL A   1      40.631  25.586  26.037  1.00  0.00     0.001 A 
ATOM     70  C   UNL A   1      39.916  24.486  26.505  1.00  0.00     0.000 A 
ENDBRANCH  51  65
BRANCH  52  71
ATOM     71  C   UNL A   1      41.875  34.623  34.040  1.00  0.00    -0.014 A 
ATOM     72  C   UNL A   1      42.562  35.728  33.507  1.00  0.00     0.009 A 
ATOM     73  C   UNL A   1      41.510  34.643  35.394  1.00  0.00     0.009 A 
ATOM     74  C   UNL A   1      42.916  36.804  34.323  1.00  0.00     0.001 A 
ATOM     75  C   UNL A   1      41.836  35.736  36.200  1.00  0.00     0.001 A 
ATOM     76  C   UNL A   1      42.553  36.808  35.668  1.00  0.00     0.000 A 
ENDBRANCH  52  71
BRANCH  64  77
ATOM     77  C   UNL A   1      45.561  28.839  32.567  1.00  0.00    -0.014 A 
ATOM     78  C   UNL A   1      45.664  28.049  33.724  1.00  0.00     0.009 A 
ATOM     79  C   UNL A   1      46.738  29.236  31.914  1.00  0.00     0.009 A 
ATOM     80  C   UNL A   1      46.912  27.693  34.237  1.00  0.00     0.001 A 
ATOM     81  C   UNL A   1      47.986  28.850  32.410  1.00  0.00     0.001 A 
ATOM     82  C   UNL A   1      48.072  28.092  33.578  1.00  0.00     0.000 A 
ENDBRANCH  64  77
ENDBRANCH  38  39
ENDBRANCH  31  33
ENDBRANCH  30  31
ENDBRANCH  29  30
ENDBRANCH  28  29
ENDBRANCH  27  28
ENDBRANCH   1  27
TORSDOF 18
ENDMDL
