MODEL 1
REMARK VINA RESULT:     -11.4      0.000      0.000
REMARK SMILES C/C(=N\Nc1nc(-c2ccc(Cl)cc2)cs1)c1nnn(-c2ccc(C(=O)OCCOCCOC(=O)c3ccc(-c4c5nc(c(-c6ccccc6)c6ccc([nH]6)c(-c6ccccc6)c6nc(c(-c7ccccc7)c7ccc4[nH]7)C=C6)C=C5)cc3)cc2)c1C
REMARK SMILES IDX 28 1 27 2 25 3 26 4 24 5 21 6 22 7 85 8 23 9 84 10 20 11
REMARK SMILES IDX 17 12 18 13 86 14 19 15 87 16 2 17 1 18 3 19 4 20 5 22 6 23
REMARK SMILES IDX 16 24 7 25 15 26 8 27 9 28 14 29 10 30 13 31 11 32 12 33
REMARK SMILES IDX 29 34 30 35 31 36 32 37 33 38 34 39 35 40 36 41 37 42 83 43
REMARK SMILES IDX 38 44 82 45 39 46 40 47 41 48 76 49 42 50 81 51 75 52 77 53
REMARK SMILES IDX 43 54 80 55 74 56 73 57 44 59 66 60 51 61 65 62 52 63 55 64
REMARK SMILES IDX 64 65 78 66 53 67 54 68 63 70 79 71 56 72 45 73 46 74 50 75
REMARK SMILES IDX 47 76 49 77 48 78 67 79 68 80 72 81 69 82 71 83 70 84 57 85
REMARK SMILES IDX 58 86 62 87 59 88 61 89 60 90
REMARK H PARENT 4 21 77 58 55 69
REMARK Flexibility Score: inf
ROOT
ATOM      1  C   UNL A   1      42.565  18.541  25.833  1.00  0.00     0.261 C 
ENDROOT
BRANCH   1   2
ATOM      2  O   UNL A   1      41.862  19.771  25.618  1.00  0.00    -0.460 OA
BRANCH   2   3
ATOM      3  C   UNL A   1      40.896  20.027  26.533  1.00  0.00     0.338 C 
ATOM      4  O   UNL A   1      41.019  20.054  27.745  1.00  0.00    -0.246 OA
BRANCH   3   5
ATOM      5  C   UNL A   1      39.645  20.419  25.853  1.00  0.00     0.060 A 
ATOM      6  C   UNL A   1      37.080  21.042  25.045  1.00  0.00     0.067 A 
ATOM      7  C   UNL A   1      37.819  22.013  25.725  1.00  0.00     0.029 A 
ATOM      8  C   UNL A   1      37.673  19.845  24.617  1.00  0.00     0.029 A 
ATOM      9  C   UNL A   1      39.104  21.683  26.149  1.00  0.00     0.018 A 
ATOM     10  C   UNL A   1      38.964  19.529  25.023  1.00  0.00     0.018 A 
BRANCH   6  11
ATOM     11  N   UNL A   1      35.673  21.123  25.077  1.00  0.00    -0.217 N 
ATOM     12  C   UNL A   1      33.619  21.651  24.578  1.00  0.00     0.132 A 
ATOM     13  N   UNL A   1      33.616  20.465  25.261  1.00  0.00    -0.128 NA
ATOM     14  C   UNL A   1      34.923  22.096  24.439  1.00  0.00     0.071 A 
ATOM     15  N   UNL A   1      34.880  20.105  25.468  1.00  0.00    -0.061 NA
ATOM     16  C   UNL A   1      35.489  23.218  23.640  1.00  0.00     0.069 C 
BRANCH  12  17
ATOM     17  C   UNL A   1      32.445  22.269  23.972  1.00  0.00     0.087 C 
ATOM     18  C   UNL A   1      32.264  21.988  22.501  1.00  0.00     0.071 C 
ATOM     19  N   UNL A   1      31.756  23.057  24.747  1.00  0.00    -0.176 NA
BRANCH  19  20
ATOM     20  N   UNL A   1      30.739  23.883  24.326  1.00  0.00    -0.252 N 
ATOM     21  H   UNL A   1      30.042  23.432  23.796  1.00  0.00     0.193 HD
BRANCH  20  22
ATOM     22  C   UNL A   1      30.527  25.211  24.513  1.00  0.00     0.203 A 
ATOM     23  N   UNL A   1      29.738  25.982  23.802  1.00  0.00    -0.219 NA
ATOM     24  S   UNL A   1      31.387  26.061  25.752  1.00  0.00    -0.103 S 
ATOM     25  C   UNL A   1      30.030  27.312  24.017  1.00  0.00     0.084 A 
ATOM     26  C   UNL A   1      30.912  27.555  25.047  1.00  0.00     0.097 A 
BRANCH  25  27
ATOM     27  C   UNL A   1      29.473  28.325  23.136  1.00  0.00     0.001 A 
ATOM     28  C   UNL A   1      30.337  29.177  22.437  1.00  0.00     0.012 A 
ATOM     29  C   UNL A   1      28.089  28.533  23.055  1.00  0.00     0.012 A 
ATOM     30  C   UNL A   1      29.827  30.203  21.638  1.00  0.00     0.021 A 
ATOM     31  C   UNL A   1      27.578  29.567  22.264  1.00  0.00     0.021 A 
ATOM     32  C   UNL A   1      28.449  30.393  21.554  1.00  0.00     0.041 A 
ATOM     33  Cl  UNL A   1      27.818  31.662  20.580  1.00  0.00    -0.084 Cl
ENDBRANCH  25  27
ENDBRANCH  20  22
ENDBRANCH  19  20
ENDBRANCH  12  17
ENDBRANCH   6  11
ENDBRANCH   3   5
ENDBRANCH   2   3
ENDBRANCH   1   2
BRANCH   1  34
ATOM     34  C   UNL A   1      44.040  18.766  26.163  1.00  0.00     0.202 C 
BRANCH  34  35
ATOM     35  O   UNL A   1      44.955  19.052  25.107  1.00  0.00    -0.374 OA
BRANCH  35  36
ATOM     36  C   UNL A   1      46.089  19.886  25.318  1.00  0.00     0.202 C 
BRANCH  36  37
ATOM     37  C   UNL A   1      46.094  21.294  24.742  1.00  0.00     0.261 C 
BRANCH  37  38
ATOM     38  O   UNL A   1      45.047  22.085  25.272  1.00  0.00    -0.460 OA
BRANCH  38  39
ATOM     39  C   UNL A   1      44.211  22.576  24.325  1.00  0.00     0.338 C 
ATOM     40  O   UNL A   1      44.191  22.306  23.142  1.00  0.00    -0.246 OA
BRANCH  39  41
ATOM     41  C   UNL A   1      43.398  23.634  24.937  1.00  0.00     0.060 A 
ATOM     42  C   UNL A   1      44.007  24.889  24.986  1.00  0.00     0.016 A 
ATOM     43  C   UNL A   1      42.369  23.259  25.810  1.00  0.00     0.016 A 
ATOM     44  C   UNL A   1      43.839  25.630  26.128  1.00  0.00     0.010 A 
ATOM     45  C   UNL A   1      42.228  23.979  26.962  1.00  0.00     0.010 A 
ATOM     46  C   UNL A   1      43.055  25.085  27.146  1.00  0.00    -0.014 A 
BRANCH  46  47
ATOM     47  C   UNL A   1      43.063  25.729  28.436  1.00  0.00     0.031 A 
ATOM     48  C   UNL A   1      41.879  26.586  28.626  1.00  0.00     0.074 A 
ATOM     49  C   UNL A   1      43.989  25.436  29.367  1.00  0.00     0.049 A 
ATOM     50  N   UNL A   1      41.835  27.875  28.636  1.00  0.00    -0.248 NA
ATOM     51  C   UNL A   1      40.560  25.930  28.563  1.00  0.00     0.031 C 
ATOM     52  C   UNL A   1      45.017  24.391  29.348  1.00  0.00     0.029 A 
ATOM     53  N   UNL A   1      44.122  25.965  30.607  1.00  0.00    -0.354 N 
ATOM     54  C   UNL A   1      40.489  28.183  28.790  1.00  0.00     0.074 A 
ATOM     55  C   UNL A   1      39.757  26.987  28.472  1.00  0.00     0.031 C 
ATOM     56  C   UNL A   1      45.486  24.208  30.608  1.00  0.00     0.029 A 
ATOM     57  C   UNL A   1      44.886  25.205  31.481  1.00  0.00     0.049 A 
ATOM     58  H   UNL A   1      43.709  26.820  30.868  1.00  0.00     0.167 HD
ATOM     59  C   UNL A   1      40.094  29.280  29.490  1.00  0.00     0.031 A 
ATOM     60  C   UNL A   1      44.934  25.353  32.829  1.00  0.00     0.031 A 
ATOM     61  C   UNL A   1      41.176  30.216  29.660  1.00  0.00     0.049 A 
ATOM     62  C   UNL A   1      44.391  26.701  33.142  1.00  0.00     0.074 A 
ATOM     63  C   UNL A   1      41.967  30.953  28.803  1.00  0.00     0.029 A 
ATOM     64  N   UNL A   1      41.847  30.176  30.860  1.00  0.00    -0.354 N 
ATOM     65  N   UNL A   1      44.989  27.806  32.800  1.00  0.00    -0.248 NA
ATOM     66  C   UNL A   1      42.959  26.819  33.382  1.00  0.00     0.031 C 
ATOM     67  C   UNL A   1      43.269  30.925  29.385  1.00  0.00     0.029 A 
ATOM     68  C   UNL A   1      43.192  30.233  30.595  1.00  0.00     0.049 A 
ATOM     69  H   UNL A   1      41.436  30.116  31.752  1.00  0.00     0.167 HD
ATOM     70  C   UNL A   1      43.973  28.642  32.359  1.00  0.00     0.074 A 
ATOM     71  C   UNL A   1      42.735  28.013  32.825  1.00  0.00     0.031 C 
ATOM     72  C   UNL A   1      44.206  29.593  31.405  1.00  0.00     0.031 A 
BRANCH  59  73
ATOM     73  C   UNL A   1      38.885  29.268  30.396  1.00  0.00    -0.014 A 
ATOM     74  C   UNL A   1      37.903  30.251  30.209  1.00  0.00     0.009 A 
ATOM     75  C   UNL A   1      38.801  28.513  31.585  1.00  0.00     0.009 A 
ATOM     76  C   UNL A   1      36.943  30.516  31.193  1.00  0.00     0.001 A 
ATOM     77  C   UNL A   1      37.821  28.744  32.551  1.00  0.00     0.001 A 
ATOM     78  C   UNL A   1      36.910  29.769  32.367  1.00  0.00     0.000 A 
ENDBRANCH  59  73
BRANCH  60  79
ATOM     79  C   UNL A   1      45.080  24.305  33.865  1.00  0.00    -0.014 A 
ATOM     80  C   UNL A   1      44.070  23.352  34.082  1.00  0.00     0.009 A 
ATOM     81  C   UNL A   1      46.332  24.071  34.463  1.00  0.00     0.009 A 
ATOM     82  C   UNL A   1      44.317  22.197  34.842  1.00  0.00     0.001 A 
ATOM     83  C   UNL A   1      46.579  22.921  35.220  1.00  0.00     0.001 A 
ATOM     84  C   UNL A   1      45.575  21.977  35.400  1.00  0.00     0.000 A 
ENDBRANCH  60  79
BRANCH  72  85
ATOM     85  C   UNL A   1      45.640  29.822  30.984  1.00  0.00    -0.014 A 
ATOM     86  C   UNL A   1      46.376  30.963  31.354  1.00  0.00     0.009 A 
ATOM     87  C   UNL A   1      46.316  28.779  30.337  1.00  0.00     0.009 A 
ATOM     88  C   UNL A   1      47.743  31.063  31.065  1.00  0.00     0.001 A 
ATOM     89  C   UNL A   1      47.684  28.871  30.065  1.00  0.00     0.001 A 
ATOM     90  C   UNL A   1      48.396  30.012  30.426  1.00  0.00     0.000 A 
ENDBRANCH  72  85
ENDBRANCH  46  47
ENDBRANCH  39  41
ENDBRANCH  38  39
ENDBRANCH  37  38
ENDBRANCH  36  37
ENDBRANCH  35  36
ENDBRANCH  34  35
ENDBRANCH   1  34
TORSDOF 19
ENDMDL
MODEL 2
REMARK VINA RESULT:     -10.8      5.094     10.207
REMARK SMILES C/C(=N\Nc1nc(-c2ccc(Cl)cc2)cs1)c1nnn(-c2ccc(C(=O)OCCOCCOC(=O)c3ccc(-c4c5nc(c(-c6ccccc6)c6ccc([nH]6)c(-c6ccccc6)c6nc(c(-c7ccccc7)c7ccc4[nH]7)C=C6)C=C5)cc3)cc2)c1C
REMARK SMILES IDX 28 1 27 2 25 3 26 4 24 5 21 6 22 7 85 8 23 9 84 10 20 11
REMARK SMILES IDX 17 12 18 13 86 14 19 15 87 16 2 17 1 18 3 19 4 20 5 22 6 23
REMARK SMILES IDX 16 24 7 25 15 26 8 27 9 28 14 29 10 30 13 31 11 32 12 33
REMARK SMILES IDX 29 34 30 35 31 36 32 37 33 38 34 39 35 40 36 41 37 42 83 43
REMARK SMILES IDX 38 44 82 45 39 46 40 47 41 48 76 49 42 50 81 51 75 52 77 53
REMARK SMILES IDX 43 54 80 55 74 56 73 57 44 59 66 60 51 61 65 62 52 63 55 64
REMARK SMILES IDX 64 65 78 66 53 67 54 68 63 70 79 71 56 72 45 73 46 74 50 75
REMARK SMILES IDX 47 76 49 77 48 78 67 79 68 80 72 81 69 82 71 83 70 84 57 85
REMARK SMILES IDX 58 86 62 87 59 88 61 89 60 90
REMARK H PARENT 4 21 77 58 55 69
REMARK Flexibility Score: inf
ROOT
ATOM      1  C   UNL A   1      33.751  35.578  32.531  1.00  0.00     0.261 C 
ENDROOT
BRANCH   1   2
ATOM      2  O   UNL A   1      32.851  35.128  31.512  1.00  0.00    -0.460 OA
BRANCH   2   3
ATOM      3  C   UNL A   1      33.102  35.639  30.282  1.00  0.00     0.338 C 
ATOM      4  O   UNL A   1      33.024  36.807  29.941  1.00  0.00    -0.246 OA
BRANCH   3   5
ATOM      5  C   UNL A   1      33.637  34.587  29.394  1.00  0.00     0.060 A 
ATOM      6  C   UNL A   1      34.291  32.308  27.981  1.00  0.00     0.067 A 
ATOM      7  C   UNL A   1      33.195  33.063  27.558  1.00  0.00     0.029 A 
ATOM      8  C   UNL A   1      35.155  32.778  28.982  1.00  0.00     0.029 A 
ATOM      9  C   UNL A   1      32.858  34.199  28.290  1.00  0.00     0.018 A 
ATOM     10  C   UNL A   1      34.827  33.925  29.695  1.00  0.00     0.018 A 
BRANCH   6  11
ATOM     11  N   UNL A   1      34.341  30.943  27.636  1.00  0.00    -0.217 N 
ATOM     12  C   UNL A   1      33.908  29.032  26.680  1.00  0.00     0.132 A 
ATOM     13  N   UNL A   1      35.198  29.015  27.138  1.00  0.00    -0.128 NA
ATOM     14  C   UNL A   1      33.333  30.256  26.979  1.00  0.00     0.071 A 
ATOM     15  N   UNL A   1      35.480  30.220  27.626  1.00  0.00    -0.061 NA
ATOM     16  C   UNL A   1      32.036  30.852  26.556  1.00  0.00     0.069 C 
BRANCH  12  17
ATOM     17  C   UNL A   1      33.291  27.981  25.880  1.00  0.00     0.087 C 
ATOM     18  C   UNL A   1      33.679  27.978  24.422  1.00  0.00     0.071 C 
ATOM     19  N   UNL A   1      32.418  27.238  26.497  1.00  0.00    -0.176 NA
BRANCH  19  20
ATOM     20  N   UNL A   1      31.585  26.328  25.886  1.00  0.00    -0.252 N 
ATOM     21  H   UNL A   1      30.641  26.604  25.849  1.00  0.00     0.193 HD
BRANCH  20  22
ATOM     22  C   UNL A   1      31.837  25.118  25.325  1.00  0.00     0.203 A 
ATOM     23  N   UNL A   1      32.826  24.311  25.627  1.00  0.00    -0.219 NA
ATOM     24  S   UNL A   1      30.839  24.534  24.037  1.00  0.00    -0.103 S 
ATOM     25  C   UNL A   1      33.003  23.362  24.642  1.00  0.00     0.084 A 
ATOM     26  C   UNL A   1      32.014  23.330  23.683  1.00  0.00     0.097 A 
BRANCH  25  27
ATOM     27  C   UNL A   1      34.204  22.544  24.633  1.00  0.00     0.001 A 
ATOM     28  C   UNL A   1      34.099  21.168  24.872  1.00  0.00     0.012 A 
ATOM     29  C   UNL A   1      35.473  23.123  24.493  1.00  0.00     0.012 A 
ATOM     30  C   UNL A   1      35.245  20.372  24.937  1.00  0.00     0.021 A 
ATOM     31  C   UNL A   1      36.621  22.327  24.570  1.00  0.00     0.021 A 
ATOM     32  C   UNL A   1      36.501  20.954  24.784  1.00  0.00     0.041 A 
ATOM     33  Cl  UNL A   1      37.914  19.978  24.875  1.00  0.00    -0.084 Cl
ENDBRANCH  25  27
ENDBRANCH  20  22
ENDBRANCH  19  20
ENDBRANCH  12  17
ENDBRANCH   6  11
ENDBRANCH   3   5
ENDBRANCH   2   3
ENDBRANCH   1   2
BRANCH   1  34
ATOM     34  C   UNL A   1      34.355  34.420  33.325  1.00  0.00     0.202 C 
BRANCH  34  35
ATOM     35  O   UNL A   1      35.655  33.943  32.982  1.00  0.00    -0.374 OA
BRANCH  35  36
ATOM     36  C   UNL A   1      36.092  32.645  33.370  1.00  0.00     0.202 C 
BRANCH  36  37
ATOM     37  C   UNL A   1      35.803  31.461  32.460  1.00  0.00     0.261 C 
BRANCH  37  38
ATOM     38  O   UNL A   1      36.986  30.926  31.898  1.00  0.00    -0.460 OA
BRANCH  38  39
ATOM     39  C   UNL A   1      37.188  29.622  32.207  1.00  0.00     0.338 C 
ATOM     40  O   UNL A   1      37.038  29.084  33.285  1.00  0.00    -0.246 OA
BRANCH  39  41
ATOM     41  C   UNL A   1      37.776  28.960  31.036  1.00  0.00     0.060 A 
ATOM     42  C   UNL A   1      38.394  27.736  31.303  1.00  0.00     0.016 A 
ATOM     43  C   UNL A   1      38.103  29.745  29.924  1.00  0.00     0.016 A 
ATOM     44  C   UNL A   1      39.579  27.474  30.663  1.00  0.00     0.010 A 
ATOM     45  C   UNL A   1      39.300  29.501  29.312  1.00  0.00     0.010 A 
ATOM     46  C   UNL A   1      40.068  28.437  29.779  1.00  0.00    -0.014 A 
BRANCH  46  47
ATOM     47  C   UNL A   1      41.415  28.294  29.287  1.00  0.00     0.031 A 
ATOM     48  C   UNL A   1      41.639  26.966  28.688  1.00  0.00     0.074 A 
ATOM     49  C   UNL A   1      42.276  29.327  29.273  1.00  0.00     0.049 A 
ATOM     50  N   UNL A   1      42.337  25.994  29.169  1.00  0.00    -0.248 NA
ATOM     51  C   UNL A   1      40.797  26.600  27.534  1.00  0.00     0.031 C 
ATOM     52  C   UNL A   1      42.030  30.738  29.586  1.00  0.00     0.029 A 
ATOM     53  N   UNL A   1      43.564  29.334  28.852  1.00  0.00    -0.354 N 
ATOM     54  C   UNL A   1      42.181  24.958  28.257  1.00  0.00     0.074 A 
ATOM     55  C   UNL A   1      41.040  25.294  27.449  1.00  0.00     0.031 C 
ATOM     56  C   UNL A   1      43.054  31.484  29.102  1.00  0.00     0.029 A 
ATOM     57  C   UNL A   1      44.073  30.594  28.570  1.00  0.00     0.049 A 
ATOM     58  H   UNL A   1      44.096  28.512  28.752  1.00  0.00     0.167 HD
ATOM     59  C   UNL A   1      43.189  24.079  28.010  1.00  0.00     0.031 A 
ATOM     60  C   UNL A   1      45.207  30.854  27.871  1.00  0.00     0.031 A 
ATOM     61  C   UNL A   1      44.188  24.117  29.046  1.00  0.00     0.049 A 
ATOM     62  C   UNL A   1      46.006  29.601  27.848  1.00  0.00     0.074 A 
ATOM     63  C   UNL A   1      44.193  23.859  30.402  1.00  0.00     0.029 A 
ATOM     64  N   UNL A   1      45.311  24.872  28.798  1.00  0.00    -0.354 N 
ATOM     65  N   UNL A   1      46.545  29.080  28.914  1.00  0.00    -0.248 NA
ATOM     66  C   UNL A   1      45.783  28.672  26.748  1.00  0.00     0.031 C 
ATOM     67  C   UNL A   1      45.054  24.847  30.964  1.00  0.00     0.029 A 
ATOM     68  C   UNL A   1      45.582  25.610  29.921  1.00  0.00     0.049 A 
ATOM     69  H   UNL A   1      45.829  24.881  27.961  1.00  0.00     0.167 HD
ATOM     70  C   UNL A   1      46.327  27.715  28.795  1.00  0.00     0.074 A 
ATOM     71  C   UNL A   1      45.934  27.514  27.399  1.00  0.00     0.031 C 
ATOM     72  C   UNL A   1      46.190  26.924  29.901  1.00  0.00     0.031 A 
BRANCH  59  73
ATOM     73  C   UNL A   1      43.480  23.554  26.624  1.00  0.00    -0.014 A 
ATOM     74  C   UNL A   1      43.422  22.169  26.411  1.00  0.00     0.009 A 
ATOM     75  C   UNL A   1      44.069  24.324  25.599  1.00  0.00     0.009 A 
ATOM     76  C   UNL A   1      43.996  21.584  25.275  1.00  0.00     0.001 A 
ATOM     77  C   UNL A   1      44.604  23.751  24.445  1.00  0.00     0.001 A 
ATOM     78  C   UNL A   1      44.594  22.374  24.299  1.00  0.00     0.000 A 
ENDBRANCH  59  73
BRANCH  60  79
ATOM     79  C   UNL A   1      45.479  31.976  26.944  1.00  0.00    -0.014 A 
ATOM     80  C   UNL A   1      44.500  32.430  26.045  1.00  0.00     0.009 A 
ATOM     81  C   UNL A   1      46.616  32.786  27.128  1.00  0.00     0.009 A 
ATOM     82  C   UNL A   1      44.641  33.659  25.380  1.00  0.00     0.001 A 
ATOM     83  C   UNL A   1      46.758  34.011  26.467  1.00  0.00     0.001 A 
ATOM     84  C   UNL A   1      45.764  34.453  25.602  1.00  0.00     0.000 A 
ENDBRANCH  60  79
BRANCH  72  85
ATOM     85  C   UNL A   1      46.463  27.554  31.248  1.00  0.00    -0.014 A 
ATOM     86  C   UNL A   1      47.710  27.468  31.897  1.00  0.00     0.009 A 
ATOM     87  C   UNL A   1      45.488  28.397  31.797  1.00  0.00     0.009 A 
ATOM     88  C   UNL A   1      47.961  28.189  33.071  1.00  0.00     0.001 A 
ATOM     89  C   UNL A   1      45.746  29.131  32.958  1.00  0.00     0.001 A 
ATOM     90  C   UNL A   1      46.979  29.025  33.596  1.00  0.00     0.000 A 
ENDBRANCH  72  85
ENDBRANCH  46  47
ENDBRANCH  39  41
ENDBRANCH  38  39
ENDBRANCH  37  38
ENDBRANCH  36  37
ENDBRANCH  35  36
ENDBRANCH  34  35
ENDBRANCH   1  34
TORSDOF 19
ENDMDL
MODEL 3
REMARK VINA RESULT:     -10.8      7.982     12.501
REMARK SMILES C/C(=N\Nc1nc(-c2ccc(Cl)cc2)cs1)c1nnn(-c2ccc(C(=O)OCCOCCOC(=O)c3ccc(-c4c5nc(c(-c6ccccc6)c6ccc([nH]6)c(-c6ccccc6)c6nc(c(-c7ccccc7)c7ccc4[nH]7)C=C6)C=C5)cc3)cc2)c1C
REMARK SMILES IDX 28 1 27 2 25 3 26 4 24 5 21 6 22 7 85 8 23 9 84 10 20 11
REMARK SMILES IDX 17 12 18 13 86 14 19 15 87 16 2 17 1 18 3 19 4 20 5 22 6 23
REMARK SMILES IDX 16 24 7 25 15 26 8 27 9 28 14 29 10 30 13 31 11 32 12 33
REMARK SMILES IDX 29 34 30 35 31 36 32 37 33 38 34 39 35 40 36 41 37 42 83 43
REMARK SMILES IDX 38 44 82 45 39 46 40 47 41 48 76 49 42 50 81 51 75 52 77 53
REMARK SMILES IDX 43 54 80 55 74 56 73 57 44 59 66 60 51 61 65 62 52 63 55 64
REMARK SMILES IDX 64 65 78 66 53 67 54 68 63 70 79 71 56 72 45 73 46 74 50 75
REMARK SMILES IDX 47 76 49 77 48 78 67 79 68 80 72 81 69 82 71 83 70 84 57 85
REMARK SMILES IDX 58 86 62 87 59 88 61 89 60 90
REMARK H PARENT 4 21 77 58 55 69
REMARK Flexibility Score: inf
ROOT
ATOM      1  C   UNL A   1      43.910  30.868  26.972  1.00  0.00     0.261 C 
ENDROOT
BRANCH   1   2
ATOM      2  O   UNL A   1      44.747  32.006  27.219  1.00  0.00    -0.460 OA
BRANCH   2   3
ATOM      3  C   UNL A   1      44.644  32.984  26.287  1.00  0.00     0.338 C 
ATOM      4  O   UNL A   1      44.921  32.905  25.103  1.00  0.00    -0.246 OA
BRANCH   3   5
ATOM      5  C   UNL A   1      44.001  34.177  26.873  1.00  0.00     0.060 A 
ATOM      6  C   UNL A   1      43.045  36.667  27.583  1.00  0.00     0.067 A 
ATOM      7  C   UNL A   1      42.382  35.962  26.577  1.00  0.00     0.029 A 
ATOM      8  C   UNL A   1      44.057  36.066  28.347  1.00  0.00     0.029 A 
ATOM      9  C   UNL A   1      42.884  34.716  26.209  1.00  0.00     0.018 A 
ATOM     10  C   UNL A   1      44.540  34.813  27.991  1.00  0.00     0.018 A 
BRANCH   6  11
ATOM     11  N   UNL A   1      42.924  38.071  27.612  1.00  0.00    -0.217 N 
ATOM     12  C   UNL A   1      43.207  40.183  27.153  1.00  0.00     0.132 A 
ATOM     13  N   UNL A   1      41.969  40.015  27.712  1.00  0.00    -0.128 NA
ATOM     14  C   UNL A   1      43.843  38.955  27.070  1.00  0.00     0.071 A 
ATOM     15  N   UNL A   1      41.771  38.712  27.892  1.00  0.00    -0.061 NA
ATOM     16  C   UNL A   1      45.108  38.557  26.393  1.00  0.00     0.069 C 
BRANCH  12  17
ATOM     17  C   UNL A   1      43.713  41.435  26.603  1.00  0.00     0.087 C 
ATOM     18  C   UNL A   1      44.629  42.210  27.518  1.00  0.00     0.071 C 
ATOM     19  N   UNL A   1      43.243  41.773  25.436  1.00  0.00    -0.176 NA
BRANCH  19  20
ATOM     20  N   UNL A   1      43.435  42.995  24.833  1.00  0.00    -0.252 N 
ATOM     21  H   UNL A   1      43.102  43.761  25.354  1.00  0.00     0.193 HD
BRANCH  20  22
ATOM     22  C   UNL A   1      44.005  43.330  23.647  1.00  0.00     0.203 A 
ATOM     23  N   UNL A   1      43.403  43.890  22.625  1.00  0.00    -0.219 NA
ATOM     24  S   UNL A   1      45.670  42.963  23.350  1.00  0.00    -0.103 S 
ATOM     25  C   UNL A   1      44.158  43.758  21.479  1.00  0.00     0.084 A 
ATOM     26  C   UNL A   1      45.431  43.268  21.675  1.00  0.00     0.097 A 
BRANCH  25  27
ATOM     27  C   UNL A   1      43.568  44.058  20.186  1.00  0.00     0.001 A 
ATOM     28  C   UNL A   1      44.331  44.729  19.222  1.00  0.00     0.012 A 
ATOM     29  C   UNL A   1      42.219  43.780  19.924  1.00  0.00     0.012 A 
ATOM     30  C   UNL A   1      43.764  45.090  17.997  1.00  0.00     0.021 A 
ATOM     31  C   UNL A   1      41.649  44.152  18.701  1.00  0.00     0.021 A 
ATOM     32  C   UNL A   1      42.426  44.798  17.741  1.00  0.00     0.041 A 
ATOM     33  Cl  UNL A   1      41.724  45.251  16.238  1.00  0.00    -0.084 Cl
ENDBRANCH  25  27
ENDBRANCH  20  22
ENDBRANCH  19  20
ENDBRANCH  12  17
ENDBRANCH   6  11
ENDBRANCH   3   5
ENDBRANCH   2   3
ENDBRANCH   1   2
BRANCH   1  34
ATOM     34  C   UNL A   1      44.692  29.556  27.006  1.00  0.00     0.202 C 
BRANCH  34  35
ATOM     35  O   UNL A   1      44.542  28.627  25.933  1.00  0.00    -0.374 OA
BRANCH  35  36
ATOM     36  C   UNL A   1      44.506  27.224  26.171  1.00  0.00     0.202 C 
BRANCH  36  37
ATOM     37  C   UNL A   1      43.656  26.686  27.312  1.00  0.00     0.261 C 
BRANCH  37  38
ATOM     38  O   UNL A   1      42.782  25.660  26.881  1.00  0.00    -0.460 OA
BRANCH  38  39
ATOM     39  C   UNL A   1      41.850  26.083  25.992  1.00  0.00     0.338 C 
ATOM     40  O   UNL A   1      41.870  25.965  24.784  1.00  0.00    -0.246 OA
BRANCH  39  41
ATOM     41  C   UNL A   1      40.845  26.866  26.721  1.00  0.00     0.060 A 
ATOM     42  C   UNL A   1      40.883  28.241  26.481  1.00  0.00     0.016 A 
ATOM     43  C   UNL A   1      40.293  26.318  27.886  1.00  0.00     0.016 A 
ATOM     44  C   UNL A   1      40.700  29.075  27.554  1.00  0.00     0.010 A 
ATOM     45  C   UNL A   1      40.145  27.146  28.962  1.00  0.00     0.010 A 
ATOM     46  C   UNL A   1      40.468  28.491  28.800  1.00  0.00    -0.014 A 
BRANCH  46  47
ATOM     47  C   UNL A   1      40.515  29.332  29.970  1.00  0.00     0.031 A 
ATOM     48  C   UNL A   1      39.344  30.224  30.049  1.00  0.00     0.074 A 
ATOM     49  C   UNL A   1      41.461  29.178  30.914  1.00  0.00     0.049 A 
ATOM     50  N   UNL A   1      39.313  31.499  29.854  1.00  0.00    -0.248 NA
ATOM     51  C   UNL A   1      38.018  29.585  30.122  1.00  0.00     0.031 C 
ATOM     52  C   UNL A   1      42.478  28.130  31.038  1.00  0.00     0.029 A 
ATOM     53  N   UNL A   1      41.631  29.896  32.050  1.00  0.00    -0.354 N 
ATOM     54  C   UNL A   1      37.975  31.846  29.989  1.00  0.00     0.074 A 
ATOM     55  C   UNL A   1      37.223  30.625  29.882  1.00  0.00     0.031 C 
ATOM     56  C   UNL A   1      42.977  28.143  32.300  1.00  0.00     0.029 A 
ATOM     57  C   UNL A   1      42.409  29.274  33.016  1.00  0.00     0.049 A 
ATOM     58  H   UNL A   1      41.233  30.787  32.181  1.00  0.00     0.167 HD
ATOM     59  C   UNL A   1      37.608  33.046  30.514  1.00  0.00     0.031 A 
ATOM     60  C   UNL A   1      42.492  29.635  34.322  1.00  0.00     0.031 A 
ATOM     61  C   UNL A   1      38.702  33.982  30.507  1.00  0.00     0.049 A 
ATOM     62  C   UNL A   1      41.971  31.023  34.428  1.00  0.00     0.074 A 
ATOM     63  C   UNL A   1      39.479  34.562  29.525  1.00  0.00     0.029 A 
ATOM     64  N   UNL A   1      39.404  34.124  31.682  1.00  0.00    -0.354 N 
ATOM     65  N   UNL A   1      42.571  32.051  33.901  1.00  0.00    -0.248 NA
ATOM     66  C   UNL A   1      40.546  31.196  34.680  1.00  0.00     0.031 C 
ATOM     67  C   UNL A   1      40.795  34.609  30.073  1.00  0.00     0.029 A 
ATOM     68  C   UNL A   1      40.742  34.120  31.380  1.00  0.00     0.049 A 
ATOM     69  H   UNL A   1      39.015  34.212  32.582  1.00  0.00     0.167 HD
ATOM     70  C   UNL A   1      41.552  32.820  33.356  1.00  0.00     0.074 A 
ATOM     71  C   UNL A   1      40.320  32.290  33.945  1.00  0.00     0.031 C 
ATOM     72  C   UNL A   1      41.770  33.604  32.258  1.00  0.00     0.031 A 
BRANCH  59  73
ATOM     73  C   UNL A   1      36.423  33.194  31.438  1.00  0.00    -0.014 A 
ATOM     74  C   UNL A   1      35.382  34.053  31.055  1.00  0.00     0.009 A 
ATOM     75  C   UNL A   1      36.408  32.746  32.776  1.00  0.00     0.009 A 
ATOM     76  C   UNL A   1      34.432  34.502  31.980  1.00  0.00     0.001 A 
ATOM     77  C   UNL A   1      35.438  33.156  33.692  1.00  0.00     0.001 A 
ATOM     78  C   UNL A   1      34.467  34.060  33.299  1.00  0.00     0.000 A 
ENDBRANCH  59  73
BRANCH  60  79
ATOM     79  C   UNL A   1      42.654  28.763  35.508  1.00  0.00    -0.014 A 
ATOM     80  C   UNL A   1      41.730  27.743  35.792  1.00  0.00     0.009 A 
ATOM     81  C   UNL A   1      43.870  28.754  36.219  1.00  0.00     0.009 A 
ATOM     82  C   UNL A   1      42.026  26.740  36.729  1.00  0.00     0.001 A 
ATOM     83  C   UNL A   1      44.165  27.754  37.151  1.00  0.00     0.001 A 
ATOM     84  C   UNL A   1      43.248  26.739  37.398  1.00  0.00     0.000 A 
ENDBRANCH  60  79
BRANCH  72  85
ATOM     85  C   UNL A   1      43.194  33.743  31.771  1.00  0.00    -0.014 A 
ATOM     86  C   UNL A   1      44.020  34.830  32.116  1.00  0.00     0.009 A 
ATOM     87  C   UNL A   1      43.771  32.665  31.086  1.00  0.00     0.009 A 
ATOM     88  C   UNL A   1      45.376  34.844  31.764  1.00  0.00     0.001 A 
ATOM     89  C   UNL A   1      45.128  32.670  30.752  1.00  0.00     0.001 A 
ATOM     90  C   UNL A   1      45.929  33.759  31.087  1.00  0.00     0.000 A 
ENDBRANCH  72  85
ENDBRANCH  46  47
ENDBRANCH  39  41
ENDBRANCH  38  39
ENDBRANCH  37  38
ENDBRANCH  36  37
ENDBRANCH  35  36
ENDBRANCH  34  35
ENDBRANCH   1  34
TORSDOF 19
ENDMDL
