MODEL 1
REMARK VINA RESULT:      -9.6      0.000      0.000
REMARK SMILES O=C(Cc1ccn(-c2ccccc2F)c1)OCCOCCOC(=O)c1ccc(-c2c3nc(c(-c4ccccc4)c4ccc([nH]4)c(-c4ccccc4)c4nc(c(-c5ccccc5)c5ccc2[nH]5)C=C4)C=C3)cc1
REMARK SMILES IDX 19 1 18 2 17 3 16 4 2 5 1 6 3 7 4 8 5 9 15 10 6 11 7 12 8 13
REMARK SMILES IDX 9 14 13 15 10 16 12 17 14 18 11 19 20 20 21 21 22 22 23 23
REMARK SMILES IDX 24 24 25 25 26 26 72 27 27 28 71 29 28 30 29 31 30 32 65 33
REMARK SMILES IDX 31 34 70 35 64 36 66 37 32 38 69 39 63 40 62 41 33 43 55 44
REMARK SMILES IDX 40 45 54 46 41 47 44 48 53 49 67 50 42 51 43 52 52 54 68 55
REMARK SMILES IDX 45 56 34 57 35 58 39 59 36 60 38 61 37 62 56 63 57 64 61 65
REMARK SMILES IDX 58 66 60 67 59 68 46 69 47 70 51 71 48 72 50 73 49 74
REMARK H PARENT 66 42 44 53
REMARK Flexibility Score: inf
ROOT
ATOM      1  O   UNL A   1      33.411  35.101  28.060  1.00  0.00    -0.374 OA
ENDROOT
BRANCH   1   2
ATOM      2  C   UNL A   1      33.704  35.774  29.284  1.00  0.00     0.202 C 
BRANCH   2   3
ATOM      3  C   UNL A   1      32.555  36.006  30.253  1.00  0.00     0.261 C 
BRANCH   3   4
ATOM      4  O   UNL A   1      32.790  37.049  31.215  1.00  0.00    -0.463 OA
BRANCH   4   5
ATOM      5  C   UNL A   1      32.863  36.900  32.560  1.00  0.00     0.310 C 
ATOM      6  O   UNL A   1      31.831  37.010  33.227  1.00  0.00    -0.252 OA
BRANCH   5   7
ATOM      7  C   UNL A   1      34.205  36.721  33.251  1.00  0.00     0.159 C 
BRANCH   7   8
ATOM      8  C   UNL A   1      34.743  35.344  33.193  1.00  0.00    -0.019 A 
ATOM      9  C   UNL A   1      34.020  34.118  33.167  1.00  0.00     0.024 A 
ATOM     10  C   UNL A   1      36.078  35.017  33.230  1.00  0.00     0.095 A 
ATOM     11  C   UNL A   1      34.947  33.094  33.185  1.00  0.00     0.091 A 
ATOM     12  N   UNL A   1      36.194  33.656  33.305  1.00  0.00    -0.321 N 
BRANCH  12  13
ATOM     13  C   UNL A   1      37.433  33.020  33.360  1.00  0.00     0.081 A 
ATOM     14  C   UNL A   1      38.544  33.770  33.742  1.00  0.00     0.030 A 
ATOM     15  C   UNL A   1      37.474  31.625  33.333  1.00  0.00     0.147 A 
ATOM     16  C   UNL A   1      39.697  33.095  34.135  1.00  0.00     0.002 A 
ATOM     17  C   UNL A   1      38.636  30.959  33.686  1.00  0.00     0.041 A 
ATOM     18  F   UNL A   1      36.393  30.912  32.980  1.00  0.00    -0.205 F 
ATOM     19  C   UNL A   1      39.744  31.696  34.110  1.00  0.00     0.003 A 
ENDBRANCH  12  13
ENDBRANCH   7   8
ENDBRANCH   5   7
ENDBRANCH   4   5
ENDBRANCH   3   4
ENDBRANCH   2   3
ENDBRANCH   1   2
BRANCH   1  20
ATOM     20  C   UNL A   1      33.541  33.681  28.001  1.00  0.00     0.202 C 
BRANCH  20  21
ATOM     21  C   UNL A   1      34.858  33.055  28.403  1.00  0.00     0.261 C 
BRANCH  21  22
ATOM     22  O   UNL A   1      34.651  31.822  29.062  1.00  0.00    -0.460 OA
BRANCH  22  23
ATOM     23  C   UNL A   1      34.547  30.801  28.187  1.00  0.00     0.338 C 
ATOM     24  O   UNL A   1      33.610  30.508  27.471  1.00  0.00    -0.246 OA
BRANCH  23  25
ATOM     25  C   UNL A   1      35.713  29.953  28.342  1.00  0.00     0.060 A 
ATOM     26  C   UNL A   1      36.030  29.591  29.652  1.00  0.00     0.016 A 
ATOM     27  C   UNL A   1      36.626  29.915  27.280  1.00  0.00     0.016 A 
ATOM     28  C   UNL A   1      37.347  29.362  29.943  1.00  0.00     0.010 A 
ATOM     29  C   UNL A   1      37.947  29.740  27.579  1.00  0.00     0.010 A 
ATOM     30  C   UNL A   1      38.288  29.499  28.913  1.00  0.00    -0.014 A 
BRANCH  30  31
ATOM     31  C   UNL A   1      39.667  29.178  29.228  1.00  0.00     0.031 A 
ATOM     32  C   UNL A   1      40.371  30.435  29.744  1.00  0.00     0.074 A 
ATOM     33  C   UNL A   1      40.032  27.892  28.950  1.00  0.00     0.049 A 
ATOM     34  N   UNL A   1      41.633  30.699  29.794  1.00  0.00    -0.248 NA
ATOM     35  C   UNL A   1      39.563  31.595  30.235  1.00  0.00     0.031 C 
ATOM     36  C   UNL A   1      39.122  26.824  28.459  1.00  0.00     0.029 A 
ATOM     37  N   UNL A   1      41.226  27.218  29.006  1.00  0.00    -0.354 N 
ATOM     38  C   UNL A   1      41.783  31.928  30.463  1.00  0.00     0.074 A 
ATOM     39  C   UNL A   1      40.477  32.476  30.638  1.00  0.00     0.031 C 
ATOM     40  C   UNL A   1      39.808  25.693  28.180  1.00  0.00     0.029 A 
ATOM     41  C   UNL A   1      41.211  25.901  28.480  1.00  0.00     0.049 A 
ATOM     42  H   UNL A   1      42.040  27.623  29.384  1.00  0.00     0.167 HD
ATOM     43  C   UNL A   1      42.979  32.357  30.945  1.00  0.00     0.031 A 
ATOM     44  C   UNL A   1      42.271  25.068  28.264  1.00  0.00     0.031 A 
ATOM     45  C   UNL A   1      44.024  31.496  30.505  1.00  0.00     0.049 A 
ATOM     46  C   UNL A   1      43.431  25.757  28.848  1.00  0.00     0.074 A 
ATOM     47  C   UNL A   1      44.568  31.295  29.262  1.00  0.00     0.029 A 
ATOM     48  N   UNL A   1      44.298  30.410  31.301  1.00  0.00    -0.354 N 
ATOM     49  N   UNL A   1      43.651  25.887  30.120  1.00  0.00    -0.248 NA
ATOM     50  C   UNL A   1      44.372  26.440  27.954  1.00  0.00     0.031 C 
ATOM     51  C   UNL A   1      44.709  29.892  29.197  1.00  0.00     0.029 A 
ATOM     52  C   UNL A   1      44.479  29.338  30.461  1.00  0.00     0.049 A 
ATOM     53  H   UNL A   1      44.353  30.402  32.284  1.00  0.00     0.167 HD
ATOM     54  C   UNL A   1      44.491  26.971  30.158  1.00  0.00     0.074 A 
ATOM     55  C   UNL A   1      45.139  27.033  28.865  1.00  0.00     0.031 C 
ATOM     56  C   UNL A   1      44.207  28.018  30.977  1.00  0.00     0.031 A 
BRANCH  43  57
ATOM     57  C   UNL A   1      43.284  33.381  31.988  1.00  0.00    -0.014 A 
ATOM     58  C   UNL A   1      43.677  32.910  33.260  1.00  0.00     0.009 A 
ATOM     59  C   UNL A   1      42.889  34.721  31.885  1.00  0.00     0.009 A 
ATOM     60  C   UNL A   1      43.564  33.704  34.400  1.00  0.00     0.001 A 
ATOM     61  C   UNL A   1      42.811  35.530  33.026  1.00  0.00     0.001 A 
ATOM     62  C   UNL A   1      43.110  35.010  34.284  1.00  0.00     0.000 A 
ENDBRANCH  43  57
BRANCH  44  63
ATOM     63  C   UNL A   1      42.568  23.769  27.561  1.00  0.00    -0.014 A 
ATOM     64  C   UNL A   1      42.513  22.491  28.119  1.00  0.00     0.009 A 
ATOM     65  C   UNL A   1      42.870  23.816  26.169  1.00  0.00     0.009 A 
ATOM     66  C   UNL A   1      42.661  21.340  27.312  1.00  0.00     0.001 A 
ATOM     67  C   UNL A   1      42.970  22.684  25.358  1.00  0.00     0.001 A 
ATOM     68  C   UNL A   1      42.853  21.436  25.932  1.00  0.00     0.000 A 
ENDBRANCH  44  63
BRANCH  56  69
ATOM     69  C   UNL A   1      43.271  27.700  32.136  1.00  0.00    -0.014 A 
ATOM     70  C   UNL A   1      41.974  28.237  32.157  1.00  0.00     0.009 A 
ATOM     71  C   UNL A   1      43.677  26.980  33.274  1.00  0.00     0.009 A 
ATOM     72  C   UNL A   1      41.134  28.082  33.270  1.00  0.00     0.001 A 
ATOM     73  C   UNL A   1      42.843  26.824  34.393  1.00  0.00     0.001 A 
ATOM     74  C   UNL A   1      41.569  27.380  34.390  1.00  0.00     0.000 A 
ENDBRANCH  56  69
ENDBRANCH  30  31
ENDBRANCH  23  25
ENDBRANCH  22  23
ENDBRANCH  21  22
ENDBRANCH  20  21
ENDBRANCH   1  20
TORSDOF 16
ENDMDL
MODEL 2
REMARK VINA RESULT:      -9.5      6.050     10.984
REMARK SMILES O=C(Cc1ccn(-c2ccccc2F)c1)OCCOCCOC(=O)c1ccc(-c2c3nc(c(-c4ccccc4)c4ccc([nH]4)c(-c4ccccc4)c4nc(c(-c5ccccc5)c5ccc2[nH]5)C=C4)C=C3)cc1
REMARK SMILES IDX 19 1 18 2 17 3 16 4 2 5 1 6 3 7 4 8 5 9 15 10 6 11 7 12 8 13
REMARK SMILES IDX 9 14 13 15 10 16 12 17 14 18 11 19 20 20 21 21 22 22 23 23
REMARK SMILES IDX 24 24 25 25 26 26 72 27 27 28 71 29 28 30 29 31 30 32 65 33
REMARK SMILES IDX 31 34 70 35 64 36 66 37 32 38 69 39 63 40 62 41 33 43 55 44
REMARK SMILES IDX 40 45 54 46 41 47 44 48 53 49 67 50 42 51 43 52 52 54 68 55
REMARK SMILES IDX 45 56 34 57 35 58 39 59 36 60 38 61 37 62 56 63 57 64 61 65
REMARK SMILES IDX 58 66 60 67 59 68 46 69 47 70 51 71 48 72 50 73 49 74
REMARK H PARENT 66 42 44 53
REMARK Flexibility Score: inf
ROOT
ATOM      1  O   UNL A   1      37.526  21.110  24.384  1.00  0.00    -0.374 OA
ENDROOT
BRANCH   1   2
ATOM      2  C   UNL A   1      36.443  21.999  24.656  1.00  0.00     0.202 C 
BRANCH   2   3
ATOM      3  C   UNL A   1      36.254  23.185  23.723  1.00  0.00     0.261 C 
BRANCH   3   4
ATOM      4  O   UNL A   1      35.257  22.988  22.706  1.00  0.00    -0.463 OA
BRANCH   4   5
ATOM      5  C   UNL A   1      33.968  23.408  22.751  1.00  0.00     0.310 C 
ATOM      6  O   UNL A   1      33.741  24.618  22.834  1.00  0.00    -0.252 OA
BRANCH   5   7
ATOM      7  C   UNL A   1      32.827  22.408  22.820  1.00  0.00     0.159 C 
BRANCH   7   8
ATOM      8  C   UNL A   1      32.919  21.454  23.948  1.00  0.00    -0.019 A 
ATOM      9  C   UNL A   1      32.918  21.738  25.343  1.00  0.00     0.024 A 
ATOM     10  C   UNL A   1      33.100  20.097  23.820  1.00  0.00     0.095 A 
ATOM     11  C   UNL A   1      33.094  20.539  26.006  1.00  0.00     0.091 A 
ATOM     12  N   UNL A   1      33.285  19.559  25.064  1.00  0.00    -0.321 N 
BRANCH  12  13
ATOM     13  C   UNL A   1      33.498  18.195  25.258  1.00  0.00     0.081 A 
ATOM     14  C   UNL A   1      32.406  17.399  25.600  1.00  0.00     0.030 A 
ATOM     15  C   UNL A   1      34.696  17.634  24.815  1.00  0.00     0.147 A 
ATOM     16  C   UNL A   1      32.522  16.018  25.457  1.00  0.00     0.002 A 
ATOM     17  C   UNL A   1      34.820  16.257  24.713  1.00  0.00     0.041 A 
ATOM     18  F   UNL A   1      35.735  18.411  24.472  1.00  0.00    -0.205 F 
ATOM     19  C   UNL A   1      33.722  15.449  25.014  1.00  0.00     0.003 A 
ENDBRANCH  12  13
ENDBRANCH   7   8
ENDBRANCH   5   7
ENDBRANCH   4   5
ENDBRANCH   3   4
ENDBRANCH   2   3
ENDBRANCH   1   2
BRANCH   1  20
ATOM     20  C   UNL A   1      38.532  20.918  25.379  1.00  0.00     0.202 C 
BRANCH  20  21
ATOM     21  C   UNL A   1      39.242  19.585  25.447  1.00  0.00     0.261 C 
BRANCH  21  22
ATOM     22  O   UNL A   1      40.133  19.541  26.543  1.00  0.00    -0.460 OA
BRANCH  22  23
ATOM     23  C   UNL A   1      41.386  19.233  26.154  1.00  0.00     0.338 C 
ATOM     24  O   UNL A   1      41.816  18.172  25.747  1.00  0.00    -0.246 OA
BRANCH  23  25
ATOM     25  C   UNL A   1      42.244  20.363  26.457  1.00  0.00     0.060 A 
ATOM     26  C   UNL A   1      42.184  20.835  27.768  1.00  0.00     0.016 A 
ATOM     27  C   UNL A   1      42.715  21.120  25.376  1.00  0.00     0.016 A 
ATOM     28  C   UNL A   1      42.429  22.165  27.972  1.00  0.00     0.010 A 
ATOM     29  C   UNL A   1      42.906  22.459  25.569  1.00  0.00     0.010 A 
ATOM     30  C   UNL A   1      42.728  22.964  26.860  1.00  0.00    -0.014 A 
BRANCH  30  31
ATOM     31  C   UNL A   1      43.058  24.354  27.112  1.00  0.00     0.031 A 
ATOM     32  C   UNL A   1      41.765  25.152  27.296  1.00  0.00     0.074 A 
ATOM     33  C   UNL A   1      44.392  24.641  27.071  1.00  0.00     0.049 A 
ATOM     34  N   UNL A   1      41.569  26.422  27.179  1.00  0.00    -0.248 NA
ATOM     35  C   UNL A   1      40.486  24.441  27.609  1.00  0.00     0.031 C 
ATOM     36  C   UNL A   1      45.483  23.648  26.890  1.00  0.00     0.029 A 
ATOM     37  N   UNL A   1      45.108  25.809  27.157  1.00  0.00    -0.354 N 
ATOM     38  C   UNL A   1      40.241  26.683  27.568  1.00  0.00     0.074 A 
ATOM     39  C   UNL A   1      39.596  25.423  27.741  1.00  0.00     0.031 C 
ATOM     40  C   UNL A   1      46.684  24.260  26.788  1.00  0.00     0.029 A 
ATOM     41  C   UNL A   1      46.500  25.692  26.915  1.00  0.00     0.049 A 
ATOM     42  H   UNL A   1      44.682  26.670  27.372  1.00  0.00     0.167 HD
ATOM     43  C   UNL A   1      39.794  27.936  27.845  1.00  0.00     0.031 A 
ATOM     44  C   UNL A   1      47.419  26.693  26.781  1.00  0.00     0.031 A 
ATOM     45  C   UNL A   1      40.783  28.900  27.500  1.00  0.00     0.049 A 
ATOM     46  C   UNL A   1      46.694  27.930  27.108  1.00  0.00     0.074 A 
ATOM     47  C   UNL A   1      41.258  29.311  26.281  1.00  0.00     0.029 A 
ATOM     48  N   UNL A   1      41.702  29.209  28.473  1.00  0.00    -0.354 N 
ATOM     49  N   UNL A   1      46.325  28.278  28.302  1.00  0.00    -0.248 NA
ATOM     50  C   UNL A   1      46.258  28.804  26.013  1.00  0.00     0.031 C 
ATOM     51  C   UNL A   1      42.652  29.392  26.492  1.00  0.00     0.029 A 
ATOM     52  C   UNL A   1      42.929  29.266  27.858  1.00  0.00     0.049 A 
ATOM     53  H   UNL A   1      41.517  29.359  29.428  1.00  0.00     0.167 HD
ATOM     54  C   UNL A   1      45.305  29.159  28.044  1.00  0.00     0.074 A 
ATOM     55  C   UNL A   1      45.539  29.680  26.713  1.00  0.00     0.031 C 
ATOM     56  C   UNL A   1      44.101  28.996  28.654  1.00  0.00     0.031 A 
BRANCH  43  57
ATOM     57  C   UNL A   1      38.601  28.380  28.626  1.00  0.00    -0.014 A 
ATOM     58  C   UNL A   1      37.747  29.327  28.019  1.00  0.00     0.009 A 
ATOM     59  C   UNL A   1      38.470  28.177  30.006  1.00  0.00     0.009 A 
ATOM     60  C   UNL A   1      36.887  30.124  28.773  1.00  0.00     0.001 A 
ATOM     61  C   UNL A   1      37.579  28.953  30.758  1.00  0.00     0.001 A 
ATOM     62  C   UNL A   1      36.819  29.949  30.148  1.00  0.00     0.000 A 
ENDBRANCH  43  57
BRANCH  44  63
ATOM     63  C   UNL A   1      48.846  26.871  26.334  1.00  0.00    -0.014 A 
ATOM     64  C   UNL A   1      49.341  26.689  25.042  1.00  0.00     0.009 A 
ATOM     65  C   UNL A   1      49.794  27.338  27.290  1.00  0.00     0.009 A 
ATOM     66  C   UNL A   1      50.672  27.040  24.718  1.00  0.00     0.001 A 
ATOM     67  C   UNL A   1      51.093  27.731  26.968  1.00  0.00     0.001 A 
ATOM     68  C   UNL A   1      51.532  27.593  25.668  1.00  0.00     0.000 A 
ENDBRANCH  44  63
BRANCH  56  69
ATOM     69  C   UNL A   1      44.128  28.166  29.931  1.00  0.00    -0.014 A 
ATOM     70  C   UNL A   1      44.567  28.742  31.133  1.00  0.00     0.009 A 
ATOM     71  C   UNL A   1      43.843  26.789  29.955  1.00  0.00     0.009 A 
ATOM     72  C   UNL A   1      44.738  27.974  32.294  1.00  0.00     0.001 A 
ATOM     73  C   UNL A   1      44.015  26.013  31.113  1.00  0.00     0.001 A 
ATOM     74  C   UNL A   1      44.466  26.609  32.285  1.00  0.00     0.000 A 
ENDBRANCH  56  69
ENDBRANCH  30  31
ENDBRANCH  23  25
ENDBRANCH  22  23
ENDBRANCH  21  22
ENDBRANCH  20  21
ENDBRANCH   1  20
TORSDOF 16
ENDMDL
MODEL 3
REMARK VINA RESULT:      -9.2      4.374      7.822
REMARK SMILES O=C(Cc1ccn(-c2ccccc2F)c1)OCCOCCOC(=O)c1ccc(-c2c3nc(c(-c4ccccc4)c4ccc([nH]4)c(-c4ccccc4)c4nc(c(-c5ccccc5)c5ccc2[nH]5)C=C4)C=C3)cc1
REMARK SMILES IDX 19 1 18 2 17 3 16 4 2 5 1 6 3 7 4 8 5 9 15 10 6 11 7 12 8 13
REMARK SMILES IDX 9 14 13 15 10 16 12 17 14 18 11 19 20 20 21 21 22 22 23 23
REMARK SMILES IDX 24 24 25 25 26 26 72 27 27 28 71 29 28 30 29 31 30 32 65 33
REMARK SMILES IDX 31 34 70 35 64 36 66 37 32 38 69 39 63 40 62 41 33 43 55 44
REMARK SMILES IDX 40 45 54 46 41 47 44 48 53 49 67 50 42 51 43 52 52 54 68 55
REMARK SMILES IDX 45 56 34 57 35 58 39 59 36 60 38 61 37 62 56 63 57 64 61 65
REMARK SMILES IDX 58 66 60 67 59 68 46 69 47 70 51 71 48 72 50 73 49 74
REMARK H PARENT 66 42 44 53
REMARK Flexibility Score: inf
ROOT
ATOM      1  O   UNL A   1      33.390  30.901  26.489  1.00  0.00    -0.374 OA
ENDROOT
BRANCH   1   2
ATOM      2  C   UNL A   1      32.063  30.392  26.366  1.00  0.00     0.202 C 
BRANCH   2   3
ATOM      3  C   UNL A   1      31.855  29.172  25.482  1.00  0.00     0.261 C 
BRANCH   3   4
ATOM      4  O   UNL A   1      31.063  28.132  26.080  1.00  0.00    -0.463 OA
BRANCH   4   5
ATOM      5  C   UNL A   1      31.449  26.849  26.293  1.00  0.00     0.310 C 
ATOM      6  O   UNL A   1      30.584  25.995  26.497  1.00  0.00    -0.252 OA
BRANCH   5   7
ATOM      7  C   UNL A   1      32.922  26.489  26.401  1.00  0.00     0.159 C 
BRANCH   7   8
ATOM      8  C   UNL A   1      33.332  25.340  25.563  1.00  0.00    -0.019 A 
ATOM      9  C   UNL A   1      33.999  25.361  24.306  1.00  0.00     0.024 A 
ATOM     10  C   UNL A   1      33.056  24.022  25.843  1.00  0.00     0.095 A 
ATOM     11  C   UNL A   1      34.107  24.053  23.876  1.00  0.00     0.091 A 
ATOM     12  N   UNL A   1      33.456  23.255  24.784  1.00  0.00    -0.321 N 
BRANCH  12  13
ATOM     13  C   UNL A   1      33.304  21.870  24.772  1.00  0.00     0.081 A 
ATOM     14  C   UNL A   1      32.383  21.315  23.887  1.00  0.00     0.030 A 
ATOM     15  C   UNL A   1      34.269  21.083  25.405  1.00  0.00     0.147 A 
ATOM     16  C   UNL A   1      32.464  19.951  23.614  1.00  0.00     0.002 A 
ATOM     17  C   UNL A   1      34.319  19.720  25.161  1.00  0.00     0.041 A 
ATOM     18  F   UNL A   1      35.162  21.632  26.243  1.00  0.00    -0.205 F 
ATOM     19  C   UNL A   1      33.429  19.157  24.246  1.00  0.00     0.003 A 
ENDBRANCH  12  13
ENDBRANCH   7   8
ENDBRANCH   5   7
ENDBRANCH   4   5
ENDBRANCH   3   4
ENDBRANCH   2   3
ENDBRANCH   1   2
BRANCH   1  20
ATOM     20  C   UNL A   1      34.138  30.607  27.669  1.00  0.00     0.202 C 
BRANCH  20  21
ATOM     21  C   UNL A   1      35.184  31.596  28.131  1.00  0.00     0.261 C 
BRANCH  21  22
ATOM     22  O   UNL A   1      35.804  31.157  29.323  1.00  0.00    -0.460 OA
BRANCH  22  23
ATOM     23  C   UNL A   1      37.141  31.320  29.279  1.00  0.00     0.338 C 
ATOM     24  O   UNL A   1      37.785  32.346  29.383  1.00  0.00    -0.246 OA
BRANCH  23  25
ATOM     25  C   UNL A   1      37.739  30.052  28.906  1.00  0.00     0.060 A 
ATOM     26  C   UNL A   1      38.304  29.319  29.949  1.00  0.00     0.016 A 
ATOM     27  C   UNL A   1      38.068  29.869  27.556  1.00  0.00     0.016 A 
ATOM     28  C   UNL A   1      39.363  28.506  29.649  1.00  0.00     0.010 A 
ATOM     29  C   UNL A   1      39.159  29.101  27.263  1.00  0.00     0.010 A 
ATOM     30  C   UNL A   1      39.807  28.458  28.321  1.00  0.00    -0.014 A 
BRANCH  30  31
ATOM     31  C   UNL A   1      40.882  27.533  28.015  1.00  0.00     0.031 A 
ATOM     32  C   UNL A   1      42.201  28.303  27.935  1.00  0.00     0.074 A 
ATOM     33  C   UNL A   1      40.485  26.242  27.815  1.00  0.00     0.049 A 
ATOM     34  N   UNL A   1      43.305  27.971  27.354  1.00  0.00    -0.248 NA
ATOM     35  C   UNL A   1      42.310  29.666  28.545  1.00  0.00     0.031 C 
ATOM     36  C   UNL A   1      39.098  25.730  27.979  1.00  0.00     0.029 A 
ATOM     37  N   UNL A   1      41.143  25.103  27.425  1.00  0.00    -0.354 N 
ATOM     38  C   UNL A   1      44.262  28.954  27.668  1.00  0.00     0.074 A 
ATOM     39  C   UNL A   1      43.577  30.015  28.331  1.00  0.00     0.031 C 
ATOM     40  C   UNL A   1      39.013  24.434  27.606  1.00  0.00     0.029 A 
ATOM     41  C   UNL A   1      40.322  23.972  27.189  1.00  0.00     0.049 A 
ATOM     42  H   UNL A   1      42.121  25.074  27.314  1.00  0.00     0.167 HD
ATOM     43  C   UNL A   1      45.594  28.768  27.468  1.00  0.00     0.031 A 
ATOM     44  C   UNL A   1      40.678  22.769  26.649  1.00  0.00     0.031 A 
ATOM     45  C   UNL A   1      45.819  27.563  26.745  1.00  0.00     0.049 A 
ATOM     46  C   UNL A   1      42.141  22.824  26.513  1.00  0.00     0.074 A 
ATOM     47  C   UNL A   1      45.550  27.225  25.443  1.00  0.00     0.029 A 
ATOM     48  N   UNL A   1      45.956  26.418  27.492  1.00  0.00    -0.354 N 
ATOM     49  N   UNL A   1      42.980  22.755  27.500  1.00  0.00    -0.248 NA
ATOM     50  C   UNL A   1      42.719  23.073  25.187  1.00  0.00     0.031 C 
ATOM     51  C   UNL A   1      45.035  25.915  25.552  1.00  0.00     0.029 A 
ATOM     52  C   UNL A   1      45.236  25.437  26.851  1.00  0.00     0.049 A 
ATOM     53  H   UNL A   1      46.469  26.318  28.325  1.00  0.00     0.167 HD
ATOM     54  C   UNL A   1      44.100  23.343  26.969  1.00  0.00     0.074 A 
ATOM     55  C   UNL A   1      43.998  23.196  25.532  1.00  0.00     0.031 C 
ATOM     56  C   UNL A   1      44.720  24.347  27.643  1.00  0.00     0.031 A 
BRANCH  43  57
ATOM     57  C   UNL A   1      46.764  29.473  28.071  1.00  0.00    -0.014 A 
ATOM     58  C   UNL A   1      47.646  30.132  27.186  1.00  0.00     0.009 A 
ATOM     59  C   UNL A   1      47.208  29.242  29.378  1.00  0.00     0.009 A 
ATOM     60  C   UNL A   1      48.956  30.436  27.553  1.00  0.00     0.001 A 
ATOM     61  C   UNL A   1      48.513  29.581  29.758  1.00  0.00     0.001 A 
ATOM     62  C   UNL A   1      49.395  30.141  28.836  1.00  0.00     0.000 A 
ENDBRANCH  43  57
BRANCH  44  63
ATOM     63  C   UNL A   1      40.018  21.526  26.112  1.00  0.00    -0.014 A 
ATOM     64  C   UNL A   1      40.534  20.230  26.149  1.00  0.00     0.009 A 
ATOM     65  C   UNL A   1      38.706  21.646  25.569  1.00  0.00     0.009 A 
ATOM     66  C   UNL A   1      39.747  19.124  25.752  1.00  0.00     0.001 A 
ATOM     67  C   UNL A   1      37.908  20.557  25.220  1.00  0.00     0.001 A 
ATOM     68  C   UNL A   1      38.428  19.284  25.324  1.00  0.00     0.000 A 
ENDBRANCH  44  63
BRANCH  56  69
ATOM     69  C   UNL A   1      44.428  24.404  29.137  1.00  0.00    -0.014 A 
ATOM     70  C   UNL A   1      44.402  25.640  29.800  1.00  0.00     0.009 A 
ATOM     71  C   UNL A   1      44.296  23.254  29.936  1.00  0.00     0.009 A 
ATOM     72  C   UNL A   1      44.276  25.722  31.195  1.00  0.00     0.001 A 
ATOM     73  C   UNL A   1      44.172  23.328  31.333  1.00  0.00     0.001 A 
ATOM     74  C   UNL A   1      44.165  24.567  31.963  1.00  0.00     0.000 A 
ENDBRANCH  56  69
ENDBRANCH  30  31
ENDBRANCH  23  25
ENDBRANCH  22  23
ENDBRANCH  21  22
ENDBRANCH  20  21
ENDBRANCH   1  20
TORSDOF 16
ENDMDL
