MODEL 1
REMARK VINA RESULT:     -10.6      0.000      0.000
REMARK SMILES CC1(C)CCN(C(=O)N[C@H]2COC[C@@]2(C)C(=O)OCCOCCOC(=O)c2ccc(-c3c4nc(c(-c5ccccc5)c5ccc([nH]5)c(-c5ccccc5)c5nc(c(-c6ccccc6)c6ccc3[nH]6)C=C5)C=C4)cc2)C1
REMARK SMILES IDX 21 1 20 2 19 3 18 4 16 5 17 6 14 7 10 8 11 9 12 10 13 11
REMARK SMILES IDX 15 12 9 13 7 14 8 15 6 17 1 18 2 19 3 20 4 21 75 22 5 23
REMARK SMILES IDX 22 24 23 25 24 26 25 27 26 28 27 29 28 30 74 31 29 32 73 33
REMARK SMILES IDX 30 34 31 35 32 36 67 37 33 38 72 39 66 40 68 41 34 42 71 43
REMARK SMILES IDX 65 44 64 45 35 47 57 48 42 49 56 50 43 51 46 52 55 53 69 54
REMARK SMILES IDX 44 55 45 56 54 58 70 59 47 60 36 61 37 62 41 63 38 64 40 65
REMARK SMILES IDX 39 66 58 67 59 68 63 69 60 70 62 71 61 72 48 73 49 74 53 75
REMARK SMILES IDX 50 76 52 77 51 78
REMARK H PARENT 9 16 68 46 46 57
REMARK Flexibility Score: inf
ROOT
ATOM      1  O   UNL A   1      31.688  30.725  26.103  1.00  0.00    -0.374 OA
ENDROOT
BRANCH   1   2
ATOM      2  C   UNL A   1      33.029  30.258  26.269  1.00  0.00     0.202 C 
BRANCH   2   3
ATOM      3  C   UNL A   1      33.258  29.063  27.208  1.00  0.00     0.261 C 
BRANCH   3   4
ATOM      4  O   UNL A   1      33.191  27.798  26.515  1.00  0.00    -0.463 OA
BRANCH   4   5
ATOM      5  C   UNL A   1      32.033  27.089  26.669  1.00  0.00     0.316 C 
ATOM      6  O   UNL A   1      31.063  27.470  27.311  1.00  0.00    -0.251 OA
BRANCH   5   7
ATOM      7  C   UNL A   1      32.053  25.823  25.833  1.00  0.00     0.111 C 
ATOM      8  C   UNL A   1      31.729  26.031  24.357  1.00  0.00     0.129 C 
ATOM      9  C   UNL A   1      32.347  24.792  23.728  1.00  0.00     0.186 C 
ATOM     10  O   UNL A   1      33.461  24.409  24.568  1.00  0.00    -0.378 OA
ATOM     11  C   UNL A   1      33.444  25.231  25.754  1.00  0.00     0.181 C 
ATOM     12  C   UNL A   1      31.142  24.734  26.448  1.00  0.00     0.028 C 
BRANCH   8  13
ATOM     13  N   UNL A   1      32.047  27.356  23.779  1.00  0.00    -0.332 N 
ATOM     14  C   UNL A   1      31.557  28.513  23.317  1.00  0.00     0.317 C 
ATOM     15  O   UNL A   1      32.420  29.253  22.827  1.00  0.00    -0.249 OA
ATOM     16  H   UNL A   1      33.027  27.408  23.700  1.00  0.00     0.165 HD
BRANCH  14  17
ATOM     17  N   UNL A   1      30.271  28.917  23.378  1.00  0.00    -0.324 N 
ATOM     18  C   UNL A   1      28.586  30.513  21.380  1.00  0.00     0.013 C 
ATOM     19  C   UNL A   1      28.353  30.212  22.871  1.00  0.00    -0.016 C 
ATOM     20  C   UNL A   1      27.424  31.267  23.470  1.00  0.00     0.013 C 
ATOM     21  C   UNL A   1      27.898  28.769  23.106  1.00  0.00     0.030 C 
ATOM     22  C   UNL A   1      29.682  30.207  23.617  1.00  0.00     0.127 C 
ATOM     23  C   UNL A   1      29.204  27.966  23.062  1.00  0.00     0.122 C 
ENDBRANCH  14  17
ENDBRANCH   8  13
ENDBRANCH   5   7
ENDBRANCH   4   5
ENDBRANCH   3   4
ENDBRANCH   2   3
ENDBRANCH   1   2
BRANCH   1  24
ATOM     24  C   UNL A   1      31.375  31.974  26.710  1.00  0.00     0.202 C 
BRANCH  24  25
ATOM     25  C   UNL A   1      32.536  32.932  26.999  1.00  0.00     0.261 C 
BRANCH  25  26
ATOM     26  O   UNL A   1      32.218  33.858  28.052  1.00  0.00    -0.460 OA
BRANCH  26  27
ATOM     27  C   UNL A   1      33.256  34.630  28.439  1.00  0.00     0.338 C 
ATOM     28  O   UNL A   1      33.240  35.832  28.684  1.00  0.00    -0.246 OA
BRANCH  27  29
ATOM     29  C   UNL A   1      34.430  33.792  28.722  1.00  0.00     0.060 A 
ATOM     30  C   UNL A   1      34.194  32.545  29.314  1.00  0.00     0.016 A 
ATOM     31  C   UNL A   1      35.732  34.233  28.482  1.00  0.00     0.016 A 
ATOM     32  C   UNL A   1      35.263  31.752  29.717  1.00  0.00     0.010 A 
ATOM     33  C   UNL A   1      36.806  33.440  28.899  1.00  0.00     0.010 A 
ATOM     34  C   UNL A   1      36.574  32.214  29.550  1.00  0.00    -0.014 A 
BRANCH  34  35
ATOM     35  C   UNL A   1      37.686  31.474  30.187  1.00  0.00     0.031 A 
ATOM     36  C   UNL A   1      38.001  31.733  31.634  1.00  0.00     0.074 A 
ATOM     37  C   UNL A   1      38.379  30.551  29.496  1.00  0.00     0.049 A 
ATOM     38  N   UNL A   1      38.936  31.209  32.385  1.00  0.00    -0.248 NA
ATOM     39  C   UNL A   1      37.149  32.712  32.328  1.00  0.00     0.031 C 
ATOM     40  C   UNL A   1      38.133  30.179  28.103  1.00  0.00     0.029 A 
ATOM     41  N   UNL A   1      39.433  29.762  29.877  1.00  0.00    -0.354 N 
ATOM     42  C   UNL A   1      38.792  31.802  33.634  1.00  0.00     0.074 A 
ATOM     43  C   UNL A   1      37.697  32.741  33.533  1.00  0.00     0.031 C 
ATOM     44  C   UNL A   1      39.021  29.237  27.743  1.00  0.00     0.029 A 
ATOM     45  C   UNL A   1      39.915  28.967  28.868  1.00  0.00     0.049 A 
ATOM     46  H   UNL A   1      39.807  29.765  30.788  1.00  0.00     0.167 HD
ATOM     47  C   UNL A   1      39.506  31.579  34.761  1.00  0.00     0.031 A 
ATOM     48  C   UNL A   1      40.975  28.136  28.846  1.00  0.00     0.031 A 
ATOM     49  C   UNL A   1      40.600  30.649  34.855  1.00  0.00     0.049 A 
ATOM     50  C   UNL A   1      41.802  27.965  30.092  1.00  0.00     0.074 A 
ATOM     51  C   UNL A   1      41.370  30.333  35.961  1.00  0.00     0.029 A 
ATOM     52  N   UNL A   1      41.088  29.896  33.799  1.00  0.00    -0.354 N 
ATOM     53  N   UNL A   1      41.635  28.505  31.276  1.00  0.00    -0.248 NA
ATOM     54  C   UNL A   1      42.961  27.066  30.000  1.00  0.00     0.031 C 
ATOM     55  C   UNL A   1      42.363  29.436  35.558  1.00  0.00     0.029 A 
ATOM     56  C   UNL A   1      42.172  29.144  34.216  1.00  0.00     0.049 A 
ATOM     57  H   UNL A   1      40.717  29.896  32.887  1.00  0.00     0.167 HD
ATOM     58  C   UNL A   1      42.652  27.995  32.073  1.00  0.00     0.074 A 
ATOM     59  C   UNL A   1      43.418  27.087  31.243  1.00  0.00     0.031 C 
ATOM     60  C   UNL A   1      42.928  28.253  33.375  1.00  0.00     0.031 A 
BRANCH  47  61
ATOM     61  C   UNL A   1      39.153  32.388  35.979  1.00  0.00    -0.014 A 
ATOM     62  C   UNL A   1      39.721  33.649  36.212  1.00  0.00     0.009 A 
ATOM     63  C   UNL A   1      38.202  31.893  36.885  1.00  0.00     0.009 A 
ATOM     64  C   UNL A   1      39.366  34.386  37.346  1.00  0.00     0.001 A 
ATOM     65  C   UNL A   1      37.828  32.643  38.001  1.00  0.00     0.001 A 
ATOM     66  C   UNL A   1      38.415  33.884  38.235  1.00  0.00     0.000 A 
ENDBRANCH  47  61
BRANCH  48  67
ATOM     67  C   UNL A   1      41.339  27.428  27.592  1.00  0.00    -0.014 A 
ATOM     68  C   UNL A   1      40.839  26.147  27.316  1.00  0.00     0.009 A 
ATOM     69  C   UNL A   1      42.212  28.028  26.669  1.00  0.00     0.009 A 
ATOM     70  C   UNL A   1      41.225  25.472  26.153  1.00  0.00     0.001 A 
ATOM     71  C   UNL A   1      42.571  27.364  25.494  1.00  0.00     0.001 A 
ATOM     72  C   UNL A   1      42.085  26.084  25.243  1.00  0.00     0.000 A 
ENDBRANCH  48  67
BRANCH  60  73
ATOM     73  C   UNL A   1      44.093  27.528  33.988  1.00  0.00    -0.014 A 
ATOM     74  C   UNL A   1      45.377  28.097  34.009  1.00  0.00     0.009 A 
ATOM     75  C   UNL A   1      43.895  26.275  34.589  1.00  0.00     0.009 A 
ATOM     76  C   UNL A   1      46.444  27.409  34.590  1.00  0.00     0.001 A 
ATOM     77  C   UNL A   1      44.957  25.604  35.196  1.00  0.00     0.001 A 
ATOM     78  C   UNL A   1      46.233  26.167  35.188  1.00  0.00     0.000 A 
ENDBRANCH  60  73
ENDBRANCH  34  35
ENDBRANCH  27  29
ENDBRANCH  26  27
ENDBRANCH  25  26
ENDBRANCH  24  25
ENDBRANCH   1  24
TORSDOF 16
ENDMDL
MODEL 2
REMARK VINA RESULT:     -10.4      4.351      9.126
REMARK SMILES CC1(C)CCN(C(=O)N[C@H]2COC[C@@]2(C)C(=O)OCCOCCOC(=O)c2ccc(-c3c4nc(c(-c5ccccc5)c5ccc([nH]5)c(-c5ccccc5)c5nc(c(-c6ccccc6)c6ccc3[nH]6)C=C5)C=C4)cc2)C1
REMARK SMILES IDX 21 1 20 2 19 3 18 4 16 5 17 6 14 7 10 8 11 9 12 10 13 11
REMARK SMILES IDX 15 12 9 13 7 14 8 15 6 17 1 18 2 19 3 20 4 21 75 22 5 23
REMARK SMILES IDX 22 24 23 25 24 26 25 27 26 28 27 29 28 30 74 31 29 32 73 33
REMARK SMILES IDX 30 34 31 35 32 36 67 37 33 38 72 39 66 40 68 41 34 42 71 43
REMARK SMILES IDX 65 44 64 45 35 47 57 48 42 49 56 50 43 51 46 52 55 53 69 54
REMARK SMILES IDX 44 55 45 56 54 58 70 59 47 60 36 61 37 62 41 63 38 64 40 65
REMARK SMILES IDX 39 66 58 67 59 68 63 69 60 70 62 71 61 72 48 73 49 74 53 75
REMARK SMILES IDX 50 76 52 77 51 78
REMARK H PARENT 9 16 68 46 46 57
REMARK Flexibility Score: inf
ROOT
ATOM      1  O   UNL A   1      36.627  20.145  25.010  1.00  0.00    -0.374 OA
ENDROOT
BRANCH   1   2
ATOM      2  C   UNL A   1      36.500  21.533  25.331  1.00  0.00     0.202 C 
BRANCH   2   3
ATOM      3  C   UNL A   1      35.757  22.433  24.331  1.00  0.00     0.261 C 
BRANCH   3   4
ATOM      4  O   UNL A   1      34.413  22.740  24.760  1.00  0.00    -0.463 OA
BRANCH   4   5
ATOM      5  C   UNL A   1      33.448  21.841  24.403  1.00  0.00     0.316 C 
ATOM      6  O   UNL A   1      33.338  20.715  24.871  1.00  0.00    -0.251 OA
BRANCH   5   7
ATOM      7  C   UNL A   1      32.450  22.463  23.445  1.00  0.00     0.111 C 
ATOM      8  C   UNL A   1      31.163  22.956  24.100  1.00  0.00     0.129 C 
ATOM      9  C   UNL A   1      30.662  23.963  23.077  1.00  0.00     0.186 C 
ATOM     10  O   UNL A   1      31.831  24.493  22.407  1.00  0.00    -0.378 OA
ATOM     11  C   UNL A   1      32.985  23.741  22.837  1.00  0.00     0.181 C 
ATOM     12  C   UNL A   1      32.137  21.509  22.268  1.00  0.00     0.028 C 
BRANCH   8  13
ATOM     13  N   UNL A   1      31.245  23.365  25.521  1.00  0.00    -0.332 N 
ATOM     14  C   UNL A   1      31.576  24.337  26.379  1.00  0.00     0.317 C 
ATOM     15  O   UNL A   1      31.504  23.992  27.566  1.00  0.00    -0.249 OA
ATOM     16  H   UNL A   1      30.921  22.605  26.057  1.00  0.00     0.165 HD
BRANCH  14  17
ATOM     17  N   UNL A   1      31.927  25.599  26.059  1.00  0.00    -0.324 N 
ATOM     18  C   UNL A   1      31.729  28.193  27.675  1.00  0.00     0.013 C 
ATOM     19  C   UNL A   1      31.941  27.966  26.168  1.00  0.00    -0.016 C 
ATOM     20  C   UNL A   1      31.496  29.206  25.393  1.00  0.00     0.013 C 
ATOM     21  C   UNL A   1      33.364  27.501  25.846  1.00  0.00     0.030 C 
ATOM     22  C   UNL A   1      31.143  26.753  25.706  1.00  0.00     0.127 C 
ATOM     23  C   UNL A   1      33.332  25.999  26.154  1.00  0.00     0.122 C 
ENDBRANCH  14  17
ENDBRANCH   8  13
ENDBRANCH   5   7
ENDBRANCH   4   5
ENDBRANCH   3   4
ENDBRANCH   2   3
ENDBRANCH   1   2
BRANCH   1  24
ATOM     24  C   UNL A   1      37.954  19.644  24.895  1.00  0.00     0.202 C 
BRANCH  24  25
ATOM     25  C   UNL A   1      39.084  20.483  25.502  1.00  0.00     0.261 C 
BRANCH  25  26
ATOM     26  O   UNL A   1      39.894  19.715  26.409  1.00  0.00    -0.460 OA
BRANCH  26  27
ATOM     27  C   UNL A   1      41.215  19.750  26.131  1.00  0.00     0.338 C 
ATOM     28  O   UNL A   1      41.855  18.954  25.450  1.00  0.00    -0.246 OA
BRANCH  27  29
ATOM     29  C   UNL A   1      41.799  21.010  26.614  1.00  0.00     0.060 A 
ATOM     30  C   UNL A   1      41.675  21.287  27.980  1.00  0.00     0.016 A 
ATOM     31  C   UNL A   1      42.393  21.931  25.748  1.00  0.00     0.016 A 
ATOM     32  C   UNL A   1      42.098  22.513  28.483  1.00  0.00     0.010 A 
ATOM     33  C   UNL A   1      42.807  23.167  26.254  1.00  0.00     0.010 A 
ATOM     34  C   UNL A   1      42.628  23.476  27.615  1.00  0.00    -0.014 A 
BRANCH  34  35
ATOM     35  C   UNL A   1      42.858  24.849  28.116  1.00  0.00     0.031 A 
ATOM     36  C   UNL A   1      44.252  25.262  28.501  1.00  0.00     0.074 A 
ATOM     37  C   UNL A   1      41.845  25.731  28.187  1.00  0.00     0.049 A 
ATOM     38  N   UNL A   1      44.676  26.406  28.974  1.00  0.00    -0.248 NA
ATOM     39  C   UNL A   1      45.308  24.251  28.329  1.00  0.00     0.031 C 
ATOM     40  C   UNL A   1      40.462  25.461  27.795  1.00  0.00     0.029 A 
ATOM     41  N   UNL A   1      41.829  27.032  28.616  1.00  0.00    -0.354 N 
ATOM     42  C   UNL A   1      46.044  26.249  29.166  1.00  0.00     0.074 A 
ATOM     43  C   UNL A   1      46.374  24.894  28.783  1.00  0.00     0.031 C 
ATOM     44  C   UNL A   1      39.727  26.565  28.013  1.00  0.00     0.029 A 
ATOM     45  C   UNL A   1      40.581  27.603  28.588  1.00  0.00     0.049 A 
ATOM     46  H   UNL A   1      42.635  27.512  28.915  1.00  0.00     0.167 HD
ATOM     47  C   UNL A   1      46.942  27.155  29.618  1.00  0.00     0.031 A 
ATOM     48  C   UNL A   1      40.169  28.816  29.004  1.00  0.00     0.031 A 
ATOM     49  C   UNL A   1      46.609  28.500  30.007  1.00  0.00     0.049 A 
ATOM     50  C   UNL A   1      41.176  29.778  29.577  1.00  0.00     0.074 A 
ATOM     51  C   UNL A   1      47.452  29.502  30.453  1.00  0.00     0.029 A 
ATOM     52  N   UNL A   1      45.326  29.025  30.006  1.00  0.00    -0.354 N 
ATOM     53  N   UNL A   1      42.471  29.631  29.722  1.00  0.00    -0.248 NA
ATOM     54  C   UNL A   1      40.663  31.076  30.038  1.00  0.00     0.031 C 
ATOM     55  C   UNL A   1      46.671  30.614  30.782  1.00  0.00     0.029 A 
ATOM     56  C   UNL A   1      45.349  30.326  30.481  1.00  0.00     0.049 A 
ATOM     57  H   UNL A   1      44.519  28.545  29.712  1.00  0.00     0.167 HD
ATOM     58  C   UNL A   1      42.930  30.822  30.270  1.00  0.00     0.074 A 
ATOM     59  C   UNL A   1      41.777  31.688  30.412  1.00  0.00     0.031 C 
ATOM     60  C   UNL A   1      44.192  31.170  30.624  1.00  0.00     0.031 A 
BRANCH  47  61
ATOM     61  C   UNL A   1      48.371  26.707  29.758  1.00  0.00    -0.014 A 
ATOM     62  C   UNL A   1      48.831  26.075  30.924  1.00  0.00     0.009 A 
ATOM     63  C   UNL A   1      49.259  26.885  28.686  1.00  0.00     0.009 A 
ATOM     64  C   UNL A   1      50.161  25.657  31.022  1.00  0.00     0.001 A 
ATOM     65  C   UNL A   1      50.579  26.442  28.777  1.00  0.00     0.001 A 
ATOM     66  C   UNL A   1      51.031  25.836  29.947  1.00  0.00     0.000 A 
ENDBRANCH  47  61
BRANCH  48  67
ATOM     67  C   UNL A   1      38.731  29.180  28.930  1.00  0.00    -0.014 A 
ATOM     68  C   UNL A   1      38.180  29.709  27.754  1.00  0.00     0.009 A 
ATOM     69  C   UNL A   1      37.901  29.016  30.052  1.00  0.00     0.009 A 
ATOM     70  C   UNL A   1      36.836  30.089  27.710  1.00  0.00     0.001 A 
ATOM     71  C   UNL A   1      36.551  29.367  29.996  1.00  0.00     0.001 A 
ATOM     72  C   UNL A   1      36.023  29.913  28.829  1.00  0.00     0.000 A 
ENDBRANCH  48  67
BRANCH  60  73
ATOM     73  C   UNL A   1      44.394  32.552  31.178  1.00  0.00    -0.014 A 
ATOM     74  C   UNL A   1      44.358  32.797  32.560  1.00  0.00     0.009 A 
ATOM     75  C   UNL A   1      44.666  33.618  30.306  1.00  0.00     0.009 A 
ATOM     76  C   UNL A   1      44.557  34.088  33.053  1.00  0.00     0.001 A 
ATOM     77  C   UNL A   1      44.894  34.902  30.804  1.00  0.00     0.001 A 
ATOM     78  C   UNL A   1      44.830  35.137  32.177  1.00  0.00     0.000 A 
ENDBRANCH  60  73
ENDBRANCH  34  35
ENDBRANCH  27  29
ENDBRANCH  26  27
ENDBRANCH  25  26
ENDBRANCH  24  25
ENDBRANCH   1  24
TORSDOF 16
ENDMDL
MODEL 3
REMARK VINA RESULT:     -10.4      1.493      3.426
REMARK SMILES CC1(C)CCN(C(=O)N[C@H]2COC[C@@]2(C)C(=O)OCCOCCOC(=O)c2ccc(-c3c4nc(c(-c5ccccc5)c5ccc([nH]5)c(-c5ccccc5)c5nc(c(-c6ccccc6)c6ccc3[nH]6)C=C5)C=C4)cc2)C1
REMARK SMILES IDX 21 1 20 2 19 3 18 4 16 5 17 6 14 7 10 8 11 9 12 10 13 11
REMARK SMILES IDX 15 12 9 13 7 14 8 15 6 17 1 18 2 19 3 20 4 21 75 22 5 23
REMARK SMILES IDX 22 24 23 25 24 26 25 27 26 28 27 29 28 30 74 31 29 32 73 33
REMARK SMILES IDX 30 34 31 35 32 36 67 37 33 38 72 39 66 40 68 41 34 42 71 43
REMARK SMILES IDX 65 44 64 45 35 47 57 48 42 49 56 50 43 51 46 52 55 53 69 54
REMARK SMILES IDX 44 55 45 56 54 58 70 59 47 60 36 61 37 62 41 63 38 64 40 65
REMARK SMILES IDX 39 66 58 67 59 68 63 69 60 70 62 71 61 72 48 73 49 74 53 75
REMARK SMILES IDX 50 76 52 77 51 78
REMARK H PARENT 9 16 68 46 46 57
REMARK Flexibility Score: inf
ROOT
ATOM      1  O   UNL A   1      31.577  30.978  26.838  1.00  0.00    -0.374 OA
ENDROOT
BRANCH   1   2
ATOM      2  C   UNL A   1      32.932  30.545  26.982  1.00  0.00     0.202 C 
BRANCH   2   3
ATOM      3  C   UNL A   1      33.439  29.449  26.032  1.00  0.00     0.261 C 
BRANCH   3   4
ATOM      4  O   UNL A   1      32.896  29.581  24.700  1.00  0.00    -0.463 OA
BRANCH   4   5
ATOM      5  C   UNL A   1      32.014  28.613  24.311  1.00  0.00     0.316 C 
ATOM      6  O   UNL A   1      30.842  28.558  24.658  1.00  0.00    -0.251 OA
BRANCH   5   7
ATOM      7  C   UNL A   1      32.640  27.683  23.289  1.00  0.00     0.111 C 
ATOM      8  C   UNL A   1      33.159  26.367  23.861  1.00  0.00     0.129 C 
ATOM      9  C   UNL A   1      33.192  25.485  22.623  1.00  0.00     0.186 C 
ATOM     10  O   UNL A   1      32.152  25.968  21.739  1.00  0.00    -0.378 OA
ATOM     11  C   UNL A   1      31.618  27.191  22.287  1.00  0.00     0.181 C 
ATOM     12  C   UNL A   1      33.743  28.404  22.480  1.00  0.00     0.028 C 
BRANCH   8  13
ATOM     13  N   UNL A   1      32.497  25.856  25.082  1.00  0.00    -0.332 N 
ATOM     14  C   UNL A   1      32.141  24.772  25.781  1.00  0.00     0.317 C 
ATOM     15  O   UNL A   1      31.449  25.032  26.775  1.00  0.00    -0.249 OA
ATOM     16  H   UNL A   1      32.191  26.641  25.593  1.00  0.00     0.165 HD
BRANCH  14  17
ATOM     17  N   UNL A   1      32.491  23.498  25.513  1.00  0.00    -0.324 N 
ATOM     18  C   UNL A   1      33.946  21.425  27.236  1.00  0.00     0.013 C 
ATOM     19  C   UNL A   1      33.686  21.462  25.720  1.00  0.00    -0.016 C 
ATOM     20  C   UNL A   1      34.721  20.599  25.000  1.00  0.00     0.013 C 
ATOM     21  C   UNL A   1      32.234  21.123  25.373  1.00  0.00     0.030 C 
ATOM     22  C   UNL A   1      33.764  22.897  25.212  1.00  0.00     0.127 C 
ATOM     23  C   UNL A   1      31.486  22.439  25.617  1.00  0.00     0.122 C 
ENDBRANCH  14  17
ENDBRANCH   8  13
ENDBRANCH   5   7
ENDBRANCH   4   5
ENDBRANCH   3   4
ENDBRANCH   2   3
ENDBRANCH   1   2
BRANCH   1  24
ATOM     24  C   UNL A   1      31.383  32.359  26.556  1.00  0.00     0.202 C 
BRANCH  24  25
ATOM     25  C   UNL A   1      32.506  33.327  26.946  1.00  0.00     0.261 C 
BRANCH  25  26
ATOM     26  O   UNL A   1      32.186  34.068  28.135  1.00  0.00    -0.460 OA
BRANCH  26  27
ATOM     27  C   UNL A   1      33.206  34.815  28.610  1.00  0.00     0.338 C 
ATOM     28  O   UNL A   1      33.175  35.997  28.937  1.00  0.00    -0.246 OA
BRANCH  27  29
ATOM     29  C   UNL A   1      34.374  33.962  28.876  1.00  0.00     0.060 A 
ATOM     30  C   UNL A   1      34.135  32.728  29.493  1.00  0.00     0.016 A 
ATOM     31  C   UNL A   1      35.676  34.379  28.593  1.00  0.00     0.016 A 
ATOM     32  C   UNL A   1      35.202  31.924  29.879  1.00  0.00     0.010 A 
ATOM     33  C   UNL A   1      36.748  33.575  28.993  1.00  0.00     0.010 A 
ATOM     34  C   UNL A   1      36.515  32.363  29.670  1.00  0.00    -0.014 A 
BRANCH  34  35
ATOM     35  C   UNL A   1      37.633  31.615  30.288  1.00  0.00     0.031 A 
ATOM     36  C   UNL A   1      37.981  31.880  31.727  1.00  0.00     0.074 A 
ATOM     37  C   UNL A   1      38.300  30.680  29.589  1.00  0.00     0.049 A 
ATOM     38  N   UNL A   1      38.926  31.351  32.460  1.00  0.00    -0.248 NA
ATOM     39  C   UNL A   1      37.155  32.873  32.431  1.00  0.00     0.031 C 
ATOM     40  C   UNL A   1      38.020  30.301  28.204  1.00  0.00     0.029 A 
ATOM     41  N   UNL A   1      39.353  29.882  29.953  1.00  0.00    -0.354 N 
ATOM     42  C   UNL A   1      38.815  31.954  33.708  1.00  0.00     0.074 A 
ATOM     43  C   UNL A   1      37.729  32.905  33.624  1.00  0.00     0.031 C 
ATOM     44  C   UNL A   1      38.890  29.347  27.832  1.00  0.00     0.029 A 
ATOM     45  C   UNL A   1      39.805  29.075  28.939  1.00  0.00     0.049 A 
ATOM     46  H   UNL A   1      39.747  29.887  30.855  1.00  0.00     0.167 HD
ATOM     47  C   UNL A   1      39.551  31.731  34.822  1.00  0.00     0.031 A 
ATOM     48  C   UNL A   1      40.855  28.232  28.901  1.00  0.00     0.031 A 
ATOM     49  C   UNL A   1      40.637  30.790  34.899  1.00  0.00     0.049 A 
ATOM     50  C   UNL A   1      41.706  28.060  30.130  1.00  0.00     0.074 A 
ATOM     51  C   UNL A   1      41.426  30.472  35.990  1.00  0.00     0.029 A 
ATOM     52  N   UNL A   1      41.093  30.024  33.838  1.00  0.00    -0.354 N 
ATOM     53  N   UNL A   1      41.571  28.610  31.313  1.00  0.00    -0.248 NA
ATOM     54  C   UNL A   1      42.853  27.147  30.019  1.00  0.00     0.031 C 
ATOM     55  C   UNL A   1      42.401  29.561  35.572  1.00  0.00     0.029 A 
ATOM     56  C   UNL A   1      42.178  29.263  34.237  1.00  0.00     0.049 A 
ATOM     57  H   UNL A   1      40.703  30.022  32.933  1.00  0.00     0.167 HD
ATOM     58  C   UNL A   1      42.599  28.094  32.092  1.00  0.00     0.074 A 
ATOM     59  C   UNL A   1      43.337  27.172  31.253  1.00  0.00     0.031 C 
ATOM     60  C   UNL A   1      42.906  28.358  33.386  1.00  0.00     0.031 A 
BRANCH  47  61
ATOM     61  C   UNL A   1      39.233  32.552  36.041  1.00  0.00    -0.014 A 
ATOM     62  C   UNL A   1      38.309  32.112  37.002  1.00  0.00     0.009 A 
ATOM     63  C   UNL A   1      39.902  33.768  36.249  1.00  0.00     0.009 A 
ATOM     64  C   UNL A   1      38.042  32.889  38.132  1.00  0.00     0.001 A 
ATOM     65  C   UNL A   1      39.654  34.528  37.393  1.00  0.00     0.001 A 
ATOM     66  C   UNL A   1      38.718  34.092  38.329  1.00  0.00     0.000 A 
ENDBRANCH  47  61
BRANCH  48  67
ATOM     67  C   UNL A   1      41.185  27.511  27.644  1.00  0.00    -0.014 A 
ATOM     68  C   UNL A   1      40.715  26.210  27.415  1.00  0.00     0.009 A 
ATOM     69  C   UNL A   1      41.994  28.120  26.670  1.00  0.00     0.009 A 
ATOM     70  C   UNL A   1      41.069  25.525  26.248  1.00  0.00     0.001 A 
ATOM     71  C   UNL A   1      42.320  27.446  25.493  1.00  0.00     0.001 A 
ATOM     72  C   UNL A   1      41.866  26.145  25.288  1.00  0.00     0.000 A 
ENDBRANCH  48  67
BRANCH  60  73
ATOM     73  C   UNL A   1      44.076  27.624  33.979  1.00  0.00    -0.014 A 
ATOM     74  C   UNL A   1      43.919  26.360  34.571  1.00  0.00     0.009 A 
ATOM     75  C   UNL A   1      45.360  28.186  33.906  1.00  0.00     0.009 A 
ATOM     76  C   UNL A   1      45.021  25.692  35.109  1.00  0.00     0.001 A 
ATOM     77  C   UNL A   1      46.464  27.502  34.417  1.00  0.00     0.001 A 
ATOM     78  C   UNL A   1      46.292  26.260  35.027  1.00  0.00     0.000 A 
ENDBRANCH  60  73
ENDBRANCH  34  35
ENDBRANCH  27  29
ENDBRANCH  26  27
ENDBRANCH  25  26
ENDBRANCH  24  25
ENDBRANCH   1  24
TORSDOF 16
ENDMDL
