MODEL 1
REMARK VINA RESULT:     -11.5      0.000      0.000
REMARK SMILES O=C(OCCOCCOC(=O)[C@H]1CC2(CC[NH+](C(=O)C3CC3)CC2)CN1C(=O)CCn1cccn1)c1ccc(-c2c3nc(c(-c4ccccc4)c4ccc([nH]4)c(-c4ccccc4)c4nc(c(-c5ccccc5)c5ccc2[nH]5)C=C4)C=C3)cc1
REMARK SMILES IDX 7 1 6 2 5 3 4 4 3 5 2 6 1 7 36 8 37 9 83 10 38 11 82 12
REMARK SMILES IDX 39 13 40 14 41 15 76 16 42 17 81 18 75 19 77 20 43 21 80 22
REMARK SMILES IDX 74 23 73 24 44 26 66 27 51 28 65 29 52 30 55 31 64 32 78 33
REMARK SMILES IDX 53 34 54 35 63 37 79 38 56 39 45 40 46 41 50 42 47 43 49 44
REMARK SMILES IDX 48 45 67 46 68 47 72 48 69 49 71 50 70 51 57 52 58 53 62 54
REMARK SMILES IDX 59 55 61 56 60 57 8 58 9 59 10 60 11 61 12 62 13 63 26 64
REMARK SMILES IDX 14 65 25 66 15 67 24 68 16 69 23 70 17 71 27 73 28 74 29 75
REMARK SMILES IDX 30 76 31 77 32 78 35 79 33 80 34 81 18 82 19 83 20 84 21 85
REMARK SMILES IDX 22 86
REMARK H PARENT 77 25 55 36 17 72
REMARK Flexibility Score: inf
ROOT
ATOM      1  C   UNL A   1      35.142  23.745  24.407  1.00  0.00     0.202 C 
ENDROOT
BRANCH   1   2
ATOM      2  O   UNL A   1      36.507  23.295  24.328  1.00  0.00    -0.374 OA
BRANCH   2   3
ATOM      3  C   UNL A   1      36.781  21.969  24.798  1.00  0.00     0.202 C 
BRANCH   3   4
ATOM      4  C   UNL A   1      38.001  21.617  25.668  1.00  0.00     0.261 C 
BRANCH   4   5
ATOM      5  O   UNL A   1      38.944  22.664  25.852  1.00  0.00    -0.460 OA
BRANCH   5   6
ATOM      6  C   UNL A   1      39.683  22.848  26.965  1.00  0.00     0.338 C 
ATOM      7  O   UNL A   1      40.019  21.865  27.624  1.00  0.00    -0.246 OA
BRANCH   6   8
ATOM      8  C   UNL A   1      40.186  24.188  27.370  1.00  0.00     0.060 A 
ATOM      9  C   UNL A   1      41.431  24.485  27.936  1.00  0.00     0.016 A 
ATOM     10  C   UNL A   1      39.251  25.220  27.212  1.00  0.00     0.016 A 
ATOM     11  C   UNL A   1      41.638  25.679  28.576  1.00  0.00     0.010 A 
ATOM     12  C   UNL A   1      39.471  26.445  27.792  1.00  0.00     0.010 A 
ATOM     13  C   UNL A   1      40.612  26.610  28.561  1.00  0.00    -0.014 A 
BRANCH  13  14
ATOM     14  C   UNL A   1      40.805  27.804  29.337  1.00  0.00     0.031 A 
ATOM     15  C   UNL A   1      41.895  28.661  28.811  1.00  0.00     0.074 A 
ATOM     16  C   UNL A   1      40.011  28.045  30.395  1.00  0.00     0.049 A 
ATOM     17  N   UNL A   1      43.013  28.948  29.385  1.00  0.00    -0.248 NA
ATOM     18  C   UNL A   1      41.821  29.080  27.399  1.00  0.00     0.031 C 
ATOM     19  C   UNL A   1      38.804  27.329  30.826  1.00  0.00     0.029 A 
ATOM     20  N   UNL A   1      40.064  29.072  31.268  1.00  0.00    -0.354 N 
ATOM     21  C   UNL A   1      43.698  29.764  28.493  1.00  0.00     0.074 A 
ATOM     22  C   UNL A   1      43.004  29.671  27.234  1.00  0.00     0.031 C 
ATOM     23  C   UNL A   1      38.103  28.113  31.678  1.00  0.00     0.029 A 
ATOM     24  C   UNL A   1      38.891  29.296  31.971  1.00  0.00     0.049 A 
ATOM     25  H   UNL A   1      40.873  29.620  31.395  1.00  0.00     0.167 HD
ATOM     26  C   UNL A   1      44.621  30.659  28.934  1.00  0.00     0.031 A 
ATOM     27  C   UNL A   1      38.591  30.418  32.673  1.00  0.00     0.031 A 
ATOM     28  C   UNL A   1      45.097  30.320  30.250  1.00  0.00     0.049 A 
ATOM     29  C   UNL A   1      39.875  31.120  32.932  1.00  0.00     0.074 A 
ATOM     30  C   UNL A   1      45.787  29.243  30.771  1.00  0.00     0.029 A 
ATOM     31  N   UNL A   1      44.483  30.934  31.316  1.00  0.00    -0.354 N 
ATOM     32  N   UNL A   1      40.806  30.622  33.697  1.00  0.00    -0.248 NA
ATOM     33  C   UNL A   1      40.331  32.082  31.936  1.00  0.00     0.031 C 
ATOM     34  C   UNL A   1      45.157  28.979  32.021  1.00  0.00     0.029 A 
ATOM     35  C   UNL A   1      44.194  29.966  32.245  1.00  0.00     0.049 A 
ATOM     36  H   UNL A   1      44.285  31.895  31.397  1.00  0.00     0.167 HD
ATOM     37  C   UNL A   1      41.992  30.856  33.013  1.00  0.00     0.074 A 
ATOM     38  C   UNL A   1      41.643  31.820  31.965  1.00  0.00     0.031 C 
ATOM     39  C   UNL A   1      43.067  30.025  33.151  1.00  0.00     0.031 A 
BRANCH  26  40
ATOM     40  C   UNL A   1      44.730  32.049  28.365  1.00  0.00    -0.014 A 
ATOM     41  C   UNL A   1      43.753  32.998  28.700  1.00  0.00     0.009 A 
ATOM     42  C   UNL A   1      45.585  32.367  27.290  1.00  0.00     0.009 A 
ATOM     43  C   UNL A   1      43.597  34.172  27.952  1.00  0.00     0.001 A 
ATOM     44  C   UNL A   1      45.454  33.552  26.563  1.00  0.00     0.001 A 
ATOM     45  C   UNL A   1      44.440  34.443  26.879  1.00  0.00     0.000 A 
ENDBRANCH  26  40
BRANCH  27  46
ATOM     46  C   UNL A   1      37.278  31.099  32.767  1.00  0.00    -0.014 A 
ATOM     47  C   UNL A   1      37.025  32.038  33.778  1.00  0.00     0.009 A 
ATOM     48  C   UNL A   1      36.368  31.033  31.695  1.00  0.00     0.009 A 
ATOM     49  C   UNL A   1      35.918  32.899  33.702  1.00  0.00     0.001 A 
ATOM     50  C   UNL A   1      35.266  31.893  31.618  1.00  0.00     0.001 A 
ATOM     51  C   UNL A   1      35.048  32.836  32.616  1.00  0.00     0.000 A 
ENDBRANCH  27  46
BRANCH  39  52
ATOM     52  C   UNL A   1      42.993  28.935  34.197  1.00  0.00    -0.014 A 
ATOM     53  C   UNL A   1      43.460  29.083  35.517  1.00  0.00     0.009 A 
ATOM     54  C   UNL A   1      42.266  27.779  33.880  1.00  0.00     0.009 A 
ATOM     55  C   UNL A   1      43.224  28.091  36.477  1.00  0.00     0.001 A 
ATOM     56  C   UNL A   1      42.015  26.799  34.842  1.00  0.00     0.001 A 
ATOM     57  C   UNL A   1      42.497  26.951  36.139  1.00  0.00     0.000 A 
ENDBRANCH  39  52
ENDBRANCH  13  14
ENDBRANCH   6   8
ENDBRANCH   5   6
ENDBRANCH   4   5
ENDBRANCH   3   4
ENDBRANCH   2   3
ENDBRANCH   1   2
BRANCH   1  58
ATOM     58  C   UNL A   1      34.818  24.959  25.304  1.00  0.00     0.261 C 
BRANCH  58  59
ATOM     59  O   UNL A   1      33.414  25.109  26.112  1.00  0.00    -0.462 OA
BRANCH  59  60
ATOM     60  C   UNL A   1      31.490  25.682  26.179  1.00  0.00     0.328 C 
ATOM     61  O   UNL A   1      30.541  25.106  26.803  1.00  0.00    -0.250 OA
BRANCH  60  62
ATOM     62  C   UNL A   1      30.892  27.138  25.459  1.00  0.00     0.195 C 
ATOM     63  C   UNL A   1      31.566  28.227  26.314  1.00  0.00     0.046 C 
ATOM     64  N   UNL A   1      31.372  27.403  24.100  1.00  0.00    -0.328 N 
ATOM     65  C   UNL A   1      32.489  29.021  25.378  1.00  0.00     0.001 C 
ATOM     66  C   UNL A   1      31.848  28.784  24.015  1.00  0.00     0.128 C 
ATOM     67  C   UNL A   1      33.933  28.493  25.296  1.00  0.00     0.071 C 
ATOM     68  C   UNL A   1      32.542  30.462  25.893  1.00  0.00     0.071 C 
ATOM     69  C   UNL A   1      34.675  28.581  26.617  1.00  0.00     0.270 C 
ATOM     70  C   UNL A   1      33.247  30.496  27.261  1.00  0.00     0.270 C 
ATOM     71  N   UNL A   1      34.598  29.923  27.191  1.00  0.00    -0.272 N 
ATOM     72  H   UNL A   1      35.259  29.208  27.044  1.00  0.00     0.356 HD
BRANCH  64  73
ATOM     73  C   UNL A   1      31.224  26.643  22.971  1.00  0.00     0.225 C 
ATOM     74  O   UNL A   1      30.723  27.139  21.955  1.00  0.00    -0.275 OA
BRANCH  73  75
ATOM     75  C   UNL A   1      31.515  25.150  22.932  1.00  0.00     0.124 C 
BRANCH  75  76
ATOM     76  C   UNL A   1      30.570  24.076  23.446  1.00  0.00     0.154 C 
BRANCH  76  77
ATOM     77  N   UNL A   1      31.071  22.774  23.832  1.00  0.00    -0.272 N 
ATOM     78  C   UNL A   1      32.251  21.847  22.714  1.00  0.00     0.108 A 
ATOM     79  N   UNL A   1      31.370  22.193  25.616  1.00  0.00    -0.182 NA
ATOM     80  C   UNL A   1      33.281  20.807  23.751  1.00  0.00     0.042 A 
ATOM     81  C   UNL A   1      32.687  21.022  25.588  1.00  0.00     0.135 A 
ENDBRANCH  76  77
ENDBRANCH  75  76
ENDBRANCH  73  75
ENDBRANCH  64  73
BRANCH  71  82
ATOM     82  C   UNL A   1      35.621  30.632  27.823  1.00  0.00     0.315 C 
ATOM     83  O   UNL A   1      35.565  31.857  27.920  1.00  0.00    -0.231 OA
BRANCH  82  84
ATOM     84  C   UNL A   1      36.864  30.010  28.373  1.00  0.00     0.119 C 
ATOM     85  C   UNL A   1      38.166  29.700  27.696  1.00  0.00     0.019 C 
ATOM     86  C   UNL A   1      38.088  30.828  28.695  1.00  0.00     0.019 C 
ENDBRANCH  82  84
ENDBRANCH  71  82
ENDBRANCH  60  62
ENDBRANCH  59  60
ENDBRANCH  58  59
ENDBRANCH   1  58
TORSDOF 20
ENDMDL
MODEL 2
REMARK VINA RESULT:     -11.3      2.517      7.655
REMARK SMILES O=C(OCCOCCOC(=O)[C@H]1CC2(CC[NH+](C(=O)C3CC3)CC2)CN1C(=O)CCn1cccn1)c1ccc(-c2c3nc(c(-c4ccccc4)c4ccc([nH]4)c(-c4ccccc4)c4nc(c(-c5ccccc5)c5ccc2[nH]5)C=C4)C=C3)cc1
REMARK SMILES IDX 7 1 6 2 5 3 4 4 3 5 2 6 1 7 36 8 37 9 83 10 38 11 82 12
REMARK SMILES IDX 39 13 40 14 41 15 76 16 42 17 81 18 75 19 77 20 43 21 80 22
REMARK SMILES IDX 74 23 73 24 44 26 66 27 51 28 65 29 52 30 55 31 64 32 78 33
REMARK SMILES IDX 53 34 54 35 63 37 79 38 56 39 45 40 46 41 50 42 47 43 49 44
REMARK SMILES IDX 48 45 67 46 68 47 72 48 69 49 71 50 70 51 57 52 58 53 62 54
REMARK SMILES IDX 59 55 61 56 60 57 8 58 9 59 10 60 11 61 12 62 13 63 26 64
REMARK SMILES IDX 14 65 25 66 15 67 24 68 16 69 23 70 17 71 27 73 28 74 29 75
REMARK SMILES IDX 30 76 31 77 32 78 35 79 33 80 34 81 18 82 19 83 20 84 21 85
REMARK SMILES IDX 22 86
REMARK H PARENT 77 25 55 36 17 72
REMARK Flexibility Score: inf
ROOT
ATOM      1  C   UNL A   1      32.532  29.483  26.117  1.00  0.00     0.202 C 
ENDROOT
BRANCH   1   2
ATOM      2  O   UNL A   1      32.732  30.830  26.584  1.00  0.00    -0.374 OA
BRANCH   2   3
ATOM      3  C   UNL A   1      33.808  31.045  27.505  1.00  0.00     0.202 C 
BRANCH   3   4
ATOM      4  C   UNL A   1      34.187  32.431  28.054  1.00  0.00     0.261 C 
BRANCH   4   5
ATOM      5  O   UNL A   1      35.549  32.590  28.428  1.00  0.00    -0.460 OA
BRANCH   5   6
ATOM      6  C   UNL A   1      36.158  31.915  29.424  1.00  0.00     0.338 C 
ATOM      7  O   UNL A   1      35.748  32.057  30.575  1.00  0.00    -0.246 OA
BRANCH   6   8
ATOM      8  C   UNL A   1      37.245  30.934  29.167  1.00  0.00     0.060 A 
ATOM      9  C   UNL A   1      37.098  29.601  28.766  1.00  0.00     0.016 A 
ATOM     10  C   UNL A   1      38.531  31.422  29.435  1.00  0.00     0.016 A 
ATOM     11  C   UNL A   1      38.136  28.715  28.898  1.00  0.00     0.010 A 
ATOM     12  C   UNL A   1      39.596  30.558  29.509  1.00  0.00     0.010 A 
ATOM     13  C   UNL A   1      39.351  29.203  29.351  1.00  0.00    -0.014 A 
BRANCH  13  14
ATOM     14  C   UNL A   1      40.389  28.239  29.596  1.00  0.00     0.031 A 
ATOM     15  C   UNL A   1      40.814  28.202  31.016  1.00  0.00     0.074 A 
ATOM     16  C   UNL A   1      40.840  27.476  28.584  1.00  0.00     0.049 A 
ATOM     17  N   UNL A   1      41.967  28.523  31.497  1.00  0.00    -0.248 NA
ATOM     18  C   UNL A   1      39.777  27.979  32.041  1.00  0.00     0.031 C 
ATOM     19  C   UNL A   1      40.312  27.342  27.222  1.00  0.00     0.029 A 
ATOM     20  N   UNL A   1      41.831  26.561  28.602  1.00  0.00    -0.354 N 
ATOM     21  C   UNL A   1      41.867  28.337  32.870  1.00  0.00     0.074 A 
ATOM     22  C   UNL A   1      40.468  28.172  33.164  1.00  0.00     0.031 C 
ATOM     23  C   UNL A   1      40.800  26.209  26.665  1.00  0.00     0.029 A 
ATOM     24  C   UNL A   1      41.788  25.642  27.565  1.00  0.00     0.049 A 
ATOM     25  H   UNL A   1      42.529  26.546  29.296  1.00  0.00     0.167 HD
ATOM     26  C   UNL A   1      42.970  28.065  33.619  1.00  0.00     0.031 A 
ATOM     27  C   UNL A   1      42.472  24.471  27.516  1.00  0.00     0.031 A 
ATOM     28  C   UNL A   1      44.177  28.457  32.940  1.00  0.00     0.049 A 
ATOM     29  C   UNL A   1      43.582  24.580  28.500  1.00  0.00     0.074 A 
ATOM     30  C   UNL A   1      44.683  29.667  32.507  1.00  0.00     0.029 A 
ATOM     31  N   UNL A   1      44.836  27.487  32.221  1.00  0.00    -0.354 N 
ATOM     32  N   UNL A   1      44.569  25.420  28.356  1.00  0.00    -0.248 NA
ATOM     33  C   UNL A   1      43.313  24.157  29.869  1.00  0.00     0.031 C 
ATOM     34  C   UNL A   1      45.241  29.389  31.226  1.00  0.00     0.029 A 
ATOM     35  C   UNL A   1      45.144  28.015  30.993  1.00  0.00     0.049 A 
ATOM     36  H   UNL A   1      45.048  26.577  32.533  1.00  0.00     0.167 HD
ATOM     37  C   UNL A   1      44.757  25.967  29.619  1.00  0.00     0.074 A 
ATOM     38  C   UNL A   1      43.998  25.101  30.526  1.00  0.00     0.031 C 
ATOM     39  C   UNL A   1      45.242  27.234  29.778  1.00  0.00     0.031 A 
BRANCH  26  40
ATOM     40  C   UNL A   1      42.957  27.048  34.729  1.00  0.00    -0.014 A 
ATOM     41  C   UNL A   1      42.981  25.684  34.402  1.00  0.00     0.009 A 
ATOM     42  C   UNL A   1      42.628  27.378  36.060  1.00  0.00     0.009 A 
ATOM     43  C   UNL A   1      42.625  24.708  35.341  1.00  0.00     0.001 A 
ATOM     44  C   UNL A   1      42.305  26.405  37.008  1.00  0.00     0.001 A 
ATOM     45  C   UNL A   1      42.278  25.069  36.639  1.00  0.00     0.000 A 
ENDBRANCH  26  40
BRANCH  27  46
ATOM     46  C   UNL A   1      41.997  23.168  26.994  1.00  0.00    -0.014 A 
ATOM     47  C   UNL A   1      42.840  22.346  26.233  1.00  0.00     0.009 A 
ATOM     48  C   UNL A   1      40.801  22.605  27.481  1.00  0.00     0.009 A 
ATOM     49  C   UNL A   1      42.513  21.001  25.993  1.00  0.00     0.001 A 
ATOM     50  C   UNL A   1      40.476  21.264  27.245  1.00  0.00     0.001 A 
ATOM     51  C   UNL A   1      41.339  20.458  26.511  1.00  0.00     0.000 A 
ENDBRANCH  27  46
BRANCH  39  52
ATOM     52  C   UNL A   1      45.729  27.968  28.549  1.00  0.00    -0.014 A 
ATOM     53  C   UNL A   1      47.055  27.913  28.078  1.00  0.00     0.009 A 
ATOM     54  C   UNL A   1      44.768  28.596  27.744  1.00  0.00     0.009 A 
ATOM     55  C   UNL A   1      47.405  28.492  26.851  1.00  0.00     0.001 A 
ATOM     56  C   UNL A   1      45.113  29.156  26.513  1.00  0.00     0.001 A 
ATOM     57  C   UNL A   1      46.431  29.108  26.067  1.00  0.00     0.000 A 
ENDBRANCH  39  52
ENDBRANCH  13  14
ENDBRANCH   6   8
ENDBRANCH   5   6
ENDBRANCH   4   5
ENDBRANCH   3   4
ENDBRANCH   2   3
ENDBRANCH   1   2
BRANCH   1  58
ATOM     58  C   UNL A   1      33.767  28.666  25.680  1.00  0.00     0.261 C 
BRANCH  58  59
ATOM     59  O   UNL A   1      33.684  27.095  25.267  1.00  0.00    -0.462 OA
BRANCH  59  60
ATOM     60  C   UNL A   1      33.241  25.189  25.721  1.00  0.00     0.328 C 
ATOM     61  O   UNL A   1      33.942  24.385  26.417  1.00  0.00    -0.250 OA
BRANCH  60  62
ATOM     62  C   UNL A   1      31.752  24.418  25.295  1.00  0.00     0.195 C 
ATOM     63  C   UNL A   1      30.814  25.619  25.067  1.00  0.00     0.046 C 
ATOM     64  N   UNL A   1      31.758  23.720  24.006  1.00  0.00    -0.328 N 
ATOM     65  C   UNL A   1      30.398  25.584  23.590  1.00  0.00     0.001 C 
ATOM     66  C   UNL A   1      30.576  24.112  23.238  1.00  0.00     0.128 C 
ATOM     67  C   UNL A   1      31.308  26.388  22.643  1.00  0.00     0.071 C 
ATOM     68  C   UNL A   1      28.985  26.168  23.493  1.00  0.00     0.071 C 
ATOM     69  C   UNL A   1      31.304  27.877  22.936  1.00  0.00     0.270 C 
ATOM     70  C   UNL A   1      29.018  27.663  23.857  1.00  0.00     0.270 C 
ATOM     71  N   UNL A   1      29.945  28.411  22.998  1.00  0.00    -0.272 N 
ATOM     72  H   UNL A   1      30.825  28.645  22.622  1.00  0.00     0.356 HD
BRANCH  64  73
ATOM     73  C   UNL A   1      32.550  22.684  23.592  1.00  0.00     0.225 C 
ATOM     74  O   UNL A   1      33.232  22.801  22.566  1.00  0.00    -0.275 OA
BRANCH  73  75
ATOM     75  C   UNL A   1      32.536  21.313  24.252  1.00  0.00     0.124 C 
BRANCH  75  76
ATOM     76  C   UNL A   1      33.630  20.787  25.167  1.00  0.00     0.154 C 
BRANCH  76  77
ATOM     77  N   UNL A   1      35.003  20.724  24.717  1.00  0.00    -0.272 N 
ATOM     78  C   UNL A   1      36.078  22.256  24.753  1.00  0.00     0.108 A 
ATOM     79  N   UNL A   1      36.137  19.204  24.844  1.00  0.00    -0.182 NA
ATOM     80  C   UNL A   1      37.778  21.723  24.970  1.00  0.00     0.042 A 
ATOM     81  C   UNL A   1      37.795  19.781  24.999  1.00  0.00     0.135 A 
ENDBRANCH  76  77
ENDBRANCH  75  76
ENDBRANCH  73  75
ENDBRANCH  64  73
BRANCH  71  82
ATOM     82  C   UNL A   1      29.490  29.624  22.479  1.00  0.00     0.315 C 
ATOM     83  O   UNL A   1      29.432  29.802  21.262  1.00  0.00    -0.231 OA
BRANCH  82  84
ATOM     84  C   UNL A   1      29.096  30.803  23.309  1.00  0.00     0.119 C 
ATOM     85  C   UNL A   1      28.638  32.167  22.887  1.00  0.00     0.019 C 
ATOM     86  C   UNL A   1      27.654  31.199  23.496  1.00  0.00     0.019 C 
ENDBRANCH  82  84
ENDBRANCH  71  82
ENDBRANCH  60  62
ENDBRANCH  59  60
ENDBRANCH  58  59
ENDBRANCH   1  58
TORSDOF 20
ENDMDL
MODEL 3
REMARK VINA RESULT:     -11.1      2.358      7.613
REMARK SMILES O=C(OCCOCCOC(=O)[C@H]1CC2(CC[NH+](C(=O)C3CC3)CC2)CN1C(=O)CCn1cccn1)c1ccc(-c2c3nc(c(-c4ccccc4)c4ccc([nH]4)c(-c4ccccc4)c4nc(c(-c5ccccc5)c5ccc2[nH]5)C=C4)C=C3)cc1
REMARK SMILES IDX 7 1 6 2 5 3 4 4 3 5 2 6 1 7 36 8 37 9 83 10 38 11 82 12
REMARK SMILES IDX 39 13 40 14 41 15 76 16 42 17 81 18 75 19 77 20 43 21 80 22
REMARK SMILES IDX 74 23 73 24 44 26 66 27 51 28 65 29 52 30 55 31 64 32 78 33
REMARK SMILES IDX 53 34 54 35 63 37 79 38 56 39 45 40 46 41 50 42 47 43 49 44
REMARK SMILES IDX 48 45 67 46 68 47 72 48 69 49 71 50 70 51 57 52 58 53 62 54
REMARK SMILES IDX 59 55 61 56 60 57 8 58 9 59 10 60 11 61 12 62 13 63 26 64
REMARK SMILES IDX 14 65 25 66 15 67 24 68 16 69 23 70 17 71 27 73 28 74 29 75
REMARK SMILES IDX 30 76 31 77 32 78 35 79 33 80 34 81 18 82 19 83 20 84 21 85
REMARK SMILES IDX 22 86
REMARK H PARENT 77 25 55 36 17 72
REMARK Flexibility Score: inf
ROOT
ATOM      1  C   UNL A   1      32.806  27.910  25.131  1.00  0.00     0.202 C 
ENDROOT
BRANCH   1   2
ATOM      2  O   UNL A   1      31.869  28.619  25.961  1.00  0.00    -0.374 OA
BRANCH   2   3
ATOM      3  C   UNL A   1      31.986  30.048  25.999  1.00  0.00     0.202 C 
BRANCH   3   4
ATOM      4  C   UNL A   1      32.813  30.800  27.056  1.00  0.00     0.261 C 
BRANCH   4   5
ATOM      5  O   UNL A   1      34.211  30.543  27.035  1.00  0.00    -0.460 OA
BRANCH   5   6
ATOM      6  C   UNL A   1      35.148  31.332  27.600  1.00  0.00     0.338 C 
ATOM      7  O   UNL A   1      34.970  32.549  27.612  1.00  0.00    -0.246 OA
BRANCH   6   8
ATOM      8  C   UNL A   1      36.340  30.775  28.292  1.00  0.00     0.060 A 
ATOM      9  C   UNL A   1      37.263  31.477  29.076  1.00  0.00     0.016 A 
ATOM     10  C   UNL A   1      36.558  29.413  28.045  1.00  0.00     0.016 A 
ATOM     11  C   UNL A   1      38.488  30.933  29.365  1.00  0.00     0.010 A 
ATOM     12  C   UNL A   1      37.756  28.834  28.386  1.00  0.00     0.010 A 
ATOM     13  C   UNL A   1      38.740  29.640  28.937  1.00  0.00    -0.014 A 
BRANCH  13  14
ATOM     14  C   UNL A   1      40.069  29.133  29.145  1.00  0.00     0.031 A 
ATOM     15  C   UNL A   1      40.360  28.854  30.573  1.00  0.00     0.074 A 
ATOM     16  C   UNL A   1      40.879  28.938  28.090  1.00  0.00     0.049 A 
ATOM     17  N   UNL A   1      41.223  29.445  31.326  1.00  0.00    -0.248 NA
ATOM     18  C   UNL A   1      39.444  27.956  31.300  1.00  0.00     0.031 C 
ATOM     19  C   UNL A   1      40.565  29.011  26.659  1.00  0.00     0.029 A 
ATOM     20  N   UNL A   1      42.162  28.521  28.083  1.00  0.00    -0.354 N 
ATOM     21  C   UNL A   1      41.110  28.844  32.574  1.00  0.00     0.074 A 
ATOM     22  C   UNL A   1      39.898  28.067  32.548  1.00  0.00     0.031 C 
ATOM     23  C   UNL A   1      41.532  28.374  25.958  1.00  0.00     0.029 A 
ATOM     24  C   UNL A   1      42.596  28.004  26.872  1.00  0.00     0.049 A 
ATOM     25  H   UNL A   1      42.745  28.580  28.875  1.00  0.00     0.167 HD
ATOM     26  C   UNL A   1      42.162  28.820  33.435  1.00  0.00     0.031 A 
ATOM     27  C   UNL A   1      43.718  27.264  26.685  1.00  0.00     0.031 A 
ATOM     28  C   UNL A   1      43.132  29.833  33.109  1.00  0.00     0.049 A 
ATOM     29  C   UNL A   1      44.595  27.507  27.860  1.00  0.00     0.074 A 
ATOM     30  C   UNL A   1      43.101  31.213  33.073  1.00  0.00     0.029 A 
ATOM     31  N   UNL A   1      44.196  29.453  32.324  1.00  0.00    -0.354 N 
ATOM     32  N   UNL A   1      45.135  28.668  28.107  1.00  0.00    -0.248 NA
ATOM     33  C   UNL A   1      44.431  26.635  29.016  1.00  0.00     0.031 C 
ATOM     34  C   UNL A   1      43.820  31.562  31.894  1.00  0.00     0.029 A 
ATOM     35  C   UNL A   1      44.340  30.392  31.334  1.00  0.00     0.049 A 
ATOM     36  H   UNL A   1      44.753  28.651  32.450  1.00  0.00     0.167 HD
ATOM     37  C   UNL A   1      44.973  28.852  29.474  1.00  0.00     0.074 A 
ATOM     38  C   UNL A   1      44.593  27.535  29.993  1.00  0.00     0.031 C 
ATOM     39  C   UNL A   1      44.855  30.102  30.013  1.00  0.00     0.031 A 
BRANCH  26  40
ATOM     40  C   UNL A   1      42.502  27.605  34.255  1.00  0.00    -0.014 A 
ATOM     41  C   UNL A   1      43.448  26.694  33.761  1.00  0.00     0.009 A 
ATOM     42  C   UNL A   1      41.717  27.177  35.345  1.00  0.00     0.009 A 
ATOM     43  C   UNL A   1      43.553  25.401  34.287  1.00  0.00     0.001 A 
ATOM     44  C   UNL A   1      41.841  25.900  35.894  1.00  0.00     0.001 A 
ATOM     45  C   UNL A   1      42.743  25.001  35.346  1.00  0.00     0.000 A 
ENDBRANCH  26  40
BRANCH  27  46
ATOM     46  C   UNL A   1      43.888  26.092  25.794  1.00  0.00    -0.014 A 
ATOM     47  C   UNL A   1      45.164  25.584  25.507  1.00  0.00     0.009 A 
ATOM     48  C   UNL A   1      42.776  25.300  25.446  1.00  0.00     0.009 A 
ATOM     49  C   UNL A   1      45.321  24.316  24.923  1.00  0.00     0.001 A 
ATOM     50  C   UNL A   1      42.933  24.036  24.867  1.00  0.00     0.001 A 
ATOM     51  C   UNL A   1      44.207  23.538  24.616  1.00  0.00     0.000 A 
ENDBRANCH  27  46
BRANCH  39  52
ATOM     52  C   UNL A   1      45.072  31.291  29.105  1.00  0.00    -0.014 A 
ATOM     53  C   UNL A   1      44.060  31.864  28.310  1.00  0.00     0.009 A 
ATOM     54  C   UNL A   1      46.300  31.960  29.192  1.00  0.00     0.009 A 
ATOM     55  C   UNL A   1      44.287  33.056  27.609  1.00  0.00     0.001 A 
ATOM     56  C   UNL A   1      46.520  33.157  28.509  1.00  0.00     0.001 A 
ATOM     57  C   UNL A   1      45.516  33.704  27.714  1.00  0.00     0.000 A 
ENDBRANCH  39  52
ENDBRANCH  13  14
ENDBRANCH   6   8
ENDBRANCH   5   6
ENDBRANCH   4   5
ENDBRANCH   3   4
ENDBRANCH   2   3
ENDBRANCH   1   2
BRANCH   1  58
ATOM     58  C   UNL A   1      33.524  26.677  25.720  1.00  0.00     0.261 C 
BRANCH  58  59
ATOM     59  O   UNL A   1      34.250  25.553  24.795  1.00  0.00    -0.462 OA
BRANCH  59  60
ATOM     60  C   UNL A   1      34.230  24.309  23.218  1.00  0.00     0.328 C 
ATOM     61  O   UNL A   1      33.896  24.594  22.022  1.00  0.00    -0.250 OA
BRANCH  60  62
ATOM     62  C   UNL A   1      34.784  22.671  23.275  1.00  0.00     0.195 C 
ATOM     63  C   UNL A   1      36.230  22.831  23.783  1.00  0.00     0.046 C 
ATOM     64  N   UNL A   1      34.141  21.831  24.290  1.00  0.00    -0.328 N 
ATOM     65  C   UNL A   1      36.305  22.125  25.143  1.00  0.00     0.001 C 
ATOM     66  C   UNL A   1      35.168  21.115  25.048  1.00  0.00     0.128 C 
ATOM     67  C   UNL A   1      36.006  23.027  26.355  1.00  0.00     0.071 C 
ATOM     68  C   UNL A   1      37.726  21.577  25.303  1.00  0.00     0.071 C 
ATOM     69  C   UNL A   1      37.016  24.147  26.527  1.00  0.00     0.270 C 
ATOM     70  C   UNL A   1      38.722  22.746  25.410  1.00  0.00     0.270 C 
ATOM     71  N   UNL A   1      38.387  23.643  26.524  1.00  0.00    -0.272 N 
ATOM     72  H   UNL A   1      37.826  24.283  27.020  1.00  0.00     0.356 HD
BRANCH  64  73
ATOM     73  C   UNL A   1      32.817  21.513  24.432  1.00  0.00     0.225 C 
ATOM     74  O   UNL A   1      32.263  21.657  25.529  1.00  0.00    -0.275 OA
BRANCH  73  75
ATOM     75  C   UNL A   1      32.002  20.845  23.335  1.00  0.00     0.124 C 
BRANCH  75  76
ATOM     76  C   UNL A   1      32.414  19.574  22.609  1.00  0.00     0.154 C 
BRANCH  76  77
ATOM     77  N   UNL A   1      32.518  18.318  23.319  1.00  0.00    -0.272 N 
ATOM     78  C   UNL A   1      33.816  17.062  22.827  1.00  0.00     0.108 A 
ATOM     79  N   UNL A   1      32.103  18.051  25.154  1.00  0.00    -0.182 NA
ATOM     80  C   UNL A   1      34.243  16.119  24.292  1.00  0.00     0.042 A 
ATOM     81  C   UNL A   1      33.125  16.745  25.752  1.00  0.00     0.135 A 
ENDBRANCH  76  77
ENDBRANCH  75  76
ENDBRANCH  73  75
ENDBRANCH  64  73
BRANCH  71  82
ATOM     82  C   UNL A   1      39.438  24.049  27.349  1.00  0.00     0.315 C 
ATOM     83  O   UNL A   1      39.735  25.240  27.443  1.00  0.00    -0.231 OA
BRANCH  82  84
ATOM     84  C   UNL A   1      40.312  23.117  28.123  1.00  0.00     0.119 C 
ATOM     85  C   UNL A   1      41.286  22.084  27.638  1.00  0.00     0.019 C 
ATOM     86  C   UNL A   1      41.793  23.354  28.275  1.00  0.00     0.019 C 
ENDBRANCH  82  84
ENDBRANCH  71  82
ENDBRANCH  60  62
ENDBRANCH  59  60
ENDBRANCH  58  59
ENDBRANCH   1  58
TORSDOF 20
ENDMDL
