MODEL 1
REMARK VINA RESULT:     -11.9      0.000      0.000
REMARK SMILES Cc1ccc(S(=O)(=O)n2cc(C(=O)C(=O)N[C@@H](Cc3c[nH]c4ccccc34)C(=O)OCCOCCOC(=O)c3ccc(-c4c5nc(c(-c6ccccc6)c6ccc([nH]6)c(-c6ccccc6)c6nc(c(-c7ccccc7)c7ccc4[nH]7)C=C6)C=C5)cc3)c3ccccc32)cc1
REMARK SMILES IDX 31 1 30 2 28 3 29 4 17 5 16 6 14 7 15 8 12 10 13 11 11 12
REMARK SMILES IDX 9 13 10 14 92 15 87 16 91 17 88 18 90 19 89 20 6 21 7 22
REMARK SMILES IDX 8 23 5 24 1 25 2 26 3 27 94 28 4 29 93 30 18 31 19 32 20 33
REMARK SMILES IDX 27 34 21 35 22 36 26 37 23 39 25 40 24 41 32 42 33 43 34 44
REMARK SMILES IDX 35 45 36 46 37 47 38 48 39 49 40 50 86 51 41 52 85 53 42 54
REMARK SMILES IDX 43 55 44 56 79 57 45 58 84 59 78 60 80 61 46 62 83 63 77 64
REMARK SMILES IDX 76 65 47 67 69 68 54 69 68 70 55 71 58 72 67 73 81 74 56 75
REMARK SMILES IDX 57 76 66 78 82 79 59 80 48 81 49 82 53 83 50 84 52 85 51 86
REMARK SMILES IDX 70 87 71 88 75 89 72 90 74 91 73 92 60 93 61 94 65 95 62 96
REMARK SMILES IDX 64 97 63 98
REMARK H PARENT 16 9 21 38 80 66 58 77
REMARK Flexibility Score: inf
ROOT
ATOM      1  C   UNL A   1      39.656  21.937  25.804  1.00  0.00     0.261 C 
ENDROOT
BRANCH   1   2
ATOM      2  O   UNL A   1      38.249  21.751  25.891  1.00  0.00    -0.462 OA
BRANCH   2   3
ATOM      3  C   UNL A   1      37.444  22.779  25.466  1.00  0.00     0.329 C 
ATOM      4  O   UNL A   1      37.712  23.955  25.495  1.00  0.00    -0.250 OA
BRANCH   3   5
ATOM      5  C   UNL A   1      36.088  22.177  25.068  1.00  0.00     0.197 C 
BRANCH   5   6
ATOM      6  N   UNL A   1      35.845  22.495  23.639  1.00  0.00    -0.335 N 
ATOM      7  C   UNL A   1      34.770  23.107  23.043  1.00  0.00     0.293 C 
ATOM      8  O   UNL A   1      34.771  23.417  21.859  1.00  0.00    -0.265 OA
ATOM      9  H   UNL A   1      36.565  22.225  23.024  1.00  0.00     0.164 HD
BRANCH   7  10
ATOM     10  C   UNL A   1      33.587  23.468  23.912  1.00  0.00     0.252 C 
ATOM     11  O   UNL A   1      32.682  22.636  23.946  1.00  0.00    -0.283 OA
BRANCH  10  12
ATOM     12  C   UNL A   1      33.438  24.790  24.500  1.00  0.00     0.054 A 
ATOM     13  N   UNL A   1      33.252  26.598  25.820  1.00  0.00    -0.240 N 
ATOM     14  C   UNL A   1      33.191  25.207  25.811  1.00  0.00     0.117 A 
ATOM     15  C   UNL A   1      33.811  26.995  24.590  1.00  0.00     0.065 A 
ATOM     16  C   UNL A   1      33.495  25.969  23.709  1.00  0.00     0.012 A 
ATOM     17  C   UNL A   1      34.211  28.260  24.125  1.00  0.00     0.028 A 
ATOM     18  C   UNL A   1      33.377  26.255  22.335  1.00  0.00     0.011 A 
ATOM     19  C   UNL A   1      34.002  28.545  22.775  1.00  0.00     0.002 A 
ATOM     20  C   UNL A   1      33.547  27.568  21.898  1.00  0.00     0.001 A 
BRANCH  13  21
ATOM     21  S   UNL A   1      31.956  27.679  26.251  1.00  0.00     0.268 S 
ATOM     22  O   UNL A   1      32.603  28.637  27.131  1.00  0.00    -0.201 OA
ATOM     23  O   UNL A   1      30.954  26.744  26.751  1.00  0.00    -0.201 OA
BRANCH  21  24
ATOM     24  C   UNL A   1      30.988  28.653  25.167  1.00  0.00     0.088 A 
ATOM     25  C   UNL A   1      28.662  30.071  21.826  1.00  0.00     0.044 C 
ATOM     26  C   UNL A   1      29.421  29.623  23.041  1.00  0.00    -0.051 A 
ATOM     27  C   UNL A   1      29.504  28.256  23.255  1.00  0.00     0.005 A 
ATOM     28  C   UNL A   1      30.092  30.500  23.925  1.00  0.00     0.005 A 
ATOM     29  C   UNL A   1      30.260  27.790  24.309  1.00  0.00     0.022 A 
ATOM     30  C   UNL A   1      30.890  30.021  24.998  1.00  0.00     0.022 A 
ENDBRANCH  21  24
ENDBRANCH  13  21
ENDBRANCH  10  12
ENDBRANCH   7  10
ENDBRANCH   5   6
BRANCH   5  31
ATOM     31  C   UNL A   1      36.100  20.648  25.312  1.00  0.00     0.074 C 
BRANCH  31  32
ATOM     32  C   UNL A   1      34.728  20.026  25.395  1.00  0.00    -0.020 A 
ATOM     33  C   UNL A   1      33.664  20.537  26.112  1.00  0.00     0.087 A 
ATOM     34  C   UNL A   1      34.293  18.765  24.864  1.00  0.00     0.003 A 
ATOM     35  N   UNL A   1      32.661  19.607  26.122  1.00  0.00    -0.361 N 
ATOM     36  C   UNL A   1      33.038  18.494  25.410  1.00  0.00     0.046 A 
ATOM     37  C   UNL A   1      34.883  17.784  24.039  1.00  0.00     0.010 A 
ATOM     38  H   UNL A   1      31.794  19.720  26.575  1.00  0.00     0.166 HD
ATOM     39  C   UNL A   1      32.378  17.274  25.220  1.00  0.00     0.026 A 
ATOM     40  C   UNL A   1      34.262  16.542  23.880  1.00  0.00     0.001 A 
ATOM     41  C   UNL A   1      33.030  16.289  24.470  1.00  0.00     0.002 A 
ENDBRANCH  31  32
ENDBRANCH   5  31
ENDBRANCH   3   5
ENDBRANCH   2   3
ENDBRANCH   1   2
BRANCH   1  42
ATOM     42  C   UNL A   1      40.280  21.516  27.100  1.00  0.00     0.202 C 
BRANCH  42  43
ATOM     43  O   UNL A   1      41.662  21.823  27.012  1.00  0.00    -0.374 OA
BRANCH  43  44
ATOM     44  C   UNL A   1      41.950  23.213  26.957  1.00  0.00     0.202 C 
BRANCH  44  45
ATOM     45  C   UNL A   1      41.935  23.909  28.326  1.00  0.00     0.261 C 
BRANCH  45  46
ATOM     46  O   UNL A   1      41.454  25.259  28.173  1.00  0.00    -0.460 OA
BRANCH  46  47
ATOM     47  C   UNL A   1      40.139  25.452  28.458  1.00  0.00     0.338 C 
ATOM     48  O   UNL A   1      39.232  24.681  28.190  1.00  0.00    -0.246 OA
BRANCH  47  49
ATOM     49  C   UNL A   1      39.923  26.872  28.860  1.00  0.00     0.060 A 
ATOM     50  C   UNL A   1      40.945  27.814  28.644  1.00  0.00     0.016 A 
ATOM     51  C   UNL A   1      38.883  27.163  29.740  1.00  0.00     0.016 A 
ATOM     52  C   UNL A   1      41.014  28.963  29.441  1.00  0.00     0.010 A 
ATOM     53  C   UNL A   1      39.016  28.237  30.589  1.00  0.00     0.010 A 
ATOM     54  C   UNL A   1      40.106  29.115  30.481  1.00  0.00    -0.014 A 
BRANCH  54  55
ATOM     55  C   UNL A   1      40.185  30.100  31.559  1.00  0.00     0.031 A 
ATOM     56  C   UNL A   1      41.041  29.764  32.718  1.00  0.00     0.074 A 
ATOM     57  C   UNL A   1      39.757  31.376  31.377  1.00  0.00     0.049 A 
ATOM     58  N   UNL A   1      41.204  30.537  33.728  1.00  0.00    -0.248 NA
ATOM     59  C   UNL A   1      41.797  28.517  32.847  1.00  0.00     0.031 C 
ATOM     60  C   UNL A   1      40.127  32.583  32.116  1.00  0.00     0.029 A 
ATOM     61  N   UNL A   1      38.786  31.865  30.496  1.00  0.00    -0.354 N 
ATOM     62  C   UNL A   1      42.309  30.105  34.413  1.00  0.00     0.074 A 
ATOM     63  C   UNL A   1      42.571  28.785  33.904  1.00  0.00     0.031 C 
ATOM     64  C   UNL A   1      39.172  33.514  31.953  1.00  0.00     0.029 A 
ATOM     65  C   UNL A   1      38.119  32.899  31.165  1.00  0.00     0.049 A 
ATOM     66  H   UNL A   1      38.606  31.543  29.582  1.00  0.00     0.167 HD
ATOM     67  C   UNL A   1      42.927  30.996  35.234  1.00  0.00     0.031 A 
ATOM     68  C   UNL A   1      36.801  32.797  31.466  1.00  0.00     0.031 A 
ATOM     69  C   UNL A   1      42.083  32.190  35.430  1.00  0.00     0.049 A 
ATOM     70  C   UNL A   1      36.712  32.866  32.961  1.00  0.00     0.074 A 
ATOM     71  C   UNL A   1      42.178  33.518  35.051  1.00  0.00     0.029 A 
ATOM     72  N   UNL A   1      40.749  31.999  35.821  1.00  0.00    -0.354 N 
ATOM     73  N   UNL A   1      37.640  32.380  33.753  1.00  0.00    -0.248 NA
ATOM     74  C   UNL A   1      35.775  33.753  33.641  1.00  0.00     0.031 C 
ATOM     75  C   UNL A   1      40.857  34.075  35.096  1.00  0.00     0.029 A 
ATOM     76  C   UNL A   1      39.965  33.099  35.529  1.00  0.00     0.049 A 
ATOM     77  H   UNL A   1      40.413  31.179  36.252  1.00  0.00     0.167 HD
ATOM     78  C   UNL A   1      37.571  33.049  34.944  1.00  0.00     0.074 A 
ATOM     79  C   UNL A   1      36.348  33.841  34.852  1.00  0.00     0.031 C 
ATOM     80  C   UNL A   1      38.548  33.121  35.894  1.00  0.00     0.031 A 
BRANCH  67  81
ATOM     81  C   UNL A   1      44.354  30.845  35.718  1.00  0.00    -0.014 A 
ATOM     82  C   UNL A   1      45.424  31.136  34.855  1.00  0.00     0.009 A 
ATOM     83  C   UNL A   1      44.718  30.346  36.986  1.00  0.00     0.009 A 
ATOM     84  C   UNL A   1      46.765  30.968  35.247  1.00  0.00     0.001 A 
ATOM     85  C   UNL A   1      46.051  30.205  37.398  1.00  0.00     0.001 A 
ATOM     86  C   UNL A   1      47.080  30.518  36.525  1.00  0.00     0.000 A 
ENDBRANCH  67  81
BRANCH  68  87
ATOM     87  C   UNL A   1      36.043  32.041  30.421  1.00  0.00    -0.014 A 
ATOM     88  C   UNL A   1      35.696  32.789  29.269  1.00  0.00     0.009 A 
ATOM     89  C   UNL A   1      36.139  30.651  30.273  1.00  0.00     0.009 A 
ATOM     90  C   UNL A   1      35.668  32.212  27.992  1.00  0.00     0.001 A 
ATOM     91  C   UNL A   1      36.064  30.066  28.991  1.00  0.00     0.001 A 
ATOM     92  C   UNL A   1      35.893  30.852  27.850  1.00  0.00     0.000 A 
ENDBRANCH  68  87
BRANCH  80  93
ATOM     93  C   UNL A   1      38.180  33.200  37.352  1.00  0.00    -0.014 A 
ATOM     94  C   UNL A   1      37.494  32.175  38.023  1.00  0.00     0.009 A 
ATOM     95  C   UNL A   1      38.727  34.228  38.146  1.00  0.00     0.009 A 
ATOM     96  C   UNL A   1      37.334  32.190  39.408  1.00  0.00     0.001 A 
ATOM     97  C   UNL A   1      38.624  34.214  39.535  1.00  0.00     0.001 A 
ATOM     98  C   UNL A   1      37.917  33.199  40.165  1.00  0.00     0.000 A 
ENDBRANCH  80  93
ENDBRANCH  54  55
ENDBRANCH  47  49
ENDBRANCH  46  47
ENDBRANCH  45  46
ENDBRANCH  44  45
ENDBRANCH  43  44
ENDBRANCH  42  43
ENDBRANCH   1  42
TORSDOF 21
ENDMDL
MODEL 2
REMARK VINA RESULT:     -11.8      3.685      7.451
REMARK SMILES Cc1ccc(S(=O)(=O)n2cc(C(=O)C(=O)N[C@@H](Cc3c[nH]c4ccccc34)C(=O)OCCOCCOC(=O)c3ccc(-c4c5nc(c(-c6ccccc6)c6ccc([nH]6)c(-c6ccccc6)c6nc(c(-c7ccccc7)c7ccc4[nH]7)C=C6)C=C5)cc3)c3ccccc32)cc1
REMARK SMILES IDX 31 1 30 2 28 3 29 4 17 5 16 6 14 7 15 8 12 10 13 11 11 12
REMARK SMILES IDX 9 13 10 14 92 15 87 16 91 17 88 18 90 19 89 20 6 21 7 22
REMARK SMILES IDX 8 23 5 24 1 25 2 26 3 27 94 28 4 29 93 30 18 31 19 32 20 33
REMARK SMILES IDX 27 34 21 35 22 36 26 37 23 39 25 40 24 41 32 42 33 43 34 44
REMARK SMILES IDX 35 45 36 46 37 47 38 48 39 49 40 50 86 51 41 52 85 53 42 54
REMARK SMILES IDX 43 55 44 56 79 57 45 58 84 59 78 60 80 61 46 62 83 63 77 64
REMARK SMILES IDX 76 65 47 67 69 68 54 69 68 70 55 71 58 72 67 73 81 74 56 75
REMARK SMILES IDX 57 76 66 78 82 79 59 80 48 81 49 82 53 83 50 84 52 85 51 86
REMARK SMILES IDX 70 87 71 88 75 89 72 90 74 91 73 92 60 93 61 94 65 95 62 96
REMARK SMILES IDX 64 97 63 98
REMARK H PARENT 16 9 21 38 80 66 58 77
REMARK Flexibility Score: inf
ROOT
ATOM      1  C   UNL A   1      38.543  22.477  25.474  1.00  0.00     0.261 C 
ENDROOT
BRANCH   1   2
ATOM      2  O   UNL A   1      37.194  22.114  25.740  1.00  0.00    -0.462 OA
BRANCH   2   3
ATOM      3  C   UNL A   1      36.217  23.026  25.426  1.00  0.00     0.329 C 
ATOM      4  O   UNL A   1      36.246  24.211  25.650  1.00  0.00    -0.250 OA
BRANCH   3   5
ATOM      5  C   UNL A   1      35.019  22.250  24.857  1.00  0.00     0.197 C 
BRANCH   5   6
ATOM      6  N   UNL A   1      34.736  22.773  23.498  1.00  0.00    -0.335 N 
ATOM      7  C   UNL A   1      33.845  23.736  23.092  1.00  0.00     0.293 C 
ATOM      8  O   UNL A   1      33.816  24.153  21.942  1.00  0.00    -0.265 OA
ATOM      9  H   UNL A   1      35.269  22.367  22.776  1.00  0.00     0.164 HD
BRANCH   7  10
ATOM     10  C   UNL A   1      32.930  24.340  24.133  1.00  0.00     0.252 C 
ATOM     11  O   UNL A   1      32.116  23.567  24.634  1.00  0.00    -0.283 OA
BRANCH  10  12
ATOM     12  C   UNL A   1      32.879  25.773  24.375  1.00  0.00     0.054 A 
ATOM     13  N   UNL A   1      33.273  27.948  24.777  1.00  0.00    -0.240 N 
ATOM     14  C   UNL A   1      33.837  26.676  24.843  1.00  0.00     0.117 A 
ATOM     15  C   UNL A   1      32.097  27.838  24.011  1.00  0.00     0.065 A 
ATOM     16  C   UNL A   1      31.688  26.521  24.175  1.00  0.00     0.012 A 
ATOM     17  C   UNL A   1      31.215  28.823  23.530  1.00  0.00     0.028 A 
ATOM     18  C   UNL A   1      30.321  26.205  24.051  1.00  0.00     0.011 A 
ATOM     19  C   UNL A   1      29.856  28.509  23.499  1.00  0.00     0.002 A 
ATOM     20  C   UNL A   1      29.408  27.229  23.800  1.00  0.00     0.001 A 
BRANCH  13  21
ATOM     21  S   UNL A   1      32.999  29.019  26.122  1.00  0.00     0.268 S 
ATOM     22  O   UNL A   1      32.348  28.164  27.099  1.00  0.00    -0.201 OA
ATOM     23  O   UNL A   1      32.284  30.115  25.476  1.00  0.00    -0.201 OA
BRANCH  21  24
ATOM     24  C   UNL A   1      34.203  29.902  27.034  1.00  0.00     0.088 A 
ATOM     25  C   UNL A   1      36.520  33.008  28.922  1.00  0.00     0.044 C 
ATOM     26  C   UNL A   1      35.731  31.876  28.332  1.00  0.00    -0.051 A 
ATOM     27  C   UNL A   1      34.399  32.129  28.043  1.00  0.00     0.005 A 
ATOM     28  C   UNL A   1      36.279  30.613  28.004  1.00  0.00     0.005 A 
ATOM     29  C   UNL A   1      33.653  31.150  27.423  1.00  0.00     0.022 A 
ATOM     30  C   UNL A   1      35.518  29.611  27.345  1.00  0.00     0.022 A 
ENDBRANCH  21  24
ENDBRANCH  13  21
ENDBRANCH  10  12
ENDBRANCH   7  10
ENDBRANCH   5   6
BRANCH   5  31
ATOM     31  C   UNL A   1      35.343  20.737  24.824  1.00  0.00     0.074 C 
BRANCH  31  32
ATOM     32  C   UNL A   1      34.138  19.845  25.002  1.00  0.00    -0.020 A 
ATOM     33  C   UNL A   1      32.924  20.241  25.525  1.00  0.00     0.087 A 
ATOM     34  C   UNL A   1      34.044  18.428  24.783  1.00  0.00     0.003 A 
ATOM     35  N   UNL A   1      32.153  19.130  25.724  1.00  0.00    -0.361 N 
ATOM     36  C   UNL A   1      32.832  18.003  25.327  1.00  0.00     0.046 A 
ATOM     37  C   UNL A   1      34.913  17.451  24.252  1.00  0.00     0.010 A 
ATOM     38  H   UNL A   1      31.242  19.135  26.099  1.00  0.00     0.166 HD
ATOM     39  C   UNL A   1      32.477  16.651  25.418  1.00  0.00     0.026 A 
ATOM     40  C   UNL A   1      34.597  16.095  24.381  1.00  0.00     0.001 A 
ATOM     41  C   UNL A   1      33.399  15.703  24.964  1.00  0.00     0.002 A 
ENDBRANCH  31  32
ENDBRANCH   5  31
ENDBRANCH   3   5
ENDBRANCH   2   3
ENDBRANCH   1   2
BRANCH   1  42
ATOM     42  C   UNL A   1      39.426  21.848  26.509  1.00  0.00     0.202 C 
BRANCH  42  43
ATOM     43  O   UNL A   1      39.919  20.639  25.952  1.00  0.00    -0.374 OA
BRANCH  43  44
ATOM     44  C   UNL A   1      40.885  19.977  26.756  1.00  0.00     0.202 C 
BRANCH  44  45
ATOM     45  C   UNL A   1      42.284  19.910  26.125  1.00  0.00     0.261 C 
BRANCH  45  46
ATOM     46  O   UNL A   1      43.036  21.081  26.500  1.00  0.00    -0.460 OA
BRANCH  46  47
ATOM     47  C   UNL A   1      43.303  21.956  25.495  1.00  0.00     0.338 C 
ATOM     48  O   UNL A   1      44.098  21.776  24.587  1.00  0.00    -0.246 OA
BRANCH  47  49
ATOM     49  C   UNL A   1      42.723  23.288  25.831  1.00  0.00     0.060 A 
ATOM     50  C   UNL A   1      42.898  24.363  24.942  1.00  0.00     0.016 A 
ATOM     51  C   UNL A   1      42.332  23.530  27.147  1.00  0.00     0.016 A 
ATOM     52  C   UNL A   1      42.856  25.679  25.420  1.00  0.00     0.010 A 
ATOM     53  C   UNL A   1      42.397  24.817  27.629  1.00  0.00     0.010 A 
ATOM     54  C   UNL A   1      42.709  25.892  26.784  1.00  0.00    -0.014 A 
BRANCH  54  55
ATOM     55  C   UNL A   1      42.901  27.163  27.484  1.00  0.00     0.031 A 
ATOM     56  C   UNL A   1      41.690  27.960  27.779  1.00  0.00     0.074 A 
ATOM     57  C   UNL A   1      44.073  27.452  28.104  1.00  0.00     0.049 A 
ATOM     58  N   UNL A   1      41.714  29.087  28.390  1.00  0.00    -0.248 NA
ATOM     59  C   UNL A   1      40.331  27.558  27.411  1.00  0.00     0.031 C 
ATOM     60  C   UNL A   1      44.331  28.405  29.183  1.00  0.00     0.029 A 
ATOM     61  N   UNL A   1      45.361  26.982  27.822  1.00  0.00    -0.354 N 
ATOM     62  C   UNL A   1      40.441  29.360  28.816  1.00  0.00     0.074 A 
ATOM     63  C   UNL A   1      39.599  28.450  28.085  1.00  0.00     0.031 C 
ATOM     64  C   UNL A   1      45.635  28.728  29.190  1.00  0.00     0.029 A 
ATOM     65  C   UNL A   1      46.238  28.048  28.057  1.00  0.00     0.049 A 
ATOM     66  H   UNL A   1      45.604  26.078  27.517  1.00  0.00     0.167 HD
ATOM     67  C   UNL A   1      40.298  30.245  29.840  1.00  0.00     0.031 A 
ATOM     68  C   UNL A   1      46.963  28.590  27.047  1.00  0.00     0.031 A 
ATOM     69  C   UNL A   1      41.567  30.954  30.090  1.00  0.00     0.049 A 
ATOM     70  C   UNL A   1      46.535  30.024  26.953  1.00  0.00     0.074 A 
ATOM     71  C   UNL A   1      42.487  30.960  31.124  1.00  0.00     0.029 A 
ATOM     72  N   UNL A   1      42.213  31.557  29.001  1.00  0.00    -0.354 N 
ATOM     73  N   UNL A   1      45.311  30.419  27.212  1.00  0.00    -0.248 NA
ATOM     74  C   UNL A   1      47.499  31.117  26.894  1.00  0.00     0.031 C 
ATOM     75  C   UNL A   1      43.727  31.451  30.596  1.00  0.00     0.029 A 
ATOM     76  C   UNL A   1      43.555  31.771  29.253  1.00  0.00     0.049 A 
ATOM     77  H   UNL A   1      41.764  31.799  28.158  1.00  0.00     0.167 HD
ATOM     78  C   UNL A   1      45.362  31.737  27.576  1.00  0.00     0.074 A 
ATOM     79  C   UNL A   1      46.734  32.146  27.291  1.00  0.00     0.031 C 
ATOM     80  C   UNL A   1      44.403  32.429  28.259  1.00  0.00     0.031 A 
BRANCH  67  81
ATOM     81  C   UNL A   1      39.057  30.340  30.703  1.00  0.00    -0.014 A 
ATOM     82  C   UNL A   1      38.154  29.265  30.757  1.00  0.00     0.009 A 
ATOM     83  C   UNL A   1      38.675  31.489  31.426  1.00  0.00     0.009 A 
ATOM     84  C   UNL A   1      36.967  29.326  31.511  1.00  0.00     0.001 A 
ATOM     85  C   UNL A   1      37.510  31.548  32.205  1.00  0.00     0.001 A 
ATOM     86  C   UNL A   1      36.653  30.462  32.249  1.00  0.00     0.000 A 
ENDBRANCH  67  81
BRANCH  68  87
ATOM     87  C   UNL A   1      47.368  27.565  26.034  1.00  0.00    -0.014 A 
ATOM     88  C   UNL A   1      46.867  27.779  24.726  1.00  0.00     0.009 A 
ATOM     89  C   UNL A   1      48.542  26.808  26.151  1.00  0.00     0.009 A 
ATOM     90  C   UNL A   1      47.611  27.452  23.585  1.00  0.00     0.001 A 
ATOM     91  C   UNL A   1      49.266  26.439  24.998  1.00  0.00     0.001 A 
ATOM     92  C   UNL A   1      48.835  26.816  23.725  1.00  0.00     0.000 A 
ENDBRANCH  68  87
BRANCH  80  93
ATOM     93  C   UNL A   1      44.185  33.892  27.979  1.00  0.00    -0.014 A 
ATOM     94  C   UNL A   1      44.456  34.899  28.919  1.00  0.00     0.009 A 
ATOM     95  C   UNL A   1      43.912  34.308  26.660  1.00  0.00     0.009 A 
ATOM     96  C   UNL A   1      44.426  36.249  28.572  1.00  0.00     0.001 A 
ATOM     97  C   UNL A   1      43.943  35.652  26.295  1.00  0.00     0.001 A 
ATOM     98  C   UNL A   1      44.190  36.623  27.255  1.00  0.00     0.000 A 
ENDBRANCH  80  93
ENDBRANCH  54  55
ENDBRANCH  47  49
ENDBRANCH  46  47
ENDBRANCH  45  46
ENDBRANCH  44  45
ENDBRANCH  43  44
ENDBRANCH  42  43
ENDBRANCH   1  42
TORSDOF 21
ENDMDL
MODEL 3
REMARK VINA RESULT:     -11.8      2.530      8.970
REMARK SMILES Cc1ccc(S(=O)(=O)n2cc(C(=O)C(=O)N[C@@H](Cc3c[nH]c4ccccc34)C(=O)OCCOCCOC(=O)c3ccc(-c4c5nc(c(-c6ccccc6)c6ccc([nH]6)c(-c6ccccc6)c6nc(c(-c7ccccc7)c7ccc4[nH]7)C=C6)C=C5)cc3)c3ccccc32)cc1
REMARK SMILES IDX 31 1 30 2 28 3 29 4 17 5 16 6 14 7 15 8 12 10 13 11 11 12
REMARK SMILES IDX 9 13 10 14 92 15 87 16 91 17 88 18 90 19 89 20 6 21 7 22
REMARK SMILES IDX 8 23 5 24 1 25 2 26 3 27 94 28 4 29 93 30 18 31 19 32 20 33
REMARK SMILES IDX 27 34 21 35 22 36 26 37 23 39 25 40 24 41 32 42 33 43 34 44
REMARK SMILES IDX 35 45 36 46 37 47 38 48 39 49 40 50 86 51 41 52 85 53 42 54
REMARK SMILES IDX 43 55 44 56 79 57 45 58 84 59 78 60 80 61 46 62 83 63 77 64
REMARK SMILES IDX 76 65 47 67 69 68 54 69 68 70 55 71 58 72 67 73 81 74 56 75
REMARK SMILES IDX 57 76 66 78 82 79 59 80 48 81 49 82 53 83 50 84 52 85 51 86
REMARK SMILES IDX 70 87 71 88 75 89 72 90 74 91 73 92 60 93 61 94 65 95 62 96
REMARK SMILES IDX 64 97 63 98
REMARK H PARENT 16 9 21 38 80 66 58 77
REMARK Flexibility Score: inf
ROOT
ATOM      1  C   UNL A   1      33.615  30.787  27.806  1.00  0.00     0.261 C 
ENDROOT
BRANCH   1   2
ATOM      2  O   UNL A   1      33.251  30.354  26.501  1.00  0.00    -0.462 OA
BRANCH   2   3
ATOM      3  C   UNL A   1      33.222  29.002  26.265  1.00  0.00     0.329 C 
ATOM      4  O   UNL A   1      34.060  28.200  26.597  1.00  0.00    -0.250 OA
BRANCH   3   5
ATOM      5  C   UNL A   1      31.998  28.709  25.384  1.00  0.00     0.197 C 
BRANCH   5   6
ATOM      6  N   UNL A   1      31.083  27.826  26.149  1.00  0.00    -0.335 N 
ATOM      7  C   UNL A   1      30.826  26.485  26.002  1.00  0.00     0.293 C 
ATOM      8  O   UNL A   1      30.134  25.863  26.797  1.00  0.00    -0.265 OA
ATOM      9  H   UNL A   1      30.583  28.270  26.872  1.00  0.00     0.164 HD
BRANCH   7  10
ATOM     10  C   UNL A   1      31.488  25.757  24.855  1.00  0.00     0.252 C 
ATOM     11  O   UNL A   1      30.796  25.615  23.848  1.00  0.00    -0.283 OA
BRANCH  10  12
ATOM     12  C   UNL A   1      32.773  25.092  25.004  1.00  0.00     0.054 A 
ATOM     13  N   UNL A   1      34.918  24.424  24.963  1.00  0.00    -0.240 N 
ATOM     14  C   UNL A   1      33.991  25.254  24.338  1.00  0.00     0.117 A 
ATOM     15  C   UNL A   1      34.333  23.987  26.168  1.00  0.00     0.065 A 
ATOM     16  C   UNL A   1      32.964  24.038  25.936  1.00  0.00     0.012 A 
ATOM     17  C   UNL A   1      34.867  23.242  27.234  1.00  0.00     0.028 A 
ATOM     18  C   UNL A   1      32.114  23.173  26.652  1.00  0.00     0.011 A 
ATOM     19  C   UNL A   1      34.022  22.331  27.868  1.00  0.00     0.002 A 
ATOM     20  C   UNL A   1      32.671  22.264  27.551  1.00  0.00     0.001 A 
BRANCH  13  21
ATOM     21  S   UNL A   1      35.782  23.108  24.220  1.00  0.00     0.268 S 
ATOM     22  O   UNL A   1      37.131  23.263  24.739  1.00  0.00    -0.201 OA
ATOM     23  O   UNL A   1      35.481  23.324  22.809  1.00  0.00    -0.201 OA
BRANCH  21  24
ATOM     24  C   UNL A   1      35.441  21.399  24.372  1.00  0.00     0.088 A 
ATOM     25  C   UNL A   1      33.495  17.593  24.932  1.00  0.00     0.044 C 
ATOM     26  C   UNL A   1      34.224  18.881  24.679  1.00  0.00    -0.051 A 
ATOM     27  C   UNL A   1      33.459  19.958  24.260  1.00  0.00     0.005 A 
ATOM     28  C   UNL A   1      35.609  19.065  24.903  1.00  0.00     0.005 A 
ATOM     29  C   UNL A   1      34.067  21.184  24.095  1.00  0.00     0.022 A 
ATOM     30  C   UNL A   1      36.233  20.332  24.755  1.00  0.00     0.022 A 
ENDBRANCH  21  24
ENDBRANCH  13  21
ENDBRANCH  10  12
ENDBRANCH   7  10
ENDBRANCH   5   6
BRANCH   5  31
ATOM     31  C   UNL A   1      31.304  30.035  24.990  1.00  0.00     0.074 C 
BRANCH  31  32
ATOM     32  C   UNL A   1      30.361  29.914  23.818  1.00  0.00    -0.020 A 
ATOM     33  C   UNL A   1      30.234  28.801  23.010  1.00  0.00     0.087 A 
ATOM     34  C   UNL A   1      29.518  30.928  23.250  1.00  0.00     0.003 A 
ATOM     35  N   UNL A   1      29.446  29.129  21.941  1.00  0.00    -0.361 N 
ATOM     36  C   UNL A   1      29.037  30.438  22.036  1.00  0.00     0.046 A 
ATOM     37  C   UNL A   1      29.187  32.253  23.609  1.00  0.00     0.010 A 
ATOM     38  H   UNL A   1      29.207  28.516  21.209  1.00  0.00     0.166 HD
ATOM     39  C   UNL A   1      28.297  31.222  21.143  1.00  0.00     0.026 A 
ATOM     40  C   UNL A   1      28.493  33.065  22.707  1.00  0.00     0.001 A 
ATOM     41  C   UNL A   1      28.062  32.557  21.488  1.00  0.00     0.002 A 
ENDBRANCH  31  32
ENDBRANCH   5  31
ENDBRANCH   3   5
ENDBRANCH   2   3
ENDBRANCH   1   2
BRANCH   1  42
ATOM     42  C   UNL A   1      34.170  32.176  27.718  1.00  0.00     0.202 C 
BRANCH  42  43
ATOM     43  O   UNL A   1      33.063  33.058  27.624  1.00  0.00    -0.374 OA
BRANCH  43  44
ATOM     44  C   UNL A   1      33.340  34.390  28.037  1.00  0.00     0.202 C 
BRANCH  44  45
ATOM     45  C   UNL A   1      33.183  34.622  29.547  1.00  0.00     0.261 C 
BRANCH  45  46
ATOM     46  O   UNL A   1      34.465  34.949  30.117  1.00  0.00    -0.460 OA
BRANCH  46  47
ATOM     47  C   UNL A   1      34.728  34.398  31.332  1.00  0.00     0.338 C 
ATOM     48  O   UNL A   1      34.577  34.948  32.411  1.00  0.00    -0.246 OA
BRANCH  47  49
ATOM     49  C   UNL A   1      35.517  33.147  31.146  1.00  0.00     0.060 A 
ATOM     50  C   UNL A   1      35.479  32.151  32.140  1.00  0.00     0.016 A 
ATOM     51  C   UNL A   1      36.528  33.134  30.188  1.00  0.00     0.016 A 
ATOM     52  C   UNL A   1      36.549  31.259  32.275  1.00  0.00     0.010 A 
ATOM     53  C   UNL A   1      37.622  32.325  30.392  1.00  0.00     0.010 A 
ATOM     54  C   UNL A   1      37.664  31.420  31.463  1.00  0.00    -0.014 A 
BRANCH  54  55
ATOM     55  C   UNL A   1      38.959  30.760  31.635  1.00  0.00     0.031 A 
ATOM     56  C   UNL A   1      39.162  29.479  30.925  1.00  0.00     0.074 A 
ATOM     57  C   UNL A   1      40.022  31.426  32.155  1.00  0.00     0.049 A 
ATOM     58  N   UNL A   1      40.248  28.800  30.983  1.00  0.00    -0.248 NA
ATOM     59  C   UNL A   1      38.154  28.840  30.077  1.00  0.00     0.031 C 
ATOM     60  C   UNL A   1      41.448  31.132  32.013  1.00  0.00     0.029 A 
ATOM     61  N   UNL A   1      40.039  32.516  33.033  1.00  0.00    -0.354 N 
ATOM     62  C   UNL A   1      40.236  27.899  29.951  1.00  0.00     0.074 A 
ATOM     63  C   UNL A   1      38.872  27.876  29.491  1.00  0.00     0.031 C 
ATOM     64  C   UNL A   1      42.123  31.710  33.021  1.00  0.00     0.029 A 
ATOM     65  C   UNL A   1      41.134  32.328  33.886  1.00  0.00     0.049 A 
ATOM     66  H   UNL A   1      39.403  33.268  33.048  1.00  0.00     0.167 HD
ATOM     67  C   UNL A   1      41.431  27.392  29.545  1.00  0.00     0.031 A 
ATOM     68  C   UNL A   1      40.955  32.143  35.218  1.00  0.00     0.031 A 
ATOM     69  C   UNL A   1      42.488  27.719  30.521  1.00  0.00     0.049 A 
ATOM     70  C   UNL A   1      41.517  30.787  35.525  1.00  0.00     0.074 A 
ATOM     71  C   UNL A   1      43.607  28.534  30.503  1.00  0.00     0.029 A 
ATOM     72  N   UNL A   1      42.256  27.420  31.872  1.00  0.00    -0.354 N 
ATOM     73  N   UNL A   1      41.467  29.786  34.676  1.00  0.00    -0.248 NA
ATOM     74  C   UNL A   1      42.441  30.564  36.632  1.00  0.00     0.031 C 
ATOM     75  C   UNL A   1      43.954  28.822  31.865  1.00  0.00     0.029 A 
ATOM     76  C   UNL A   1      43.068  28.161  32.710  1.00  0.00     0.049 A 
ATOM     77  H   UNL A   1      41.593  26.761  32.185  1.00  0.00     0.167 HD
ATOM     78  C   UNL A   1      42.484  28.924  34.980  1.00  0.00     0.074 A 
ATOM     79  C   UNL A   1      43.016  29.413  36.249  1.00  0.00     0.031 C 
ATOM     80  C   UNL A   1      43.013  27.970  34.159  1.00  0.00     0.031 A 
BRANCH  67  81
ATOM     81  C   UNL A   1      41.658  26.747  28.194  1.00  0.00    -0.014 A 
ATOM     82  C   UNL A   1      42.525  25.648  28.076  1.00  0.00     0.009 A 
ATOM     83  C   UNL A   1      41.110  27.219  26.982  1.00  0.00     0.009 A 
ATOM     84  C   UNL A   1      42.799  25.044  26.835  1.00  0.00     0.001 A 
ATOM     85  C   UNL A   1      41.353  26.604  25.745  1.00  0.00     0.001 A 
ATOM     86  C   UNL A   1      42.200  25.512  25.671  1.00  0.00     0.000 A 
ENDBRANCH  67  81
BRANCH  68  87
ATOM     87  C   UNL A   1      39.789  32.920  35.742  1.00  0.00    -0.014 A 
ATOM     88  C   UNL A   1      38.677  32.140  36.144  1.00  0.00     0.009 A 
ATOM     89  C   UNL A   1      39.926  34.186  36.327  1.00  0.00     0.009 A 
ATOM     90  C   UNL A   1      37.871  32.504  37.231  1.00  0.00     0.001 A 
ATOM     91  C   UNL A   1      39.083  34.569  37.392  1.00  0.00     0.001 A 
ATOM     92  C   UNL A   1      38.103  33.705  37.883  1.00  0.00     0.000 A 
ENDBRANCH  68  87
BRANCH  80  93
ATOM     93  C   UNL A   1      43.531  26.680  34.738  1.00  0.00    -0.014 A 
ATOM     94  C   UNL A   1      44.861  26.509  35.153  1.00  0.00     0.009 A 
ATOM     95  C   UNL A   1      42.617  25.667  35.091  1.00  0.00     0.009 A 
ATOM     96  C   UNL A   1      45.266  25.375  35.856  1.00  0.00     0.001 A 
ATOM     97  C   UNL A   1      43.004  24.563  35.848  1.00  0.00     0.001 A 
ATOM     98  C   UNL A   1      44.332  24.413  36.221  1.00  0.00     0.000 A 
ENDBRANCH  80  93
ENDBRANCH  54  55
ENDBRANCH  47  49
ENDBRANCH  46  47
ENDBRANCH  45  46
ENDBRANCH  44  45
ENDBRANCH  43  44
ENDBRANCH  42  43
ENDBRANCH   1  42
TORSDOF 21
ENDMDL
