MODEL 1
REMARK VINA RESULT:     -10.9      0.000      0.000
REMARK SMILES COc1ccc(C(=O)Nc2cc(C(=O)OCCOCCOC(=O)c3ccc(-c4c5nc(c(-c6ccccc6)c6ccc([nH]6)c(-c6ccccc6)c6nc(c(-c7ccccc7)c7ccc4[nH]7)C=C6)C=C5)cc3)c(Cl)cc2Cl)cc1Cl
REMARK SMILES IDX 17 1 16 2 15 3 13 4 14 5 12 6 10 7 11 8 75 9 74 10 76 11
REMARK SMILES IDX 72 12 73 13 9 14 7 15 8 16 6 18 3 19 4 20 78 21 5 22 77 23
REMARK SMILES IDX 79 24 2 25 1 26 18 27 19 28 20 29 21 30 22 31 23 32 24 33
REMARK SMILES IDX 25 34 71 35 26 36 70 37 27 38 28 39 29 40 64 41 30 42 69 43
REMARK SMILES IDX 63 44 65 45 31 46 68 47 62 48 61 49 32 51 54 52 39 53 53 54
REMARK SMILES IDX 40 55 43 56 52 57 66 58 41 59 42 60 51 62 67 63 44 64 33 65
REMARK SMILES IDX 34 66 38 67 35 68 37 69 36 70 55 71 56 72 60 73 57 74 59 75
REMARK SMILES IDX 58 76 45 77 46 78 50 79 47 80 49 81 48 82
REMARK H PARENT 9 17 65 50 43 61
REMARK Flexibility Score: inf
ROOT
ATOM      1  C   UNL A   1      33.917  32.058  27.649  1.00  0.00     0.202 C 
ENDROOT
BRANCH   1   2
ATOM      2  C   UNL A   1      32.953  30.922  27.296  1.00  0.00     0.261 C 
BRANCH   2   3
ATOM      3  O   UNL A   1      33.263  30.272  26.053  1.00  0.00    -0.460 OA
BRANCH   3   4
ATOM      4  C   UNL A   1      33.771  29.023  26.175  1.00  0.00     0.339 C 
ATOM      5  O   UNL A   1      34.795  28.697  26.751  1.00  0.00    -0.246 OA
BRANCH   4   6
ATOM      6  C   UNL A   1      32.825  28.015  25.663  1.00  0.00     0.080 A 
ATOM      7  C   UNL A   1      32.044  26.813  23.699  1.00  0.00     0.061 A 
ATOM      8  C   UNL A   1      32.994  27.625  24.320  1.00  0.00     0.045 A 
ATOM      9  C   UNL A   1      30.900  26.431  24.415  1.00  0.00     0.066 A 
ATOM     10  C   UNL A   1      30.773  26.750  25.769  1.00  0.00     0.044 A 
ATOM     11  Cl  UNL A   1      29.659  25.485  23.673  1.00  0.00    -0.082 Cl
ATOM     12  C   UNL A   1      31.737  27.540  26.401  1.00  0.00     0.057 A 
ATOM     13  Cl  UNL A   1      31.485  27.921  28.064  1.00  0.00    -0.083 Cl
BRANCH   7  14
ATOM     14  N   UNL A   1      32.186  26.425  22.355  1.00  0.00    -0.321 N 
ATOM     15  C   UNL A   1      32.991  25.459  21.793  1.00  0.00     0.255 C 
ATOM     16  O   UNL A   1      33.267  25.516  20.597  1.00  0.00    -0.269 OA
ATOM     17  H   UNL A   1      31.624  26.921  21.717  1.00  0.00     0.170 HD
BRANCH  15  18
ATOM     18  C   UNL A   1      33.387  24.243  22.565  1.00  0.00     0.041 A 
ATOM     19  C   UNL A   1      33.925  22.026  24.251  1.00  0.00     0.137 A 
ATOM     20  C   UNL A   1      32.767  22.077  23.460  1.00  0.00     0.049 A 
ATOM     21  C   UNL A   1      34.790  23.125  24.228  1.00  0.00     0.083 A 
ATOM     22  C   UNL A   1      32.494  23.172  22.631  1.00  0.00     0.018 A 
ATOM     23  C   UNL A   1      34.523  24.220  23.385  1.00  0.00     0.038 A 
ATOM     24  Cl  UNL A   1      36.159  23.309  25.268  1.00  0.00    -0.080 Cl
BRANCH  19  25
ATOM     25  O   UNL A   1      33.978  20.904  25.030  1.00  0.00    -0.495 OA
ATOM     26  C   UNL A   1      32.858  20.030  25.057  1.00  0.00     0.278 C 
ENDBRANCH  19  25
ENDBRANCH  15  18
ENDBRANCH   7  14
ENDBRANCH   4   6
ENDBRANCH   3   4
ENDBRANCH   2   3
ENDBRANCH   1   2
BRANCH   1  27
ATOM     27  O   UNL A   1      33.416  33.290  28.148  1.00  0.00    -0.374 OA
BRANCH  27  28
ATOM     28  C   UNL A   1      34.235  34.100  28.973  1.00  0.00     0.202 C 
BRANCH  28  29
ATOM     29  C   UNL A   1      34.481  33.744  30.450  1.00  0.00     0.261 C 
BRANCH  29  30
ATOM     30  O   UNL A   1      34.707  32.374  30.764  1.00  0.00    -0.460 OA
BRANCH  30  31
ATOM     31  C   UNL A   1      35.529  32.170  31.822  1.00  0.00     0.338 C 
ATOM     32  O   UNL A   1      35.324  32.411  32.999  1.00  0.00    -0.246 OA
BRANCH  31  33
ATOM     33  C   UNL A   1      36.751  31.550  31.306  1.00  0.00     0.060 A 
ATOM     34  C   UNL A   1      37.670  30.996  32.201  1.00  0.00     0.016 A 
ATOM     35  C   UNL A   1      36.975  31.529  29.928  1.00  0.00     0.016 A 
ATOM     36  C   UNL A   1      38.829  30.403  31.711  1.00  0.00     0.010 A 
ATOM     37  C   UNL A   1      38.137  30.937  29.441  1.00  0.00     0.010 A 
ATOM     38  C   UNL A   1      39.072  30.381  30.331  1.00  0.00    -0.014 A 
BRANCH  38  39
ATOM     39  C   UNL A   1      40.341  29.831  29.811  1.00  0.00     0.031 A 
ATOM     40  C   UNL A   1      41.536  30.731  29.691  1.00  0.00     0.074 A 
ATOM     41  C   UNL A   1      40.404  28.541  29.437  1.00  0.00     0.049 A 
ATOM     42  N   UNL A   1      42.721  30.467  29.208  1.00  0.00    -0.248 NA
ATOM     43  C   UNL A   1      41.372  32.113  30.172  1.00  0.00     0.031 C 
ATOM     44  C   UNL A   1      39.303  27.580  29.526  1.00  0.00     0.029 A 
ATOM     45  N   UNL A   1      41.435  27.819  28.894  1.00  0.00    -0.354 N 
ATOM     46  C   UNL A   1      43.439  31.652  29.311  1.00  0.00     0.074 A 
ATOM     47  C   UNL A   1      42.551  32.642  29.878  1.00  0.00     0.031 C 
ATOM     48  C   UNL A   1      39.718  26.395  29.049  1.00  0.00     0.029 A 
ATOM     49  C   UNL A   1      41.095  26.527  28.582  1.00  0.00     0.049 A 
ATOM     50  H   UNL A   1      42.333  28.193  28.743  1.00  0.00     0.167 HD
ATOM     51  C   UNL A   1      44.725  31.886  28.962  1.00  0.00     0.031 A 
ATOM     52  C   UNL A   1      41.808  25.567  27.961  1.00  0.00     0.031 A 
ATOM     53  C   UNL A   1      45.594  30.892  28.389  1.00  0.00     0.049 A 
ATOM     54  C   UNL A   1      43.218  25.875  27.535  1.00  0.00     0.074 A 
ATOM     55  C   UNL A   1      46.926  31.014  28.035  1.00  0.00     0.029 A 
ATOM     56  N   UNL A   1      45.211  29.597  28.077  1.00  0.00    -0.354 N 
ATOM     57  N   UNL A   1      43.905  26.983  27.688  1.00  0.00    -0.248 NA
ATOM     58  C   UNL A   1      43.954  24.800  26.856  1.00  0.00     0.031 C 
ATOM     59  C   UNL A   1      47.329  29.814  27.444  1.00  0.00     0.029 A 
ATOM     60  C   UNL A   1      46.270  28.921  27.498  1.00  0.00     0.049 A 
ATOM     61  H   UNL A   1      44.318  29.216  28.241  1.00  0.00     0.167 HD
ATOM     62  C   UNL A   1      45.161  26.727  27.152  1.00  0.00     0.074 A 
ATOM     63  C   UNL A   1      45.146  25.354  26.689  1.00  0.00     0.031 C 
ATOM     64  C   UNL A   1      46.230  27.553  27.046  1.00  0.00     0.031 A 
BRANCH  51  65
ATOM     65  C   UNL A   1      45.263  33.277  29.153  1.00  0.00    -0.014 A 
ATOM     66  C   UNL A   1      45.095  34.270  28.176  1.00  0.00     0.009 A 
ATOM     67  C   UNL A   1      45.897  33.613  30.361  1.00  0.00     0.009 A 
ATOM     68  C   UNL A   1      45.573  35.565  28.396  1.00  0.00     0.001 A 
ATOM     69  C   UNL A   1      46.347  34.914  30.588  1.00  0.00     0.001 A 
ATOM     70  C   UNL A   1      46.190  35.887  29.603  1.00  0.00     0.000 A 
ENDBRANCH  51  65
BRANCH  52  71
ATOM     71  C   UNL A   1      41.195  24.243  27.672  1.00  0.00    -0.014 A 
ATOM     72  C   UNL A   1      41.654  23.081  28.311  1.00  0.00     0.009 A 
ATOM     73  C   UNL A   1      40.161  24.131  26.728  1.00  0.00     0.009 A 
ATOM     74  C   UNL A   1      41.117  21.833  27.983  1.00  0.00     0.001 A 
ATOM     75  C   UNL A   1      39.601  22.887  26.428  1.00  0.00     0.001 A 
ATOM     76  C   UNL A   1      40.090  21.738  27.045  1.00  0.00     0.000 A 
ENDBRANCH  52  71
BRANCH  64  77
ATOM     77  C   UNL A   1      47.482  26.981  26.442  1.00  0.00    -0.014 A 
ATOM     78  C   UNL A   1      47.745  27.086  25.068  1.00  0.00     0.009 A 
ATOM     79  C   UNL A   1      48.436  26.371  27.273  1.00  0.00     0.009 A 
ATOM     80  C   UNL A   1      48.922  26.557  24.533  1.00  0.00     0.001 A 
ATOM     81  C   UNL A   1      49.627  25.876  26.742  1.00  0.00     0.001 A 
ATOM     82  C   UNL A   1      49.863  25.960  25.371  1.00  0.00     0.000 A 
ENDBRANCH  64  77
ENDBRANCH  38  39
ENDBRANCH  31  33
ENDBRANCH  30  31
ENDBRANCH  29  30
ENDBRANCH  28  29
ENDBRANCH  27  28
ENDBRANCH   1  27
TORSDOF 17
ENDMDL
MODEL 2
REMARK VINA RESULT:     -10.8      3.523      7.863
REMARK SMILES COc1ccc(C(=O)Nc2cc(C(=O)OCCOCCOC(=O)c3ccc(-c4c5nc(c(-c6ccccc6)c6ccc([nH]6)c(-c6ccccc6)c6nc(c(-c7ccccc7)c7ccc4[nH]7)C=C6)C=C5)cc3)c(Cl)cc2Cl)cc1Cl
REMARK SMILES IDX 17 1 16 2 15 3 13 4 14 5 12 6 10 7 11 8 75 9 74 10 76 11
REMARK SMILES IDX 72 12 73 13 9 14 7 15 8 16 6 18 3 19 4 20 78 21 5 22 77 23
REMARK SMILES IDX 79 24 2 25 1 26 18 27 19 28 20 29 21 30 22 31 23 32 24 33
REMARK SMILES IDX 25 34 71 35 26 36 70 37 27 38 28 39 29 40 64 41 30 42 69 43
REMARK SMILES IDX 63 44 65 45 31 46 68 47 62 48 61 49 32 51 54 52 39 53 53 54
REMARK SMILES IDX 40 55 43 56 52 57 66 58 41 59 42 60 51 62 67 63 44 64 33 65
REMARK SMILES IDX 34 66 38 67 35 68 37 69 36 70 55 71 56 72 60 73 57 74 59 75
REMARK SMILES IDX 58 76 45 77 46 78 50 79 47 80 49 81 48 82
REMARK H PARENT 9 17 65 50 43 61
REMARK Flexibility Score: inf
ROOT
ATOM      1  C   UNL A   1      34.391  23.661  23.172  1.00  0.00     0.202 C 
ENDROOT
BRANCH   1   2
ATOM      2  C   UNL A   1      33.380  24.112  22.113  1.00  0.00     0.261 C 
BRANCH   2   3
ATOM      3  O   UNL A   1      33.463  25.511  21.802  1.00  0.00    -0.460 OA
BRANCH   3   4
ATOM      4  C   UNL A   1      32.350  26.226  22.091  1.00  0.00     0.339 C 
ATOM      5  O   UNL A   1      31.373  26.389  21.378  1.00  0.00    -0.246 OA
BRANCH   4   6
ATOM      6  C   UNL A   1      32.356  26.670  23.496  1.00  0.00     0.080 A 
ATOM      7  C   UNL A   1      31.371  26.366  25.699  1.00  0.00     0.061 A 
ATOM      8  C   UNL A   1      31.568  25.919  24.392  1.00  0.00     0.045 A 
ATOM      9  C   UNL A   1      31.930  27.590  26.093  1.00  0.00     0.066 A 
ATOM     10  C   UNL A   1      32.776  28.293  25.232  1.00  0.00     0.044 A 
ATOM     11  Cl  UNL A   1      31.659  28.224  27.678  1.00  0.00    -0.082 Cl
ATOM     12  C   UNL A   1      32.996  27.834  23.930  1.00  0.00     0.057 A 
ATOM     13  Cl  UNL A   1      34.023  28.780  22.918  1.00  0.00    -0.083 Cl
BRANCH   7  14
ATOM     14  N   UNL A   1      30.577  25.639  26.604  1.00  0.00    -0.321 N 
ATOM     15  C   UNL A   1      30.337  24.285  26.682  1.00  0.00     0.255 C 
ATOM     16  O   UNL A   1      29.342  23.876  27.274  1.00  0.00    -0.269 OA
ATOM     17  H   UNL A   1      30.122  26.183  27.287  1.00  0.00     0.170 HD
BRANCH  15  18
ATOM     18  C   UNL A   1      31.356  23.296  26.218  1.00  0.00     0.041 A 
ATOM     19  C   UNL A   1      33.104  21.192  25.468  1.00  0.00     0.137 A 
ATOM     20  C   UNL A   1      31.906  21.426  24.776  1.00  0.00     0.049 A 
ATOM     21  C   UNL A   1      33.395  21.994  26.577  1.00  0.00     0.083 A 
ATOM     22  C   UNL A   1      31.037  22.459  25.146  1.00  0.00     0.018 A 
ATOM     23  C   UNL A   1      32.528  23.041  26.940  1.00  0.00     0.038 A 
ATOM     24  Cl  UNL A   1      34.727  21.731  27.646  1.00  0.00    -0.080 Cl
BRANCH  19  25
ATOM     25  O   UNL A   1      33.782  20.105  24.990  1.00  0.00    -0.495 OA
ATOM     26  C   UNL A   1      33.150  18.832  25.017  1.00  0.00     0.278 C 
ENDBRANCH  19  25
ENDBRANCH  15  18
ENDBRANCH   7  14
ENDBRANCH   4   6
ENDBRANCH   3   4
ENDBRANCH   2   3
ENDBRANCH   1   2
BRANCH   1  27
ATOM     27  O   UNL A   1      35.633  23.098  22.778  1.00  0.00    -0.374 OA
BRANCH  27  28
ATOM     28  C   UNL A   1      36.560  22.676  23.765  1.00  0.00     0.202 C 
BRANCH  28  29
ATOM     29  C   UNL A   1      37.032  23.631  24.876  1.00  0.00     0.261 C 
BRANCH  29  30
ATOM     30  O   UNL A   1      37.497  23.046  26.087  1.00  0.00    -0.460 OA
BRANCH  30  31
ATOM     31  C   UNL A   1      38.846  22.990  26.202  1.00  0.00     0.338 C 
ATOM     32  O   UNL A   1      39.603  22.114  25.822  1.00  0.00    -0.246 OA
BRANCH  31  33
ATOM     33  C   UNL A   1      39.276  24.229  26.853  1.00  0.00     0.060 A 
ATOM     34  C   UNL A   1      38.899  24.476  28.175  1.00  0.00     0.016 A 
ATOM     35  C   UNL A   1      40.052  25.142  26.136  1.00  0.00     0.016 A 
ATOM     36  C   UNL A   1      39.313  25.651  28.796  1.00  0.00     0.010 A 
ATOM     37  C   UNL A   1      40.462  26.318  26.758  1.00  0.00     0.010 A 
ATOM     38  C   UNL A   1      40.085  26.580  28.086  1.00  0.00    -0.014 A 
BRANCH  38  39
ATOM     39  C   UNL A   1      40.453  27.869  28.711  1.00  0.00     0.031 A 
ATOM     40  C   UNL A   1      41.817  28.027  29.315  1.00  0.00     0.074 A 
ATOM     41  C   UNL A   1      39.558  28.872  28.744  1.00  0.00     0.049 A 
ATOM     42  N   UNL A   1      42.318  29.047  29.961  1.00  0.00    -0.248 NA
ATOM     43  C   UNL A   1      42.735  26.884  29.184  1.00  0.00     0.031 C 
ATOM     44  C   UNL A   1      38.211  28.823  28.172  1.00  0.00     0.029 A 
ATOM     45  N   UNL A   1      39.643  30.124  29.294  1.00  0.00    -0.354 N 
ATOM     46  C   UNL A   1      43.603  28.664  30.325  1.00  0.00     0.074 A 
ATOM     47  C   UNL A   1      43.796  27.311  29.853  1.00  0.00     0.031 C 
ATOM     48  C   UNL A   1      37.594  29.993  28.406  1.00  0.00     0.029 A 
ATOM     49  C   UNL A   1      38.485  30.852  29.181  1.00  0.00     0.049 A 
ATOM     50  H   UNL A   1      40.457  30.468  29.729  1.00  0.00     0.167 HD
ATOM     51  C   UNL A   1      44.534  29.382  30.995  1.00  0.00     0.031 A 
ATOM     52  C   UNL A   1      38.171  32.066  29.673  1.00  0.00     0.031 A 
ATOM     53  C   UNL A   1      44.324  30.725  31.467  1.00  0.00     0.049 A 
ATOM     54  C   UNL A   1      39.210  32.818  30.461  1.00  0.00     0.074 A 
ATOM     55  C   UNL A   1      45.215  31.556  32.122  1.00  0.00     0.029 A 
ATOM     56  N   UNL A   1      43.134  31.426  31.344  1.00  0.00    -0.354 N 
ATOM     57  N   UNL A   1      40.441  32.468  30.752  1.00  0.00    -0.248 NA
ATOM     58  C   UNL A   1      38.819  34.135  30.984  1.00  0.00     0.031 C 
ATOM     59  C   UNL A   1      44.542  32.734  32.457  1.00  0.00     0.029 A 
ATOM     60  C   UNL A   1      43.255  32.666  31.946  1.00  0.00     0.049 A 
ATOM     61  H   UNL A   1      42.324  31.091  30.897  1.00  0.00     0.167 HD
ATOM     62  C   UNL A   1      40.979  33.532  31.465  1.00  0.00     0.074 A 
ATOM     63  C   UNL A   1      39.948  34.547  31.543  1.00  0.00     0.031 C 
ATOM     64  C   UNL A   1      42.213  33.659  32.010  1.00  0.00     0.031 A 
BRANCH  51  65
ATOM     65  C   UNL A   1      45.852  28.722  31.290  1.00  0.00    -0.014 A 
ATOM     66  C   UNL A   1      46.055  27.980  32.464  1.00  0.00     0.009 A 
ATOM     67  C   UNL A   1      46.889  28.795  30.346  1.00  0.00     0.009 A 
ATOM     68  C   UNL A   1      47.278  27.346  32.696  1.00  0.00     0.001 A 
ATOM     69  C   UNL A   1      48.099  28.136  30.568  1.00  0.00     0.001 A 
ATOM     70  C   UNL A   1      48.295  27.417  31.746  1.00  0.00     0.000 A 
ENDBRANCH  51  65
BRANCH  52  71
ATOM     71  C   UNL A   1      36.810  32.631  29.471  1.00  0.00    -0.014 A 
ATOM     72  C   UNL A   1      35.802  32.442  30.428  1.00  0.00     0.009 A 
ATOM     73  C   UNL A   1      36.504  33.342  28.299  1.00  0.00     0.009 A 
ATOM     74  C   UNL A   1      34.508  32.919  30.199  1.00  0.00     0.001 A 
ATOM     75  C   UNL A   1      35.219  33.848  28.088  1.00  0.00     0.001 A 
ATOM     76  C   UNL A   1      34.219  33.624  29.032  1.00  0.00     0.000 A 
ENDBRANCH  52  71
BRANCH  64  77
ATOM     77  C   UNL A   1      42.527  34.955  32.704  1.00  0.00    -0.014 A 
ATOM     78  C   UNL A   1      42.073  35.216  34.006  1.00  0.00     0.009 A 
ATOM     79  C   UNL A   1      43.331  35.909  32.060  1.00  0.00     0.009 A 
ATOM     80  C   UNL A   1      42.389  36.422  34.634  1.00  0.00     0.001 A 
ATOM     81  C   UNL A   1      43.675  37.097  32.703  1.00  0.00     0.001 A 
ATOM     82  C   UNL A   1      43.194  37.358  33.985  1.00  0.00     0.000 A 
ENDBRANCH  64  77
ENDBRANCH  38  39
ENDBRANCH  31  33
ENDBRANCH  30  31
ENDBRANCH  29  30
ENDBRANCH  28  29
ENDBRANCH  27  28
ENDBRANCH   1  27
TORSDOF 17
ENDMDL
MODEL 3
REMARK VINA RESULT:     -10.6      4.074      9.313
REMARK SMILES COc1ccc(C(=O)Nc2cc(C(=O)OCCOCCOC(=O)c3ccc(-c4c5nc(c(-c6ccccc6)c6ccc([nH]6)c(-c6ccccc6)c6nc(c(-c7ccccc7)c7ccc4[nH]7)C=C6)C=C5)cc3)c(Cl)cc2Cl)cc1Cl
REMARK SMILES IDX 17 1 16 2 15 3 13 4 14 5 12 6 10 7 11 8 75 9 74 10 76 11
REMARK SMILES IDX 72 12 73 13 9 14 7 15 8 16 6 18 3 19 4 20 78 21 5 22 77 23
REMARK SMILES IDX 79 24 2 25 1 26 18 27 19 28 20 29 21 30 22 31 23 32 24 33
REMARK SMILES IDX 25 34 71 35 26 36 70 37 27 38 28 39 29 40 64 41 30 42 69 43
REMARK SMILES IDX 63 44 65 45 31 46 68 47 62 48 61 49 32 51 54 52 39 53 53 54
REMARK SMILES IDX 40 55 43 56 52 57 66 58 41 59 42 60 51 62 67 63 44 64 33 65
REMARK SMILES IDX 34 66 38 67 35 68 37 69 36 70 55 71 56 72 60 73 57 74 59 75
REMARK SMILES IDX 58 76 45 77 46 78 50 79 47 80 49 81 48 82
REMARK H PARENT 9 17 65 50 43 61
REMARK Flexibility Score: inf
ROOT
ATOM      1  C   UNL A   1      39.719  20.612  26.162  1.00  0.00     0.202 C 
ENDROOT
BRANCH   1   2
ATOM      2  C   UNL A   1      38.932  21.846  25.708  1.00  0.00     0.261 C 
BRANCH   2   3
ATOM      3  O   UNL A   1      37.540  21.798  26.057  1.00  0.00    -0.460 OA
BRANCH   3   4
ATOM      4  C   UNL A   1      36.913  22.998  26.062  1.00  0.00     0.339 C 
ATOM      5  O   UNL A   1      37.345  24.054  26.494  1.00  0.00    -0.246 OA
BRANCH   4   6
ATOM      6  C   UNL A   1      35.656  22.941  25.293  1.00  0.00     0.080 A 
ATOM      7  C   UNL A   1      33.252  22.592  25.405  1.00  0.00     0.061 A 
ATOM      8  C   UNL A   1      34.470  22.829  26.045  1.00  0.00     0.045 A 
ATOM      9  C   UNL A   1      33.235  22.422  24.013  1.00  0.00     0.066 A 
ATOM     10  C   UNL A   1      34.397  22.613  23.261  1.00  0.00     0.044 A 
ATOM     11  Cl  UNL A   1      31.767  22.057  23.179  1.00  0.00    -0.082 Cl
ATOM     12  C   UNL A   1      35.612  22.878  23.898  1.00  0.00     0.057 A 
ATOM     13  Cl  UNL A   1      37.007  23.063  22.900  1.00  0.00    -0.083 Cl
BRANCH   7  14
ATOM     14  N   UNL A   1      32.059  22.462  26.138  1.00  0.00    -0.321 N 
ATOM     15  C   UNL A   1      31.269  23.427  26.721  1.00  0.00     0.255 C 
ATOM     16  O   UNL A   1      30.496  23.118  27.625  1.00  0.00    -0.269 OA
ATOM     17  H   UNL A   1      31.740  21.537  26.252  1.00  0.00     0.170 HD
BRANCH  15  18
ATOM     18  C   UNL A   1      31.199  24.808  26.156  1.00  0.00     0.041 A 
ATOM     19  C   UNL A   1      31.203  27.311  24.821  1.00  0.00     0.137 A 
ATOM     20  C   UNL A   1      30.275  26.310  24.493  1.00  0.00     0.049 A 
ATOM     21  C   UNL A   1      32.165  27.026  25.796  1.00  0.00     0.083 A 
ATOM     22  C   UNL A   1      30.273  25.071  25.144  1.00  0.00     0.018 A 
ATOM     23  C   UNL A   1      32.155  25.786  26.460  1.00  0.00     0.038 A 
ATOM     24  Cl  UNL A   1      33.486  28.068  26.193  1.00  0.00    -0.080 Cl
BRANCH  19  25
ATOM     25  O   UNL A   1      31.077  28.422  24.034  1.00  0.00    -0.495 OA
ATOM     26  C   UNL A   1      32.160  28.798  23.195  1.00  0.00     0.278 C 
ENDBRANCH  19  25
ENDBRANCH  15  18
ENDBRANCH   7  14
ENDBRANCH   4   6
ENDBRANCH   3   4
ENDBRANCH   2   3
ENDBRANCH   1   2
BRANCH   1  27
ATOM     27  O   UNL A   1      40.723  20.734  27.159  1.00  0.00    -0.374 OA
BRANCH  27  28
ATOM     28  C   UNL A   1      42.073  20.445  26.836  1.00  0.00     0.202 C 
BRANCH  28  29
ATOM     29  C   UNL A   1      42.822  21.241  25.753  1.00  0.00     0.261 C 
BRANCH  29  30
ATOM     30  O   UNL A   1      42.315  22.527  25.415  1.00  0.00    -0.460 OA
BRANCH  30  31
ATOM     31  C   UNL A   1      43.247  23.510  25.397  1.00  0.00     0.338 C 
ATOM     32  O   UNL A   1      44.186  23.650  24.632  1.00  0.00    -0.246 OA
BRANCH  31  33
ATOM     33  C   UNL A   1      42.911  24.445  26.472  1.00  0.00     0.060 A 
ATOM     34  C   UNL A   1      41.913  24.107  27.390  1.00  0.00     0.016 A 
ATOM     35  C   UNL A   1      43.593  25.661  26.556  1.00  0.00     0.016 A 
ATOM     36  C   UNL A   1      41.597  24.994  28.414  1.00  0.00     0.010 A 
ATOM     37  C   UNL A   1      43.273  26.547  27.580  1.00  0.00     0.010 A 
ATOM     38  C   UNL A   1      42.268  26.221  28.506  1.00  0.00    -0.014 A 
BRANCH  38  39
ATOM     39  C   UNL A   1      41.877  27.203  29.539  1.00  0.00     0.031 A 
ATOM     40  C   UNL A   1      42.630  27.243  30.836  1.00  0.00     0.074 A 
ATOM     41  C   UNL A   1      40.844  28.033  29.311  1.00  0.00     0.049 A 
ATOM     42  N   UNL A   1      42.415  27.982  31.892  1.00  0.00    -0.248 NA
ATOM     43  C   UNL A   1      43.773  26.322  30.965  1.00  0.00     0.031 C 
ATOM     44  C   UNL A   1      40.056  28.083  28.078  1.00  0.00     0.029 A 
ATOM     45  N   UNL A   1      40.272  28.985  30.113  1.00  0.00    -0.354 N 
ATOM     46  C   UNL A   1      43.382  27.607  32.815  1.00  0.00     0.074 A 
ATOM     47  C   UNL A   1      44.170  26.558  32.207  1.00  0.00     0.031 C 
ATOM     48  C   UNL A   1      39.098  29.016  28.209  1.00  0.00     0.029 A 
ATOM     49  C   UNL A   1      39.179  29.594  29.548  1.00  0.00     0.049 A 
ATOM     50  H   UNL A   1      40.612  29.210  31.010  1.00  0.00     0.167 HD
ATOM     51  C   UNL A   1      43.590  28.098  34.059  1.00  0.00     0.031 A 
ATOM     52  C   UNL A   1      38.323  30.496  30.065  1.00  0.00     0.031 A 
ATOM     53  C   UNL A   1      42.791  29.136  34.654  1.00  0.00     0.049 A 
ATOM     54  C   UNL A   1      38.548  30.983  31.471  1.00  0.00     0.074 A 
ATOM     55  C   UNL A   1      42.941  29.733  35.893  1.00  0.00     0.029 A 
ATOM     56  N   UNL A   1      41.686  29.721  34.056  1.00  0.00    -0.354 N 
ATOM     57  N   UNL A   1      39.500  30.662  32.316  1.00  0.00    -0.248 NA
ATOM     58  C   UNL A   1      37.585  31.962  31.995  1.00  0.00     0.031 C 
ATOM     59  C   UNL A   1      41.884  30.630  36.072  1.00  0.00     0.029 A 
ATOM     60  C   UNL A   1      41.120  30.645  34.916  1.00  0.00     0.049 A 
ATOM     61  H   UNL A   1      41.353  29.509  33.154  1.00  0.00     0.167 HD
ATOM     62  C   UNL A   1      39.267  31.419  33.456  1.00  0.00     0.074 A 
ATOM     63  C   UNL A   1      38.098  32.231  33.187  1.00  0.00     0.031 C 
ATOM     64  C   UNL A   1      39.955  31.441  34.624  1.00  0.00     0.031 A 
BRANCH  51  65
ATOM     65  C   UNL A   1      44.700  27.497  34.875  1.00  0.00    -0.014 A 
ATOM     66  C   UNL A   1      45.997  28.033  34.858  1.00  0.00     0.009 A 
ATOM     67  C   UNL A   1      44.426  26.410  35.722  1.00  0.00     0.009 A 
ATOM     68  C   UNL A   1      47.002  27.477  35.655  1.00  0.00     0.001 A 
ATOM     69  C   UNL A   1      45.424  25.876  36.537  1.00  0.00     0.001 A 
ATOM     70  C   UNL A   1      46.713  26.406  36.499  1.00  0.00     0.000 A 
ENDBRANCH  51  65
BRANCH  52  71
ATOM     71  C   UNL A   1      37.158  30.970  29.271  1.00  0.00    -0.014 A 
ATOM     72  C   UNL A   1      36.080  30.116  28.994  1.00  0.00     0.009 A 
ATOM     73  C   UNL A   1      37.134  32.278  28.759  1.00  0.00     0.009 A 
ATOM     74  C   UNL A   1      35.021  30.550  28.191  1.00  0.00     0.001 A 
ATOM     75  C   UNL A   1      36.058  32.720  27.985  1.00  0.00     0.001 A 
ATOM     76  C   UNL A   1      35.009  31.851  27.691  1.00  0.00     0.000 A 
ENDBRANCH  52  71
BRANCH  64  77
ATOM     77  C   UNL A   1      39.482  32.399  35.682  1.00  0.00    -0.014 A 
ATOM     78  C   UNL A   1      39.957  33.718  35.738  1.00  0.00     0.009 A 
ATOM     79  C   UNL A   1      38.508  31.986  36.605  1.00  0.00     0.009 A 
ATOM     80  C   UNL A   1      39.492  34.593  36.723  1.00  0.00     0.001 A 
ATOM     81  C   UNL A   1      38.019  32.872  37.564  1.00  0.00     0.001 A 
ATOM     82  C   UNL A   1      38.520  34.171  37.629  1.00  0.00     0.000 A 
ENDBRANCH  64  77
ENDBRANCH  38  39
ENDBRANCH  31  33
ENDBRANCH  30  31
ENDBRANCH  29  30
ENDBRANCH  28  29
ENDBRANCH  27  28
ENDBRANCH   1  27
TORSDOF 17
ENDMDL
