MODEL 1
REMARK VINA RESULT:      -8.5      0.000      0.000
REMARK SMILES CC[C@H]1CC[C@@](C(=O)OCCOCCOC(=O)c2ccc(-c3c4nc(c(-c5ccccc5)c5ccc([nH]5)c(-c5ccccc5)c5nc(c(-c6ccccc6)c6ccc3[nH]6)C=C5)C=C4)cc2)(C2CCCC2)C1
REMARK SMILES IDX 13 1 12 2 11 3 10 4 9 5 7 6 8 7 6 8 3 9 4 10 71 11 5 12 2 13
REMARK SMILES IDX 1 14 66 15 67 16 70 17 68 18 69 19 14 20 15 21 16 22 17 23
REMARK SMILES IDX 18 24 19 25 65 26 20 27 64 28 21 29 22 30 23 31 58 32 24 33
REMARK SMILES IDX 63 34 57 35 59 36 25 37 62 38 56 39 55 40 26 42 48 43 33 44
REMARK SMILES IDX 47 45 34 46 37 47 46 48 60 49 35 50 36 51 45 53 61 54 38 55
REMARK SMILES IDX 27 56 28 57 32 58 29 59 31 60 30 61 49 62 50 63 54 64 51 65
REMARK SMILES IDX 53 66 52 67 39 68 40 69 44 70 41 71 43 72 42 73
REMARK H PARENT 59 41 37 52
REMARK Flexibility Score: inf
ROOT
ATOM      1  C   UNL A   1      40.523  20.297  26.152  1.00  0.00     0.202 C 
ENDROOT
BRANCH   1   2
ATOM      2  O   UNL A   1      41.362  19.746  27.162  1.00  0.00    -0.374 OA
BRANCH   2   3
ATOM      3  C   UNL A   1      42.688  19.375  26.779  1.00  0.00     0.202 C 
BRANCH   3   4
ATOM      4  C   UNL A   1      43.230  19.983  25.482  1.00  0.00     0.261 C 
BRANCH   4   5
ATOM      5  O   UNL A   1      44.210  21.005  25.757  1.00  0.00    -0.463 OA
BRANCH   5   6
ATOM      6  C   UNL A   1      43.965  22.215  25.193  1.00  0.00     0.312 C 
ATOM      7  O   UNL A   1      43.443  22.358  24.090  1.00  0.00    -0.252 OA
BRANCH   6   8
ATOM      8  C   UNL A   1      44.433  23.415  26.046  1.00  0.00     0.071 C 
ATOM      9  C   UNL A   1      44.538  25.835  25.423  1.00  0.00    -0.010 C 
ATOM     10  C   UNL A   1      45.926  25.233  25.225  1.00  0.00     0.005 C 
ATOM     11  C   UNL A   1      43.620  24.612  25.498  1.00  0.00     0.022 C 
ATOM     12  C   UNL A   1      45.911  23.847  25.875  1.00  0.00     0.019 C 
BRANCH   9  13
ATOM     13  C   UNL A   1      44.415  26.754  26.647  1.00  0.00     0.000 C 
ATOM     14  C   UNL A   1      44.232  28.218  26.283  1.00  0.00     0.004 C 
ENDBRANCH   9  13
BRANCH   8  15
ATOM     15  C   UNL A   1      44.075  23.047  27.528  1.00  0.00     0.006 C 
ATOM     16  C   UNL A   1      45.035  23.598  28.597  1.00  0.00     0.005 C 
ATOM     17  C   UNL A   1      42.725  23.503  28.073  1.00  0.00     0.005 C 
ATOM     18  C   UNL A   1      44.281  23.497  29.924  1.00  0.00     0.000 C 
ATOM     19  C   UNL A   1      42.825  23.227  29.565  1.00  0.00     0.000 C 
ENDBRANCH   8  15
ENDBRANCH   6   8
ENDBRANCH   5   6
ENDBRANCH   4   5
ENDBRANCH   3   4
ENDBRANCH   2   3
ENDBRANCH   1   2
BRANCH   1  20
ATOM     20  C   UNL A   1      40.333  21.817  26.146  1.00  0.00     0.261 C 
BRANCH  20  21
ATOM     21  O   UNL A   1      39.015  22.208  26.556  1.00  0.00    -0.460 OA
BRANCH  21  22
ATOM     22  C   UNL A   1      38.617  23.403  26.061  1.00  0.00     0.338 C 
ATOM     23  O   UNL A   1      37.758  23.609  25.212  1.00  0.00    -0.246 OA
BRANCH  22  24
ATOM     24  C   UNL A   1      39.250  24.493  26.818  1.00  0.00     0.060 A 
ATOM     25  C   UNL A   1      38.940  24.594  28.180  1.00  0.00     0.016 A 
ATOM     26  C   UNL A   1      40.087  25.427  26.204  1.00  0.00     0.016 A 
ATOM     27  C   UNL A   1      39.422  25.666  28.924  1.00  0.00     0.010 A 
ATOM     28  C   UNL A   1      40.560  26.510  26.950  1.00  0.00     0.010 A 
ATOM     29  C   UNL A   1      40.197  26.652  28.301  1.00  0.00    -0.014 A 
BRANCH  29  30
ATOM     30  C   UNL A   1      40.479  27.914  29.020  1.00  0.00     0.031 A 
ATOM     31  C   UNL A   1      41.810  28.073  29.701  1.00  0.00     0.074 A 
ATOM     32  C   UNL A   1      39.581  28.912  29.037  1.00  0.00     0.049 A 
ATOM     33  N   UNL A   1      42.265  29.074  30.408  1.00  0.00    -0.248 NA
ATOM     34  C   UNL A   1      42.754  26.950  29.567  1.00  0.00     0.031 C 
ATOM     35  C   UNL A   1      38.281  28.894  28.368  1.00  0.00     0.029 A 
ATOM     36  N   UNL A   1      39.632  30.140  29.646  1.00  0.00    -0.354 N 
ATOM     37  C   UNL A   1      43.543  28.702  30.806  1.00  0.00     0.074 A 
ATOM     38  C   UNL A   1      43.780  27.373  30.288  1.00  0.00     0.031 C 
ATOM     39  C   UNL A   1      37.654  30.059  28.607  1.00  0.00     0.029 A 
ATOM     40  C   UNL A   1      38.493  30.885  29.473  1.00  0.00     0.049 A 
ATOM     41  H   UNL A   1      40.412  30.457  30.158  1.00  0.00     0.167 HD
ATOM     42  C   UNL A   1      44.439  29.407  31.534  1.00  0.00     0.031 A 
ATOM     43  C   UNL A   1      38.159  32.089  29.975  1.00  0.00     0.031 A 
ATOM     44  C   UNL A   1      44.195  30.722  32.061  1.00  0.00     0.049 A 
ATOM     45  C   UNL A   1      39.139  32.815  30.857  1.00  0.00     0.074 A 
ATOM     46  C   UNL A   1      45.041  31.525  32.805  1.00  0.00     0.029 A 
ATOM     47  N   UNL A   1      43.010  31.423  31.905  1.00  0.00    -0.354 N 
ATOM     48  N   UNL A   1      40.352  32.463  31.212  1.00  0.00    -0.248 NA
ATOM     49  C   UNL A   1      38.706  34.110  31.404  1.00  0.00     0.031 C 
ATOM     50  C   UNL A   1      44.347  32.690  33.146  1.00  0.00     0.029 A 
ATOM     51  C   UNL A   1      43.090  32.637  32.564  1.00  0.00     0.049 A 
ATOM     52  H   UNL A   1      42.226  31.103  31.401  1.00  0.00     0.167 HD
ATOM     53  C   UNL A   1      40.835  33.501  31.999  1.00  0.00     0.074 A 
ATOM     54  C   UNL A   1      39.789  34.502  32.059  1.00  0.00     0.031 C 
ATOM     55  C   UNL A   1      42.038  33.619  32.613  1.00  0.00     0.031 A 
BRANCH  42  56
ATOM     56  C   UNL A   1      45.756  28.747  31.833  1.00  0.00    -0.014 A 
ATOM     57  C   UNL A   1      46.860  28.900  30.981  1.00  0.00     0.009 A 
ATOM     58  C   UNL A   1      45.897  27.976  32.997  1.00  0.00     0.009 A 
ATOM     59  C   UNL A   1      48.071  28.267  31.273  1.00  0.00     0.001 A 
ATOM     60  C   UNL A   1      47.116  27.367  33.300  1.00  0.00     0.001 A 
ATOM     61  C   UNL A   1      48.198  27.505  32.433  1.00  0.00     0.000 A 
ENDBRANCH  42  56
BRANCH  43  62
ATOM     62  C   UNL A   1      36.828  32.678  29.676  1.00  0.00    -0.014 A 
ATOM     63  C   UNL A   1      35.765  32.544  30.583  1.00  0.00     0.009 A 
ATOM     64  C   UNL A   1      36.610  33.366  28.472  1.00  0.00     0.009 A 
ATOM     65  C   UNL A   1      34.506  33.068  30.279  1.00  0.00     0.001 A 
ATOM     66  C   UNL A   1      35.358  33.913  28.183  1.00  0.00     0.001 A 
ATOM     67  C   UNL A   1      34.306  33.755  29.083  1.00  0.00     0.000 A 
ENDBRANCH  43  62
BRANCH  55  68
ATOM     68  C   UNL A   1      42.303  34.889  33.371  1.00  0.00    -0.014 A 
ATOM     69  C   UNL A   1      41.907  35.035  34.710  1.00  0.00     0.009 A 
ATOM     70  C   UNL A   1      43.009  35.932  32.751  1.00  0.00     0.009 A 
ATOM     71  C   UNL A   1      42.188  36.215  35.402  1.00  0.00     0.001 A 
ATOM     72  C   UNL A   1      43.314  37.098  33.455  1.00  0.00     0.001 A 
ATOM     73  C   UNL A   1      42.895  37.241  34.777  1.00  0.00     0.000 A 
ENDBRANCH  55  68
ENDBRANCH  29  30
ENDBRANCH  22  24
ENDBRANCH  21  22
ENDBRANCH  20  21
ENDBRANCH   1  20
TORSDOF 16
ENDMDL
MODEL 2
REMARK VINA RESULT:      -8.5      0.382      6.050
REMARK SMILES CC[C@H]1CC[C@@](C(=O)OCCOCCOC(=O)c2ccc(-c3c4nc(c(-c5ccccc5)c5ccc([nH]5)c(-c5ccccc5)c5nc(c(-c6ccccc6)c6ccc3[nH]6)C=C5)C=C4)cc2)(C2CCCC2)C1
REMARK SMILES IDX 13 1 12 2 11 3 10 4 9 5 7 6 8 7 6 8 3 9 4 10 71 11 5 12 2 13
REMARK SMILES IDX 1 14 66 15 67 16 70 17 68 18 69 19 14 20 15 21 16 22 17 23
REMARK SMILES IDX 18 24 19 25 65 26 20 27 64 28 21 29 22 30 23 31 58 32 24 33
REMARK SMILES IDX 63 34 57 35 59 36 25 37 62 38 56 39 55 40 26 42 48 43 33 44
REMARK SMILES IDX 47 45 34 46 37 47 46 48 60 49 35 50 36 51 45 53 61 54 38 55
REMARK SMILES IDX 27 56 28 57 32 58 29 59 31 60 30 61 49 62 50 63 54 64 51 65
REMARK SMILES IDX 53 66 52 67 39 68 40 69 44 70 41 71 43 72 42 73
REMARK H PARENT 59 41 37 52
REMARK Flexibility Score: inf
ROOT
ATOM      1  C   UNL A   1      40.430  20.336  26.203  1.00  0.00     0.202 C 
ENDROOT
BRANCH   1   2
ATOM      2  O   UNL A   1      41.451  19.989  27.133  1.00  0.00    -0.374 OA
BRANCH   2   3
ATOM      3  C   UNL A   1      42.591  19.294  26.624  1.00  0.00     0.202 C 
BRANCH   3   4
ATOM      4  C   UNL A   1      43.267  19.887  25.385  1.00  0.00     0.261 C 
BRANCH   4   5
ATOM      5  O   UNL A   1      44.241  20.886  25.753  1.00  0.00    -0.463 OA
BRANCH   5   6
ATOM      6  C   UNL A   1      44.139  22.070  25.097  1.00  0.00     0.312 C 
ATOM      7  O   UNL A   1      43.812  22.167  23.917  1.00  0.00    -0.252 OA
BRANCH   6   8
ATOM      8  C   UNL A   1      44.505  23.300  25.957  1.00  0.00     0.071 C 
ATOM      9  C   UNL A   1      44.574  25.712  25.293  1.00  0.00    -0.010 C 
ATOM     10  C   UNL A   1      45.992  25.154  25.207  1.00  0.00     0.005 C 
ATOM     11  C   UNL A   1      43.694  24.459  25.327  1.00  0.00     0.022 C 
ATOM     12  C   UNL A   1      45.975  23.780  25.882  1.00  0.00     0.019 C 
BRANCH   9  13
ATOM     13  C   UNL A   1      44.333  26.647  26.485  1.00  0.00     0.000 C 
ATOM     14  C   UNL A   1      45.613  27.241  27.051  1.00  0.00     0.004 C 
ENDBRANCH   9  13
BRANCH   8  15
ATOM     15  C   UNL A   1      44.053  22.948  27.416  1.00  0.00     0.006 C 
ATOM     16  C   UNL A   1      44.985  23.444  28.535  1.00  0.00     0.005 C 
ATOM     17  C   UNL A   1      42.703  23.473  27.895  1.00  0.00     0.005 C 
ATOM     18  C   UNL A   1      44.160  23.380  29.822  1.00  0.00     0.000 C 
ATOM     19  C   UNL A   1      42.712  23.187  29.389  1.00  0.00     0.000 C 
ENDBRANCH   8  15
ENDBRANCH   6   8
ENDBRANCH   5   6
ENDBRANCH   4   5
ENDBRANCH   3   4
ENDBRANCH   2   3
ENDBRANCH   1   2
BRANCH   1  20
ATOM     20  C   UNL A   1      40.178  21.826  25.954  1.00  0.00     0.261 C 
BRANCH  20  21
ATOM     21  O   UNL A   1      38.919  22.267  26.481  1.00  0.00    -0.460 OA
BRANCH  21  22
ATOM     22  C   UNL A   1      38.541  23.492  26.048  1.00  0.00     0.338 C 
ATOM     23  O   UNL A   1      37.644  23.760  25.257  1.00  0.00    -0.246 OA
BRANCH  22  24
ATOM     24  C   UNL A   1      39.258  24.531  26.803  1.00  0.00     0.060 A 
ATOM     25  C   UNL A   1      39.038  24.589  28.184  1.00  0.00     0.016 A 
ATOM     26  C   UNL A   1      40.086  25.461  26.170  1.00  0.00     0.016 A 
ATOM     27  C   UNL A   1      39.602  25.616  28.934  1.00  0.00     0.010 A 
ATOM     28  C   UNL A   1      40.642  26.498  26.923  1.00  0.00     0.010 A 
ATOM     29  C   UNL A   1      40.370  26.599  28.299  1.00  0.00    -0.014 A 
BRANCH  29  30
ATOM     30  C   UNL A   1      40.741  27.822  29.044  1.00  0.00     0.031 A 
ATOM     31  C   UNL A   1      39.740  28.941  29.136  1.00  0.00     0.074 A 
ATOM     32  C   UNL A   1      41.932  27.921  29.657  1.00  0.00     0.049 A 
ATOM     33  N   UNL A   1      39.854  30.109  29.711  1.00  0.00    -0.248 NA
ATOM     34  C   UNL A   1      38.436  28.710  28.490  1.00  0.00     0.031 C 
ATOM     35  C   UNL A   1      42.960  26.882  29.684  1.00  0.00     0.029 A 
ATOM     36  N   UNL A   1      42.474  28.955  30.376  1.00  0.00    -0.354 N 
ATOM     37  C   UNL A   1      38.642  30.753  29.494  1.00  0.00     0.074 A 
ATOM     38  C   UNL A   1      37.819  29.859  28.710  1.00  0.00     0.031 C 
ATOM     39  C   UNL A   1      44.016  27.334  30.383  1.00  0.00     0.029 A 
ATOM     40  C   UNL A   1      43.749  28.703  30.820  1.00  0.00     0.049 A 
ATOM     41  H   UNL A   1      41.996  29.797  30.558  1.00  0.00     0.167 HD
ATOM     42  C   UNL A   1      38.249  31.978  29.915  1.00  0.00     0.031 A 
ATOM     43  C   UNL A   1      44.608  29.498  31.487  1.00  0.00     0.031 A 
ATOM     44  C   UNL A   1      39.074  32.871  30.680  1.00  0.00     0.049 A 
ATOM     45  C   UNL A   1      44.180  30.890  31.865  1.00  0.00     0.074 A 
ATOM     46  C   UNL A   1      38.768  34.131  31.162  1.00  0.00     0.029 A 
ATOM     47  N   UNL A   1      40.377  32.599  31.068  1.00  0.00    -0.354 N 
ATOM     48  N   UNL A   1      43.026  31.482  31.672  1.00  0.00    -0.248 NA
ATOM     49  C   UNL A   1      45.173  31.722  32.561  1.00  0.00     0.031 C 
ATOM     50  C   UNL A   1      39.905  34.643  31.795  1.00  0.00     0.029 A 
ATOM     51  C   UNL A   1      40.899  33.679  31.758  1.00  0.00     0.049 A 
ATOM     52  H   UNL A   1      40.860  31.761  30.879  1.00  0.00     0.167 HD
ATOM     53  C   UNL A   1      43.144  32.743  32.243  1.00  0.00     0.074 A 
ATOM     54  C   UNL A   1      44.478  32.825  32.802  1.00  0.00     0.031 C 
ATOM     55  C   UNL A   1      42.230  33.741  32.305  1.00  0.00     0.031 A 
BRANCH  42  56
ATOM     56  C   UNL A   1      36.873  32.435  29.518  1.00  0.00    -0.014 A 
ATOM     57  C   UNL A   1      36.647  33.098  28.301  1.00  0.00     0.009 A 
ATOM     58  C   UNL A   1      35.785  32.178  30.365  1.00  0.00     0.009 A 
ATOM     59  C   UNL A   1      35.362  33.524  27.958  1.00  0.00     0.001 A 
ATOM     60  C   UNL A   1      34.497  32.581  30.006  1.00  0.00     0.001 A 
ATOM     61  C   UNL A   1      34.288  33.261  28.808  1.00  0.00     0.000 A 
ENDBRANCH  42  56
BRANCH  43  62
ATOM     62  C   UNL A   1      45.970  29.006  31.820  1.00  0.00    -0.014 A 
ATOM     63  C   UNL A   1      46.230  28.402  33.059  1.00  0.00     0.009 A 
ATOM     64  C   UNL A   1      47.023  29.153  30.902  1.00  0.00     0.009 A 
ATOM     65  C   UNL A   1      47.522  27.975  33.381  1.00  0.00     0.001 A 
ATOM     66  C   UNL A   1      48.306  28.701  31.215  1.00  0.00     0.001 A 
ATOM     67  C   UNL A   1      48.556  28.121  32.457  1.00  0.00     0.000 A 
ENDBRANCH  43  62
BRANCH  55  68
ATOM     68  C   UNL A   1      42.626  34.995  33.033  1.00  0.00    -0.014 A 
ATOM     69  C   UNL A   1      42.390  35.146  34.408  1.00  0.00     0.009 A 
ATOM     70  C   UNL A   1      43.294  36.017  32.340  1.00  0.00     0.009 A 
ATOM     71  C   UNL A   1      42.791  36.309  35.068  1.00  0.00     0.001 A 
ATOM     72  C   UNL A   1      43.719  37.166  33.008  1.00  0.00     0.001 A 
ATOM     73  C   UNL A   1      43.459  37.314  34.369  1.00  0.00     0.000 A 
ENDBRANCH  55  68
ENDBRANCH  29  30
ENDBRANCH  22  24
ENDBRANCH  21  22
ENDBRANCH  20  21
ENDBRANCH   1  20
TORSDOF 16
ENDMDL
MODEL 3
REMARK VINA RESULT:      -8.3      4.114      8.886
REMARK SMILES CC[C@H]1CC[C@@](C(=O)OCCOCCOC(=O)c2ccc(-c3c4nc(c(-c5ccccc5)c5ccc([nH]5)c(-c5ccccc5)c5nc(c(-c6ccccc6)c6ccc3[nH]6)C=C5)C=C4)cc2)(C2CCCC2)C1
REMARK SMILES IDX 13 1 12 2 11 3 10 4 9 5 7 6 8 7 6 8 3 9 4 10 71 11 5 12 2 13
REMARK SMILES IDX 1 14 66 15 67 16 70 17 68 18 69 19 14 20 15 21 16 22 17 23
REMARK SMILES IDX 18 24 19 25 65 26 20 27 64 28 21 29 22 30 23 31 58 32 24 33
REMARK SMILES IDX 63 34 57 35 59 36 25 37 62 38 56 39 55 40 26 42 48 43 33 44
REMARK SMILES IDX 47 45 34 46 37 47 46 48 60 49 35 50 36 51 45 53 61 54 38 55
REMARK SMILES IDX 27 56 28 57 32 58 29 59 31 60 30 61 49 62 50 63 54 64 51 65
REMARK SMILES IDX 53 66 52 67 39 68 40 69 44 70 41 71 43 72 42 73
REMARK H PARENT 59 41 37 52
REMARK Flexibility Score: inf
ROOT
ATOM      1  C   UNL A   1      35.580  21.306  25.228  1.00  0.00     0.202 C 
ENDROOT
BRANCH   1   2
ATOM      2  O   UNL A   1      34.356  20.579  25.197  1.00  0.00    -0.374 OA
BRANCH   2   3
ATOM      3  C   UNL A   1      33.353  21.026  24.284  1.00  0.00     0.202 C 
BRANCH   3   4
ATOM      4  C   UNL A   1      33.447  22.478  23.807  1.00  0.00     0.261 C 
BRANCH   4   5
ATOM      5  O   UNL A   1      32.404  23.285  24.390  1.00  0.00    -0.463 OA
BRANCH   5   6
ATOM      6  C   UNL A   1      32.817  24.204  25.300  1.00  0.00     0.312 C 
ATOM      7  O   UNL A   1      33.241  23.913  26.415  1.00  0.00    -0.252 OA
BRANCH   6   8
ATOM      8  C   UNL A   1      32.676  25.668  24.826  1.00  0.00     0.071 C 
ATOM      9  C   UNL A   1      31.472  26.557  22.821  1.00  0.00    -0.010 C 
ATOM     10  C   UNL A   1      32.950  26.419  22.466  1.00  0.00     0.005 C 
ATOM     11  C   UNL A   1      31.321  25.697  24.078  1.00  0.00     0.022 C 
ATOM     12  C   UNL A   1      33.703  26.152  23.773  1.00  0.00     0.019 C 
BRANCH   9  13
ATOM     13  C   UNL A   1      31.002  28.004  23.023  1.00  0.00     0.000 C 
ATOM     14  C   UNL A   1      29.501  28.176  22.858  1.00  0.00     0.004 C 
ENDBRANCH   9  13
BRANCH   8  15
ATOM     15  C   UNL A   1      32.685  26.539  26.130  1.00  0.00     0.006 C 
ATOM     16  C   UNL A   1      33.665  27.725  26.126  1.00  0.00     0.005 C 
ATOM     17  C   UNL A   1      31.386  27.224  26.543  1.00  0.00     0.005 C 
ATOM     18  C   UNL A   1      33.206  28.647  27.256  1.00  0.00     0.000 C 
ATOM     19  C   UNL A   1      31.814  28.172  27.653  1.00  0.00     0.000 C 
ENDBRANCH   8  15
ENDBRANCH   6   8
ENDBRANCH   5   6
ENDBRANCH   4   5
ENDBRANCH   3   4
ENDBRANCH   2   3
ENDBRANCH   1   2
BRANCH   1  20
ATOM     20  C   UNL A   1      36.876  20.516  25.021  1.00  0.00     0.261 C 
BRANCH  20  21
ATOM     21  O   UNL A   1      38.031  21.363  24.946  1.00  0.00    -0.460 OA
BRANCH  21  22
ATOM     22  C   UNL A   1      39.003  21.049  25.833  1.00  0.00     0.338 C 
ATOM     23  O   UNL A   1      39.493  19.946  26.043  1.00  0.00    -0.246 OA
BRANCH  22  24
ATOM     24  C   UNL A   1      39.547  22.277  26.432  1.00  0.00     0.060 A 
ATOM     25  C   UNL A   1      38.942  23.489  26.076  1.00  0.00     0.016 A 
ATOM     26  C   UNL A   1      40.656  22.253  27.281  1.00  0.00     0.016 A 
ATOM     27  C   UNL A   1      39.480  24.691  26.524  1.00  0.00     0.010 A 
ATOM     28  C   UNL A   1      41.201  23.462  27.720  1.00  0.00     0.010 A 
ATOM     29  C   UNL A   1      40.638  24.684  27.311  1.00  0.00    -0.014 A 
BRANCH  29  30
ATOM     30  C   UNL A   1      41.353  25.955  27.559  1.00  0.00     0.031 A 
ATOM     31  C   UNL A   1      40.699  26.992  28.428  1.00  0.00     0.074 A 
ATOM     32  C   UNL A   1      42.576  26.168  27.047  1.00  0.00     0.049 A 
ATOM     33  N   UNL A   1      41.124  28.183  28.761  1.00  0.00    -0.248 NA
ATOM     34  C   UNL A   1      39.388  26.638  28.999  1.00  0.00     0.031 C 
ATOM     35  C   UNL A   1      43.333  25.215  26.235  1.00  0.00     0.029 A 
ATOM     36  N   UNL A   1      43.397  27.263  27.139  1.00  0.00    -0.354 N 
ATOM     37  C   UNL A   1      40.134  28.721  29.574  1.00  0.00     0.074 A 
ATOM     38  C   UNL A   1      39.075  27.741  29.661  1.00  0.00     0.031 C 
ATOM     39  C   UNL A   1      44.510  25.772  25.898  1.00  0.00     0.029 A 
ATOM     40  C   UNL A   1      44.571  27.128  26.440  1.00  0.00     0.049 A 
ATOM     41  H   UNL A   1      43.167  28.069  27.656  1.00  0.00     0.167 HD
ATOM     42  C   UNL A   1      40.113  29.923  30.196  1.00  0.00     0.031 A 
ATOM     43  C   UNL A   1      45.571  28.008  26.246  1.00  0.00     0.031 A 
ATOM     44  C   UNL A   1      41.159  30.902  30.095  1.00  0.00     0.049 A 
ATOM     45  C   UNL A   1      45.482  29.373  26.874  1.00  0.00     0.074 A 
ATOM     46  C   UNL A   1      41.237  32.147  30.691  1.00  0.00     0.029 A 
ATOM     47  N   UNL A   1      42.310  30.747  29.338  1.00  0.00    -0.354 N 
ATOM     48  N   UNL A   1      44.551  29.865  27.656  1.00  0.00    -0.248 NA
ATOM     49  C   UNL A   1      46.587  30.303  26.598  1.00  0.00     0.031 C 
ATOM     50  C   UNL A   1      42.410  32.769  30.251  1.00  0.00     0.029 A 
ATOM     51  C   UNL A   1      43.091  31.886  29.428  1.00  0.00     0.049 A 
ATOM     52  H   UNL A   1      42.538  29.945  28.812  1.00  0.00     0.167 HD
ATOM     53  C   UNL A   1      44.969  31.148  27.986  1.00  0.00     0.074 A 
ATOM     54  C   UNL A   1      46.244  31.353  27.330  1.00  0.00     0.031 C 
ATOM     55  C   UNL A   1      44.356  32.071  28.766  1.00  0.00     0.031 A 
BRANCH  42  56
ATOM     56  C   UNL A   1      38.894  30.256  31.010  1.00  0.00    -0.014 A 
ATOM     57  C   UNL A   1      37.831  30.993  30.465  1.00  0.00     0.009 A 
ATOM     58  C   UNL A   1      38.800  29.806  32.336  1.00  0.00     0.009 A 
ATOM     59  C   UNL A   1      36.713  31.301  31.244  1.00  0.00     0.001 A 
ATOM     60  C   UNL A   1      37.670  30.092  33.103  1.00  0.00     0.001 A 
ATOM     61  C   UNL A   1      36.632  30.847  32.560  1.00  0.00     0.000 A 
ENDBRANCH  42  56
BRANCH  43  62
ATOM     62  C   UNL A   1      46.735  27.638  25.399  1.00  0.00    -0.014 A 
ATOM     63  C   UNL A   1      47.839  26.970  25.951  1.00  0.00     0.009 A 
ATOM     64  C   UNL A   1      46.752  27.964  24.033  1.00  0.00     0.009 A 
ATOM     65  C   UNL A   1      48.945  26.658  25.157  1.00  0.00     0.001 A 
ATOM     66  C   UNL A   1      47.847  27.626  23.236  1.00  0.00     0.001 A 
ATOM     67  C   UNL A   1      48.946  26.981  23.801  1.00  0.00     0.000 A 
ENDBRANCH  43  62
BRANCH  55  68
ATOM     68  C   UNL A   1      45.073  33.374  28.984  1.00  0.00    -0.014 A 
ATOM     69  C   UNL A   1      46.000  33.532  30.026  1.00  0.00     0.009 A 
ATOM     70  C   UNL A   1      44.855  34.442  28.098  1.00  0.00     0.009 A 
ATOM     71  C   UNL A   1      46.672  34.744  30.192  1.00  0.00     0.001 A 
ATOM     72  C   UNL A   1      45.550  35.642  28.250  1.00  0.00     0.001 A 
ATOM     73  C   UNL A   1      46.452  35.795  29.302  1.00  0.00     0.000 A 
ENDBRANCH  55  68
ENDBRANCH  29  30
ENDBRANCH  22  24
ENDBRANCH  21  22
ENDBRANCH  20  21
ENDBRANCH   1  20
TORSDOF 16
ENDMDL
