MODEL 1
REMARK VINA RESULT:     -10.0      0.000      0.000
REMARK SMILES C[NH2+][C@]1(C(=O)OCCOCCOC(=O)c2ccc(-c3c4nc(c(-c5ccccc5)c5ccc([nH]5)c(-c5ccccc5)c5nc(c(-c6ccccc6)c6ccc3[nH]6)C=C5)C=C4)cc2)CC[C@@H](Sc2cc(F)ccc2F)C1
REMARK SMILES IDX 9 1 8 2 7 3 6 4 4 5 5 6 3 7 63 8 75 9 64 10 65 11 2 12 1 13
REMARK SMILES IDX 66 16 67 17 68 18 73 19 69 20 72 21 74 22 70 23 71 24 10 25
REMARK SMILES IDX 11 26 12 27 13 28 14 29 15 30 16 31 62 32 17 33 61 34 18 35
REMARK SMILES IDX 19 36 20 37 55 38 21 39 60 40 54 41 56 42 22 43 59 44 53 45
REMARK SMILES IDX 52 46 23 48 45 49 30 50 44 51 31 52 34 53 43 54 57 55 32 56
REMARK SMILES IDX 33 57 42 59 58 60 35 61 24 62 25 63 29 64 26 65 28 66 27 67
REMARK SMILES IDX 46 68 47 69 51 70 48 71 50 72 49 73 36 74 37 75 41 76 38 77
REMARK SMILES IDX 40 78 39 79
REMARK H PARENT 2 14 2 15 56 47 34 58
REMARK Flexibility Score: inf
ROOT
ATOM      1  O   UNL A   1      36.856  21.793  24.456  1.00  0.00    -0.374 OA
ENDROOT
BRANCH   1   2
ATOM      2  C   UNL A   1      35.697  22.144  25.213  1.00  0.00     0.202 C 
BRANCH   2   3
ATOM      3  C   UNL A   1      34.422  21.363  24.886  1.00  0.00     0.261 C 
BRANCH   3   4
ATOM      4  O   UNL A   1      33.309  22.261  24.753  1.00  0.00    -0.459 OA
BRANCH   4   5
ATOM      5  C   UNL A   1      32.115  21.798  25.220  1.00  0.00     0.368 C 
ATOM      6  O   UNL A   1      31.851  20.610  25.372  1.00  0.00    -0.245 OA
BRANCH   5   7
ATOM      7  C   UNL A   1      31.122  22.953  25.560  1.00  0.00     0.195 C 
ATOM      8  C   UNL A   1      31.679  24.026  26.522  1.00  0.00     0.082 C 
ATOM      9  C   UNL A   1      30.925  23.749  24.255  1.00  0.00     0.096 C 
ATOM     10  C   UNL A   1      30.961  25.318  26.158  1.00  0.00     0.022 C 
ATOM     11  C   UNL A   1      30.677  25.206  24.660  1.00  0.00     0.059 C 
BRANCH   7  12
ATOM     12  N   UNL A   1      29.923  22.311  26.148  1.00  0.00    -0.335 N 
ATOM     13  C   UNL A   1      29.466  22.689  27.465  1.00  0.00     0.331 C 
ATOM     14  H   UNL A   1      29.150  22.491  25.507  1.00  0.00     0.347 HD
ATOM     15  H   UNL A   1      30.217  21.343  26.273  1.00  0.00     0.347 HD
ENDBRANCH   7  12
BRANCH  11  16
ATOM     16  S   UNL A   1      31.555  26.406  23.576  1.00  0.00    -0.119 SA
BRANCH  16  17
ATOM     17  C   UNL A   1      32.252  27.595  24.714  1.00  0.00     0.046 A 
ATOM     18  C   UNL A   1      31.567  28.800  24.910  1.00  0.00     0.057 A 
ATOM     19  C   UNL A   1      33.491  27.426  25.346  1.00  0.00     0.136 A 
ATOM     20  C   UNL A   1      32.107  29.785  25.733  1.00  0.00     0.124 A 
ATOM     21  C   UNL A   1      34.026  28.414  26.174  1.00  0.00     0.043 A 
ATOM     22  F   UNL A   1      34.213  26.313  25.160  1.00  0.00    -0.206 F 
ATOM     23  F   UNL A   1      31.438  30.932  25.911  1.00  0.00    -0.207 F 
ATOM     24  C   UNL A   1      33.331  29.604  26.369  1.00  0.00     0.042 A 
ENDBRANCH  16  17
ENDBRANCH  11  16
ENDBRANCH   5   7
ENDBRANCH   4   5
ENDBRANCH   3   4
ENDBRANCH   2   3
ENDBRANCH   1   2
BRANCH   1  25
ATOM     25  C   UNL A   1      37.718  20.793  24.999  1.00  0.00     0.202 C 
BRANCH  25  26
ATOM     26  C   UNL A   1      38.943  21.299  25.770  1.00  0.00     0.261 C 
BRANCH  26  27
ATOM     27  O   UNL A   1      39.584  20.252  26.521  1.00  0.00    -0.460 OA
BRANCH  27  28
ATOM     28  C   UNL A   1      40.903  20.097  26.259  1.00  0.00     0.338 C 
ATOM     29  O   UNL A   1      41.433  19.198  25.620  1.00  0.00    -0.246 OA
BRANCH  28  30
ATOM     30  C   UNL A   1      41.659  21.278  26.712  1.00  0.00     0.060 A 
ATOM     31  C   UNL A   1      41.654  21.556  28.085  1.00  0.00     0.016 A 
ATOM     32  C   UNL A   1      42.278  22.149  25.813  1.00  0.00     0.016 A 
ATOM     33  C   UNL A   1      42.218  22.737  28.561  1.00  0.00     0.010 A 
ATOM     34  C   UNL A   1      42.835  23.341  26.291  1.00  0.00     0.010 A 
ATOM     35  C   UNL A   1      42.773  23.656  27.661  1.00  0.00    -0.014 A 
BRANCH  35  36
ATOM     36  C   UNL A   1      43.148  25.006  28.145  1.00  0.00     0.031 A 
ATOM     37  C   UNL A   1      42.069  26.032  28.362  1.00  0.00     0.074 A 
ATOM     38  C   UNL A   1      44.427  25.304  28.433  1.00  0.00     0.049 A 
ATOM     39  N   UNL A   1      42.172  27.267  28.780  1.00  0.00    -0.248 NA
ATOM     40  C   UNL A   1      40.690  25.607  28.069  1.00  0.00     0.031 C 
ATOM     41  C   UNL A   1      45.558  24.384  28.319  1.00  0.00     0.029 A 
ATOM     42  N   UNL A   1      44.985  26.472  28.887  1.00  0.00    -0.354 N 
ATOM     43  C   UNL A   1      40.876  27.768  28.799  1.00  0.00     0.074 A 
ATOM     44  C   UNL A   1      40.006  26.714  28.324  1.00  0.00     0.031 C 
ATOM     45  C   UNL A   1      46.679  25.026  28.690  1.00  0.00     0.029 A 
ATOM     46  C   UNL A   1      46.348  26.405  29.041  1.00  0.00     0.049 A 
ATOM     47  H   UNL A   1      44.459  27.280  29.084  1.00  0.00     0.167 HD
ATOM     48  C   UNL A   1      40.445  28.993  29.184  1.00  0.00     0.031 A 
ATOM     49  C   UNL A   1      47.228  27.355  29.411  1.00  0.00     0.031 A 
ATOM     50  C   UNL A   1      41.305  30.049  29.645  1.00  0.00     0.049 A 
ATOM     51  C   UNL A   1      46.734  28.733  29.758  1.00  0.00     0.074 A 
ATOM     52  C   UNL A   1      40.958  31.322  30.066  1.00  0.00     0.029 A 
ATOM     53  N   UNL A   1      42.684  29.957  29.738  1.00  0.00    -0.354 N 
ATOM     54  N   UNL A   1      45.504  29.186  29.792  1.00  0.00    -0.248 NA
ATOM     55  C   UNL A   1      47.752  29.730  30.124  1.00  0.00     0.031 C 
ATOM     56  C   UNL A   1      42.135  32.017  30.367  1.00  0.00     0.029 A 
ATOM     57  C   UNL A   1      43.207  31.159  30.183  1.00  0.00     0.049 A 
ATOM     58  H   UNL A   1      43.214  29.156  29.521  1.00  0.00     0.167 HD
ATOM     59  C   UNL A   1      45.598  30.509  30.205  1.00  0.00     0.074 A 
ATOM     60  C   UNL A   1      47.003  30.782  30.422  1.00  0.00     0.031 C 
ATOM     61  C   UNL A   1      44.609  31.417  30.391  1.00  0.00     0.031 A 
BRANCH  48  62
ATOM     62  C   UNL A   1      38.971  29.267  29.086  1.00  0.00    -0.014 A 
ATOM     63  C   UNL A   1      38.388  29.689  27.880  1.00  0.00     0.009 A 
ATOM     64  C   UNL A   1      38.150  29.072  30.206  1.00  0.00     0.009 A 
ATOM     65  C   UNL A   1      37.016  29.940  27.810  1.00  0.00     0.001 A 
ATOM     66  C   UNL A   1      36.775  29.300  30.127  1.00  0.00     0.001 A 
ATOM     67  C   UNL A   1      36.211  29.742  28.930  1.00  0.00     0.000 A 
ENDBRANCH  48  62
BRANCH  49  68
ATOM     68  C   UNL A   1      48.680  27.042  29.458  1.00  0.00    -0.014 A 
ATOM     69  C   UNL A   1      49.274  26.571  30.638  1.00  0.00     0.009 A 
ATOM     70  C   UNL A   1      49.482  27.232  28.321  1.00  0.00     0.009 A 
ATOM     71  C   UNL A   1      50.648  26.317  30.684  1.00  0.00     0.001 A 
ATOM     72  C   UNL A   1      50.849  26.954  28.364  1.00  0.00     0.001 A 
ATOM     73  C   UNL A   1      51.431  26.504  29.547  1.00  0.00     0.000 A 
ENDBRANCH  49  68
BRANCH  61  74
ATOM     74  C   UNL A   1      45.007  32.780  30.882  1.00  0.00    -0.014 A 
ATOM     75  C   UNL A   1      45.280  33.825  29.985  1.00  0.00     0.009 A 
ATOM     76  C   UNL A   1      45.067  33.033  32.261  1.00  0.00     0.009 A 
ATOM     77  C   UNL A   1      45.635  35.088  30.462  1.00  0.00     0.001 A 
ATOM     78  C   UNL A   1      45.397  34.303  32.735  1.00  0.00     0.001 A 
ATOM     79  C   UNL A   1      45.689  35.328  31.835  1.00  0.00     0.000 A 
ENDBRANCH  61  74
ENDBRANCH  35  36
ENDBRANCH  28  30
ENDBRANCH  27  28
ENDBRANCH  26  27
ENDBRANCH  25  26
ENDBRANCH   1  25
TORSDOF 17
ENDMDL
MODEL 2
REMARK VINA RESULT:      -9.9      4.495      8.379
REMARK SMILES C[NH2+][C@]1(C(=O)OCCOCCOC(=O)c2ccc(-c3c4nc(c(-c5ccccc5)c5ccc([nH]5)c(-c5ccccc5)c5nc(c(-c6ccccc6)c6ccc3[nH]6)C=C5)C=C4)cc2)CC[C@@H](Sc2cc(F)ccc2F)C1
REMARK SMILES IDX 9 1 8 2 7 3 6 4 4 5 5 6 3 7 63 8 75 9 64 10 65 11 2 12 1 13
REMARK SMILES IDX 66 16 67 17 68 18 73 19 69 20 72 21 74 22 70 23 71 24 10 25
REMARK SMILES IDX 11 26 12 27 13 28 14 29 15 30 16 31 62 32 17 33 61 34 18 35
REMARK SMILES IDX 19 36 20 37 55 38 21 39 60 40 54 41 56 42 22 43 59 44 53 45
REMARK SMILES IDX 52 46 23 48 45 49 30 50 44 51 31 52 34 53 43 54 57 55 32 56
REMARK SMILES IDX 33 57 42 59 58 60 35 61 24 62 25 63 29 64 26 65 28 66 27 67
REMARK SMILES IDX 46 68 47 69 51 70 48 71 50 72 49 73 36 74 37 75 41 76 38 77
REMARK SMILES IDX 40 78 39 79
REMARK H PARENT 2 14 2 15 56 47 34 58
REMARK Flexibility Score: inf
ROOT
ATOM      1  O   UNL A   1      32.307  30.620  27.234  1.00  0.00    -0.374 OA
ENDROOT
BRANCH   1   2
ATOM      2  C   UNL A   1      33.224  29.829  26.476  1.00  0.00     0.202 C 
BRANCH   2   3
ATOM      3  C   UNL A   1      32.679  29.234  25.176  1.00  0.00     0.261 C 
BRANCH   3   4
ATOM      4  O   UNL A   1      32.288  27.867  25.379  1.00  0.00    -0.459 OA
BRANCH   4   5
ATOM      5  C   UNL A   1      32.534  27.019  24.341  1.00  0.00     0.368 C 
ATOM      6  O   UNL A   1      33.544  27.058  23.647  1.00  0.00    -0.245 OA
BRANCH   5   7
ATOM      7  C   UNL A   1      31.391  25.974  24.143  1.00  0.00     0.195 C 
ATOM      8  C   UNL A   1      31.575  25.033  22.931  1.00  0.00     0.082 C 
ATOM      9  C   UNL A   1      31.488  25.002  25.335  1.00  0.00     0.096 C 
ATOM     10  C   UNL A   1      30.875  23.735  23.309  1.00  0.00     0.022 C 
ATOM     11  C   UNL A   1      31.017  23.634  24.827  1.00  0.00     0.059 C 
BRANCH   7  12
ATOM     12  N   UNL A   1      30.137  26.750  24.004  1.00  0.00    -0.335 N 
ATOM     13  C   UNL A   1      29.975  27.684  22.914  1.00  0.00     0.331 C 
ATOM     14  H   UNL A   1      29.380  26.071  23.923  1.00  0.00     0.347 HD
ATOM     15  H   UNL A   1      30.145  27.353  24.827  1.00  0.00     0.347 HD
ENDBRANCH   7  12
BRANCH  11  16
ATOM     16  S   UNL A   1      32.050  22.247  25.455  1.00  0.00    -0.119 SA
BRANCH  16  17
ATOM     17  C   UNL A   1      33.729  22.796  25.186  1.00  0.00     0.046 A 
ATOM     18  C   UNL A   1      34.282  22.624  23.911  1.00  0.00     0.057 A 
ATOM     19  C   UNL A   1      34.551  23.299  26.203  1.00  0.00     0.136 A 
ATOM     20  C   UNL A   1      35.609  22.972  23.672  1.00  0.00     0.124 A 
ATOM     21  C   UNL A   1      35.879  23.651  25.957  1.00  0.00     0.043 A 
ATOM     22  F   UNL A   1      34.090  23.442  27.453  1.00  0.00    -0.206 F 
ATOM     23  F   UNL A   1      36.122  22.803  22.447  1.00  0.00    -0.207 F 
ATOM     24  C   UNL A   1      36.414  23.486  24.683  1.00  0.00     0.042 A 
ENDBRANCH  16  17
ENDBRANCH  11  16
ENDBRANCH   5   7
ENDBRANCH   4   5
ENDBRANCH   3   4
ENDBRANCH   2   3
ENDBRANCH   1   2
BRANCH   1  25
ATOM     25  C   UNL A   1      31.533  31.589  26.527  1.00  0.00     0.202 C 
BRANCH  25  26
ATOM     26  C   UNL A   1      31.982  33.048  26.668  1.00  0.00     0.261 C 
BRANCH  26  27
ATOM     27  O   UNL A   1      32.101  33.451  28.045  1.00  0.00    -0.460 OA
BRANCH  27  28
ATOM     28  C   UNL A   1      33.162  34.248  28.309  1.00  0.00     0.338 C 
ATOM     29  O   UNL A   1      33.159  35.462  28.463  1.00  0.00    -0.246 OA
BRANCH  28  30
ATOM     30  C   UNL A   1      34.365  33.436  28.564  1.00  0.00     0.060 A 
ATOM     31  C   UNL A   1      34.187  32.215  29.227  1.00  0.00     0.016 A 
ATOM     32  C   UNL A   1      35.647  33.896  28.253  1.00  0.00     0.016 A 
ATOM     33  C   UNL A   1      35.294  31.473  29.633  1.00  0.00     0.010 A 
ATOM     34  C   UNL A   1      36.758  33.155  28.673  1.00  0.00     0.010 A 
ATOM     35  C   UNL A   1      36.585  31.961  29.397  1.00  0.00    -0.014 A 
BRANCH  35  36
ATOM     36  C   UNL A   1      37.740  31.293  30.042  1.00  0.00     0.031 A 
ATOM     37  C   UNL A   1      38.057  31.604  31.479  1.00  0.00     0.074 A 
ATOM     38  C   UNL A   1      38.473  30.385  29.373  1.00  0.00     0.049 A 
ATOM     39  N   UNL A   1      39.015  31.135  32.237  1.00  0.00    -0.248 NA
ATOM     40  C   UNL A   1      37.175  32.573  32.152  1.00  0.00     0.031 C 
ATOM     41  C   UNL A   1      38.236  29.954  27.996  1.00  0.00     0.029 A 
ATOM     42  N   UNL A   1      39.565  29.658  29.773  1.00  0.00    -0.354 N 
ATOM     43  C   UNL A   1      38.853  31.751  33.472  1.00  0.00     0.074 A 
ATOM     44  C   UNL A   1      37.724  32.647  33.356  1.00  0.00     0.031 C 
ATOM     45  C   UNL A   1      39.162  29.039  27.663  1.00  0.00     0.029 A 
ATOM     46  C   UNL A   1      40.069  28.840  28.792  1.00  0.00     0.049 A 
ATOM     47  H   UNL A   1      39.951  29.717  30.676  1.00  0.00     0.167 HD
ATOM     48  C   UNL A   1      39.575  31.581  34.606  1.00  0.00     0.031 A 
ATOM     49  C   UNL A   1      41.147  28.033  28.802  1.00  0.00     0.031 A 
ATOM     50  C   UNL A   1      40.706  30.701  34.725  1.00  0.00     0.049 A 
ATOM     51  C   UNL A   1      41.981  27.921  30.049  1.00  0.00     0.074 A 
ATOM     52  C   UNL A   1      41.494  30.455  35.837  1.00  0.00     0.029 A 
ATOM     53  N   UNL A   1      41.214  29.928  33.694  1.00  0.00    -0.354 N 
ATOM     54  N   UNL A   1      41.804  28.493  31.216  1.00  0.00    -0.248 NA
ATOM     55  C   UNL A   1      43.161  27.046  29.981  1.00  0.00     0.031 C 
ATOM     56  C   UNL A   1      42.511  29.569  35.463  1.00  0.00     0.029 A 
ATOM     57  C   UNL A   1      42.323  29.225  34.134  1.00  0.00     0.049 A 
ATOM     58  H   UNL A   1      40.842  29.884  32.784  1.00  0.00     0.167 HD
ATOM     59  C   UNL A   1      42.833  28.028  32.026  1.00  0.00     0.074 A 
ATOM     60  C   UNL A   1      43.622  27.119  31.221  1.00  0.00     0.031 C 
ATOM     61  C   UNL A   1      43.100  28.326  33.321  1.00  0.00     0.031 A 
BRANCH  48  62
ATOM     62  C   UNL A   1      39.179  32.397  35.804  1.00  0.00    -0.014 A 
ATOM     63  C   UNL A   1      39.710  33.680  36.017  1.00  0.00     0.009 A 
ATOM     64  C   UNL A   1      38.241  31.889  36.714  1.00  0.00     0.009 A 
ATOM     65  C   UNL A   1      39.330  34.423  37.138  1.00  0.00     0.001 A 
ATOM     66  C   UNL A   1      37.845  32.644  37.820  1.00  0.00     0.001 A 
ATOM     67  C   UNL A   1      38.397  33.906  38.034  1.00  0.00     0.000 A 
ENDBRANCH  48  62
BRANCH  49  68
ATOM     68  C   UNL A   1      41.516  27.274  27.579  1.00  0.00    -0.014 A 
ATOM     69  C   UNL A   1      41.057  25.963  27.384  1.00  0.00     0.009 A 
ATOM     70  C   UNL A   1      42.347  27.856  26.608  1.00  0.00     0.009 A 
ATOM     71  C   UNL A   1      41.441  25.242  26.249  1.00  0.00     0.001 A 
ATOM     72  C   UNL A   1      42.708  27.142  25.464  1.00  0.00     0.001 A 
ATOM     73  C   UNL A   1      42.261  25.834  25.290  1.00  0.00     0.000 A 
ENDBRANCH  49  68
BRANCH  61  74
ATOM     74  C   UNL A   1      44.275  27.640  33.958  1.00  0.00    -0.014 A 
ATOM     75  C   UNL A   1      45.547  28.231  33.965  1.00  0.00     0.009 A 
ATOM     76  C   UNL A   1      44.095  26.404  34.600  1.00  0.00     0.009 A 
ATOM     77  C   UNL A   1      46.623  27.583  34.575  1.00  0.00     0.001 A 
ATOM     78  C   UNL A   1      45.166  25.771  35.230  1.00  0.00     0.001 A 
ATOM     79  C   UNL A   1      46.431  26.357  35.211  1.00  0.00     0.000 A 
ENDBRANCH  61  74
ENDBRANCH  35  36
ENDBRANCH  28  30
ENDBRANCH  27  28
ENDBRANCH  26  27
ENDBRANCH  25  26
ENDBRANCH   1  25
TORSDOF 17
ENDMDL
MODEL 3
REMARK VINA RESULT:      -9.9      3.889      8.626
REMARK SMILES C[NH2+][C@]1(C(=O)OCCOCCOC(=O)c2ccc(-c3c4nc(c(-c5ccccc5)c5ccc([nH]5)c(-c5ccccc5)c5nc(c(-c6ccccc6)c6ccc3[nH]6)C=C5)C=C4)cc2)CC[C@@H](Sc2cc(F)ccc2F)C1
REMARK SMILES IDX 9 1 8 2 7 3 6 4 4 5 5 6 3 7 63 8 75 9 64 10 65 11 2 12 1 13
REMARK SMILES IDX 66 16 67 17 68 18 73 19 69 20 72 21 74 22 70 23 71 24 10 25
REMARK SMILES IDX 11 26 12 27 13 28 14 29 15 30 16 31 62 32 17 33 61 34 18 35
REMARK SMILES IDX 19 36 20 37 55 38 21 39 60 40 54 41 56 42 22 43 59 44 53 45
REMARK SMILES IDX 52 46 23 48 45 49 30 50 44 51 31 52 34 53 43 54 57 55 32 56
REMARK SMILES IDX 33 57 42 59 58 60 35 61 24 62 25 63 29 64 26 65 28 66 27 67
REMARK SMILES IDX 46 68 47 69 51 70 48 71 50 72 49 73 36 74 37 75 41 76 38 77
REMARK SMILES IDX 40 78 39 79
REMARK H PARENT 2 14 2 15 56 47 34 58
REMARK Flexibility Score: inf
ROOT
ATOM      1  O   UNL A   1      32.549  30.668  27.321  1.00  0.00    -0.374 OA
ENDROOT
BRANCH   1   2
ATOM      2  C   UNL A   1      33.341  29.839  26.468  1.00  0.00     0.202 C 
BRANCH   2   3
ATOM      3  C   UNL A   1      32.780  29.589  25.067  1.00  0.00     0.261 C 
BRANCH   3   4
ATOM      4  O   UNL A   1      32.853  28.192  24.743  1.00  0.00    -0.459 OA
BRANCH   4   5
ATOM      5  C   UNL A   1      32.609  27.871  23.441  1.00  0.00     0.368 C 
ATOM      6  O   UNL A   1      33.177  28.392  22.488  1.00  0.00    -0.245 OA
BRANCH   5   7
ATOM      7  C   UNL A   1      31.535  26.747  23.298  1.00  0.00     0.195 C 
ATOM      8  C   UNL A   1      32.050  25.435  22.663  1.00  0.00     0.082 C 
ATOM      9  C   UNL A   1      31.181  26.305  24.731  1.00  0.00     0.096 C 
ATOM     10  C   UNL A   1      31.191  24.327  23.257  1.00  0.00     0.022 C 
ATOM     11  C   UNL A   1      30.824  24.817  24.658  1.00  0.00     0.059 C 
BRANCH   7  12
ATOM     12  N   UNL A   1      30.442  27.318  22.477  1.00  0.00    -0.335 N 
ATOM     13  C   UNL A   1      29.872  28.602  22.813  1.00  0.00     0.331 C 
ATOM     14  H   UNL A   1      30.801  27.397  21.525  1.00  0.00     0.347 HD
ATOM     15  H   UNL A   1      29.670  26.672  22.638  1.00  0.00     0.347 HD
ENDBRANCH   7  12
BRANCH  11  16
ATOM     16  S   UNL A   1      31.514  23.848  26.063  1.00  0.00    -0.119 SA
BRANCH  16  17
ATOM     17  C   UNL A   1      33.200  23.512  25.575  1.00  0.00     0.046 A 
ATOM     18  C   UNL A   1      33.518  22.214  25.157  1.00  0.00     0.057 A 
ATOM     19  C   UNL A   1      34.237  24.448  25.680  1.00  0.00     0.136 A 
ATOM     20  C   UNL A   1      34.833  21.887  24.834  1.00  0.00     0.124 A 
ATOM     21  C   UNL A   1      35.552  24.116  25.351  1.00  0.00     0.043 A 
ATOM     22  F   UNL A   1      34.000  25.692  26.118  1.00  0.00    -0.206 F 
ATOM     23  F   UNL A   1      35.120  20.641  24.434  1.00  0.00    -0.207 F 
ATOM     24  C   UNL A   1      35.854  22.826  24.926  1.00  0.00     0.042 A 
ENDBRANCH  16  17
ENDBRANCH  11  16
ENDBRANCH   5   7
ENDBRANCH   4   5
ENDBRANCH   3   4
ENDBRANCH   2   3
ENDBRANCH   1   2
BRANCH   1  25
ATOM     25  C   UNL A   1      31.644  31.578  26.697  1.00  0.00     0.202 C 
BRANCH  25  26
ATOM     26  C   UNL A   1      31.980  33.068  26.832  1.00  0.00     0.261 C 
BRANCH  26  27
ATOM     27  O   UNL A   1      32.045  33.488  28.208  1.00  0.00    -0.460 OA
BRANCH  27  28
ATOM     28  C   UNL A   1      33.063  34.334  28.491  1.00  0.00     0.338 C 
ATOM     29  O   UNL A   1      32.994  35.540  28.688  1.00  0.00    -0.246 OA
BRANCH  28  30
ATOM     30  C   UNL A   1      34.312  33.582  28.707  1.00  0.00     0.060 A 
ATOM     31  C   UNL A   1      34.326  32.647  29.749  1.00  0.00     0.016 A 
ATOM     32  C   UNL A   1      35.471  33.849  27.976  1.00  0.00     0.016 A 
ATOM     33  C   UNL A   1      35.515  32.014  30.104  1.00  0.00     0.010 A 
ATOM     34  C   UNL A   1      36.668  33.222  28.342  1.00  0.00     0.010 A 
ATOM     35  C   UNL A   1      36.701  32.331  29.430  1.00  0.00    -0.014 A 
BRANCH  35  36
ATOM     36  C   UNL A   1      37.992  31.842  29.969  1.00  0.00     0.031 A 
ATOM     37  C   UNL A   1      38.545  30.533  29.473  1.00  0.00     0.074 A 
ATOM     38  C   UNL A   1      38.690  32.574  30.856  1.00  0.00     0.049 A 
ATOM     39  N   UNL A   1      39.652  29.922  29.806  1.00  0.00    -0.248 NA
ATOM     40  C   UNL A   1      37.741  29.821  28.466  1.00  0.00     0.031 C 
ATOM     41  C   UNL A   1      38.292  33.882  31.374  1.00  0.00     0.029 A 
ATOM     42  N   UNL A   1      39.888  32.315  31.472  1.00  0.00    -0.354 N 
ATOM     43  C   UNL A   1      39.678  28.755  29.053  1.00  0.00     0.074 A 
ATOM     44  C   UNL A   1      38.464  28.728  28.267  1.00  0.00     0.031 C 
ATOM     45  C   UNL A   1      39.230  34.310  32.236  1.00  0.00     0.029 A 
ATOM     46  C   UNL A   1      40.277  33.297  32.349  1.00  0.00     0.049 A 
ATOM     47  H   UNL A   1      40.417  31.503  31.302  1.00  0.00     0.167 HD
ATOM     48  C   UNL A   1      40.631  27.792  29.013  1.00  0.00     0.031 A 
ATOM     49  C   UNL A   1      41.351  33.363  33.160  1.00  0.00     0.031 A 
ATOM     50  C   UNL A   1      41.834  27.806  29.800  1.00  0.00     0.049 A 
ATOM     51  C   UNL A   1      42.356  32.243  33.156  1.00  0.00     0.074 A 
ATOM     52  C   UNL A   1      42.863  26.879  29.820  1.00  0.00     0.029 A 
ATOM     53  N   UNL A   1      42.166  28.794  30.713  1.00  0.00    -0.354 N 
ATOM     54  N   UNL A   1      42.379  31.155  32.424  1.00  0.00    -0.248 NA
ATOM     55  C   UNL A   1      43.487  32.365  34.088  1.00  0.00     0.031 C 
ATOM     56  C   UNL A   1      43.795  27.283  30.783  1.00  0.00     0.029 A 
ATOM     57  C   UNL A   1      43.370  28.486  31.323  1.00  0.00     0.049 A 
ATOM     58  H   UNL A   1      41.626  29.595  30.900  1.00  0.00     0.167 HD
ATOM     59  C   UNL A   1      43.535  30.477  32.788  1.00  0.00     0.074 A 
ATOM     60  C   UNL A   1      44.194  31.282  33.796  1.00  0.00     0.031 C 
ATOM     61  C   UNL A   1      44.012  29.295  32.327  1.00  0.00     0.031 A 
BRANCH  48  62
ATOM     62  C   UNL A   1      40.387  26.619  28.106  1.00  0.00    -0.014 A 
ATOM     63  C   UNL A   1      39.656  25.502  28.542  1.00  0.00     0.009 A 
ATOM     64  C   UNL A   1      40.869  26.644  26.789  1.00  0.00     0.009 A 
ATOM     65  C   UNL A   1      39.441  24.421  27.685  1.00  0.00     0.001 A 
ATOM     66  C   UNL A   1      40.632  25.573  25.927  1.00  0.00     0.001 A 
ATOM     67  C   UNL A   1      39.926  24.459  26.378  1.00  0.00     0.000 A 
ENDBRANCH  48  62
BRANCH  49  68
ATOM     68  C   UNL A   1      41.527  34.529  34.064  1.00  0.00    -0.014 A 
ATOM     69  C   UNL A   1      40.943  34.540  35.340  1.00  0.00     0.009 A 
ATOM     70  C   UNL A   1      42.267  35.645  33.644  1.00  0.00     0.009 A 
ATOM     71  C   UNL A   1      41.080  35.657  36.168  1.00  0.00     0.001 A 
ATOM     72  C   UNL A   1      42.423  36.749  34.485  1.00  0.00     0.001 A 
ATOM     73  C   UNL A   1      41.823  36.757  35.742  1.00  0.00     0.000 A 
ENDBRANCH  49  68
BRANCH  61  74
ATOM     74  C   UNL A   1      45.321  28.814  32.885  1.00  0.00    -0.014 A 
ATOM     75  C   UNL A   1      46.543  29.202  32.312  1.00  0.00     0.009 A 
ATOM     76  C   UNL A   1      45.333  27.996  34.026  1.00  0.00     0.009 A 
ATOM     77  C   UNL A   1      47.749  28.754  32.854  1.00  0.00     0.001 A 
ATOM     78  C   UNL A   1      46.540  27.571  34.580  1.00  0.00     0.001 A 
ATOM     79  C   UNL A   1      47.747  27.944  33.990  1.00  0.00     0.000 A 
ENDBRANCH  61  74
ENDBRANCH  35  36
ENDBRANCH  28  30
ENDBRANCH  27  28
ENDBRANCH  26  27
ENDBRANCH  25  26
ENDBRANCH   1  25
TORSDOF 17
ENDMDL
